4cp7_ligand
  -I-interpret- 

118120  0  0  0  0  0  0  0  0999 V2000
    4.5320   25.3650    0.2410 C   0  0  0  0  0
    5.8710   25.6740    0.8880 C   0  0  0  0  0
    6.1100   25.2980    2.3050 C   0  0  0  0  0
    7.4890   24.9450    2.5020 C   0  0  0  0  0
    8.5080   25.8300    2.1330 C   0  0  0  0  0
    9.8590   25.4720    2.3320 C   0  0  0  0  0
    7.8190   23.7050    3.0700 C   0  0  0  0  0
    9.1580   23.3560    3.2650 C   0  0  0  0  0
   10.1790   24.2450    2.8940 C   0  0  0  0  0
   11.5500   23.8880    3.0940 C   0  0  0  0  0
   10.8400   24.4680    5.5340 C   0  0  0  0  0
   10.4780   23.4380    6.1140 O   0  0  0  0  0
   10.2580   25.6660    5.7080 N   0  0  0  0  0
    9.0810   25.8350    6.6370 C   0  0  0  0  0
    9.5240   26.4260    8.1110 C   0  0  0  0  0
   10.9580   25.9690    8.4650 C   0  0  0  0  0
    9.4430   27.9800    8.1210 C   0  0  0  0  0
    8.0300   26.8090    5.9210 C   0  0  0  0  0
    8.3720   27.9300    5.4790 O   0  0  0  0  0
    6.8460   26.3480    5.8300 N   0  0  0  0  0
    5.7930   27.0980    5.2140 C   0  0  0  0  0
    5.0490   27.8110    6.2570 C   0  0  0  0  0
    4.4980   27.0470    7.4350 C   0  0  0  0  0
   12.5580   25.7690    4.3300 O   0  0  0  0  0
   13.1540   23.5640    4.9980 C   0  0  0  0  0
   13.7710   24.1380    6.2130 C   0  0  0  0  0
   15.1900   23.6960    6.2780 C   0  0  0  0  0
   15.2980   22.3420    6.8410 N   0  3  0  0  0
   15.9110   21.6620    6.1250 N   0  0  0  0  0
   15.2710   20.6170    5.5200 C   0  0  0  0  0
   12.0610   24.4530    4.5020 C   0  0  0  0  0
   14.0600   20.3380    5.6800 O   0  0  0  0  0
   16.1870   19.7750    4.6110 C   0  0  0  0  0
   15.3930   19.0510    3.4750 C   0  0  0  0  0
   14.5460   20.0760    2.6880 C   0  0  0  0  0
   14.4620   17.9620    4.0900 C   0  0  0  0  0
   16.4290   18.3600    2.4960 C   0  0  0  0  0
   16.8500   18.7810    5.4560 N   0  0  0  0  0
   18.1230   18.7640    5.5940 C   0  0  0  0  0
   18.8250   19.6030    4.9980 O   0  0  0  0  0
   18.7180   17.7920    6.4210 O   0  0  0  0  0
   20.0400   18.1640    6.7590 C   0  0  0  0  0
   16.0470   22.4680    8.0050 C   0  0  0  0  0
   16.2280   21.1870    8.7470 C   0  0  0  0  0
   15.1620   20.5850    9.3490 C   0  0  0  0  0
   15.3330   19.3790   10.0540 C   0  0  0  0  0
   17.5120   20.5940    8.8370 C   0  0  0  0  0
   17.6790   19.3900    9.5420 C   0  0  0  0  0
   16.5780   18.7860   10.1470 C   0  0  0  0  0
   16.7290   17.5680   10.8740 C   0  0  0  0  0
   17.9020   17.3900   11.6610 C   0  0  0  0  0
   18.0980   16.2280   12.3950 C   0  0  0  0  0
   17.1520   15.2300   12.3720 N   0  0  0  0  0
   15.9800   15.3890   11.6010 C   0  0  0  0  0
   15.7770   16.5870   10.8450 C   0  0  0  0  0
    4.3585   24.2891    0.2640 H   0  0  0  0  0
    3.7391   25.8740    0.7890 H   0  0  0  0  0
    4.5409   25.7109   -0.7926 H   0  0  0  0  0
    5.9358   26.7620    0.8782 H   0  0  0  0  0
    6.5918   25.0836    0.3222 H   0  0  0  0  0
    5.4842   24.4416    2.5562 H   0  0  0  0  0
    5.8652   26.1463    2.9442 H   0  0  0  0  0
    8.2589   26.7952    1.6922 H   0  0  0  0  0
   10.6524   26.1614    2.0433 H   0  0  0  0  0
    7.0289   23.0123    3.3598 H   0  0  0  0  0
    9.4101   22.3916    3.7060 H   0  0  0  0  0
   12.1534   24.3173    2.2942 H   0  0  0  0  0
   11.6431   22.8020    3.0875 H   0  0  0  0  0
   10.6181   26.4759    5.2032 H   0  0  0  0  0
    8.6331   24.8601    6.8294 H   0  0  0  0  0
    8.8348   26.0346    8.8592 H   0  0  0  0  0
   10.9945   24.8800    8.4925 H   0  0  0  0  0
   11.6523   26.3381    7.7102 H   0  0  0  0  0
   11.2346   26.3679    9.4410 H   0  0  0  0  0
   10.1131   28.3824    7.3612 H   0  0  0  0  0
    8.4204   28.2906    7.9067 H   0  0  0  0  0
    9.7390   28.3517    9.1020 H   0  0  0  0  0
    6.6429   25.4215    6.2053 H   0  0  0  0  0
    5.1244   26.4246    4.6778 H   0  0  0  0  0
    6.2133   27.8122    4.5059 H   0  0  0  0  0
    4.1691   28.2042    5.7478 H   0  0  0  0  0
    5.7740   28.5000    6.6903 H   0  0  0  0  0
    3.8008   26.2880    7.0802 H   0  0  0  0  0
    5.3172   26.5676    7.9708 H   0  0  0  0  0
    3.9792   27.7353    8.1023 H   0  0  0  0  0
   12.8642   26.1071    5.1747 H   0  0  0  0  0
   12.7359   22.5867    5.2390 H   0  0  0  0  0
   13.9149   23.4695    4.2233 H   0  0  0  0  0
   13.2348   23.7967    7.0985 H   0  0  0  0  0
   13.7224   25.2263    6.1755 H   0  0  0  0  0
   15.7407   24.3848    6.9186 H   0  0  0  0  0
   15.5990   23.6871    5.2677 H   0  0  0  0  0
   14.3711   21.9439    6.9917 H   0  0  0  0  0
   16.9004   21.8404    5.9528 H   0  0  0  0  0
   16.9052   20.4341    4.1233 H   0  0  0  0  0
   13.8430   20.5609    3.3653 H   0  0  0  0  0
   15.2028   20.8254    2.2464 H   0  0  0  0  0
   13.9967   19.5622    1.8991 H   0  0  0  0  0
   15.0657   17.2320    4.6292 H   0  0  0  0  0
   13.7590   18.4327    4.7773 H   0  0  0  0  0
   13.9127   17.4626    3.2919 H   0  0  0  0  0
   17.0832   19.1189    2.0668 H   0  0  0  0  0
   17.0254   17.6366    3.0519 H   0  0  0  0  0
   15.8888   17.8507    1.6980 H   0  0  0  0  0
   16.2858   18.0866    5.9457 H   0  0  0  0  0
   20.6320   18.2633    5.8492 H   0  0  0  0  0
   20.0238   19.1162    7.2892 H   0  0  0  0  0
   20.4794   17.3982    7.3982 H   0  0  0  0  0
   15.5112   23.1517    8.6635 H   0  0  0  0  0
   17.0379   22.8193    7.7171 H   0  0  0  0  0
   14.1737   21.0400    9.2837 H   0  0  0  0  0
   14.4743   18.9075   10.5319 H   0  0  0  0  0
   18.3684   21.0709    8.3603 H   0  0  0  0  0
   18.6647   18.9306    9.6154 H   0  0  0  0  0
   18.6562   18.1765   11.6876 H   0  0  0  0  0
   19.0029   16.1065   12.9904 H   0  0  0  0  0
   15.2294   14.5989   11.5816 H   0  0  0  0  0
   14.8719   16.7162   10.2516 H   0  0  0  0  0
  2  1  1  0  0  0
  3  2  1  0  0  0
  4  3  1  0  0  0
  5  4  4  0  0  0
  7  4  4  0  0  0
  6  5  4  0  0  0
  9  6  4  0  0  0
  8  7  4  0  0  0
  9  8  4  0  0  0
 10  9  1  0  0  0
 31 10  1  0  0  0
 11 12  2  0  0  0
 11 13  1  0  0  0
 31 11  1  0  0  0
 13 14  1  0  0  0
 14 15  1  0  0  0
 14 18  1  0  0  0
 15 16  1  0  0  0
 15 17  1  0  0  0
 18 19  2  0  0  0
 18 20  1  0  0  0
 20 21  1  0  0  0
 21 22  1  0  0  0
 22 23  1  0  0  0
 31 24  1  0  0  0
 25 26  1  0  0  0
 25 31  1  0  0  0
 26 27  1  0  0  0
 27 28  1  0  0  0
 28 29  1  0  0  0
 28 43  1  0  0  0
 29 30  1  0  0  0
 30 32  2  0  0  0
 30 33  1  0  0  0
 33 34  1  0  0  0
 33 38  1  0  0  0
 34 35  1  0  0  0
 34 36  1  0  0  0
 34 37  1  0  0  0
 38 39  1  0  0  0
 39 40  2  0  0  0
 39 41  1  0  0  0
 41 42  1  0  0  0
 43 44  1  0  0  0
 44 45  4  0  0  0
 44 47  4  0  0  0
 45 46  4  0  0  0
 46 49  4  0  0  0
 47 48  4  0  0  0
 48 49  4  0  0  0
 49 50  1  0  0  0
 50 51  4  0  0  0
 50 55  4  0  0  0
 51 52  4  0  0  0
 52 53  4  0  0  0
 53 54  4  0  0  0
 54 55  4  0  0  0
  1 56  1  0  0  0
  1 57  1  0  0  0
  1 58  1  0  0  0
  2 59  1  0  0  0
  2 60  1  0  0  0
  3 61  1  0  0  0
  3 62  1  0  0  0
  5 63  1  0  0  0
  6 64  1  0  0  0
  7 65  1  0  0  0
  8 66  1  0  0  0
 10 67  1  0  0  0
 10 68  1  0  0  0
 13 69  1  0  0  0
 14 70  1  0  0  0
 15 71  1  0  0  0
 16 72  1  0  0  0
 16 73  1  0  0  0
 16 74  1  0  0  0
 17 75  1  0  0  0
 17 76  1  0  0  0
 17 77  1  0  0  0
 20 78  1  0  0  0
 21 79  1  0  0  0
 21 80  1  0  0  0
 22 81  1  0  0  0
 22 82  1  0  0  0
 23 83  1  0  0  0
 23 84  1  0  0  0
 23 85  1  0  0  0
 24 86  1  0  0  0
 25 87  1  0  0  0
 25 88  1  0  0  0
 26 89  1  0  0  0
 26 90  1  0  0  0
 27 91  1  0  0  0
 27 92  1  0  0  0
 28 93  1  0  0  0
 29 94  1  0  0  0
 33 95  1  0  0  0
 35 96  1  0  0  0
 35 97  1  0  0  0
 35 98  1  0  0  0
 36 99  1  0  0  0
 36100  1  0  0  0
 36101  1  0  0  0
 37102  1  0  0  0
 37103  1  0  0  0
 37104  1  0  0  0
 38105  1  0  0  0
 42106  1  0  0  0
 42107  1  0  0  0
 42108  1  0  0  0
 43109  1  0  0  0
 43110  1  0  0  0
 45111  1  0  0  0
 46112  1  0  0  0
 47113  1  0  0  0
 48114  1  0  0  0
 51115  1  0  0  0
 52116  1  0  0  0
 54117  1  0  0  0
 55118  1  0  0  0
M  END
$$$$
