4j7e_ligand
  -I-interpret- 

 72 75  0  0  0  0  0  0  0  0999 V2000
  -12.9310   -8.6110    2.6400 N   0  0  0  0  0
  -12.0370   -9.2260    1.6600 C   0  0  0  0  0
  -10.9710   -8.2450    1.1580 C   0  0  0  0  0
  -12.8520   -9.8120    0.5040 C   0  0  0  0  0
  -11.4070  -10.3430    2.5550 C   0  0  0  0  0
  -10.0910   -9.8370    3.1590 C   0  0  0  0  0
  -11.1660  -11.6310    1.8160 C   0  0  0  0  0
  -12.4010  -10.5380    3.6380 N   0  0  0  0  0
  -13.2760   -9.6090    3.5950 C   0  0  0  0  0
  -14.5760   -9.5710    4.3480 C   0  0  0  0  0
  -14.2280  -10.0450    0.6660 C   0  0  0  0  0
  -14.9600  -10.6800   -0.3340 C   0  0  0  0  0
  -14.3210  -11.0940   -1.5050 C   0  0  0  0  0
  -15.2120  -12.0490   -2.6930 Cl  0  0  0  0  0
  -12.9720  -10.7800   -1.7200 C   0  0  0  0  0
  -12.2390  -10.1410   -0.7120 C   0  0  0  0  0
   -9.9150  -11.8730    1.2350 C   0  0  0  0  0
   -9.6870  -13.0560    0.5380 C   0  0  0  0  0
  -10.7170  -13.9920    0.4130 C   0  0  0  0  0
  -10.4580  -15.4410   -0.5380 Cl  0  0  0  0  0
  -11.9550  -13.7710    1.0190 C   0  0  0  0  0
  -12.1750  -12.5870    1.7190 C   0  0  0  0  0
  -13.6600   -7.3950    2.3510 C   0  0  0  0  0
  -13.6410   -6.9130    1.2010 O   0  0  0  0  0
  -14.3700   -6.7620    3.3980 N   0  0  0  0  0
  -15.6670   -6.1570    3.1190 C   0  0  0  0  0
  -16.5210   -6.1860    4.3670 C   0  0  0  0  0
  -15.9330   -5.3210    5.3980 N   0  3  0  0  0
  -14.4720   -5.5950    5.6230 C   0  0  0  0  0
  -13.9430   -6.8180    4.8210 C   0  0  0  0  0
  -16.2200   -4.4040    7.6850 C   0  0  0  0  0
  -17.2530   -4.2380    8.8070 C   0  0  0  0  0
  -16.5660   -4.7100   10.3830 S   0  0  0  0  0
  -17.8950   -4.5140   11.5520 C   0  0  0  0  0
  -15.4990   -3.7740   10.7290 O   0  0  0  0  0
  -16.1990   -6.1230   10.3270 O   0  0  0  0  0
  -16.7120   -5.4250    6.6550 C   0  0  0  0  0
  -10.4836   -7.7724    2.0108 H   0  0  0  0  0
  -10.2306   -8.7855    0.5683 H   0  0  0  0  0
  -11.4436   -7.4821    0.5393 H   0  0  0  0  0
  -10.2670   -8.8895    3.6682 H   0  0  0  0  0
   -9.7147  -10.5700    3.8726 H   0  0  0  0  0
   -9.3594   -9.6932    2.3639 H   0  0  0  0  0
  -15.1843  -10.4296    4.0637 H   0  0  0  0  0
  -14.3753   -9.6049    5.4188 H   0  0  0  0  0
  -15.1080   -8.6510    4.1057 H   0  0  0  0  0
  -14.7264   -9.7263    1.5815 H   0  0  0  0  0
  -16.0282  -10.8534   -0.2034 H   0  0  0  0  0
  -12.4955  -11.0320   -2.6674 H   0  0  0  0  0
  -11.1886   -9.8990   -0.8741 H   0  0  0  0  0
   -9.1191  -11.1342    1.3287 H   0  0  0  0  0
   -8.7115  -13.2510    0.0926 H   0  0  0  0  0
  -12.7438  -14.5196    0.9449 H   0  0  0  0  0
  -13.1402  -12.4077    2.1927 H   0  0  0  0  0
  -16.1645   -6.7171    2.3272 H   0  0  0  0  0
  -15.5236   -5.1238    2.8028 H   0  0  0  0  0
  -16.5724   -7.2079    4.7428 H   0  0  0  0  0
  -17.5214   -5.8270    4.1254 H   0  0  0  0  0
  -15.9855   -4.3599    5.0604 H   0  0  0  0  0
  -14.3378   -5.8135    6.6824 H   0  0  0  0  0
  -13.9177   -4.7180    5.2888 H   0  0  0  0  0
  -12.8536   -6.8085    4.8553 H   0  0  0  0  0
  -14.3486   -7.7257    5.2679 H   0  0  0  0  0
  -15.2821   -4.7560    8.1145 H   0  0  0  0  0
  -16.0738   -3.4432    7.1914 H   0  0  0  0  0
  -18.1083   -4.8787    8.5924 H   0  0  0  0  0
  -17.5516   -3.1908    8.8552 H   0  0  0  0  0
  -17.5276   -4.7241   12.5565 H   0  0  0  0  0
  -18.2688   -3.4911   11.5070 H   0  0  0  0  0
  -18.6992   -5.2073   11.3055 H   0  0  0  0  0
  -16.5858   -6.4270    7.0651 H   0  0  0  0  0
  -17.7611   -5.2261    6.4361 H   0  0  0  0  0
  1  2  1  0  0  0
  1  9  1  0  0  0
 23  1  1  0  0  0
  2  3  1  0  0  0
  2  4  1  0  0  0
  2  5  1  0  0  0
  4 11  4  0  0  0
  4 16  4  0  0  0
  5  6  1  0  0  0
  5  7  1  0  0  0
  8  5  1  0  0  0
  7 17  4  0  0  0
  7 22  4  0  0  0
  9  8  2  0  0  0
  9 10  1  0  0  0
 11 12  4  0  0  0
 12 13  4  0  0  0
 13 14  1  0  0  0
 15 13  4  0  0  0
 16 15  4  0  0  0
 17 18  4  0  0  0
 18 19  4  0  0  0
 19 20  1  0  0  0
 21 19  4  0  0  0
 22 21  4  0  0  0
 23 24  2  0  0  0
 25 23  1  0  0  0
 26 25  1  0  0  0
 30 25  1  0  0  0
 27 26  1  0  0  0
 28 27  1  0  0  0
 28 29  1  0  0  0
 37 28  1  0  0  0
 29 30  1  0  0  0
 31 32  1  0  0  0
 31 37  1  0  0  0
 32 33  1  0  0  0
 33 34  1  0  0  0
 33 35  2  0  0  0
 33 36  2  0  0  0
  3 38  1  0  0  0
  3 39  1  0  0  0
  3 40  1  0  0  0
  6 41  1  0  0  0
  6 42  1  0  0  0
  6 43  1  0  0  0
 10 44  1  0  0  0
 10 45  1  0  0  0
 10 46  1  0  0  0
 11 47  1  0  0  0
 12 48  1  0  0  0
 15 49  1  0  0  0
 16 50  1  0  0  0
 17 51  1  0  0  0
 18 52  1  0  0  0
 21 53  1  0  0  0
 22 54  1  0  0  0
 26 55  1  0  0  0
 26 56  1  0  0  0
 27 57  1  0  0  0
 27 58  1  0  0  0
 28 59  1  0  0  0
 29 60  1  0  0  0
 29 61  1  0  0  0
 30 62  1  0  0  0
 30 63  1  0  0  0
 31 64  1  0  0  0
 31 65  1  0  0  0
 32 66  1  0  0  0
 32 67  1  0  0  0
 34 68  1  0  0  0
 34 69  1  0  0  0
 34 70  1  0  0  0
 37 71  1  0  0  0
 37 72  1  0  0  0
M  END
$$$$
