5ai8_ligand
  -I-interpret- 

 19 20  0  0  0  0  0  0  0  0999 V2000
   18.6560  -10.4190  -13.7310 C   0  0  0  0  0
   17.8270  -10.1870  -12.5190 C   0  0  0  0  0
   16.4570  -10.3030  -12.5950 C   0  0  0  0  0
   15.6330  -10.1000  -11.5110 C   0  0  0  0  0
   16.2480   -9.7720  -10.3120 C   0  0  0  0  0
   17.6300   -9.6540  -10.2560 C   0  0  0  0  0
   18.4560   -9.8520  -11.3410 C   0  0  0  0  0
   18.0890   -9.2390   -8.6560 S   0  0  0  0  0
   16.4410   -9.2500   -8.1620 C   0  0  0  0  0
   15.5960   -9.5390   -9.1270 N   0  0  0  0  0
   16.0970   -8.9650   -6.8880 N   0  0  0  0  0
   18.4943  -11.4350  -14.0912 H   0  0  0  0  0
   18.3711   -9.7076  -14.5062 H   0  0  0  0  0
   19.7083  -10.2839  -13.4812 H   0  0  0  0  0
   16.0067  -10.5662  -13.5521 H   0  0  0  0  0
   14.5499  -10.1926  -11.5912 H   0  0  0  0  0
   19.5389   -9.7499  -11.2711 H   0  0  0  0  0
   16.8185   -8.7391   -6.2033 H   0  0  0  0  0
   15.1156   -8.9756   -6.6102 H   0  0  0  0  0
  1  2  1  0  0  0
  2  3  4  0  0  0
  2  7  4  0  0  0
  3  4  4  0  0  0
  4  5  4  0  0  0
  5  6  4  0  0  0
  5 10  4  0  0  0
  6  7  4  0  0  0
  6  8  4  0  0  0
  8  9  4  0  0  0
  9 10  4  0  0  0
  9 11  1  0  0  0
  1 12  1  0  0  0
  1 13  1  0  0  0
  1 14  1  0  0  0
  3 15  1  0  0  0
  4 16  1  0  0  0
  7 17  1  0  0  0
 11 18  1  0  0  0
 11 19  1  0  0  0
M  END
$$$$
