3aza_ligand
  -I-interpret- 

 31 33  0  0  0  0  0  0  0  0999 V2000
   -4.5750   27.8180   17.5800 C   0  0  0  0  0
   -3.8640   26.6140   17.6650 C   0  0  0  0  0
   -3.1720   26.1170   16.5610 C   0  0  0  0  0
   -3.1960   26.8440   15.3680 C   0  0  0  0  0
   -3.9060   28.0470   15.2860 C   0  0  0  0  0
   -4.5990   28.5400   16.3900 C   0  0  0  0  0
   -5.3800   29.8370   16.3410 C   0  0  0  0  0
   -5.0970   30.6300   15.1670 O   0  0  0  0  0
   -4.0810   31.5510   15.1800 C   0  0  0  0  0
   -3.2370   31.7130   14.0900 C   0  0  0  0  0
   -2.2130   32.6590   14.1250 C   0  0  0  0  0
   -2.0080   33.4410   15.2580 C   0  0  0  0  0
   -2.8590   33.2720   16.3430 C   0  0  0  0  0
   -3.8880   32.3330   16.3010 C   0  0  0  0  0
   -4.7180   32.1530   17.3480 N   0  0  0  0  0
   -4.5880   32.8690   18.4590 C   0  0  0  0  0
   -3.5760   33.8110   18.5400 C   0  0  0  0  0
   -2.6970   34.0290   17.4880 C   0  0  0  0  0
   -0.6770   34.6540   15.3160 Cl  0  0  0  0  0
   -5.1129   28.1919   18.4512 H   0  0  0  0  0
   -3.8515   26.0600   18.6036 H   0  0  0  0  0
   -2.6222   25.1782   16.6275 H   0  0  0  0  0
   -2.6584   26.4718   14.4959 H   0  0  0  0  0
   -3.9171   28.6041   14.3492 H   0  0  0  0  0
   -5.0957   30.4260   17.2130 H   0  0  0  0  0
   -6.4398   29.5830   16.3195 H   0  0  0  0  0
   -3.3754   31.0971   13.2014 H   0  0  0  0  0
   -1.5668   32.7873   13.2566 H   0  0  0  0  0
   -5.2691   32.7172   19.2964 H   0  0  0  0  0
   -3.4670   34.3961   19.4531 H   0  0  0  0  0
   -1.9043   34.7734   17.5625 H   0  0  0  0  0
  1  2  4  0  0  0
  1  6  4  0  0  0
  2  3  4  0  0  0
  3  4  4  0  0  0
  4  5  4  0  0  0
  5  6  4  0  0  0
  6  7  1  0  0  0
  7  8  1  0  0  0
  8  9  1  0  0  0
  9 10  4  0  0  0
  9 14  4  0  0  0
 10 11  4  0  0  0
 11 12  4  0  0  0
 12 13  4  0  0  0
 12 19  1  0  0  0
 13 14  4  0  0  0
 13 18  4  0  0  0
 14 15  4  0  0  0
 15 16  4  0  0  0
 16 17  4  0  0  0
 17 18  4  0  0  0
  1 20  1  0  0  0
  2 21  1  0  0  0
  3 22  1  0  0  0
  4 23  1  0  0  0
  5 24  1  0  0  0
  7 25  1  0  0  0
  7 26  1  0  0  0
 10 27  1  0  0  0
 11 28  1  0  0  0
 16 29  1  0  0  0
 17 30  1  0  0  0
 18 31  1  0  0  0
M  END
$$$$
