3hwn_ligand
  -I-interpret- 

 65 67  0  0  0  0  0  0  0  0999 V2000
   31.3450  -25.7520  -13.7640 C   0  0  0  0  0
   31.1810  -25.8080  -15.1490 C   0  0  0  0  0
   30.3370  -25.2050  -12.9660 C   0  0  0  0  0
   30.0290  -25.3140  -15.7470 C   0  0  0  0  0
   29.1810  -24.7060  -13.5680 C   0  0  0  0  0
   29.0300  -24.7610  -14.9630 C   0  0  0  0  0
   28.0680  -24.1430  -12.7970 C   0  0  0  0  0
   24.8050  -23.2110  -13.0440 C   0  0  0  0  0
   24.2370  -21.9040  -12.6790 N   0  3  0  0  0
   32.8530  -27.7910  -13.4980 C   0  0  0  0  0
   31.0350  -29.3410  -14.1770 C   0  0  0  0  0
   29.9000  -30.2100  -13.7660 C   0  0  0  0  0
   35.2790  -28.0690  -13.0850 N   0  0  0  0  0
   36.5090  -28.5360  -12.4410 C   0  0  0  0  0
   37.3020  -27.3270  -11.9130 C   0  0  0  0  0
   28.6370  -30.2850  -15.9370 C   0  0  0  0  0
   27.8580  -32.2760  -11.4760 C   0  0  0  0  0
   28.4750  -32.1100  -10.0770 C   0  0  0  0  0
   27.9060  -33.7500  -11.8760 C   0  0  0  0  0
   26.3810  -31.8790  -11.4050 C   0  0  0  0  0
   38.5990  -27.4860  -11.7650 N   0  0  0  0  0
   33.9920  -28.3770  -12.7000 C   0  0  0  0  0
   33.7640  -29.1090  -11.7570 O   0  0  0  0  0
   31.7140  -28.6630  -13.2110 N   0  0  0  0  0
   31.3790  -29.2020  -15.3320 O   0  0  0  0  0
   29.7080  -30.7400  -12.5100 C   0  0  0  0  0
   28.5350  -31.4520  -12.5720 C   0  0  0  0  0
   28.0650  -31.3440  -13.8410 N   0  0  0  0  0
   28.8490  -30.6180  -14.5190 N   0  0  0  0  0
   32.6070  -26.3130  -13.1180 C   0  0  0  0  0
   27.0240  -23.9530  -13.3570 O   0  0  0  0  0
   26.2240  -23.5140  -12.5680 C   0  0  0  0  0
   26.7950  -23.3890  -11.3450 N   0  0  0  0  0
   27.9840  -23.8110  -11.4920 N   0  0  0  0  0
   31.9653  -26.2440  -15.7677 H   0  0  0  0  0
   30.4525  -25.1683  -11.8828 H   0  0  0  0  0
   29.9114  -25.3613  -16.8296 H   0  0  0  0  0
   28.1263  -24.3684  -15.4290 H   0  0  0  0  0
   24.8504  -23.2198  -14.1330 H   0  0  0  0  0
   24.1676  -23.9544  -12.5652 H   0  0  0  0  0
   23.2919  -21.8283  -13.0551 H   0  0  0  0  0
   24.2077  -21.8192  -11.6630 H   0  0  0  0  0
   24.8190  -21.1615  -13.0667 H   0  0  0  0  0
   33.0548  -27.7599  -14.5687 H   0  0  0  0  0
   35.3850  -27.4581  -13.8949 H   0  0  0  0  0
   37.1149  -29.0797  -13.1658 H   0  0  0  0  0
   36.2568  -29.1959  -11.6109 H   0  0  0  0  0
   36.8116  -26.3836  -11.6731 H   0  0  0  0  0
   28.5673  -29.2029  -16.0483 H   0  0  0  0  0
   29.4746  -30.6589  -16.5258 H   0  0  0  0  0
   27.7127  -30.7475  -16.2832 H   0  0  0  0  0
   27.9085  -32.7028   -9.3588 H   0  0  0  0  0
   29.5102  -32.4508  -10.0951 H   0  0  0  0  0
   28.4420  -31.0592   -9.7891 H   0  0  0  0  0
   28.9423  -34.0876  -11.8906 H   0  0  0  0  0
   27.3406  -34.3396  -11.1543 H   0  0  0  0  0
   27.4692  -33.8705  -12.8674 H   0  0  0  0  0
   25.8668  -32.5233  -10.6919 H   0  0  0  0  0
   26.3002  -30.8409  -11.0826 H   0  0  0  0  0
   25.9282  -31.9912  -12.3901 H   0  0  0  0  0
   39.0330  -28.3794  -11.9969 H   0  0  0  0  0
   31.4144  -28.7680  -12.2417 H   0  0  0  0  0
   30.3559  -30.6191  -11.6418 H   0  0  0  0  0
   32.4865  -26.2575  -12.0361 H   0  0  0  0  0
   33.4562  -25.7274  -13.4701 H   0  0  0  0  0
  1  2  4  0  0  0
  3  1  4  0  0  0
  1 30  1  0  0  0
  4  2  4  0  0  0
  5  3  4  0  0  0
  6  4  4  0  0  0
  5  6  4  0  0  0
  7  5  1  0  0  0
 31  7  4  0  0  0
  7 34  4  0  0  0
  8  9  1  0  0  0
 32  8  1  0  0  0
 10 22  1  0  0  0
 10 24  1  0  0  0
 30 10  1  0  0  0
 11 12  1  0  0  0
 24 11  1  0  0  0
 11 25  2  0  0  0
 12 26  4  0  0  0
 12 29  4  0  0  0
 13 14  1  0  0  0
 22 13  1  0  0  0
 14 15  1  0  0  0
 15 21  2  0  0  0
 29 16  1  0  0  0
 17 18  1  0  0  0
 17 19  1  0  0  0
 17 20  1  0  0  0
 27 17  1  0  0  0
 22 23  2  0  0  0
 26 27  4  0  0  0
 28 27  4  0  0  0
 29 28  4  0  0  0
 31 32  4  0  0  0
 32 33  4  0  0  0
 33 34  4  0  0  0
  2 35  1  0  0  0
  3 36  1  0  0  0
  4 37  1  0  0  0
  6 38  1  0  0  0
  8 39  1  0  0  0
  8 40  1  0  0  0
  9 41  1  0  0  0
  9 42  1  0  0  0
  9 43  1  0  0  0
 10 44  1  0  0  0
 13 45  1  0  0  0
 14 46  1  0  0  0
 14 47  1  0  0  0
 15 48  1  0  0  0
 16 49  1  0  0  0
 16 50  1  0  0  0
 16 51  1  0  0  0
 18 52  1  0  0  0
 18 53  1  0  0  0
 18 54  1  0  0  0
 19 55  1  0  0  0
 19 56  1  0  0  0
 19 57  1  0  0  0
 20 58  1  0  0  0
 20 59  1  0  0  0
 20 60  1  0  0  0
 21 61  1  0  0  0
 24 62  1  0  0  0
 26 63  1  0  0  0
 30 64  1  0  0  0
 30 65  1  0  0  0
M  END
$$$$
