### 
### Created by X-TOOL on Mon Sep 10 21:13:02 2018
### 

@<TRIPOS>MOLECULE
3hwn_ligand
   65    67     1     0     0
SMALL
GAST_HUCK


@<TRIPOS>ATOM
      1 C1         31.3450  -25.7520  -13.7640 C.ar      1 BD3        -0.0356
      2 C2         31.1810  -25.8080  -15.1490 C.ar      1 BD3        -0.0579
      3 C3         30.3370  -25.2050  -12.9660 C.ar      1 BD3        -0.0446
      4 C4         30.0290  -25.3140  -15.7470 C.ar      1 BD3        -0.0652
      5 C5         29.1810  -24.7060  -13.5680 C.ar      1 BD3         0.0350
      6 C6         29.0300  -24.7610  -14.9630 C.ar      1 BD3        -0.0527
      7 C7         28.0680  -24.1430  -12.7970 C.2       1 BD3         0.2162
      8 C12        24.8050  -23.2110  -13.0440 C.3       1 BD3         0.0581
      9 N13        24.2370  -21.9040  -12.6790 N.4       1 BD3         0.2385
     10 C15        32.8530  -27.7910  -13.4980 C.3       1 BD3         0.1401
     11 C17        31.0350  -29.3410  -14.1770 C.2       1 BD3         0.2402
     12 C18        29.9000  -30.2100  -13.7660 C.2       1 BD3         0.1801
     13 N22        35.2790  -28.0690  -13.0850 N.am      1 BD3        -0.2650
     14 C23        36.5090  -28.5360  -12.4410 C.3       1 BD3         0.0897
     15 C24        37.3020  -27.3270  -11.9130 C.2       1 BD3         0.0176
     16 C30        28.6370  -30.2850  -15.9370 C.3       1 BD3         0.0743
     17 C31        27.8580  -32.2760  -11.4760 C.3       1 BD3        -0.0318
     18 C32        28.4750  -32.1100  -10.0770 C.3       1 BD3        -0.0806
     19 C33        27.9060  -33.7500  -11.8760 C.3       1 BD3        -0.0806
     20 C34        26.3810  -31.8790  -11.4050 C.3       1 BD3        -0.0806
     21 N25        38.5990  -27.4860  -11.7650 N.2       1 BD3        -0.3621
     22 C20        33.9920  -28.3770  -12.7000 C.2       1 BD3         0.2066
     23 O21        33.7640  -29.1090  -11.7570 O.2       1 BD3        -0.3941
     24 N16        31.7140  -28.6630  -13.2110 N.am      1 BD3        -0.2607
     25 O19        31.3790  -29.2020  -15.3320 O.2       1 BD3        -0.3812
     26 C29        29.7080  -30.7400  -12.5100 C.2       1 BD3        -0.0090
     27 C28        28.5350  -31.4520  -12.5720 C.2       1 BD3         0.0357
     28 N27        28.0650  -31.3440  -13.8410 N.2       1 BD3        -0.1461
     29 N26        28.8490  -30.6180  -14.5190 N.pl3     1 BD3        -0.1563
     30 C14        32.6070  -26.3130  -13.1180 C.3       1 BD3         0.0218
     31 O11        27.0240  -23.9530  -13.3570 O.3       1 BD3        -0.1854
     32 C10        26.2240  -23.5140  -12.5680 C.2       1 BD3         0.2456
     33 N9         26.7950  -23.3890  -11.3450 N.2       1 BD3        -0.2427
     34 N8         27.9840  -23.8110  -11.4920 N.2       1 BD3        -0.2459
     35 H1         31.9610  -26.2416  -15.7643 H         1 BD3         0.0576
     36 H2         30.4518  -25.1685  -11.8887 H         1 BD3         0.0583
     37 H3         29.9121  -25.3610  -16.8237 H         1 BD3         0.0606
     38 H4         28.1312  -24.3705  -15.4265 H         1 BD3         0.0591
     39 H5         24.8033  -23.2773  -14.1420 H         1 BD3         0.1094
     40 H6         24.1443  -23.9863  -12.6288 H         1 BD3         0.1094
     41 H7         23.3029  -21.8281  -13.0502 H         1 BD3         0.2015
     42 H8         24.8113  -21.1693  -13.0617 H         1 BD3         0.2015
     43 H9         24.2075  -21.8190  -11.6750 H         1 BD3         0.2015
     44 H10        33.0864  -27.8348  -14.5721 H         1 BD3         0.0823
     45 H11        35.3830  -27.4701  -13.8791 H         1 BD3         0.1894
     46 H12        37.1205  -29.0845  -13.1725 H         1 BD3         0.0803
     47 H13        36.2544  -29.2018  -11.6032 H         1 BD3         0.0803
     48 H14        36.8121  -26.3844  -11.6733 H         1 BD3         0.1222
     49 H15        27.7044  -30.7512  -16.2876 H         1 BD3         0.0637
     50 H16        29.4817  -30.6618  -16.5324 H         1 BD3         0.0637
     51 H17        28.5664  -29.1932  -16.0507 H         1 BD3         0.0637
     52 H18        27.9267  -32.7362   -9.3578 H         1 BD3         0.0147
     53 H19        28.4092  -31.0558   -9.7699 H         1 BD3         0.0147
     54 H20        29.5303  -32.4193  -10.1026 H         1 BD3         0.0147
     55 H21        27.4655  -33.8729  -12.8764 H         1 BD3         0.0147
     56 H22        27.3357  -34.3462  -11.1485 H         1 BD3         0.0147
     57 H23        28.9514  -34.0920  -11.8912 H         1 BD3         0.0147
     58 H24        26.2993  -30.8200  -11.1188 H         1 BD3         0.0147
     59 H25        25.8695  -32.5016  -10.6562 H         1 BD3         0.0147
     60 H26        25.9130  -32.0300  -12.3889 H         1 BD3         0.0147
     61 H27        39.1642  -26.7249  -11.4224 H         1 BD3         0.1054
     62 H28        31.4203  -28.7660  -12.2607 H         1 BD3         0.1877
     63 H29        30.3553  -30.6192  -11.6426 H         1 BD3         0.0542
     64 H30        32.5071  -26.2407  -12.0249 H         1 BD3         0.0473
     65 H31        33.4692  -25.7148  -13.4478 H         1 BD3         0.0473
@<TRIPOS>BOND
     1    1    2 ar 
     2    3    1 ar 
     3    1   30 1  
     4    4    2 ar 
     5    5    3 ar 
     6    6    4 ar 
     7    5    6 ar 
     8    7    5 1  
     9   31    7 1  
    10    7   34 2  
    11    8    9 1  
    12   32    8 1  
    13   10   22 1  
    14   10   24 1  
    15   30   10 1  
    16   11   12 1  
    17   24   11 am 
    18   11   25 2  
    19   12   26 2  
    20   12   29 1  
    21   13   14 1  
    22   22   13 am 
    23   14   15 1  
    24   15   21 2  
    25   29   16 1  
    26   17   18 1  
    27   17   19 1  
    28   17   20 1  
    29   27   17 1  
    30   22   23 2  
    31   26   27 1  
    32   28   27 2  
    33   29   28 1  
    34   31   32 1  
    35   32   33 2  
    36   33   34 1  
    37    2   35 1  
    38    3   36 1  
    39    4   37 1  
    40    6   38 1  
    41    8   39 1  
    42    8   40 1  
    43    9   41 1  
    44    9   42 1  
    45    9   43 1  
    46   10   44 1  
    47   13   45 1  
    48   14   46 1  
    49   14   47 1  
    50   15   48 1  
    51   16   49 1  
    52   16   50 1  
    53   16   51 1  
    54   18   52 1  
    55   18   53 1  
    56   18   54 1  
    57   19   55 1  
    58   19   56 1  
    59   19   57 1  
    60   20   58 1  
    61   20   59 1  
    62   20   60 1  
    63   21   61 1  
    64   24   62 1  
    65   26   63 1  
    66   30   64 1  
    67   30   65 1  
@<TRIPOS>SUBSTRUCTURE
     1 BD3         1

