### 
### Created by X-TOOL on Mon Sep 10 21:13:29 2018
### 

@<TRIPOS>MOLECULE
5a3s_ligand
   59    63     1     0     0
SMALL
GAST_HUCK


@<TRIPOS>ATOM
      1 PG         58.7410  -14.3270   21.8410 P.3       1 128         0.1879
      2 O1G        57.1840  -14.4220   22.1870 O.co2     1 128        -0.6091
      3 O2G        59.3660  -13.2300   22.8150 O.co2     1 128        -0.6091
      4 O3G        58.8290  -13.8770   20.4600 O.co2     1 128        -0.6091
      5 PB         59.7650  -16.9990   21.3820 P.3       1 128         0.3553
      6 O1B        60.9170  -17.8480   21.9520 O.co2     1 128        -0.5652
      7 O2B        59.9870  -16.6470   19.9280 O.co2     1 128        -0.5652
      8 O3B        59.5680  -15.6490   22.1910 O.3       1 128        -0.1546
      9 PA         57.9220  -18.6530   23.0000 P.3       1 128         0.3266
     10 O1A        58.5460  -17.9870   24.2960 O.co2     1 128        -0.5692
     11 O2A        56.4140  -18.6610   22.8530 O.co2     1 128        -0.5692
     12 O3A        58.4460  -17.8210   21.6980 O.3       1 128        -0.1171
     13 O5'        58.5750  -20.1560   22.7160 O.3       1 128        -0.2441
     14 C5'        57.7320  -21.1970   22.1570 C.3       1 128         0.1131
     15 C4'        58.5140  -22.1960   21.3370 C.3       1 128         0.1175
     16 O4'        57.9180  -22.1670   19.9820 O.3       1 128        -0.3365
     17 C3'        60.0170  -22.0340   21.1690 C.3       1 128         0.1010
     18 O3'        60.6720  -23.2210   21.6330 O.3       1 128        -0.4077
     19 C2'        60.2680  -21.9540   19.6610 C.3       1 128         0.1251
     20 O2'        61.0480  -23.1190   19.3450 O.3       1 128        -0.4054
     21 C1'        58.8710  -22.0320   18.9740 C.3       1 128         0.1996
     22 N9         58.4550  -20.8840   18.2450 N.pl3     1 128        -0.1920
     23 C8         57.8730  -19.7530   18.7320 C.2       1 128         0.1123
     24 N7         57.5910  -18.8600   17.8320 N.2       1 128        -0.2958
     25 C5         58.0170  -19.4440   16.6430 C.ar      1 128         0.1045
     26 C6         58.0060  -19.0070   15.2690 C.ar      1 128         0.1298
     27 N6         57.5180  -17.8100   14.8760 N.pl3     1 128        -0.3152
     28 N1         58.5140  -19.8500   14.3440 N.ar      1 128        -0.2698
     29 C2         58.9900  -21.0300   14.7490 C.ar      1 128         0.0533
     30 N3         59.0600  -21.5480   15.9750 N.ar      1 128        -0.2714
     31 C4         58.5550  -20.7060   16.8910 C.ar      1 128         0.1613
     32 C1F        61.3110  -23.8630   20.5350 C.3       1 128         0.2110
     33 C2F        62.8210  -23.8760   20.7800 C.2       1 128         0.2069
     34 C3F        63.5390  -25.0140   20.9610 C.2       1 128         0.0587
     35 C4F        63.0110  -26.2920   20.9240 C.2       1 128         0.2783
     36 C5F        61.7240  -26.4570   20.7060 C.2       1 128         0.0740
     37 C6F        60.7690  -25.3180   20.4770 C.3       1 128         0.2630
     38 N2F        63.5860  -22.6410   20.8650 N.2       1 128         0.3015
     39 N4F        63.8170  -27.4620   21.1180 N.2       1 128         0.3272
     40 N6F        59.2940  -25.6520   20.2440 N.2       1 128         0.3140
     41 O2F        64.7570  -22.7220   21.0740 O.2       1 128         0.1726
     42 O3F        63.0160  -21.5730   20.7180 O.2       1 128         0.1726
     43 O4F        63.2430  -28.5410   21.0680 O.2       1 128         0.1744
     44 O5F        65.0040  -27.3300   21.3210 O.2       1 128         0.1744
     45 O6F        58.9480  -26.8200   20.2340 O.2       1 128         0.1908
     46 O7F        58.5090  -24.7520   20.0640 O.2       1 128         0.1908
     47 H1         56.9733  -20.7287   21.5128 H         1 128         0.0648
     48 H2         57.2351  -21.7293   22.9814 H         1 128         0.0648
     49 H3         58.3500  -23.1840   21.7920 H         1 128         0.0650
     50 H4         60.3867  -21.1416   21.6952 H         1 128         0.0633
     51 H5         60.7959  -21.0314   19.3780 H         1 128         0.0661
     52 H6         58.8607  -22.9046   18.3044 H         1 128         0.0995
     53 H7         57.6612  -19.6091   19.7905 H         1 128         0.1349
     54 H8         57.5352  -17.5488   13.8798 H         1 128         0.1820
     55 H9         57.1288  -17.1587   15.5726 H         1 128         0.1820
     56 H10        59.3789  -21.6635   13.9600 H         1 128         0.0996
     57 H11        64.6070  -24.9135   21.1487 H         1 128         0.1304
     58 H12        61.3295  -27.4719   20.6906 H         1 128         0.1572
     59 H13        60.9546  -25.3485   19.3932 H         1 128         0.0988
@<TRIPOS>BOND
     1    1    2 ar 
     2    1    3 ar 
     3    1    4 ar 
     4    8    1 1  
     5    5    6 ar 
     6    5    7 ar 
     7    5    8 1  
     8   12    5 1  
     9    9   10 ar 
    10    9   11 ar 
    11    9   12 1  
    12    9   13 1  
    13   13   14 1  
    14   14   15 1  
    15   15   16 1  
    16   15   17 1  
    17   16   21 1  
    18   17   18 1  
    19   17   19 1  
    20   18   32 1  
    21   19   20 1  
    22   19   21 1  
    23   20   32 1  
    24   21   22 1  
    25   22   23 1  
    26   22   31 1  
    27   23   24 2  
    28   24   25 1  
    29   25   26 ar 
    30   25   31 ar 
    31   26   27 1  
    32   26   28 ar 
    33   28   29 ar 
    34   29   30 ar 
    35   30   31 ar 
    36   32   33 1  
    37   32   37 1  
    38   33   34 2  
    39   33   38 1  
    40   34   35 1  
    41   35   36 2  
    42   35   39 1  
    43   36   37 1  
    44   37   40 1  
    45   38   41 2  
    46   38   42 2  
    47   39   43 2  
    48   39   44 2  
    49   40   45 2  
    50   40   46 2  
    51   14   47 1  
    52   14   48 1  
    53   15   49 1  
    54   17   50 1  
    55   19   51 1  
    56   21   52 1  
    57   23   53 1  
    58   27   54 1  
    59   27   55 1  
    60   29   56 1  
    61   34   57 1  
    62   36   58 1  
    63   37   59 1  
@<TRIPOS>SUBSTRUCTURE
     1 128         1

