5a3s_ligand
  -I-interpret- 

 63 67  0  0  0  0  0  0  0  0999 V2000
   58.7410  -14.3270   21.8410 P   0  0  0  0  0
   57.1840  -14.4220   22.1870 O   0  0  0  0  0
   59.3660  -13.2300   22.8150 O   0  0  0  0  0
   58.8290  -13.8770   20.4600 O   0  0  0  0  0
   59.7650  -16.9990   21.3820 P   0  0  0  0  0
   60.9170  -17.8480   21.9520 O   0  0  0  0  0
   59.9870  -16.6470   19.9280 O   0  0  0  0  0
   59.5680  -15.6490   22.1910 O   0  0  0  0  0
   57.9220  -18.6530   23.0000 P   0  0  0  0  0
   58.5460  -17.9870   24.2960 O   0  0  0  0  0
   56.4140  -18.6610   22.8530 O   0  0  0  0  0
   58.4460  -17.8210   21.6980 O   0  0  0  0  0
   58.5750  -20.1560   22.7160 O   0  0  0  0  0
   57.7320  -21.1970   22.1570 C   0  0  0  0  0
   58.5140  -22.1960   21.3370 C   0  0  0  0  0
   57.9180  -22.1670   19.9820 O   0  0  0  0  0
   60.0170  -22.0340   21.1690 C   0  0  0  0  0
   60.6720  -23.2210   21.6330 O   0  0  0  0  0
   60.2680  -21.9540   19.6610 C   0  0  0  0  0
   61.0480  -23.1190   19.3450 O   0  0  0  0  0
   58.8710  -22.0320   18.9740 C   0  0  0  0  0
   58.4550  -20.8840   18.2450 N   0  0  0  0  0
   57.8730  -19.7530   18.7320 C   0  0  0  0  0
   57.5910  -18.8600   17.8320 N   0  0  0  0  0
   58.0170  -19.4440   16.6430 C   0  0  0  0  0
   58.0060  -19.0070   15.2690 C   0  0  0  0  0
   57.5180  -17.8100   14.8760 N   0  0  0  0  0
   58.5140  -19.8500   14.3440 N   0  0  0  0  0
   58.9900  -21.0300   14.7490 C   0  0  0  0  0
   59.0600  -21.5480   15.9750 N   0  0  0  0  0
   58.5550  -20.7060   16.8910 C   0  0  0  0  0
   61.3110  -23.8630   20.5350 C   0  0  0  0  0
   62.8210  -23.8760   20.7800 C   0  0  0  0  0
   63.5390  -25.0140   20.9610 C   0  0  0  0  0
   63.0110  -26.2920   20.9240 C   0  0  0  0  0
   61.7240  -26.4570   20.7060 C   0  0  0  0  0
   60.7690  -25.3180   20.4770 C   0  0  0  0  0
   63.5860  -22.6410   20.8650 N   0  0  0  0  0
   63.8170  -27.4620   21.1180 N   0  0  0  0  0
   59.2940  -25.6520   20.2440 N   0  0  0  0  0
   64.7570  -22.7220   21.0740 O   0  0  0  0  0
   63.0160  -21.5730   20.7180 O   0  0  0  0  0
   63.2430  -28.5410   21.0680 O   0  0  0  0  0
   65.0040  -27.3300   21.3210 O   0  0  0  0  0
   58.9480  -26.8200   20.2340 O   0  0  0  0  0
   58.5090  -24.7520   20.0640 O   0  0  0  0  0
   57.0764  -14.7170   23.0942 H   0  0  0  0  0
   59.3030  -13.5364   23.7226 H   0  0  0  0  0
   60.7388  -18.0496   22.8735 H   0  0  0  0  0
   59.5031  -18.0520   24.2586 H   0  0  0  0  0
   57.0013  -20.7226   21.5020 H   0  0  0  0  0
   57.2654  -21.7323   22.9839 H   0  0  0  0  0
   58.4340  -23.1227   21.9052 H   0  0  0  0  0
   60.3797  -21.1620   21.7132 H   0  0  0  0  0
   60.7815  -21.0481   19.3390 H   0  0  0  0  0
   58.9579  -22.8572   18.2672 H   0  0  0  0  0
   57.6610  -19.6089   19.7914 H   0  0  0  0  0
   57.1326  -17.1650   15.5658 H   0  0  0  0  0
   57.5350  -17.5513   13.8895 H   0  0  0  0  0
   59.3811  -21.6670   13.9556 H   0  0  0  0  0
   64.6080  -24.9134   21.1489 H   0  0  0  0  0
   61.3291  -27.4728   20.6906 H   0  0  0  0  0
   60.3928  -24.5773   19.7714 H   0  0  0  0  0
  1  2  1  0  0  0
  1  3  1  0  0  0
  1  4  2  0  0  0
  8  1  1  0  0  0
  5  6  1  0  0  0
  5  7  2  0  0  0
  5  8  1  0  0  0
 12  5  1  0  0  0
  9 10  1  0  0  0
  9 11  2  0  0  0
  9 12  1  0  0  0
  9 13  1  0  0  0
 13 14  1  0  0  0
 14 15  1  0  0  0
 15 16  1  0  0  0
 15 17  1  0  0  0
 16 21  1  0  0  0
 17 18  1  0  0  0
 17 19  1  0  0  0
 18 32  1  0  0  0
 19 20  1  0  0  0
 19 21  1  0  0  0
 20 32  1  0  0  0
 21 22  1  0  0  0
 22 23  4  0  0  0
 22 31  4  0  0  0
 23 24  4  0  0  0
 24 25  4  0  0  0
 25 26  4  0  0  0
 25 31  4  0  0  0
 26 27  1  0  0  0
 26 28  4  0  0  0
 28 29  4  0  0  0
 29 30  4  0  0  0
 30 31  4  0  0  0
 32 33  1  0  0  0
 32 37  1  0  0  0
 33 34  2  0  0  0
 33 38  1  0  0  0
 34 35  1  0  0  0
 35 36  2  0  0  0
 35 39  1  0  0  0
 36 37  1  0  0  0
 37 40  1  0  0  0
 38 41  2  0  0  0
 38 42  2  0  0  0
 39 43  2  0  0  0
 39 44  2  0  0  0
 40 45  2  0  0  0
 40 46  2  0  0  0
  2 47  1  0  0  0
  3 48  1  0  0  0
  6 49  1  0  0  0
 10 50  1  0  0  0
 14 51  1  0  0  0
 14 52  1  0  0  0
 15 53  1  0  0  0
 17 54  1  0  0  0
 19 55  1  0  0  0
 21 56  1  0  0  0
 23 57  1  0  0  0
 27 58  1  0  0  0
 27 59  1  0  0  0
 29 60  1  0  0  0
 34 61  1  0  0  0
 36 62  1  0  0  0
 37 63  1  0  0  0
M  END
$$$$
