2hmb_ligand
  -I-interpret- 

 50 49  0  0  0  0  0  0  0  0999 V2000
   19.6970   33.9740   53.5800 C   0  0  0  0  0
   19.6530   34.9550   52.8820 O   0  0  0  0  0
   19.2260   32.8230   53.2130 O   0  0  0  0  0
   20.3350   33.9660   54.9600 C   0  0  0  0  0
   21.4940   34.9450   55.0220 C   0  0  0  0  0
   22.3710   34.8190   56.2570 C   0  0  0  0  0
   23.5050   35.8330   56.2400 C   0  0  0  0  0
   24.0490   36.2020   57.6130 C   0  0  0  0  0
   23.8200   35.1500   58.6860 C   0  0  0  0  0
   23.1690   35.7290   59.9310 C   0  0  0  0  0
   22.6830   34.6630   60.8930 C   0  0  0  0  0
   21.5650   35.1480   61.7950 C   0  0  0  0  0
   20.2070   34.6720   61.3310 C   0  0  0  0  0
   19.5470   35.7190   60.4620 C   0  0  0  0  0
   18.1690   35.3270   59.9830 C   0  0  0  0  0
   17.7080   36.2150   58.8510 C   0  0  0  0  0
   18.0490   35.6100   57.5020 C   0  0  0  0  0
   19.3970   36.0460   56.9540 C   0  0  0  0  0
   19.3637   32.1834   53.9155 H   0  0  0  0  0
   20.7091   32.9638   55.1691 H   0  0  0  0  0
   19.5863   34.2597   55.6957 H   0  0  0  0  0
   21.0619   35.9455   55.0420 H   0  0  0  0  0
   22.1292   34.7377   54.1608 H   0  0  0  0  0
   22.8025   33.8182   56.2739 H   0  0  0  0  0
   21.7560   35.0030   57.1379 H   0  0  0  0  0
   23.1064   36.7473   55.8004 H   0  0  0  0  0
   24.3265   35.3809   55.6843 H   0  0  0  0  0
   23.5243   37.1025   57.9323 H   0  0  0  0  0
   25.1274   36.3201   57.5074 H   0  0  0  0  0
   24.7892   34.7402   58.9704 H   0  0  0  0  0
   23.1536   34.3901   58.2780 H   0  0  0  0  0
   22.3035   36.3108   59.6140 H   0  0  0  0  0
   23.9170   36.3290   60.4493 H   0  0  0  0  0
   23.5228   34.3788   61.5270 H   0  0  0  0  0
   22.2975   33.8321   60.3022 H   0  0  0  0  0
   21.5655   36.2379   61.7784 H   0  0  0  0  0
   21.7398   34.7500   62.7946 H   0  0  0  0  0
   19.5792   34.4886   62.2029 H   0  0  0  0  0
   20.3315   33.7576   60.7509 H   0  0  0  0  0
   20.1733   35.8537   59.5801 H   0  0  0  0  0
   19.4393   36.6218   61.0631 H   0  0  0  0  0
   17.4703   35.4320   60.8130 H   0  0  0  0  0
   18.2060   34.2984   59.6241 H   0  0  0  0  0
   18.2125   37.1773   58.9373 H   0  0  0  0  0
   16.6259   36.3280   58.9171 H   0  0  0  0  0
   17.2889   35.9440   56.7958 H   0  0  0  0  0
   18.0868   34.5285   57.6323 H   0  0  0  0  0
   19.4057   37.1293   56.8336 H   0  0  0  0  0
   20.1831   35.7501   57.6487 H   0  0  0  0  0
   19.5661   35.5704   55.9879 H   0  0  0  0  0
  1  2  2  0  0  0
  1  3  1  0  0  0
  1  4  1  0  0  0
  4  5  1  0  0  0
  5  6  1  0  0  0
  6  7  1  0  0  0
  7  8  1  0  0  0
  8  9  1  0  0  0
  9 10  1  0  0  0
 10 11  1  0  0  0
 11 12  1  0  0  0
 12 13  1  0  0  0
 13 14  1  0  0  0
 14 15  1  0  0  0
 15 16  1  0  0  0
 16 17  1  0  0  0
 17 18  1  0  0  0
  3 19  1  0  0  0
  4 20  1  0  0  0
  4 21  1  0  0  0
  5 22  1  0  0  0
  5 23  1  0  0  0
  6 24  1  0  0  0
  6 25  1  0  0  0
  7 26  1  0  0  0
  7 27  1  0  0  0
  8 28  1  0  0  0
  8 29  1  0  0  0
  9 30  1  0  0  0
  9 31  1  0  0  0
 10 32  1  0  0  0
 10 33  1  0  0  0
 11 34  1  0  0  0
 11 35  1  0  0  0
 12 36  1  0  0  0
 12 37  1  0  0  0
 13 38  1  0  0  0
 13 39  1  0  0  0
 14 40  1  0  0  0
 14 41  1  0  0  0
 15 42  1  0  0  0
 15 43  1  0  0  0
 16 44  1  0  0  0
 16 45  1  0  0  0
 17 46  1  0  0  0
 17 47  1  0  0  0
 18 48  1  0  0  0
 18 49  1  0  0  0
 18 50  1  0  0  0
M  END
$$$$
