4uc5_ligand
  -I-interpret- 

 24 24  0  0  0  0  0  0  0  0999 V2000
  -22.7000   -3.4280  -17.1520 N   0  3  0  0  0
  -22.4450   -4.7310  -17.8120 C   0  0  0  0  0
  -23.2620   -5.8420  -17.1810 C   0  0  0  0  0
  -23.3280   -6.9450  -17.7230 O   0  0  0  0  0
  -20.9670   -5.0810  -17.7440 C   0  0  0  0  0
  -20.0890   -4.0160  -18.3120 C   0  0  0  0  0
  -19.8620   -3.9490  -19.6690 C   0  0  0  0  0
  -19.5230   -3.0580  -17.4880 C   0  0  0  0  0
  -19.0580   -2.9570  -20.2020 C   0  0  0  0  0
  -18.7320   -2.0610  -18.0200 C   0  0  0  0  0
  -18.5080   -2.0070  -19.3860 C   0  0  0  0  0
  -23.8580   -5.6510  -16.1320 O   0  0  0  0  0
  -23.6948   -3.2093  -17.2069 H   0  0  0  0  0
  -22.4161   -3.4824  -16.1738 H   0  0  0  0  0
  -22.1639   -2.6991  -17.6228 H   0  0  0  0  0
  -22.7460   -4.6343  -18.8551 H   0  0  0  0  0
  -22.8101   -6.9346  -18.5313 H   0  0  0  0  0
  -20.8128   -5.9866  -18.3308 H   0  0  0  0  0
  -20.7028   -5.2041  -16.6937 H   0  0  0  0  0
  -20.3204   -4.6849  -20.3296 H   0  0  0  0  0
  -19.7034   -3.0918  -16.4136 H   0  0  0  0  0
  -18.8626   -2.9326  -21.2741 H   0  0  0  0  0
  -18.2827   -1.3148  -17.3648 H   0  0  0  0  0
  -17.8958   -1.2105  -19.8089 H   0  0  0  0  0
  1  2  1  0  0  0
  2  3  1  0  0  0
  2  5  1  0  0  0
  3  4  1  0  0  0
  3 12  2  0  0  0
  5  6  1  0  0  0
  6  7  4  0  0  0
  6  8  4  0  0  0
  7  9  4  0  0  0
  8 10  4  0  0  0
  9 11  4  0  0  0
 10 11  4  0  0  0
  1 13  1  0  0  0
  1 14  1  0  0  0
  1 15  1  0  0  0
  2 16  1  0  0  0
  4 17  1  0  0  0
  5 18  1  0  0  0
  5 19  1  0  0  0
  7 20  1  0  0  0
  8 21  1  0  0  0
  9 22  1  0  0  0
 10 23  1  0  0  0
 11 24  1  0  0  0
M  END
$$$$
