### 
### Created by X-TOOL on Wed Jan  1 15:39:36 2020
### 

@<TRIPOS>MOLECULE
6b5r_ligand
  179   182     1     0     0
SMALL
GAST_HUCK


@<TRIPOS>ATOM
      1 N          81.4700  149.7940  153.1640 N.4       1 ASN         0.2396
      2 CA         81.2630  148.6810  154.1440 C.3       1 ASN         0.0820
      3 C          79.9210  147.9510  153.9260 C.2       1 ASN         0.2316
      4 O          79.1210  148.3520  153.0830 O.2       1 ASN        -0.3903
      5 CB         81.3570  149.2300  155.5810 C.3       1 ASN         0.0972
      6 CG         82.7960  149.2840  156.1050 C.2       1 ASN         0.1813
      7 OD1        83.7220  148.7660  155.4750 O.2       1 ASN        -0.3969
      8 ND2        82.9810  149.9040  157.2730 N.am      1 ASN        -0.3006
      9 N          79.6890  146.8710  154.6700 N.am      1 PRO        -0.2470
     10 CA         78.4480  146.1020  154.5020 C.3       1 PRO         0.1339
     11 C          77.2330  146.8270  155.0640 C.2       1 PRO         0.2042
     12 O          77.3320  147.7730  155.8470 O.2       1 PRO        -0.3944
     13 CB         78.7140  144.8110  155.2840 C.3       1 PRO        -0.0104
     14 CG         80.2060  144.7230  155.3840 C.3       1 PRO        -0.0281
     15 CD         80.6740  146.1400  155.4850 C.3       1 PRO         0.0371
     16 N          76.0640  146.3370  154.6610 N.am      1 ASP        -0.2622
     17 CA         74.7980  146.8160  155.2010 C.3       1 ASP         0.1425
     18 C          74.7540  146.5520  156.7060 C.2       1 ASP         0.2081
     19 O          74.9610  145.4100  157.1270 O.2       1 ASP        -0.3941
     20 CB         73.6320  146.1150  154.4910 C.3       1 ASP         0.0406
     21 CG         72.2720  146.6510  154.9100 C.2       1 ASP         0.0393
     22 OD1        72.1910  147.3950  155.9090 O.co2     1 ASP        -0.5688
     23 OD2        71.2730  146.3200  154.2340 O.co2     1 ASP        -0.5688
     24 N          74.5220  147.5620  157.5460 N.am      1 PRO        -0.2497
     25 CA         74.4670  147.2910  158.9960 C.3       1 PRO         0.1338
     26 C          73.3770  146.3170  159.3800 C.2       1 PRO         0.2042
     27 O          73.4920  145.6530  160.4160 O.2       1 PRO        -0.3944
     28 CB         74.2270  148.6820  159.6100 C.3       1 PRO        -0.0104
     29 CG         73.7150  149.5160  158.5000 C.3       1 PRO        -0.0281
     30 CD         74.3540  148.9960  157.2550 C.3       1 PRO         0.0369
     31 N          72.3160  146.2050  158.5870 N.am      1 ASN        -0.2616
     32 CA         71.2660  145.2530  158.9130 C.3       1 ASN         0.1476
     33 C          71.5850  143.8530  158.4360 C.2       1 ASN         0.2062
     34 O          70.8590  142.9140  158.7860 O.2       1 ASN        -0.3942
     35 CB         69.9400  145.6940  158.3080 C.3       1 ASN         0.0773
     36 CG         69.4710  147.0100  158.8690 C.2       1 ASN         0.1780
     37 OD1        69.1870  147.9470  158.1270 O.2       1 ASN        -0.3970
     38 ND2        69.4140  147.0970  160.1880 N.am      1 ASN        -0.3007
     39 N          72.6370  143.6910  157.6460 N.am      1 ALA        -0.2639
     40 CA         72.9800  142.3600  157.1830 C.3       1 ALA         0.1282
     41 C          73.6170  141.5450  158.2990 C.2       1 ALA         0.2037
     42 O          74.0810  142.0640  159.3170 O.2       1 ALA        -0.3944
     43 CB         73.9100  142.4240  155.9710 C.3       1 ALA        -0.0244
     44 N          73.6170  140.2370  158.0840 N.am      1 ASN        -0.2616
     45 CA         74.1320  139.2630  159.0220 C.3       1 ASN         0.1478
     46 C          75.4010  138.6430  158.4540 C.2       1 ASN         0.2088
     47 O          75.3450  138.0620  157.3610 O.2       1 ASN        -0.3940
     48 CB         73.0630  138.1990  159.2560 C.3       1 ASN         0.0773
     49 CG         73.3810  137.2760  160.3950 C.2       1 ASN         0.1780
     50 OD1        74.5130  137.1930  160.8640 O.2       1 ASN        -0.3970
     51 ND2        72.3700  136.5360  160.8300 N.am      1 ASN        -0.3007
     52 N          76.5570  138.7340  159.1250 N.am      1 PRO        -0.2497
     53 CA         77.7670  138.0680  158.6100 C.3       1 PRO         0.1338
     54 C          77.6940  136.5410  158.6330 C.2       1 PRO         0.2042
     55 O          78.4620  135.8940  157.9110 O.2       1 PRO        -0.3944
     56 CB         78.8690  138.5830  159.5390 C.3       1 PRO        -0.0104
     57 CG         78.1740  139.0010  160.7790 C.3       1 PRO        -0.0281
     58 CD         76.8310  139.5090  160.3470 C.3       1 PRO         0.0369
     59 N          76.7790  135.9590  159.4080 N.am      1 ASN        -0.2616
     60 CA         76.7240  134.5130  159.6550 C.3       1 ASN         0.1476
     61 C          75.9110  133.8020  158.5650 C.2       1 ASN         0.2063
     62 O          74.8160  133.2630  158.7850 O.2       1 ASN        -0.3942
     63 CB         76.1400  134.2620  161.0360 C.3       1 ASN         0.0773
     64 CG         76.4780  132.8880  161.5760 C.2       1 ASN         0.1780
     65 OD1        77.6350  132.5940  161.8620 O.2       1 ASN        -0.3970
     66 ND2        75.4670  132.0410  161.7110 N.am      1 ASN        -0.3007
     67 N          76.4650  133.8200  157.3520 N.am      1 VAL        -0.2633
     68 CA         75.7910  133.2850  156.1740 C.3       1 VAL         0.1333
     69 C          76.7690  132.4210  155.3890 C.2       1 VAL         0.2042
     70 O          77.9900  132.5440  155.5090 O.2       1 VAL        -0.3944
     71 CB         75.2210  134.3890  155.2540 C.3       1 VAL        -0.0063
     72 CG1        74.0790  135.1390  155.9240 C.3       1 VAL        -0.0584
     73 CG2        76.3150  135.3410  154.8260 C.3       1 VAL        -0.0584
     74 N          76.2080  131.5380  154.5770 N.am      1 ASP        -0.2622
     75 CA         76.9980  130.7510  153.6400 C.3       1 ASP         0.1425
     76 C          77.4610  131.6440  152.4910 C.2       1 ASP         0.2081
     77 O          76.6210  132.2730  151.8370 O.2       1 ASP        -0.3941
     78 CB         76.1620  129.5840  153.1100 C.3       1 ASP         0.0406
     79 CG         76.9550  128.6310  152.2350 C.2       1 ASP         0.0393
     80 OD1        78.0600  128.9900  151.7760 O.co2     1 ASP        -0.5688
     81 OD2        76.4600  127.5150  151.9850 O.co2     1 ASP        -0.5688
     82 N          78.7660  131.7570  152.2310 N.am      1 PRO        -0.2497
     83 CA         79.2240  132.5050  151.0510 C.3       1 PRO         0.1337
     84 C          79.1210  131.7320  149.7440 C.2       1 PRO         0.2037
     85 O          79.3900  132.3170  148.6900 O.2       1 PRO        -0.3944
     86 CB         80.6900  132.8120  151.3960 C.3       1 PRO        -0.0104
     87 CG         81.1120  131.6590  152.2460 C.3       1 PRO        -0.0281
     88 CD         79.8970  131.2520  153.0340 C.3       1 PRO         0.0369
     89 N          78.7040  130.4620  149.7930 N.am      1 ASN        -0.2674
     90 CA         78.7400  129.5110  148.6660 C.3       1 ASN         0.1110
     91 C          80.1700  129.0810  148.3430 C.2       1 ASN         0.0624
     92 O          80.5200  127.8970  148.4600 O.co2     1 ASN        -0.5665
     93 CB         78.0780  130.0890  147.4110 C.3       1 ASN         0.0718
     94 CG         76.6000  130.3650  147.6020 C.2       1 ASN         0.1774
     95 OD1        76.1480  130.6410  148.7080 O.2       1 ASN        -0.3971
     96 ND2        75.8360  130.2830  146.5190 N.am      1 ASN        -0.3007
     97 OXT        81.0110  129.9070  147.9570 O.co2     1 ASN        -0.5665
     98 H1         82.3558  150.2400  153.3443 H         1 ASN         0.2017
     99 H2         80.7280  150.4693  153.2609 H         1 ASN         0.2017
    100 H3         81.4656  149.4220  152.2272 H         1 ASN         0.2017
    101 H4         82.0709  147.9483  154.0010 H         1 ASN         0.1125
    102 H5         80.7660  148.5812  156.2441 H         1 ASN         0.0585
    103 H6         80.9394  150.2475  155.5962 H         1 ASN         0.0585
    104 H7         83.8990  149.9701  157.6641 H         1 ASN         0.1814
    105 H8         82.2016  150.3022  157.7567 H         1 ASN         0.1814
    106 H9         78.2743  145.8841  153.4379 H         1 PRO         0.0802
    107 H10        78.3101  143.9414  154.7448 H         1 PRO         0.0313
    108 H11        78.2613  144.8644  156.2851 H         1 PRO         0.0313
    109 H12        80.6253  144.2408  154.4887 H         1 PRO         0.0287
    110 H13        80.5002  144.1545  156.2785 H         1 PRO         0.0287
    111 H14        80.6603  146.4878  156.5285 H         1 PRO         0.0524
    112 H15        81.6884  146.2519  155.0744 H         1 PRO         0.0524
    113 H16        76.0535  145.6179  153.9662 H         1 ASP         0.1884
    114 H17        74.7196  147.8993  155.0271 H         1 ASP         0.0819
    115 H18        73.6731  145.0412  154.7262 H         1 ASP         0.0478
    116 H19        73.7457  146.2574  153.4062 H         1 ASP         0.0478
    117 H20        75.4302  146.8846  159.3382 H         1 PRO         0.0802
    118 H21        75.1670  149.0975  160.0021 H         1 PRO         0.0313
    119 H22        73.4860  148.6226  160.4207 H         1 PRO         0.0313
    120 H23        73.9895  150.5695  158.6573 H         1 PRO         0.0287
    121 H24        72.6206  149.4285  158.4314 H         1 PRO         0.0287
    122 H25        73.7024  149.1491  156.3821 H         1 PRO         0.0524
    123 H26        75.3255  149.4802  157.0768 H         1 PRO         0.0524
    124 H27        72.2400  146.7740  157.7682 H         1 ASN         0.1885
    125 H28        71.1607  145.2272  160.0076 H         1 ASN         0.0826
    126 H29        69.1806  144.9271  158.5206 H         1 ASN         0.0551
    127 H30        70.0632  145.7962  157.2197 H         1 ASN         0.0551
    128 H31        69.1100  147.9459  160.6204 H         1 ASN         0.1814
    129 H32        69.6749  146.3139  160.7525 H         1 ASN         0.1814
    130 H33        73.1887  144.4787  157.3719 H         1 ALA         0.1883
    131 H34        72.0518  141.8556  156.8765 H         1 ALA         0.0797
    132 H35        74.1535  141.4032  155.6414 H         1 ALA         0.0277
    133 H36        74.8355  142.9509  156.2464 H         1 ALA         0.0277
    134 H37        73.4101  142.9638  155.1533 H         1 ALA         0.0277
    135 H38        73.2380  139.9030  157.2210 H         1 ASN         0.1885
    136 H39        74.3673  139.7573  159.9761 H         1 ASN         0.0826
    137 H40        72.9611  137.5995  158.3394 H         1 ASN         0.0551
    138 H41        72.1098  138.7038  159.4719 H         1 ASN         0.0551
    139 H42        72.5074  135.8972  161.5870 H         1 ASN         0.1814
    140 H43        71.4703  136.6168  160.4010 H         1 ASN         0.1814
    141 H44        77.9571  138.3884  157.5750 H         1 PRO         0.0802
    142 H45        79.3891  139.4380  159.0824 H         1 PRO         0.0313
    143 H46        79.5947  137.7850  159.7548 H         1 PRO         0.0313
    144 H47        78.7396  139.7975  161.2846 H         1 PRO         0.0287
    145 H48        78.0581  138.1448  161.4597 H         1 PRO         0.0287
    146 H49        76.0694  139.3149  161.1166 H         1 PRO         0.0524
    147 H50        76.8676  140.5869  160.1309 H         1 PRO         0.0524
    148 H51        76.0921  136.5394  159.8453 H         1 ASN         0.1885
    149 H52        77.7490  134.1145  159.6326 H         1 ASN         0.0826
    150 H53        75.0457  134.3569  160.9773 H         1 ASN         0.0551
    151 H54        76.5371  135.0190  161.7283 H         1 ASN         0.0551
    152 H55        75.6304  131.1194  162.0629 H         1 ASN         0.1814
    153 H56        74.5410  132.3238  161.4609 H         1 ASN         0.1814
    154 H57        77.3774  134.2154  157.2459 H         1 VAL         0.1883
    155 H58        74.9541  132.6566  156.5128 H         1 VAL         0.0802
    156 H59        74.8210  133.9035  154.3517 H         1 VAL         0.0343
    157 H60        73.6996  135.9143  155.2421 H         1 VAL         0.0234
    158 H61        74.4426  135.6103  156.8490 H         1 VAL         0.0234
    159 H62        73.2693  134.4346  156.1651 H         1 VAL         0.0234
    160 H63        77.1265  134.7748  154.3456 H         1 VAL         0.0234
    161 H64        76.7079  135.8683  155.7078 H         1 VAL         0.0234
    162 H65        75.9065  136.0724  154.1132 H         1 VAL         0.0234
    163 H66        75.2169  131.4083  154.6079 H         1 ASP         0.1884
    164 H67        77.8806  130.3502  154.1600 H         1 ASP         0.0819
    165 H68        75.3288  129.9909  152.5183 H         1 ASP         0.0478
    166 H69        75.7629  129.0219  153.9671 H         1 ASP         0.0478
    167 H70        78.6468  133.4358  150.9491 H         1 PRO         0.0802
    168 H71        80.7707  133.7576  151.9522 H         1 PRO         0.0313
    169 H72        81.3022  132.8696  150.4839 H         1 PRO         0.0313
    170 H73        81.9228  131.9622  152.9248 H         1 PRO         0.0287
    171 H74        81.4543  130.8253  151.6153 H         1 PRO         0.0287
    172 H75        79.8460  130.1580  153.1369 H         1 PRO         0.0524
    173 H76        79.9053  131.7142  154.0321 H         1 PRO         0.0524
    174 H77        78.3387  130.1309  150.6630 H         1 ASN         0.1877
    175 H78        78.1747  128.6165  148.9665 H         1 ASN         0.0752
    176 H79        78.1978  129.3699  146.5873 H         1 ASN         0.0544
    177 H80        78.5810  131.0320  147.1506 H         1 ASN         0.0544
    178 H81        74.8532  130.4552  146.5862 H         1 ASN         0.1814
    179 H82        76.2434  130.0491  145.6362 H         1 ASN         0.1814
@<TRIPOS>BOND
     1    1    2 1  
     2    2    3 1  
     3    2    5 1  
     4    3    4 2  
     5    3    9 am 
     6    5    6 1  
     7    6    7 2  
     8    6    8 am 
     9    9   10 1  
    10    9   15 1  
    11   10   11 1  
    12   10   13 1  
    13   11   12 2  
    14   11   16 am 
    15   13   14 1  
    16   14   15 1  
    17   16   17 1  
    18   17   18 1  
    19   17   20 1  
    20   18   19 2  
    21   18   24 am 
    22   20   21 1  
    23   21   22 ar 
    24   21   23 ar 
    25   24   25 1  
    26   24   30 1  
    27   25   26 1  
    28   25   28 1  
    29   26   27 2  
    30   26   31 am 
    31   28   29 1  
    32   29   30 1  
    33   31   32 1  
    34   32   33 1  
    35   32   35 1  
    36   33   34 2  
    37   33   39 am 
    38   35   36 1  
    39   36   37 2  
    40   36   38 am 
    41   39   40 1  
    42   40   41 1  
    43   40   43 1  
    44   41   42 2  
    45   41   44 am 
    46   44   45 1  
    47   45   46 1  
    48   45   48 1  
    49   46   47 2  
    50   46   52 am 
    51   48   49 1  
    52   49   50 2  
    53   49   51 am 
    54   52   53 1  
    55   52   58 1  
    56   53   54 1  
    57   53   56 1  
    58   54   55 2  
    59   54   59 am 
    60   56   57 1  
    61   57   58 1  
    62   59   60 1  
    63   60   61 1  
    64   60   63 1  
    65   61   62 2  
    66   61   67 am 
    67   63   64 1  
    68   64   65 2  
    69   64   66 am 
    70   67   68 1  
    71   68   69 1  
    72   68   71 1  
    73   69   70 2  
    74   69   74 am 
    75   71   72 1  
    76   71   73 1  
    77   74   75 1  
    78   75   76 1  
    79   75   78 1  
    80   76   77 2  
    81   76   82 am 
    82   78   79 1  
    83   79   80 ar 
    84   79   81 ar 
    85   82   83 1  
    86   82   88 1  
    87   83   84 1  
    88   83   86 1  
    89   84   85 2  
    90   84   89 am 
    91   86   87 1  
    92   87   88 1  
    93   89   90 1  
    94   90   91 1  
    95   90   93 1  
    96   91   92 ar 
    97   91   97 ar 
    98   93   94 1  
    99   94   95 2  
   100   94   96 am 
   101    1   98 1  
   102    1   99 1  
   103    1  100 1  
   104    2  101 1  
   105    5  102 1  
   106    5  103 1  
   107    8  104 1  
   108    8  105 1  
   109   10  106 1  
   110   13  107 1  
   111   13  108 1  
   112   14  109 1  
   113   14  110 1  
   114   15  111 1  
   115   15  112 1  
   116   16  113 1  
   117   17  114 1  
   118   20  115 1  
   119   20  116 1  
   120   25  117 1  
   121   28  118 1  
   122   28  119 1  
   123   29  120 1  
   124   29  121 1  
   125   30  122 1  
   126   30  123 1  
   127   31  124 1  
   128   32  125 1  
   129   35  126 1  
   130   35  127 1  
   131   38  128 1  
   132   38  129 1  
   133   39  130 1  
   134   40  131 1  
   135   43  132 1  
   136   43  133 1  
   137   43  134 1  
   138   44  135 1  
   139   45  136 1  
   140   48  137 1  
   141   48  138 1  
   142   51  139 1  
   143   51  140 1  
   144   53  141 1  
   145   56  142 1  
   146   56  143 1  
   147   57  144 1  
   148   57  145 1  
   149   58  146 1  
   150   58  147 1  
   151   59  148 1  
   152   60  149 1  
   153   63  150 1  
   154   63  151 1  
   155   66  152 1  
   156   66  153 1  
   157   67  154 1  
   158   68  155 1  
   159   71  156 1  
   160   72  157 1  
   161   72  158 1  
   162   72  159 1  
   163   73  160 1  
   164   73  161 1  
   165   73  162 1  
   166   74  163 1  
   167   75  164 1  
   168   78  165 1  
   169   78  166 1  
   170   83  167 1  
   171   86  168 1  
   172   86  169 1  
   173   87  170 1  
   174   87  171 1  
   175   88  172 1  
   176   88  173 1  
   177   89  174 1  
   178   90  175 1  
   179   93  176 1  
   180   93  177 1  
   181   96  178 1  
   182   96  179 1  
@<TRIPOS>SUBSTRUCTURE
     1 ASN         1

