6b5r_ligand
  -I-interpret- 

182185  0  0  0  0  0  0  0  0999 V2000
   81.4700  149.7940  153.1640 N   0  3  0  0  0
   81.2630  148.6810  154.1440 C   0  0  0  0  0
   79.9210  147.9510  153.9260 C   0  0  0  0  0
   79.1210  148.3520  153.0830 O   0  0  0  0  0
   81.3570  149.2300  155.5810 C   0  0  0  0  0
   82.7960  149.2840  156.1050 C   0  0  0  0  0
   83.7220  148.7660  155.4750 O   0  0  0  0  0
   82.9810  149.9040  157.2730 N   0  0  0  0  0
   79.6890  146.8710  154.6700 N   0  0  0  0  0
   78.4480  146.1020  154.5020 C   0  0  0  0  0
   77.2330  146.8270  155.0640 C   0  0  0  0  0
   77.3320  147.7730  155.8470 O   0  0  0  0  0
   78.7140  144.8110  155.2840 C   0  0  0  0  0
   80.2060  144.7230  155.3840 C   0  0  0  0  0
   80.6740  146.1400  155.4850 C   0  0  0  0  0
   76.0640  146.3370  154.6610 N   0  0  0  0  0
   74.7980  146.8160  155.2010 C   0  0  0  0  0
   74.7540  146.5520  156.7060 C   0  0  0  0  0
   74.9610  145.4100  157.1270 O   0  0  0  0  0
   73.6320  146.1150  154.4910 C   0  0  0  0  0
   72.2720  146.6510  154.9100 C   0  0  0  0  0
   72.1910  147.3950  155.9090 O   0  0  0  0  0
   71.2730  146.3200  154.2340 O   0  0  0  0  0
   74.5220  147.5620  157.5460 N   0  0  0  0  0
   74.4670  147.2910  158.9960 C   0  0  0  0  0
   73.3770  146.3170  159.3800 C   0  0  0  0  0
   73.4920  145.6530  160.4160 O   0  0  0  0  0
   74.2270  148.6820  159.6100 C   0  0  0  0  0
   73.7150  149.5160  158.5000 C   0  0  0  0  0
   74.3540  148.9960  157.2550 C   0  0  0  0  0
   72.3160  146.2050  158.5870 N   0  0  0  0  0
   71.2660  145.2530  158.9130 C   0  0  0  0  0
   71.5850  143.8530  158.4360 C   0  0  0  0  0
   70.8590  142.9140  158.7860 O   0  0  0  0  0
   69.9400  145.6940  158.3080 C   0  0  0  0  0
   69.4710  147.0100  158.8690 C   0  0  0  0  0
   69.1870  147.9470  158.1270 O   0  0  0  0  0
   69.4140  147.0970  160.1880 N   0  0  0  0  0
   72.6370  143.6910  157.6460 N   0  0  0  0  0
   72.9800  142.3600  157.1830 C   0  0  0  0  0
   73.6170  141.5450  158.2990 C   0  0  0  0  0
   74.0810  142.0640  159.3170 O   0  0  0  0  0
   73.9100  142.4240  155.9710 C   0  0  0  0  0
   73.6170  140.2370  158.0840 N   0  0  0  0  0
   74.1320  139.2630  159.0220 C   0  0  0  0  0
   75.4010  138.6430  158.4540 C   0  0  0  0  0
   75.3450  138.0620  157.3610 O   0  0  0  0  0
   73.0630  138.1990  159.2560 C   0  0  0  0  0
   73.3810  137.2760  160.3950 C   0  0  0  0  0
   74.5130  137.1930  160.8640 O   0  0  0  0  0
   72.3700  136.5360  160.8300 N   0  0  0  0  0
   76.5570  138.7340  159.1250 N   0  0  0  0  0
   77.7670  138.0680  158.6100 C   0  0  0  0  0
   77.6940  136.5410  158.6330 C   0  0  0  0  0
   78.4620  135.8940  157.9110 O   0  0  0  0  0
   78.8690  138.5830  159.5390 C   0  0  0  0  0
   78.1740  139.0010  160.7790 C   0  0  0  0  0
   76.8310  139.5090  160.3470 C   0  0  0  0  0
   76.7790  135.9590  159.4080 N   0  0  0  0  0
   76.7240  134.5130  159.6550 C   0  0  0  0  0
   75.9110  133.8020  158.5650 C   0  0  0  0  0
   74.8160  133.2630  158.7850 O   0  0  0  0  0
   76.1400  134.2620  161.0360 C   0  0  0  0  0
   76.4780  132.8880  161.5760 C   0  0  0  0  0
   77.6350  132.5940  161.8620 O   0  0  0  0  0
   75.4670  132.0410  161.7110 N   0  0  0  0  0
   76.4650  133.8200  157.3520 N   0  0  0  0  0
   75.7910  133.2850  156.1740 C   0  0  0  0  0
   76.7690  132.4210  155.3890 C   0  0  0  0  0
   77.9900  132.5440  155.5090 O   0  0  0  0  0
   75.2210  134.3890  155.2540 C   0  0  0  0  0
   74.0790  135.1390  155.9240 C   0  0  0  0  0
   76.3150  135.3410  154.8260 C   0  0  0  0  0
   76.2080  131.5380  154.5770 N   0  0  0  0  0
   76.9980  130.7510  153.6400 C   0  0  0  0  0
   77.4610  131.6440  152.4910 C   0  0  0  0  0
   76.6210  132.2730  151.8370 O   0  0  0  0  0
   76.1620  129.5840  153.1100 C   0  0  0  0  0
   76.9550  128.6310  152.2350 C   0  0  0  0  0
   78.0600  128.9900  151.7760 O   0  0  0  0  0
   76.4600  127.5150  151.9850 O   0  0  0  0  0
   78.7660  131.7570  152.2310 N   0  0  0  0  0
   79.2240  132.5050  151.0510 C   0  0  0  0  0
   79.1210  131.7320  149.7440 C   0  0  0  0  0
   79.3900  132.3170  148.6900 O   0  0  0  0  0
   80.6900  132.8120  151.3960 C   0  0  0  0  0
   81.1120  131.6590  152.2460 C   0  0  0  0  0
   79.8970  131.2520  153.0340 C   0  0  0  0  0
   78.7040  130.4620  149.7930 N   0  0  0  0  0
   78.7400  129.5110  148.6660 C   0  0  0  0  0
   80.1700  129.0810  148.3430 C   0  0  0  0  0
   80.5200  127.8970  148.4600 O   0  0  0  0  0
   78.0780  130.0890  147.4110 C   0  0  0  0  0
   76.6000  130.3650  147.6020 C   0  0  0  0  0
   76.1480  130.6410  148.7080 O   0  0  0  0  0
   75.8360  130.2830  146.5190 N   0  0  0  0  0
   81.0110  129.9070  147.9570 O   0  0  0  0  0
   81.4069  149.4258  152.2149 H   0  0  0  0  0
   80.7521  150.5053  153.3025 H   0  0  0  0  0
   82.3915  150.2064  153.3094 H   0  0  0  0  0
   82.0507  147.9449  153.9834 H   0  0  0  0  0
   80.7908  148.5624  156.2304 H   0  0  0  0  0
   80.9661  150.2475  155.5752 H   0  0  0  0  0
   83.9158  149.9625  157.6769 H   0  0  0  0  0
   82.1875  150.3191  157.7614 H   0  0  0  0  0
   78.2152  145.9357  153.4502 H   0  0  0  0  0
   78.2892  143.9401  154.7849 H   0  0  0  0  0
   78.2423  144.8278  156.2665 H   0  0  0  0  0
   80.6386  144.2162  154.5213 H   0  0  0  0  0
   80.5181  144.1331  156.2458 H   0  0  0  0  0
   80.7211  146.4978  156.5135 H   0  0  0  0  0
   81.6970  146.2738  155.1333 H   0  0  0  0  0
   76.0533  145.6035  153.9523 H   0  0  0  0  0
   74.7083  147.8890  155.0315 H   0  0  0  0  0
   73.6686  145.0585  154.7567 H   0  0  0  0  0
   73.7421  146.2894  153.4207 H   0  0  0  0  0
   71.5502  145.7482  153.5144 H   0  0  0  0  0
   75.3780  146.8107  159.3532 H   0  0  0  0  0
   75.1415  149.0964  160.0342 H   0  0  0  0  0
   73.5196  148.6383  160.4381 H   0  0  0  0  0
   73.9579  150.5672  158.6554 H   0  0  0  0  0
   72.6284  149.4588  158.4360 H   0  0  0  0  0
   73.7549  149.1797  156.3631 H   0  0  0  0  0
   75.2953  149.4939  157.0225 H   0  0  0  0  0
   72.2385  146.7854  157.7518 H   0  0  0  0  0
   71.1940  145.2310  160.0004 H   0  0  0  0  0
   69.1909  144.9379  158.5432 H   0  0  0  0  0
   70.0795  145.8129  157.2335 H   0  0  0  0  0
   69.1245  147.9697  160.6295 H   0  0  0  0  0
   69.6596  146.2913  160.7633 H   0  0  0  0  0
   73.1997  144.4945  157.3665 H   0  0  0  0  0
   72.0574  141.8651  156.8795 H   0  0  0  0  0
   73.4135  142.9591  155.1615 H   0  0  0  0  0
   74.8266  142.9464  156.2451 H   0  0  0  0  0
   74.1505  141.4120  155.6454 H   0  0  0  0  0
   73.2304  139.8963  157.2037 H   0  0  0  0  0
   74.3761  139.7357  159.9734 H   0  0  0  0  0
   72.9974  137.5944  158.3514 H   0  0  0  0  0
   72.1341  138.7144  159.5001 H   0  0  0  0  0
   72.5167  135.8646  161.5837 H   0  0  0  0  0
   71.4457  136.6383  160.4109 H   0  0  0  0  0
   77.9282  138.2963  157.5564 H   0  0  0  0  0
   79.4178  139.4104  159.0892 H   0  0  0  0  0
   79.6163  137.8149  159.7382 H   0  0  0  0  0
   78.7366  139.7707  161.3073 H   0  0  0  0  0
   78.0764  138.1695  161.4770 H   0  0  0  0  0
   76.0648  139.3758  161.1108 H   0  0  0  0  0
   76.8237  140.5851  160.1736 H   0  0  0  0  0
   76.0783  136.5510  159.8541 H   0  0  0  0  0
   77.7331  134.1025  159.6207 H   0  0  0  0  0
   75.0551  134.3318  160.9571 H   0  0  0  0  0
   76.5629  135.0011  161.7164 H   0  0  0  0  0
   75.6344  131.0995  162.0658 H   0  0  0  0  0
   74.5218  132.3309  161.4600 H   0  0  0  0  0
   77.3956  134.2233  157.2438 H   0  0  0  0  0
   74.9443  132.6939  156.5229 H   0  0  0  0  0
   74.8169  133.9061  154.3643 H   0  0  0  0  0
   73.2774  134.4400  156.1624 H   0  0  0  0  0
   74.4406  135.6055  156.8404 H   0  0  0  0  0
   73.7039  135.9069  155.2474 H   0  0  0  0  0
   76.7549  135.8070  155.7077 H   0  0  0  0  0
   77.0830  134.7896  154.2836 H   0  0  0  0  0
   75.8930  136.1102  154.1792 H   0  0  0  0  0
   75.1971  131.4057  154.6086 H   0  0  0  0  0
   77.8738  130.3469  154.1478 H   0  0  0  0  0
   75.3596  130.0014  152.5017 H   0  0  0  0  0
   75.7993  129.0199  153.9693 H   0  0  0  0  0
   78.2606  129.8767  152.0845 H   0  0  0  0  0
   78.6056  133.3841  150.8699 H   0  0  0  0  0
   80.8016  133.7664  151.9105 H   0  0  0  0  0
   81.3101  132.9169  150.5057 H   0  0  0  0  0
   81.9335  131.9373  152.9061 H   0  0  0  0  0
   81.4789  130.8340  151.6353 H   0  0  0  0  0
   79.8460  130.1741  153.1880 H   0  0  0  0  0
   79.9027  131.6620  154.0439 H   0  0  0  0  0
   78.3314  130.1242  150.6804 H   0  0  0  0  0
   78.1729  128.6352  148.9812 H   0  0  0  0  0
   78.1804  129.3555  146.6112 H   0  0  0  0  0
   78.5676  131.0352  147.1806 H   0  0  0  0  0
   74.8326  130.4525  146.5887 H   0  0  0  0  0
   76.2525  130.0505  145.6174 H   0  0  0  0  0
   80.6067  130.7766  147.9124 H   0  0  0  0  0
  1  2  1  0  0  0
  2  3  1  0  0  0
  2  5  1  0  0  0
  3  4  2  0  0  0
  3  9  1  0  0  0
  5  6  1  0  0  0
  6  7  2  0  0  0
  6  8  1  0  0  0
  9 10  1  0  0  0
  9 15  1  0  0  0
 10 11  1  0  0  0
 10 13  1  0  0  0
 11 12  2  0  0  0
 11 16  1  0  0  0
 13 14  1  0  0  0
 14 15  1  0  0  0
 16 17  1  0  0  0
 17 18  1  0  0  0
 17 20  1  0  0  0
 18 19  2  0  0  0
 18 24  1  0  0  0
 20 21  1  0  0  0
 21 22  2  0  0  0
 21 23  1  0  0  0
 24 25  1  0  0  0
 24 30  1  0  0  0
 25 26  1  0  0  0
 25 28  1  0  0  0
 26 27  2  0  0  0
 26 31  1  0  0  0
 28 29  1  0  0  0
 29 30  1  0  0  0
 31 32  1  0  0  0
 32 33  1  0  0  0
 32 35  1  0  0  0
 33 34  2  0  0  0
 33 39  1  0  0  0
 35 36  1  0  0  0
 36 37  2  0  0  0
 36 38  1  0  0  0
 39 40  1  0  0  0
 40 41  1  0  0  0
 40 43  1  0  0  0
 41 42  2  0  0  0
 41 44  1  0  0  0
 44 45  1  0  0  0
 45 46  1  0  0  0
 45 48  1  0  0  0
 46 47  2  0  0  0
 46 52  1  0  0  0
 48 49  1  0  0  0
 49 50  2  0  0  0
 49 51  1  0  0  0
 52 53  1  0  0  0
 52 58  1  0  0  0
 53 54  1  0  0  0
 53 56  1  0  0  0
 54 55  2  0  0  0
 54 59  1  0  0  0
 56 57  1  0  0  0
 57 58  1  0  0  0
 59 60  1  0  0  0
 60 61  1  0  0  0
 60 63  1  0  0  0
 61 62  2  0  0  0
 61 67  1  0  0  0
 63 64  1  0  0  0
 64 65  2  0  0  0
 64 66  1  0  0  0
 67 68  1  0  0  0
 68 69  1  0  0  0
 68 71  1  0  0  0
 69 70  2  0  0  0
 69 74  1  0  0  0
 71 72  1  0  0  0
 71 73  1  0  0  0
 74 75  1  0  0  0
 75 76  1  0  0  0
 75 78  1  0  0  0
 76 77  2  0  0  0
 76 82  1  0  0  0
 78 79  1  0  0  0
 79 80  1  0  0  0
 79 81  2  0  0  0
 82 83  1  0  0  0
 82 88  1  0  0  0
 83 84  1  0  0  0
 83 86  1  0  0  0
 84 85  2  0  0  0
 84 89  1  0  0  0
 86 87  1  0  0  0
 87 88  1  0  0  0
 89 90  1  0  0  0
 90 91  1  0  0  0
 90 93  1  0  0  0
 91 92  2  0  0  0
 91 97  1  0  0  0
 93 94  1  0  0  0
 94 95  2  0  0  0
 94 96  1  0  0  0
  1 98  1  0  0  0
  1 99  1  0  0  0
  1100  1  0  0  0
  2101  1  0  0  0
  5102  1  0  0  0
  5103  1  0  0  0
  8104  1  0  0  0
  8105  1  0  0  0
 10106  1  0  0  0
 13107  1  0  0  0
 13108  1  0  0  0
 14109  1  0  0  0
 14110  1  0  0  0
 15111  1  0  0  0
 15112  1  0  0  0
 16113  1  0  0  0
 17114  1  0  0  0
 20115  1  0  0  0
 20116  1  0  0  0
 23117  1  0  0  0
 25118  1  0  0  0
 28119  1  0  0  0
 28120  1  0  0  0
 29121  1  0  0  0
 29122  1  0  0  0
 30123  1  0  0  0
 30124  1  0  0  0
 31125  1  0  0  0
 32126  1  0  0  0
 35127  1  0  0  0
 35128  1  0  0  0
 38129  1  0  0  0
 38130  1  0  0  0
 39131  1  0  0  0
 40132  1  0  0  0
 43133  1  0  0  0
 43134  1  0  0  0
 43135  1  0  0  0
 44136  1  0  0  0
 45137  1  0  0  0
 48138  1  0  0  0
 48139  1  0  0  0
 51140  1  0  0  0
 51141  1  0  0  0
 53142  1  0  0  0
 56143  1  0  0  0
 56144  1  0  0  0
 57145  1  0  0  0
 57146  1  0  0  0
 58147  1  0  0  0
 58148  1  0  0  0
 59149  1  0  0  0
 60150  1  0  0  0
 63151  1  0  0  0
 63152  1  0  0  0
 66153  1  0  0  0
 66154  1  0  0  0
 67155  1  0  0  0
 68156  1  0  0  0
 71157  1  0  0  0
 72158  1  0  0  0
 72159  1  0  0  0
 72160  1  0  0  0
 73161  1  0  0  0
 73162  1  0  0  0
 73163  1  0  0  0
 74164  1  0  0  0
 75165  1  0  0  0
 78166  1  0  0  0
 78167  1  0  0  0
 80168  1  0  0  0
 83169  1  0  0  0
 86170  1  0  0  0
 86171  1  0  0  0
 87172  1  0  0  0
 87173  1  0  0  0
 88174  1  0  0  0
 88175  1  0  0  0
 89176  1  0  0  0
 90177  1  0  0  0
 93178  1  0  0  0
 93179  1  0  0  0
 96180  1  0  0  0
 96181  1  0  0  0
 97182  1  0  0  0
M  END
$$$$
