2gnj_ligand
  -I-interpret- 

 40 41  0  0  0  0  0  0  0  0999 V2000
    7.3520    9.8870    1.4790 O   0  0  0  0  0
    7.7390    9.4660    2.5670 C   0  0  0  0  0
    9.1180    8.9010    2.7550 C   0  0  0  0  0
    9.3370    7.6300    1.9050 C   0  0  0  0  0
   10.7730    7.1060    2.0930 C   0  0  0  0  0
   11.8090    8.2240    1.8510 C   0  0  0  0  0
   11.5840    9.3980    2.8210 C   0  0  0  0  0
   10.1860    9.9780    2.4870 C   0  0  0  0  0
   13.2700    7.7040    1.8660 C   0  0  0  0  0
   13.6360    6.9610    3.1600 C   0  0  0  0  0
   13.5380    6.8380    0.6630 N   0  3  0  0  0
    6.9210    9.4600    3.7290 N   0  0  0  0  0
    5.4690    9.6840    3.7930 C   0  0  0  0  0
    4.9070    9.6460    5.0690 C   0  0  0  0  0
    3.5360    9.8280    5.2290 C   0  0  0  0  0
    2.7480   10.0070    4.1890 N   0  0  0  0  0
    3.2510   10.0480    2.9550 C   0  0  0  0  0
    4.6000    9.9220    2.7030 C   0  0  0  0  0
    9.2195    8.5917    3.7953 H   0  0  0  0  0
    9.1801    7.8721    0.8539 H   0  0  0  0  0
    8.6322    6.8619    2.2233 H   0  0  0  0  0
   10.9491    6.3059    1.3740 H   0  0  0  0  0
   10.8815    6.7456    3.1160 H   0  0  0  0  0
   11.6509    8.6009    0.8405 H   0  0  0  0  0
   12.3597   10.1551    2.7062 H   0  0  0  0  0
   11.6321    9.0643    3.8575 H   0  0  0  0  0
    9.9920   10.8507    3.1106 H   0  0  0  0  0
   10.1527   10.2754    1.4389 H   0  0  0  0  0
   13.9106    8.5849    1.8247 H   0  0  0  0  0
   13.0380    6.0530    3.2377 H   0  0  0  0  0
   14.6941    6.7001    3.1408 H   0  0  0  0  0
   13.4346    7.6046    4.0164 H   0  0  0  0  0
   13.2890    7.3485   -0.1842 H   0  0  0  0  0
   14.5278    6.5933    0.6354 H   0  0  0  0  0
   12.9780    5.9878    0.7261 H   0  0  0  0  0
    7.3925    9.2807    4.6155 H   0  0  0  0  0
    5.5401    9.4741    5.9395 H   0  0  0  0  0
    3.1078    9.8223    6.2314 H   0  0  0  0  0
    2.5705   10.1862    2.1148 H   0  0  0  0  0
    4.9880   10.0038    1.6877 H   0  0  0  0  0
  1  2  2  0  0  0
  2  3  1  0  0  0
  2 12  1  0  0  0
  3  4  1  0  0  0
  3  8  1  0  0  0
  4  5  1  0  0  0
  5  6  1  0  0  0
  6  7  1  0  0  0
  6  9  1  0  0  0
  7  8  1  0  0  0
  9 10  1  0  0  0
  9 11  1  0  0  0
 12 13  1  0  0  0
 13 14  4  0  0  0
 13 18  4  0  0  0
 14 15  4  0  0  0
 15 16  4  0  0  0
 16 17  4  0  0  0
 17 18  4  0  0  0
  3 19  1  0  0  0
  4 20  1  0  0  0
  4 21  1  0  0  0
  5 22  1  0  0  0
  5 23  1  0  0  0
  6 24  1  0  0  0
  7 25  1  0  0  0
  7 26  1  0  0  0
  8 27  1  0  0  0
  8 28  1  0  0  0
  9 29  1  0  0  0
 10 30  1  0  0  0
 10 31  1  0  0  0
 10 32  1  0  0  0
 11 33  1  0  0  0
 11 34  1  0  0  0
 11 35  1  0  0  0
 12 36  1  0  0  0
 14 37  1  0  0  0
 15 38  1  0  0  0
 17 39  1  0  0  0
 18 40  1  0  0  0
M  END
$$$$
