3d7k_ligand
  -I-interpret- 

 68 70  0  0  0  0  0  0  0  0999 V2000
  -42.2150   27.5620    2.3910 P   0  0  0  0  0
  -42.3150   28.1250    0.9880 O   0  0  0  0  0
  -43.5480   27.4800    3.1060 O   0  0  0  0  0
  -39.9660   30.1870    4.1660 O   0  0  0  0  0
  -39.7850   28.9100    3.3560 P   0  0  0  0  0
  -39.4380   28.9750    1.8780 O   0  0  0  0  0
  -38.9240   27.9050    4.0850 O   0  0  0  0  0
  -41.3470   28.4800    3.3670 O   0  0  0  0  0
  -41.4670   26.1270    2.2910 O   0  0  0  0  0
  -41.2470   25.2450    3.4150 C   0  0  0  0  0
  -40.2310   24.1190    3.0910 C   0  0  0  0  0
  -40.2730   22.9130    4.0380 C   0  0  0  0  0
  -40.8120   21.7020    3.7980 C   0  0  0  0  0
  -41.4390   21.3140    2.4850 C   0  0  0  0  0
  -39.6280   23.0190    5.5530 S   0  0  0  0  0
  -40.3310   21.5200    6.1340 C   0  0  0  0  0
  -40.7610   20.8830    4.8820 N   0  0  0  0  0
  -41.1370   19.4870    5.0520 C   0  0  0  0  0
  -42.6280   19.3790    5.0410 C   0  0  0  0  0
  -43.2680   18.8130    3.9480 C   0  0  0  0  0
  -43.3700   19.8010    6.1330 C   0  0  0  0  0
  -42.8150   20.3350    7.2490 N   0  0  0  0  0
  -44.7040   19.6820    6.1090 N   0  0  0  0  0
  -45.3400   19.1310    5.0490 C   0  0  0  0  0
  -44.6150   18.6960    3.9950 N   0  0  0  0  0
  -46.8460   19.0220    5.1100 C   0  0  0  0  0
  -38.3280   18.5820    6.1150 O   0  0  0  0  0
  -37.9970   19.8670    6.8490 P   0  0  0  0  0
  -37.1530   20.8820    6.1090 O   0  0  0  0  0
  -37.3840   19.3910    8.2860 O   0  0  0  0  0
  -36.3040   20.0550    8.9420 C   0  0  0  0  0
  -39.5140   20.7820    7.2480 C   0  0  0  0  0
  -40.3750   19.7820    7.7870 O   0  0  0  0  0
  -39.2730   21.8210    8.3180 C   0  0  0  0  0
  -40.1950   21.9470    9.3710 C   0  0  0  0  0
  -40.0080   22.9270   10.3620 C   0  0  0  0  0
  -38.9060   23.8060   10.2890 C   0  0  0  0  0
  -37.9940   23.6850    9.2390 C   0  0  0  0  0
  -38.1790   22.6990    8.2680 C   0  0  0  0  0
  -41.4410   28.1505    0.5916 H   0  0  0  0  0
  -40.5163   30.8011    3.6745 H   0  0  0  0  0
  -40.0018   29.6210    1.4462 H   0  0  0  0  0
  -42.1986   24.7783    3.6695 H   0  0  0  0  0
  -40.8436   25.8380    4.2358 H   0  0  0  0  0
  -39.2371   24.5567    3.1839 H   0  0  0  0  0
  -40.4810   23.7469    2.0975 H   0  0  0  0  0
  -42.2740   21.9813    2.2713 H   0  0  0  0  0
  -40.6961   21.3939    1.6914 H   0  0  0  0  0
  -41.7992   20.2870    2.5452 H   0  0  0  0  0
  -41.2013   21.5898    6.7866 H   0  0  0  0  0
  -40.7488   19.1149    6.0001 H   0  0  0  0  0
  -40.7197   18.8926    4.2392 H   0  0  0  0  0
  -42.7038   18.4735    3.0794 H   0  0  0  0  0
  -41.8028   20.4426    7.3138 H   0  0  0  0  0
  -43.4097   20.6290    8.0237 H   0  0  0  0  0
  -47.1303   18.4083    5.9648 H   0  0  0  0  0
  -47.2770   20.0175    5.2164 H   0  0  0  0  0
  -47.2132   18.5619    4.1926 H   0  0  0  0  0
  -38.8636   18.0207    6.6804 H   0  0  0  0  0
  -35.4232   20.0348    8.3002 H   0  0  0  0  0
  -36.5840   21.0888    9.1445 H   0  0  0  0  0
  -36.0830   19.5466    9.8805 H   0  0  0  0  0
  -39.9127   19.3017    8.4778 H   0  0  0  0  0
  -41.0580   21.2829    9.4198 H   0  0  0  0  0
  -40.7150   23.0080   11.1876 H   0  0  0  0  0
  -38.7678   24.5754   11.0486 H   0  0  0  0  0
  -37.1394   24.3588    9.1774 H   0  0  0  0  0
  -37.4592   22.6092    7.4545 H   0  0  0  0  0
  1  2  1  0  0  0
  1  3  2  0  0  0
  1  8  1  0  0  0
  9  1  1  0  0  0
  5  4  1  0  0  0
  5  6  1  0  0  0
  5  7  2  0  0  0
  8  5  1  0  0  0
 10  9  1  0  0  0
 11 10  1  0  0  0
 12 11  1  0  0  0
 13 12  2  0  0  0
 15 12  1  0  0  0
 13 14  1  0  0  0
 17 13  1  0  0  0
 16 15  1  0  0  0
 16 17  1  0  0  0
 32 16  1  0  0  0
 17 18  1  0  0  0
 18 19  1  0  0  0
 19 20  4  0  0  0
 19 21  4  0  0  0
 20 25  4  0  0  0
 21 22  1  0  0  0
 21 23  4  0  0  0
 23 24  4  0  0  0
 25 24  4  0  0  0
 24 26  1  0  0  0
 28 27  1  0  0  0
 28 29  2  0  0  0
 28 30  1  0  0  0
 28 32  1  0  0  0
 30 31  1  0  0  0
 32 33  1  0  0  0
 32 34  1  0  0  0
 34 35  4  0  0  0
 34 39  4  0  0  0
 35 36  4  0  0  0
 36 37  4  0  0  0
 37 38  4  0  0  0
 38 39  4  0  0  0
  2 40  1  0  0  0
  4 41  1  0  0  0
  6 42  1  0  0  0
 10 43  1  0  0  0
 10 44  1  0  0  0
 11 45  1  0  0  0
 11 46  1  0  0  0
 14 47  1  0  0  0
 14 48  1  0  0  0
 14 49  1  0  0  0
 16 50  1  0  0  0
 18 51  1  0  0  0
 18 52  1  0  0  0
 20 53  1  0  0  0
 22 54  1  0  0  0
 22 55  1  0  0  0
 26 56  1  0  0  0
 26 57  1  0  0  0
 26 58  1  0  0  0
 27 59  1  0  0  0
 31 60  1  0  0  0
 31 61  1  0  0  0
 31 62  1  0  0  0
 33 63  1  0  0  0
 35 64  1  0  0  0
 36 65  1  0  0  0
 37 66  1  0  0  0
 38 67  1  0  0  0
 39 68  1  0  0  0
M  END
$$$$
