4l2k_ligand
  -I-interpret- 

 30 33  0  0  0  0  0  0  0  0999 V2000
   -7.5080  -38.5070    9.8510 C   0  0  0  0  0
   -7.3770  -38.6060    8.5130 C   0  0  0  0  0
   -8.0880  -39.3820    7.6380 O   0  0  0  0  0
   -7.8410  -38.6440    6.3460 C   0  0  0  0  0
   -6.4930  -38.0980    6.4830 O   0  0  0  0  0
   -6.4500  -37.8700    7.8320 C   0  0  0  0  0
   -5.6580  -37.0220    8.4820 C   0  0  0  0  0
   -5.7390  -36.8920    9.8640 C   0  0  0  0  0
   -6.6760  -37.6440   10.5920 C   0  0  0  0  0
   -6.7420  -37.4680   12.0010 C   0  0  0  0  0
   -5.9630  -36.4410   12.4960 O   0  0  0  0  0
   -5.8730  -36.2150   13.8240 C   0  0  0  0  0
   -4.9900  -35.2410   14.2660 C   0  0  0  0  0
   -4.8550  -35.0030   15.6320 C   0  0  0  0  0
   -5.6250  -35.7750   16.5130 C   0  0  0  0  0
   -6.5220  -36.7400   16.0590 C   0  0  0  0  0
   -6.6800  -36.9560   14.7000 C   0  0  0  0  0
   -7.5580  -37.9330   14.2100 C   0  0  0  0  0
   -8.3510  -38.5400   14.9420 O   0  0  0  0  0
   -7.5650  -38.1930   12.8480 C   0  0  0  0  0
   -8.2646  -39.1001   10.3647 H   0  0  0  0  0
   -8.5812  -37.8621    6.1763 H   0  0  0  0  0
   -7.9281  -39.2999    5.4798 H   0  0  0  0  0
   -4.9377  -36.4225    7.9254 H   0  0  0  0  0
   -5.0729  -36.2039   10.3845 H   0  0  0  0  0
   -4.4051  -34.6651   13.5488 H   0  0  0  0  0
   -4.1716  -34.2399   16.0043 H   0  0  0  0  0
   -5.5189  -35.6156   17.5860 H   0  0  0  0  0
   -7.0999  -37.3254   16.7741 H   0  0  0  0  0
   -8.2174  -38.9671   12.4439 H   0  0  0  0  0
  1  2  4  0  0  0
  1  9  4  0  0  0
  2  3  1  0  0  0
  2  6  4  0  0  0
  3  4  1  0  0  0
  4  5  1  0  0  0
  5  6  1  0  0  0
  6  7  4  0  0  0
  7  8  4  0  0  0
  8  9  4  0  0  0
  9 10  1  0  0  0
 10 11  1  0  0  0
 10 20  2  0  0  0
 11 12  1  0  0  0
 12 13  4  0  0  0
 12 17  4  0  0  0
 13 14  4  0  0  0
 14 15  4  0  0  0
 15 16  4  0  0  0
 16 17  4  0  0  0
 17 18  1  0  0  0
 18 19  2  0  0  0
 18 20  1  0  0  0
  1 21  1  0  0  0
  4 22  1  0  0  0
  4 23  1  0  0  0
  7 24  1  0  0  0
  8 25  1  0  0  0
 13 26  1  0  0  0
 14 27  1  0  0  0
 15 28  1  0  0  0
 16 29  1  0  0  0
 20 30  1  0  0  0
M  END
$$$$
