6fv1_ligand
  -I-interpret- 

 77 79  0  0  0  0  0  0  0  0999 V2000
   49.7300    5.1970   51.9530 C   0  0  0  0  0
   51.5130   12.1820   48.4540 C   0  0  0  0  0
   50.6980    9.8350   47.2310 O   0  0  0  0  0
   50.8750    9.8740   48.5050 C   0  0  0  0  0
   50.7490    8.7060   49.4970 C   0  0  0  0  0
   50.2770    7.3810   49.0190 C   0  0  0  0  0
   50.1260    6.2790   49.8520 C   0  0  0  0  0
   49.9130    6.3890   51.2340 C   0  0  0  0  0
   49.7400    3.9360   51.3290 C   0  0  0  0  0
   49.9320    3.8290   49.9580 C   0  0  0  0  0
   50.1170    5.0010   49.2360 C   0  0  0  0  0
   56.5390   15.8950   51.1770 C   0  0  0  0  0
   57.1280   15.2100   52.2690 C   0  0  0  0  0
   58.1380   15.8530   52.9660 C   0  0  0  0  0
   58.5990   17.1280   52.5790 C   0  0  0  0  0
   58.0210   17.7730   51.4770 C   0  0  0  0  0
   56.9900   17.1570   50.7420 C   0  0  0  0  0
   56.3960   17.8660   49.6710 C   0  0  0  0  0
   55.4110   17.0110   48.9610 N   0  0  0  0  0
   55.6400   16.2790   47.8350 C   0  0  0  0  0
   56.7060   16.2380   47.2270 O   0  0  0  0  0
   54.4480   15.4640   47.4340 C   0  0  0  0  0
   53.3330   15.8070   48.3620 O   0  0  0  0  0
   54.7030   13.9740   47.6240 C   0  0  0  0  0
   55.6450   13.3410   46.5500 C   0  0  0  0  0
   55.9850   11.8690   46.8290 C   0  0  0  0  0
   56.8230   11.7180   48.1250 C   0  0  0  0  0
   57.7820   10.5880   47.8000 C   0  0  0  0  0
   57.8300   10.5680   46.2890 N   0  0  0  0  0
   56.8470   11.3140   45.7720 C   0  0  0  0  0
   56.5950   11.3560   44.5610 O   0  0  0  0  0
   53.3520   13.3660   47.5300 N   0  0  0  0  0
   52.8730   12.6670   48.6110 C   0  0  0  0  0
   53.4800   12.5010   49.6630 O   0  0  0  0  0
   50.5870   13.2470   49.0590 C   0  0  0  0  0
   49.0970   12.9040   48.8280 C   0  0  0  0  0
   48.6620   13.1870   47.4050 C   0  0  0  0  0
   48.2450   13.7990   49.7910 C   0  0  0  0  0
   51.3490   10.9270   49.1710 N   0  0  0  0  0
   49.5750    5.2503   53.0306 H   0  0  0  0  0
   51.2801   12.0080   47.4035 H   0  0  0  0  0
   51.0050    8.8496   50.5467 H   0  0  0  0  0
   50.0371    7.2675   47.9618 H   0  0  0  0  0
   49.8905    7.3597   51.7293 H   0  0  0  0  0
   49.5959    3.0359   51.9266 H   0  0  0  0  0
   49.9374    2.8571   49.4645 H   0  0  0  0  0
   50.2604    4.9366   48.1574 H   0  0  0  0  0
   55.7050   15.4275   50.6535 H   0  0  0  0  0
   56.7973   14.2104   52.5511 H   0  0  0  0  0
   58.5853   15.3633   53.8310 H   0  0  0  0  0
   59.4026   17.6107   53.1352 H   0  0  0  0  0
   58.3735   18.7624   51.1857 H   0  0  0  0  0
   57.1752   18.1644   48.9696 H   0  0  0  0  0
   55.8823   18.7413   50.0686 H   0  0  0  0  0
   54.4711   16.9675   49.3549 H   0  0  0  0  0
   54.2266   15.6744   46.3877 H   0  0  0  0  0
   52.5542   15.2973   48.1269 H   0  0  0  0  0
   55.2157   13.7976   48.5696 H   0  0  0  0  0
   56.5795   13.9020   46.5607 H   0  0  0  0  0
   55.1264   13.3828   45.5922 H   0  0  0  0  0
   55.0257   11.3558   46.8965 H   0  0  0  0  0
   56.2062   11.5033   48.9977 H   0  0  0  0  0
   57.3399   12.6383   48.3968 H   0  0  0  0  0
   57.4519    9.6354   48.2144 H   0  0  0  0  0
   58.7664   10.7432   48.2415 H   0  0  0  0  0
   58.5186   10.0552   45.7383 H   0  0  0  0  0
   52.7927   13.4650   46.6828 H   0  0  0  0  0
   50.7992   14.2015   48.5773 H   0  0  0  0  0
   50.7678   13.2903   50.1330 H   0  0  0  0  0
   48.9531   11.8404   49.0184 H   0  0  0  0  0
   48.8056   14.2451   47.1861 H   0  0  0  0  0
   49.2597   12.5881   46.7178 H   0  0  0  0  0
   47.6087   12.9307   47.2906 H   0  0  0  0  0
   48.5263   13.5900   50.8231 H   0  0  0  0  0
   48.4309   14.8496   49.5680 H   0  0  0  0  0
   47.1871   13.5779   49.6495 H   0  0  0  0  0
   51.5908   10.8545   50.1593 H   0  0  0  0  0
  8  1  4  0  0  0
  1  9  4  0  0  0
 33  2  1  0  0  0
  2 35  1  0  0  0
  2 39  1  0  0  0
  4  3  2  0  0  0
  4  5  1  0  0  0
 39  4  1  0  0  0
  5  6  2  0  0  0
  6  7  1  0  0  0
  7  8  4  0  0  0
  7 11  4  0  0  0
 10  9  4  0  0  0
 11 10  4  0  0  0
 12 13  4  0  0  0
 17 12  4  0  0  0
 13 14  4  0  0  0
 15 14  4  0  0  0
 16 15  4  0  0  0
 17 16  4  0  0  0
 18 17  1  0  0  0
 19 18  1  0  0  0
 20 19  1  0  0  0
 20 21  2  0  0  0
 22 20  1  0  0  0
 22 23  1  0  0  0
 24 22  1  0  0  0
 24 25  1  0  0  0
 32 24  1  0  0  0
 25 26  1  0  0  0
 26 27  1  0  0  0
 26 30  1  0  0  0
 27 28  1  0  0  0
 29 28  1  0  0  0
 30 29  1  0  0  0
 30 31  2  0  0  0
 32 33  1  0  0  0
 33 34  2  0  0  0
 35 36  1  0  0  0
 36 37  1  0  0  0
 36 38  1  0  0  0
  1 40  1  0  0  0
  2 41  1  0  0  0
  5 42  1  0  0  0
  6 43  1  0  0  0
  8 44  1  0  0  0
  9 45  1  0  0  0
 10 46  1  0  0  0
 11 47  1  0  0  0
 12 48  1  0  0  0
 13 49  1  0  0  0
 14 50  1  0  0  0
 15 51  1  0  0  0
 16 52  1  0  0  0
 18 53  1  0  0  0
 18 54  1  0  0  0
 19 55  1  0  0  0
 22 56  1  0  0  0
 23 57  1  0  0  0
 24 58  1  0  0  0
 25 59  1  0  0  0
 25 60  1  0  0  0
 26 61  1  0  0  0
 27 62  1  0  0  0
 27 63  1  0  0  0
 28 64  1  0  0  0
 28 65  1  0  0  0
 29 66  1  0  0  0
 32 67  1  0  0  0
 35 68  1  0  0  0
 35 69  1  0  0  0
 36 70  1  0  0  0
 37 71  1  0  0  0
 37 72  1  0  0  0
 37 73  1  0  0  0
 38 74  1  0  0  0
 38 75  1  0  0  0
 38 76  1  0  0  0
 39 77  1  0  0  0
M  END
$$$$
