2brg_ligand
  -I-interpret- 

 45 48  0  0  0  0  0  0  0  0999 V2000
    5.8270   -2.0940   19.7640 C   0  0  0  0  0
    1.7960   -4.0850   19.9240 C   0  0  0  0  0
    0.4530   -4.4350   20.2240 C   0  0  0  0  0
    0.0010   -5.7760   20.2250 C   0  0  0  0  0
   -1.3200   -6.1150   20.5430 C   0  0  0  0  0
   -2.2050   -5.1090   20.9090 C   0  0  0  0  0
   -1.7550   -3.7890   20.9370 C   0  0  0  0  0
   -0.4470   -3.4320   20.6040 C   0  0  0  0  0
    1.4100   -6.0770   17.5750 C   0  0  0  0  0
    1.0450   -7.3070   17.0230 C   0  0  0  0  0
    1.6660   -8.4810   17.4410 C   0  0  0  0  0
    2.6700   -8.4080   18.4230 C   0  0  0  0  0
    4.5930   -1.9880   20.2900 N   0  0  0  0  0
    3.6720   -2.9120   20.0340 C   0  0  0  0  0
    2.3710   -2.9630   20.4590 O   0  0  0  0  0
    3.9750   -4.0330   19.2160 C   0  0  0  0  0
    5.8140   -5.0910   17.9060 N   0  0  0  0  0
    5.3040   -4.1040   18.6950 C   0  0  0  0  0
    6.1900   -3.1150   18.9920 N   0  0  0  0  0
    3.0350   -7.1790   18.9840 C   0  0  0  0  0
    2.7520   -4.7640   19.1520 C   0  0  0  0  0
    2.4230   -5.9920   18.5480 C   0  0  0  0  0
    7.8110   -4.2130   16.6610 C   0  0  0  0  0
    7.3060   -5.1480   17.8050 C   0  0  0  0  0
    8.2310   -2.9300   17.1550 O   0  0  0  0  0
    4.9330   -6.0480   17.2170 C   0  0  0  0  0
    6.5571   -1.3136   19.9786 H   0  0  0  0  0
    0.7031   -6.5699   19.9703 H   0  0  0  0  0
   -1.6490   -7.1534   20.5039 H   0  0  0  0  0
   -3.2359   -5.3475   21.1705 H   0  0  0  0  0
   -2.4526   -3.0047   21.2307 H   0  0  0  0  0
   -0.1315   -2.3892   20.6393 H   0  0  0  0  0
    0.9027   -5.1696   17.2473 H   0  0  0  0  0
    0.2683   -7.3481   16.2594 H   0  0  0  0  0
    1.3784   -9.4417   17.0138 H   0  0  0  0  0
    3.1698   -9.3194   18.7510 H   0  0  0  0  0
    3.7972   -7.1426   19.7624 H   0  0  0  0  0
    6.9885   -4.0555   15.9634 H   0  0  0  0  0
    8.6676   -4.6907   16.1855 H   0  0  0  0  0
    7.6078   -6.1721   17.5854 H   0  0  0  0  0
    7.7384   -4.8181   18.7496 H   0  0  0  0  0
    8.5326   -2.3890   16.4215 H   0  0  0  0  0
    4.3440   -6.5935   17.9543 H   0  0  0  0  0
    4.2662   -5.5074   16.5453 H   0  0  0  0  0
    5.5387   -6.7492   16.6430 H   0  0  0  0  0
 13  1  4  0  0  0
 19  1  4  0  0  0
  2  3  1  0  0  0
  2 15  4  0  0  0
 21  2  4  0  0  0
  3  4  4  0  0  0
  3  8  4  0  0  0
  4  5  4  0  0  0
  5  6  4  0  0  0
  7  6  4  0  0  0
  8  7  4  0  0  0
  9 10  4  0  0  0
 22  9  4  0  0  0
 10 11  4  0  0  0
 12 11  4  0  0  0
 20 12  4  0  0  0
 14 13  4  0  0  0
 14 15  4  0  0  0
 16 14  4  0  0  0
 16 18  4  0  0  0
 21 16  4  0  0  0
 18 17  1  0  0  0
 17 24  1  0  0  0
 17 26  1  0  0  0
 18 19  4  0  0  0
 22 20  4  0  0  0
 21 22  1  0  0  0
 24 23  1  0  0  0
 23 25  1  0  0  0
  1 27  1  0  0  0
  4 28  1  0  0  0
  5 29  1  0  0  0
  6 30  1  0  0  0
  7 31  1  0  0  0
  8 32  1  0  0  0
  9 33  1  0  0  0
 10 34  1  0  0  0
 11 35  1  0  0  0
 12 36  1  0  0  0
 20 37  1  0  0  0
 23 38  1  0  0  0
 23 39  1  0  0  0
 24 40  1  0  0  0
 24 41  1  0  0  0
 25 42  1  0  0  0
 26 43  1  0  0  0
 26 44  1  0  0  0
 26 45  1  0  0  0
M  END
$$$$
