4kp6_ligand
  -I-interpret- 

 38 39  0  0  0  0  0  0  0  0999 V2000
  -41.4990   90.8870  116.2040 C   0  0  0  0  0
  -39.8600   90.7430  114.5090 C   0  0  0  0  0
  -39.4460   89.8180  116.6260 C   0  0  0  0  0
  -39.3330   92.1900  111.3240 N   0  0  0  0  0
  -38.2970   91.3500  111.4970 C   0  0  0  0  0
  -38.6050   89.1440  117.4750 N   0  0  0  0  0
  -43.8180   91.8010  115.6670 C   0  0  0  0  0
  -44.9770   92.2720  116.5630 C   0  0  0  0  0
  -46.2140   92.8050  115.8420 C   0  0  0  0  0
  -44.2400   90.6890  114.6660 C   0  0  0  0  0
  -44.8020   89.4560  115.3860 C   0  0  0  0  0
  -42.9900   93.8260  114.2230 N   0  0  0  0  0
  -43.3560   92.9370  114.8660 C   0  0  0  0  0
  -42.7650   91.2970  116.5760 N   0  0  0  0  0
  -40.6650   90.2570  117.0710 N   0  0  0  0  0
  -37.3070   88.6180  117.0570 C   0  0  0  0  0
  -39.0160   90.1050  115.3590 N   0  0  0  0  0
  -41.0900   91.1610  114.9320 N   0  0  0  0  0
  -39.4210   91.1000  113.1860 N   0  0  0  0  0
  -38.3610   90.7110  112.6460 N   0  0  0  0  0
  -40.0440   92.0300  112.4420 C   0  0  0  0  0
  -37.4967   91.2140  110.7696 H   0  0  0  0  0
  -38.8989   89.0037  118.4416 H   0  0  0  0  0
  -44.5876   93.1017  117.1529 H   0  0  0  0  0
  -45.3048   91.3956  117.1221 H   0  0  0  0  0
  -45.9356   93.6649  115.2328 H   0  0  0  0  0
  -46.6255   92.0236  115.2032 H   0  0  0  0  0
  -46.9603   93.1054  116.5774 H   0  0  0  0  0
  -43.3586   90.3838  114.1020 H   0  0  0  0  0
  -45.0181   91.0904  114.0167 H   0  0  0  0  0
  -44.0414   89.0472  116.0513 H   0  0  0  0  0
  -45.6780   89.7441  115.9671 H   0  0  0  0  0
  -45.0843   88.7039  114.6493 H   0  0  0  0  0
  -42.9948   91.2477  117.5686 H   0  0  0  0  0
  -37.4504   87.8994  116.2500 H   0  0  0  0  0
  -36.6795   89.4380  116.7078 H   0  0  0  0  0
  -36.8265   88.1257  117.9025 H   0  0  0  0  0
  -40.9616   92.5569  112.7038 H   0  0  0  0  0
  1 14  1  0  0  0
  1 15  4  0  0  0
 18  1  4  0  0  0
  2 17  4  0  0  0
  2 18  4  0  0  0
 19  2  1  0  0  0
  3  6  1  0  0  0
  3 15  4  0  0  0
 17  3  4  0  0  0
  5  4  4  0  0  0
  4 21  4  0  0  0
 20  5  4  0  0  0
  6 16  1  0  0  0
  7  8  1  0  0  0
  7 10  1  0  0  0
  7 13  1  0  0  0
 14  7  1  0  0  0
  8  9  1  0  0  0
 10 11  1  0  0  0
 13 12  3  0  0  0
 19 20  4  0  0  0
 19 21  4  0  0  0
  5 22  1  0  0  0
  6 23  1  0  0  0
  8 24  1  0  0  0
  8 25  1  0  0  0
  9 26  1  0  0  0
  9 27  1  0  0  0
  9 28  1  0  0  0
 10 29  1  0  0  0
 10 30  1  0  0  0
 11 31  1  0  0  0
 11 32  1  0  0  0
 11 33  1  0  0  0
 14 34  1  0  0  0
 16 35  1  0  0  0
 16 36  1  0  0  0
 16 37  1  0  0  0
 21 38  1  0  0  0
M  END
$$$$
