### 
### Created by X-TOOL on Mon Sep 10 21:12:49 2018
### 

@<TRIPOS>MOLECULE
1lb6_ligand
  154   155     1     0     0
SMALL
GAST_HUCK


@<TRIPOS>ATOM
      1 N          25.0230   20.8220   15.9910 N.4       1 LYS         0.2379
      2 CA         23.7190   20.1800   16.3280 C.3       1 LYS         0.0650
      3 C          22.6340   20.6080   15.3550 C.2       1 LYS         0.2267
      4 O          22.3820   21.8040   15.1750 O.2       1 LYS        -0.3907
      5 CB         23.3010   20.5550   17.7500 C.3       1 LYS         0.0080
      6 CG         21.9800   19.9430   18.1830 C.3       1 LYS        -0.0410
      7 CD         21.6390   20.3420   19.6040 C.3       1 LYS        -0.0123
      8 CE         20.3430   19.7010   20.0590 C.3       1 LYS        -0.0354
      9 NZ         20.0370   20.0430   21.4740 N.4       1 LYS         0.2185
     10 N          21.9840   19.6330   14.7290 N.am      1 GLN        -0.2609
     11 CA         20.9200   19.9260   13.7740 C.3       1 GLN         0.1331
     12 C          19.7780   20.6890   14.4370 C.2       1 GLN         0.2040
     13 O          19.2920   20.3020   15.5010 O.2       1 GLN        -0.3944
     14 CB         20.3950   18.6230   13.1540 C.3       1 GLN         0.0045
     15 CG         19.2570   18.8460   12.1840 C.3       1 GLN         0.0412
     16 CD         19.0270   17.6720   11.2540 C.2       1 GLN         0.1737
     17 OE1        18.9740   17.8570   10.0330 O.2       1 GLN        -0.3973
     18 NE2        18.8950   16.4790   11.8030 N.am      1 GLN        -0.3009
     19 N          19.3640   21.7780   13.7970 N.am      1 GLU        -0.2636
     20 CA         18.2820   22.6260   14.2990 C.3       1 GLU         0.1327
     21 C          17.0030   22.5040   13.4730 C.2       1 GLU         0.2065
     22 O          17.0360   22.5970   12.2480 O.2       1 GLU        -0.3942
     23 CB         18.7200   24.0940   14.3000 C.3       1 GLU        -0.0008
     24 CG         19.8200   24.4390   15.2890 C.3       1 GLU         0.0044
     25 CD         19.4060   24.1780   16.7200 C.2       1 GLU         0.0350
     26 OE1        18.3180   24.6470   17.1140 O.co2     1 GLU        -0.5690
     27 OE2        20.1700   23.5150   17.4540 O.co2     1 GLU        -0.5690
     28 N          15.8580   22.2910   14.1390 N.am      1 PRO        -0.2498
     29 CA         14.5600   22.1620   13.4670 C.3       1 PRO         0.1338
     30 C          14.1200   23.4990   12.8670 C.2       1 PRO         0.2041
     31 O          14.6420   24.5490   13.2320 O.2       1 PRO        -0.3944
     32 CB         13.6460   21.7130   14.6050 C.3       1 PRO        -0.0104
     33 CG         14.2390   22.4740   15.7800 C.3       1 PRO        -0.0281
     34 CD         15.6910   22.0970   15.5910 C.3       1 PRO         0.0369
     35 N          13.1620   23.4610   11.9490 N.am      1 GLN        -0.2636
     36 CA         12.6710   24.6810   11.3220 C.3       1 GLN         0.1330
     37 C          11.1880   24.5640   11.0020 C.2       1 GLN         0.2040
     38 O          10.6480   23.4620   10.8950 O.2       1 GLN        -0.3944
     39 CB         13.4380   24.9760   10.0290 C.3       1 GLN         0.0045
     40 CG         13.2060   23.9660    8.9160 C.3       1 GLN         0.0412
     41 CD         13.9330   24.3280    7.6280 C.2       1 GLN         0.1737
     42 OE1        13.8340   23.6230    6.6270 O.2       1 GLN        -0.3973
     43 NE2        14.6610   25.4350    7.6510 N.am      1 GLN        -0.3009
     44 N          10.5340   25.7070   10.8520 N.am      1 GLU        -0.2636
     45 CA          9.1190   25.7200   10.5240 C.3       1 GLU         0.1325
     46 C           8.9480   25.7630    9.0170 C.2       1 GLU         0.2040
     47 O           9.6400   26.5130    8.3260 O.2       1 GLU        -0.3944
     48 CB          8.4320   26.9430   11.1330 C.3       1 GLU        -0.0008
     49 CG          6.9430   27.0350   10.8040 C.3       1 GLU         0.0044
     50 CD          6.2970   28.2870   11.3660 C.2       1 GLU         0.0350
     51 OE1         6.6580   29.3970   10.9200 O.co2     1 GLU        -0.5690
     52 OE2         5.4340   28.1630   12.2620 O.co2     1 GLU        -0.5690
     53 N           8.0370   24.9430    8.5090 N.am      1 ILE        -0.2635
     54 CA          7.7400   24.9190    7.0820 C.3       1 ILE         0.1335
     55 C           6.2290   24.9900    6.9090 C.2       1 ILE         0.2042
     56 O           5.4780   24.2960    7.5940 O.2       1 ILE        -0.3944
     57 CB          8.2750   23.6410    6.3830 C.3       1 ILE        -0.0037
     58 CG1         9.8080   23.6610    6.3700 C.3       1 ILE        -0.0491
     59 CG2         7.7260   23.5520    4.9560 C.3       1 ILE        -0.0582
     60 CD1        10.4380   22.5120    5.6060 C.3       1 ILE        -0.0648
     61 N           5.7910   25.8610    6.0110 N.am      1 ASP        -0.2622
     62 CA          4.3740   26.0230    5.7360 C.3       1 ASP         0.1423
     63 C           4.0810   25.1240    4.5450 C.2       1 ASP         0.2052
     64 O           4.5600   25.3790    3.4380 O.2       1 ASP        -0.3943
     65 CB          4.0710   27.4770    5.3700 C.3       1 ASP         0.0406
     66 CG          2.5870   27.7550    5.2680 C.2       1 ASP         0.0393
     67 OD1         1.8830   27.0210    4.5400 O.co2     1 ASP        -0.5688
     68 OD2         2.1250   28.7170    5.9170 O.co2     1 ASP        -0.5688
     69 N           3.3140   24.0650    4.7710 N.am      1 PHE        -0.2676
     70 CA          2.9850   23.1490    3.6930 C.3       1 PHE         0.1039
     71 C           1.6750   23.5410    3.0250 C.2       1 PHE         0.0621
     72 O           1.1040   24.5830    3.4150 O.co2     1 PHE        -0.5664
     73 CB          2.9030   21.7110    4.2190 C.3       1 PHE         0.0159
     74 CG          4.1680   21.2380    4.8870 C.ar      1 PHE        -0.0392
     75 CD1         4.4480   21.5800    6.2090 C.ar      1 PHE        -0.0602
     76 CD2         5.0950   20.4750    4.1830 C.ar      1 PHE        -0.0602
     77 CE1         5.6320   21.1670    6.8200 C.ar      1 PHE        -0.0686
     78 CE2         6.2810   20.0590    4.7800 C.ar      1 PHE        -0.0686
     79 CZ          6.5520   20.4040    6.1030 C.ar      1 PHE        -0.0687
     80 OXT         1.2420   22.8110    2.1120 O.co2     1 PHE        -0.5664
     81 H1         25.7250   20.5227   16.6496 H         1 LYS         0.2015
     82 H2         24.9257   21.8243   16.0360 H         1 LYS         0.2015
     83 H3         25.2994   20.5527   15.0598 H         1 LYS         0.2015
     84 H4         23.8387   19.0882   16.2670 H         1 LYS         0.1098
     85 H5         23.2112   21.6498   17.8076 H         1 LYS         0.0346
     86 H6         24.0845   20.2143   18.4429 H         1 LYS         0.0346
     87 H7         22.0546   18.8471   18.1248 H         1 LYS         0.0270
     88 H8         21.1833   20.2926   17.5099 H         1 LYS         0.0270
     89 H9         21.5348   21.4359   19.6540 H         1 LYS         0.0317
     90 H10        22.4518   20.0202   20.2716 H         1 LYS         0.0317
     91 H11        20.4318   18.6086   19.9659 H         1 LYS         0.0813
     92 H12        19.5228   20.0582   19.4189 H         1 LYS         0.0813
     93 H13        19.1718   19.6033   21.7464 H         1 LYS         0.1994
     94 H14        19.9494   21.0429   21.5666 H         1 LYS         0.1994
     95 H15        20.7823   19.7145   22.0678 H         1 LYS         0.1994
     96 H16        22.2281   18.6814   14.9155 H         1 GLN         0.1885
     97 H17        21.3366   20.5532   12.9721 H         1 GLN         0.0801
     98 H18        20.0419   17.9672   13.9634 H         1 GLN         0.0337
     99 H19        21.2209   18.1322   12.6183 H         1 GLN         0.0337
    100 H20        19.4846   19.7341   11.5762 H         1 GLN         0.0504
    101 H21        18.3362   19.0217   12.7596 H         1 GLN         0.0504
    102 H22        18.7418   15.6771   11.2256 H         1 GLN         0.1814
    103 H23        18.9482   16.3771   12.7964 H         1 GLN         0.1814
    104 H24        19.8100   22.0280   12.9376 H         1 GLU         0.1883
    105 H25        18.0591   22.3193   15.3316 H         1 GLU         0.0801
    106 H26        17.8415   24.7113   14.5389 H         1 GLU         0.0330
    107 H27        19.0794   24.3428   13.2906 H         1 GLU         0.0330
    108 H28        20.0709   25.5046   15.1819 H         1 GLU         0.0433
    109 H29        20.7061   23.8288   15.0600 H         1 GLU         0.0433
    110 H30        14.5982   21.4031   12.6717 H         1 PRO         0.0802
    111 H31        13.7008   20.6254   14.7605 H         1 PRO         0.0313
    112 H32        12.6014   22.0051   14.4219 H         1 PRO         0.0313
    113 H33        13.8425   22.1211   16.7434 H         1 PRO         0.0287
    114 H34        14.0790   23.5588   15.6929 H         1 PRO         0.0287
    115 H35        16.3561   22.7597   16.1641 H         1 PRO         0.0524
    116 H36        15.8759   21.0521   15.8808 H         1 PRO         0.0524
    117 H37        12.7706   22.5800   11.6832 H         1 GLN         0.1883
    118 H38        12.8190   25.5169   12.0216 H         1 GLN         0.0801
    119 H39        14.5129   24.9899   10.2622 H         1 GLN         0.0337
    120 H40        13.1291   25.9667    9.6642 H         1 GLN         0.0337
    121 H41        12.1271   23.9145    8.7077 H         1 GLN         0.0504
    122 H42        13.5614   22.9818    9.2551 H         1 GLN         0.0504
    123 H43        15.1605   25.7220    6.8336 H         1 GLN         0.1814
    124 H44        14.7109   25.9834    8.4857 H         1 GLN         0.1814
    125 H45        11.0215   26.5726   10.9662 H         1 GLU         0.1883
    126 H46         8.6501   24.8071   10.9200 H         1 GLU         0.0801
    127 H47         8.9289   27.8471   10.7513 H         1 GLU         0.0330
    128 H48         8.5443   26.8966   12.2263 H         1 GLU         0.0330
    129 H49         6.4340   26.1561   11.2265 H         1 GLU         0.0433
    130 H50         6.8234   27.0376    9.7105 H         1 GLU         0.0433
    131 H51         7.5416   24.3259    9.1204 H         1 ILE         0.1883
    132 H52         8.2043   25.7970    6.6092 H         1 ILE         0.0803
    133 H53         7.9370   22.7590    6.9467 H         1 ILE         0.0345
    134 H54        10.1625   23.6190    7.4105 H         1 ILE         0.0267
    135 H55        10.1369   24.6037    5.9084 H         1 ILE         0.0267
    136 H56         6.6265   23.5389    4.9863 H         1 ILE         0.0235
    137 H57         8.0907   22.6300    4.4796 H         1 ILE         0.0235
    138 H58         8.0664   24.4232    4.3771 H         1 ILE         0.0235
    139 H59        11.5336   22.6019    5.6463 H         1 ILE         0.0230
    140 H60        10.1059   22.5428    4.5578 H         1 ILE         0.0230
    141 H61        10.1315   21.5581    6.0599 H         1 ILE         0.0230
    142 H62         6.4521   26.4201    5.5107 H         1 ASP         0.1884
    143 H63         3.7730   25.7239    6.6074 H         1 ASP         0.0819
    144 H64         4.5387   27.7008    4.3998 H         1 ASP         0.0478
    145 H65         4.4995   28.1315    6.1433 H         1 ASP         0.0478
    146 H66         2.9597   23.8963    5.6908 H         1 PHE         0.1877
    147 H67         3.7858   23.1992    2.9405 H         1 PHE         0.0749
    148 H68         2.6867   21.0431    3.3722 H         1 PHE         0.0467
    149 H69         2.0825   21.6545    4.9494 H         1 PHE         0.0467
    150 H70         3.7361   22.1749    6.7697 H         1 PHE         0.0557
    151 H71         4.8900   20.2008    3.1545 H         1 PHE         0.0557
    152 H72         5.8360   21.4387    7.8494 H         1 PHE         0.0599
    153 H73         6.9935   19.4672    4.2168 H         1 PHE         0.0599
    154 H74         7.4741   20.0804    6.5721 H         1 PHE         0.0559
@<TRIPOS>BOND
     1    1    2 1  
     2    2    3 1  
     3    2    5 1  
     4    3    4 2  
     5    3   10 am 
     6    5    6 1  
     7    6    7 1  
     8    7    8 1  
     9    8    9 1  
    10   10   11 1  
    11   11   12 1  
    12   11   14 1  
    13   12   13 2  
    14   12   19 am 
    15   14   15 1  
    16   15   16 1  
    17   16   17 2  
    18   16   18 am 
    19   19   20 1  
    20   20   21 1  
    21   20   23 1  
    22   21   22 2  
    23   21   28 am 
    24   23   24 1  
    25   24   25 1  
    26   25   26 ar 
    27   25   27 ar 
    28   28   29 1  
    29   28   34 1  
    30   29   30 1  
    31   29   32 1  
    32   30   31 2  
    33   30   35 am 
    34   32   33 1  
    35   33   34 1  
    36   35   36 1  
    37   36   37 1  
    38   36   39 1  
    39   37   38 2  
    40   37   44 am 
    41   39   40 1  
    42   40   41 1  
    43   41   42 2  
    44   41   43 am 
    45   44   45 1  
    46   45   46 1  
    47   45   48 1  
    48   46   47 2  
    49   46   53 am 
    50   48   49 1  
    51   49   50 1  
    52   50   51 ar 
    53   50   52 ar 
    54   53   54 1  
    55   54   55 1  
    56   54   57 1  
    57   55   56 2  
    58   55   61 am 
    59   57   58 1  
    60   57   59 1  
    61   58   60 1  
    62   61   62 1  
    63   62   63 1  
    64   62   65 1  
    65   63   64 2  
    66   63   69 am 
    67   65   66 1  
    68   66   67 ar 
    69   66   68 ar 
    70   69   70 1  
    71   70   71 1  
    72   70   73 1  
    73   71   72 ar 
    74   71   80 ar 
    75   73   74 1  
    76   74   75 ar 
    77   74   76 ar 
    78   75   77 ar 
    79   76   78 ar 
    80   77   79 ar 
    81   78   79 ar 
    82    1   81 1  
    83    1   82 1  
    84    1   83 1  
    85    2   84 1  
    86    5   85 1  
    87    5   86 1  
    88    6   87 1  
    89    6   88 1  
    90    7   89 1  
    91    7   90 1  
    92    8   91 1  
    93    8   92 1  
    94    9   93 1  
    95    9   94 1  
    96    9   95 1  
    97   10   96 1  
    98   11   97 1  
    99   14   98 1  
   100   14   99 1  
   101   15  100 1  
   102   15  101 1  
   103   18  102 1  
   104   18  103 1  
   105   19  104 1  
   106   20  105 1  
   107   23  106 1  
   108   23  107 1  
   109   24  108 1  
   110   24  109 1  
   111   29  110 1  
   112   32  111 1  
   113   32  112 1  
   114   33  113 1  
   115   33  114 1  
   116   34  115 1  
   117   34  116 1  
   118   35  117 1  
   119   36  118 1  
   120   39  119 1  
   121   39  120 1  
   122   40  121 1  
   123   40  122 1  
   124   43  123 1  
   125   43  124 1  
   126   44  125 1  
   127   45  126 1  
   128   48  127 1  
   129   48  128 1  
   130   49  129 1  
   131   49  130 1  
   132   53  131 1  
   133   54  132 1  
   134   57  133 1  
   135   58  134 1  
   136   58  135 1  
   137   59  136 1  
   138   59  137 1  
   139   59  138 1  
   140   60  139 1  
   141   60  140 1  
   142   60  141 1  
   143   61  142 1  
   144   62  143 1  
   145   65  144 1  
   146   65  145 1  
   147   69  146 1  
   148   70  147 1  
   149   73  148 1  
   150   73  149 1  
   151   75  150 1  
   152   76  151 1  
   153   77  152 1  
   154   78  153 1  
   155   79  154 1  
@<TRIPOS>SUBSTRUCTURE
     1 LYS         1

