1lb6_ligand
  -I-interpret- 

158159  0  0  0  0  0  0  0  0999 V2000
   25.0230   20.8220   15.9910 N   0  3  0  0  0
   23.7190   20.1800   16.3280 C   0  0  0  0  0
   22.6340   20.6080   15.3550 C   0  0  0  0  0
   22.3820   21.8040   15.1750 O   0  0  0  0  0
   23.3010   20.5550   17.7500 C   0  0  0  0  0
   21.9800   19.9430   18.1830 C   0  0  0  0  0
   21.6390   20.3420   19.6040 C   0  0  0  0  0
   20.3430   19.7010   20.0590 C   0  0  0  0  0
   20.0370   20.0430   21.4740 N   0  3  0  0  0
   21.9840   19.6330   14.7290 N   0  0  0  0  0
   20.9200   19.9260   13.7740 C   0  0  0  0  0
   19.7780   20.6890   14.4370 C   0  0  0  0  0
   19.2920   20.3020   15.5010 O   0  0  0  0  0
   20.3950   18.6230   13.1540 C   0  0  0  0  0
   19.2570   18.8460   12.1840 C   0  0  0  0  0
   19.0270   17.6720   11.2540 C   0  0  0  0  0
   18.9740   17.8570   10.0330 O   0  0  0  0  0
   18.8950   16.4790   11.8030 N   0  0  0  0  0
   19.3640   21.7780   13.7970 N   0  0  0  0  0
   18.2820   22.6260   14.2990 C   0  0  0  0  0
   17.0030   22.5040   13.4730 C   0  0  0  0  0
   17.0360   22.5970   12.2480 O   0  0  0  0  0
   18.7200   24.0940   14.3000 C   0  0  0  0  0
   19.8200   24.4390   15.2890 C   0  0  0  0  0
   19.4060   24.1780   16.7200 C   0  0  0  0  0
   18.3180   24.6470   17.1140 O   0  0  0  0  0
   20.1700   23.5150   17.4540 O   0  0  0  0  0
   15.8580   22.2910   14.1390 N   0  0  0  0  0
   14.5600   22.1620   13.4670 C   0  0  0  0  0
   14.1200   23.4990   12.8670 C   0  0  0  0  0
   14.6420   24.5490   13.2320 O   0  0  0  0  0
   13.6460   21.7130   14.6050 C   0  0  0  0  0
   14.2390   22.4740   15.7800 C   0  0  0  0  0
   15.6910   22.0970   15.5910 C   0  0  0  0  0
   13.1620   23.4610   11.9490 N   0  0  0  0  0
   12.6710   24.6810   11.3220 C   0  0  0  0  0
   11.1880   24.5640   11.0020 C   0  0  0  0  0
   10.6480   23.4620   10.8950 O   0  0  0  0  0
   13.4380   24.9760   10.0290 C   0  0  0  0  0
   13.2060   23.9660    8.9160 C   0  0  0  0  0
   13.9330   24.3280    7.6280 C   0  0  0  0  0
   13.8340   23.6230    6.6270 O   0  0  0  0  0
   14.6610   25.4350    7.6510 N   0  0  0  0  0
   10.5340   25.7070   10.8520 N   0  0  0  0  0
    9.1190   25.7200   10.5240 C   0  0  0  0  0
    8.9480   25.7630    9.0170 C   0  0  0  0  0
    9.6400   26.5130    8.3260 O   0  0  0  0  0
    8.4320   26.9430   11.1330 C   0  0  0  0  0
    6.9430   27.0350   10.8040 C   0  0  0  0  0
    6.2970   28.2870   11.3660 C   0  0  0  0  0
    6.6580   29.3970   10.9200 O   0  0  0  0  0
    5.4340   28.1630   12.2620 O   0  0  0  0  0
    8.0370   24.9430    8.5090 N   0  0  0  0  0
    7.7400   24.9190    7.0820 C   0  0  0  0  0
    6.2290   24.9900    6.9090 C   0  0  0  0  0
    5.4780   24.2960    7.5940 O   0  0  0  0  0
    8.2750   23.6410    6.3830 C   0  0  0  0  0
    9.8080   23.6610    6.3700 C   0  0  0  0  0
    7.7260   23.5520    4.9560 C   0  0  0  0  0
   10.4380   22.5120    5.6060 C   0  0  0  0  0
    5.7910   25.8610    6.0110 N   0  0  0  0  0
    4.3740   26.0230    5.7360 C   0  0  0  0  0
    4.0810   25.1240    4.5450 C   0  0  0  0  0
    4.5600   25.3790    3.4380 O   0  0  0  0  0
    4.0710   27.4770    5.3700 C   0  0  0  0  0
    2.5870   27.7550    5.2680 C   0  0  0  0  0
    1.8830   27.0210    4.5400 O   0  0  0  0  0
    2.1250   28.7170    5.9170 O   0  0  0  0  0
    3.3140   24.0650    4.7710 N   0  0  0  0  0
    2.9850   23.1490    3.6930 C   0  0  0  0  0
    1.6750   23.5410    3.0250 C   0  0  0  0  0
    1.1040   24.5830    3.4150 O   0  0  0  0  0
    2.9030   21.7110    4.2190 C   0  0  0  0  0
    4.1680   21.2380    4.8870 C   0  0  0  0  0
    4.4480   21.5800    6.2090 C   0  0  0  0  0
    5.0950   20.4750    4.1830 C   0  0  0  0  0
    5.6320   21.1670    6.8200 C   0  0  0  0  0
    6.2810   20.0590    4.7800 C   0  0  0  0  0
    6.5520   20.4040    6.1030 C   0  0  0  0  0
    1.2420   22.8110    2.1120 O   0  0  0  0  0
   25.2917   20.5651   15.0411 H   0  0  0  0  0
   24.9286   21.8355   16.0566 H   0  0  0  0  0
   25.7370   20.5027   16.6457 H   0  0  0  0  0
   23.8473   19.1000   16.2562 H   0  0  0  0  0
   23.1820   21.6381   17.7786 H   0  0  0  0  0
   24.0700   20.1784   18.4245 H   0  0  0  0  0
   22.0642   18.8573   18.1345 H   0  0  0  0  0
   21.1932   20.3024   17.5197 H   0  0  0  0  0
   21.5230   21.4251   19.6423 H   0  0  0  0  0
   22.4416   20.0069   20.2610 H   0  0  0  0  0
   20.4447   18.6188   19.9783 H   0  0  0  0  0
   19.5336   20.0717   19.4301 H   0  0  0  0  0
   19.1614   19.5975   21.7485 H   0  0  0  0  0
   20.7919   19.7102   22.0739 H   0  0  0  0  0
   19.9486   21.0549   21.5665 H   0  0  0  0  0
   22.2330   18.6623   14.9192 H   0  0  0  0  0
   21.3351   20.5562   12.9874 H   0  0  0  0  0
   20.0222   17.9966   13.9644 H   0  0  0  0  0
   21.2156   18.1637   12.6028 H   0  0  0  0  0
   19.5112   19.7095   11.5694 H   0  0  0  0  0
   18.3478   18.9877   12.7683 H   0  0  0  0  0
   18.7420   15.6606   11.2138 H   0  0  0  0  0
   18.9460   16.3755   12.8165 H   0  0  0  0  0
   19.8189   22.0330   12.9204 H   0  0  0  0  0
   18.0667   22.2834   15.3111 H   0  0  0  0  0
   17.8470   24.6812   14.5849 H   0  0  0  0  0
   19.1152   24.3037   13.3061 H   0  0  0  0  0
   20.0439   25.5011   15.1896 H   0  0  0  0  0
   20.6839   23.8126   15.0668 H   0  0  0  0  0
   20.9459   23.2532   16.9529 H   0  0  0  0  0
   14.5615   21.4692   12.6255 H   0  0  0  0  0
   13.6230   20.6328   14.7488 H   0  0  0  0  0
   12.5915   21.9271   14.4311 H   0  0  0  0  0
   13.8192   22.2202   16.7534 H   0  0  0  0  0
   14.0372   23.5451   15.7853 H   0  0  0  0  0
   16.3783   22.6917   16.1927 H   0  0  0  0  0
   15.9270   21.0871   15.9265 H   0  0  0  0  0
   12.7628   22.5624   11.6779 H   0  0  0  0  0
   12.8259   25.4972   12.0276 H   0  0  0  0  0
   14.4999   24.9446   10.2730 H   0  0  0  0  0
   13.0881   25.9412    9.6629 H   0  0  0  0  0
   12.1375   23.9460    8.7014 H   0  0  0  0  0
   13.5878   23.0029    9.2549 H   0  0  0  0  0
   15.1664   25.7305    6.8157 H   0  0  0  0  0
   14.7160   25.9916    8.5040 H   0  0  0  0  0
   11.0313   26.5899   10.9685 H   0  0  0  0  0
    8.6645   24.8168   10.9311 H   0  0  0  0  0
    8.9136   27.8286   10.7185 H   0  0  0  0  0
    8.5231   26.8634   12.2163 H   0  0  0  0  0
    6.4473   26.1729   11.2502 H   0  0  0  0  0
    6.8406   27.0631    9.7192 H   0  0  0  0  0
    5.3068   27.2313   12.4555 H   0  0  0  0  0
    7.5317   24.3136    9.1326 H   0  0  0  0  0
    8.2371   25.7706    6.6175 H   0  0  0  0  0
    7.9404   22.7629    6.9354 H   0  0  0  0  0
   10.1396   23.5793    7.4051 H   0  0  0  0  0
   10.1135   24.5826    5.8747 H   0  0  0  0  0
    6.6372   23.5132    4.9887 H   0  0  0  0  0
    8.0428   24.4286    4.3909 H   0  0  0  0  0
    8.1087   22.6511    4.4764 H   0  0  0  0  0
   10.1335   21.5674    6.0567 H   0  0  0  0  0
   10.1081   22.5436    4.5676 H   0  0  0  0  0
   11.5235   22.6022    5.6466 H   0  0  0  0  0
    6.4653   26.4313    5.5007 H   0  0  0  0  0
    3.7655   25.7651    6.6028 H   0  0  0  0  0
    4.5173   27.6774    4.3960 H   0  0  0  0  0
    4.4777   28.1124    6.1567 H   0  0  0  0  0
    2.4357   26.3478    4.1364 H   0  0  0  0  0
    2.9526   23.8929    5.7092 H   0  0  0  0  0
    3.7782   23.2061    2.9476 H   0  0  0  0  0
    1.6152   24.9806    4.1237 H   0  0  0  0  0
    2.7232   21.0604    3.3631 H   0  0  0  0  0
    2.1093   21.6816    4.9655 H   0  0  0  0  0
    3.7322   22.1782    6.7728 H   0  0  0  0  0
    4.8889   20.1993    3.1488 H   0  0  0  0  0
    5.8371   21.4402    7.8551 H   0  0  0  0  0
    6.9974   19.4639    4.2137 H   0  0  0  0  0
    7.4792   20.0786    6.5747 H   0  0  0  0  0
  1  2  1  0  0  0
  2  3  1  0  0  0
  2  5  1  0  0  0
  3  4  2  0  0  0
  3 10  1  0  0  0
  5  6  1  0  0  0
  6  7  1  0  0  0
  7  8  1  0  0  0
  8  9  1  0  0  0
 10 11  1  0  0  0
 11 12  1  0  0  0
 11 14  1  0  0  0
 12 13  2  0  0  0
 12 19  1  0  0  0
 14 15  1  0  0  0
 15 16  1  0  0  0
 16 17  2  0  0  0
 16 18  1  0  0  0
 19 20  1  0  0  0
 20 21  1  0  0  0
 20 23  1  0  0  0
 21 22  2  0  0  0
 21 28  1  0  0  0
 23 24  1  0  0  0
 24 25  1  0  0  0
 25 26  2  0  0  0
 25 27  1  0  0  0
 28 29  1  0  0  0
 28 34  1  0  0  0
 29 30  1  0  0  0
 29 32  1  0  0  0
 30 31  2  0  0  0
 30 35  1  0  0  0
 32 33  1  0  0  0
 33 34  1  0  0  0
 35 36  1  0  0  0
 36 37  1  0  0  0
 36 39  1  0  0  0
 37 38  2  0  0  0
 37 44  1  0  0  0
 39 40  1  0  0  0
 40 41  1  0  0  0
 41 42  2  0  0  0
 41 43  1  0  0  0
 44 45  1  0  0  0
 45 46  1  0  0  0
 45 48  1  0  0  0
 46 47  2  0  0  0
 46 53  1  0  0  0
 48 49  1  0  0  0
 49 50  1  0  0  0
 50 51  2  0  0  0
 50 52  1  0  0  0
 53 54  1  0  0  0
 54 55  1  0  0  0
 54 57  1  0  0  0
 55 56  2  0  0  0
 55 61  1  0  0  0
 57 58  1  0  0  0
 57 59  1  0  0  0
 58 60  1  0  0  0
 61 62  1  0  0  0
 62 63  1  0  0  0
 62 65  1  0  0  0
 63 64  2  0  0  0
 63 69  1  0  0  0
 65 66  1  0  0  0
 66 67  1  0  0  0
 66 68  2  0  0  0
 69 70  1  0  0  0
 70 71  1  0  0  0
 70 73  1  0  0  0
 71 72  1  0  0  0
 71 80  2  0  0  0
 73 74  1  0  0  0
 74 75  4  0  0  0
 74 76  4  0  0  0
 75 77  4  0  0  0
 76 78  4  0  0  0
 77 79  4  0  0  0
 78 79  4  0  0  0
  1 81  1  0  0  0
  1 82  1  0  0  0
  1 83  1  0  0  0
  2 84  1  0  0  0
  5 85  1  0  0  0
  5 86  1  0  0  0
  6 87  1  0  0  0
  6 88  1  0  0  0
  7 89  1  0  0  0
  7 90  1  0  0  0
  8 91  1  0  0  0
  8 92  1  0  0  0
  9 93  1  0  0  0
  9 94  1  0  0  0
  9 95  1  0  0  0
 10 96  1  0  0  0
 11 97  1  0  0  0
 14 98  1  0  0  0
 14 99  1  0  0  0
 15100  1  0  0  0
 15101  1  0  0  0
 18102  1  0  0  0
 18103  1  0  0  0
 19104  1  0  0  0
 20105  1  0  0  0
 23106  1  0  0  0
 23107  1  0  0  0
 24108  1  0  0  0
 24109  1  0  0  0
 27110  1  0  0  0
 29111  1  0  0  0
 32112  1  0  0  0
 32113  1  0  0  0
 33114  1  0  0  0
 33115  1  0  0  0
 34116  1  0  0  0
 34117  1  0  0  0
 35118  1  0  0  0
 36119  1  0  0  0
 39120  1  0  0  0
 39121  1  0  0  0
 40122  1  0  0  0
 40123  1  0  0  0
 43124  1  0  0  0
 43125  1  0  0  0
 44126  1  0  0  0
 45127  1  0  0  0
 48128  1  0  0  0
 48129  1  0  0  0
 49130  1  0  0  0
 49131  1  0  0  0
 52132  1  0  0  0
 53133  1  0  0  0
 54134  1  0  0  0
 57135  1  0  0  0
 58136  1  0  0  0
 58137  1  0  0  0
 59138  1  0  0  0
 59139  1  0  0  0
 59140  1  0  0  0
 60141  1  0  0  0
 60142  1  0  0  0
 60143  1  0  0  0
 61144  1  0  0  0
 62145  1  0  0  0
 65146  1  0  0  0
 65147  1  0  0  0
 67148  1  0  0  0
 69149  1  0  0  0
 70150  1  0  0  0
 72151  1  0  0  0
 73152  1  0  0  0
 73153  1  0  0  0
 75154  1  0  0  0
 76155  1  0  0  0
 77156  1  0  0  0
 78157  1  0  0  0
 79158  1  0  0  0
M  END
$$$$
