5o5h_ligand
  -I-interpret- 

 38 40  0  0  0  0  0  0  0  0999 V2000
   10.4620  -13.6120    2.0910 C   0  0  0  0  0
    6.1890  -11.1050    2.8800 C   0  0  0  0  0
    8.9410   -5.3320   12.7390 C   0  0  0  0  0
    9.6650   -4.7130   10.5320 C   0  0  0  0  0
    8.3760   -9.4330    7.9280 C   0  0  0  0  0
    9.2500   -6.6570   12.4630 C   0  0  0  0  0
    9.9740   -6.0420   10.2530 C   0  0  0  0  0
    8.5780   -8.8270    9.1660 C   0  0  0  0  0
   10.6330  -10.1850    7.9510 C   0  0  0  0  0
    8.2490  -10.6870    5.2670 C   0  0  0  0  0
    9.1490   -4.3570   11.7740 C   0  0  0  0  0
    9.4130  -12.7190    2.7480 C   0  0  0  0  0
    9.4110  -10.1210    7.2940 C   0  0  0  0  0
    7.6060  -11.6420    3.1160 C   0  0  0  0  0
    9.7570   -7.0200   11.2200 C   0  0  0  0  0
    9.8230   -8.8990    9.7870 C   0  0  0  0  0
    8.4260  -11.4240    4.1580 C   0  0  0  0  0
   10.8190   -9.5720    9.1960 N   0  0  0  0  0
    8.2130  -12.4460    2.2410 N   0  0  0  0  0
    9.3190  -10.7510    6.1020 N   0  0  0  0  0
    7.2300  -10.0200    5.4480 O   0  0  0  0  0
   10.0550   -8.3350   11.0100 O   0  0  0  0  0
    9.5840  -12.1210    3.9230 O   0  0  0  0  0
    8.7650   -2.7050   12.1280 Cl  0  0  0  0  0
   10.0540  -14.6143    1.9608 H   0  0  0  0  0
   10.7316  -13.1990    1.1190 H   0  0  0  0  0
   11.3470  -13.6582    2.7257 H   0  0  0  0  0
    5.5366  -11.4377    3.6873 H   0  0  0  0  0
    6.2139  -10.0155    2.8568 H   0  0  0  0  0
    5.8129  -11.4814    1.9287 H   0  0  0  0  0
    8.5354   -5.0579   13.7129 H   0  0  0  0  0
    9.8283   -3.9477    9.7732 H   0  0  0  0  0
    7.3988   -9.3690    7.4495 H   0  0  0  0  0
    9.0940   -7.4189   13.2267 H   0  0  0  0  0
   10.3843   -6.3156    9.2809 H   0  0  0  0  0
    7.7593   -8.2948    9.6504 H   0  0  0  0  0
   11.4617  -10.7218    7.4893 H   0  0  0  0  0
   10.1137  -11.3180    5.8065 H   0  0  0  0  0
 12  1  1  0  0  0
 14  2  1  0  0  0
  6  3  4  0  0  0
  3 11  4  0  0  0
  7  4  4  0  0  0
  4 11  4  0  0  0
  8  5  4  0  0  0
  5 13  4  0  0  0
 15  6  4  0  0  0
 15  7  4  0  0  0
 16  8  4  0  0  0
  9 13  4  0  0  0
 18  9  4  0  0  0
 10 17  1  0  0  0
 20 10  1  0  0  0
 10 21  2  0  0  0
 11 24  1  0  0  0
 19 12  4  0  0  0
 12 23  4  0  0  0
 13 20  1  0  0  0
 17 14  4  0  0  0
 14 19  4  0  0  0
 22 15  1  0  0  0
 16 18  4  0  0  0
 16 22  1  0  0  0
 17 23  4  0  0  0
  1 25  1  0  0  0
  1 26  1  0  0  0
  1 27  1  0  0  0
  2 28  1  0  0  0
  2 29  1  0  0  0
  2 30  1  0  0  0
  3 31  1  0  0  0
  4 32  1  0  0  0
  5 33  1  0  0  0
  6 34  1  0  0  0
  7 35  1  0  0  0
  8 36  1  0  0  0
  9 37  1  0  0  0
 20 38  1  0  0  0
M  END
$$$$
