4mwr_ligand
  -I-interpret- 

 45 45  0  0  0  0  0  0  0  0999 V2000
   64.7070   19.5640  -23.8770 C   0  0  0  0  0
   64.8720   20.7130  -24.3840 O   0  0  0  0  0
   65.0480   19.3480  -22.6830 O   0  0  0  0  0
   64.1030   18.4630  -24.6990 C   0  0  0  0  0
   63.3570   17.5160  -23.7880 C   0  0  0  0  0
   62.4880   16.5550  -24.5150 C   0  0  0  0  0
   62.5750   16.6570  -25.9210 C   0  0  0  0  0
   61.5030   15.7900  -26.5310 N   0  0  0  0  0
   61.8380   14.4960  -27.1410 C   0  0  0  0  0
   62.9900   14.1060  -27.1610 O   0  0  0  0  0
   60.7490   13.6510  -27.7420 C   0  0  0  0  0
   62.4380   18.0710  -26.4390 C   0  0  0  0  0
   63.2860   19.0370  -25.6800 O   0  0  0  0  0
   62.7340   18.1610  -27.8770 C   0  0  0  0  0
   64.0100   17.7340  -28.1650 O   0  0  0  0  0
   62.6140   19.6140  -28.3030 C   0  0  0  0  0
   61.3940   20.1220  -27.9130 O   0  0  0  0  0
   62.7520   19.7470  -29.7850 C   0  0  0  0  0
   61.7630   19.1890  -30.5760 O   0  0  0  0  0
   62.8480   15.1390  -24.0990 N   0  0  0  0  0
   61.8590   14.0940  -23.8900 C   0  0  0  0  0
   60.5870   14.3920  -24.0680 N   0  0  0  0  0
   62.1620   12.8930  -23.5380 N   0  0  0  0  0
   64.5628   20.7079  -25.2928 H   0  0  0  0  0
   64.8679   17.8772  -25.2087 H   0  0  0  0  0
   62.7140   18.1178  -23.1458 H   0  0  0  0  0
   64.0994   16.9361  -23.2397 H   0  0  0  0  0
   61.4614   16.8026  -24.2451 H   0  0  0  0  0
   63.5726   16.3244  -26.2079 H   0  0  0  0  0
   60.5331   16.1057  -26.5201 H   0  0  0  0  0
   60.9564   13.4921  -28.8002 H   0  0  0  0  0
   60.7120   12.6898  -27.2294 H   0  0  0  0  0
   59.7920   14.1607  -27.6305 H   0  0  0  0  0
   61.3946   18.3462  -26.2854 H   0  0  0  0  0
   62.0284   17.5229  -28.4090 H   0  0  0  0  0
   64.1653   17.8074  -29.1095 H   0  0  0  0  0
   63.4158   20.1743  -27.8221 H   0  0  0  0  0
   61.3285   21.0398  -28.1868 H   0  0  0  0  0
   63.6668   19.2128  -30.0418 H   0  0  0  0  0
   62.7169   20.8177  -29.9862 H   0  0  0  0  0
   61.9694   19.3432  -31.5008 H   0  0  0  0  0
   63.8321   14.9101  -23.9594 H   0  0  0  0  0
   59.8715   13.6789  -23.9268 H   0  0  0  0  0
   60.3185   15.3357  -24.3469 H   0  0  0  0  0
   63.1380   12.6353  -23.3917 H   0  0  0  0  0
  1  2  1  0  0  0
  1  3  2  0  0  0
  1  4  1  0  0  0
  4  5  1  0  0  0
  4 13  1  0  0  0
  5  6  1  0  0  0
  6  7  1  0  0  0
  6 20  1  0  0  0
  7  8  1  0  0  0
  7 12  1  0  0  0
  8  9  1  0  0  0
  9 10  2  0  0  0
  9 11  1  0  0  0
 12 13  1  0  0  0
 12 14  1  0  0  0
 14 15  1  0  0  0
 14 16  1  0  0  0
 16 17  1  0  0  0
 16 18  1  0  0  0
 18 19  1  0  0  0
 20 21  1  0  0  0
 21 22  1  0  0  0
 21 23  2  0  0  0
  2 24  1  0  0  0
  4 25  1  0  0  0
  5 26  1  0  0  0
  5 27  1  0  0  0
  6 28  1  0  0  0
  7 29  1  0  0  0
  8 30  1  0  0  0
 11 31  1  0  0  0
 11 32  1  0  0  0
 11 33  1  0  0  0
 12 34  1  0  0  0
 14 35  1  0  0  0
 15 36  1  0  0  0
 16 37  1  0  0  0
 17 38  1  0  0  0
 18 39  1  0  0  0
 18 40  1  0  0  0
 19 41  1  0  0  0
 20 42  1  0  0  0
 22 43  1  0  0  0
 22 44  1  0  0  0
 23 45  1  0  0  0
M  END
$$$$
