6bxy_ligand
  -I-interpret- 

 73 78  0  0  0  0  0  0  0  0999 V2000
  -11.8340   -8.0170  -11.7390 C   0  0  0  0  0
  -11.4360   -9.3040  -11.5820 C   0  0  0  0  0
  -12.3680  -10.1980  -11.1110 C   0  0  0  0  0
  -13.6000   -9.8040  -10.7460 N   0  0  0  0  0
  -13.0710   -7.6040  -11.3570 N   0  0  0  0  0
  -14.0110   -8.5000  -10.8480 C   0  0  0  0  0
  -16.5450  -17.6310  -11.1210 C   0  0  0  0  0
  -15.8800  -22.3230  -13.8200 C   0  0  0  0  0
  -13.0140  -18.4470  -10.3440 C   0  0  0  0  0
  -12.8920  -19.6650  -11.0670 C   0  0  0  0  0
  -10.1440   -9.5070  -11.9940 C   0  0  0  0  0
  -16.0300  -20.1870  -12.5390 C   0  0  0  0  0
  -12.9650  -13.7210  -11.7130 C   0  0  0  0  0
  -12.5990  -13.2580   -9.2880 C   0  0  0  0  0
  -13.8840  -14.9450  -11.2520 C   0  0  0  0  0
  -13.6080  -14.3540   -8.9540 C   0  0  0  0  0
  -14.0670  -24.6990  -10.2380 C   0  0  0  0  0
  -11.6560  -24.1070  -11.7060 C   0  0  0  0  0
  -14.3300  -16.5340   -9.5500 C   0  0  0  0  0
   -8.0510   -8.2450  -12.8730 C   0  0  0  0  0
  -13.0330  -22.2650  -12.7730 C   0  0  0  0  0
  -12.8500  -25.3570   -9.9540 C   0  0  0  0  0
  -15.3130  -18.3110  -11.0570 C   0  0  0  0  0
   -9.5190   -8.3930  -12.3950 C   0  0  0  0  0
  -15.3570  -21.2790  -12.9540 C   0  0  0  0  0
  -14.2340  -17.7670  -10.3250 C   0  0  0  0  0
  -15.1640  -19.4570  -11.7710 C   0  0  0  0  0
  -13.9630  -20.1230  -11.7780 C   0  0  0  0  0
  -12.9800  -12.5950  -10.6580 C   0  0  0  0  0
  -12.9270  -23.2230  -11.5680 C   0  0  0  0  0
   -7.1630   -7.6720  -11.6650 C   0  0  0  0  0
   -7.5060   -6.5230  -11.3260 F   0  0  0  0  0
   -7.2880   -8.3370  -10.5420 F   0  0  0  0  0
   -5.8250   -7.6000  -12.0490 F   0  0  0  0  0
  -16.2720  -23.1320  -14.4760 N   0  0  0  0  0
  -11.6480  -25.0910  -10.5830 N   0  0  0  0  0
  -12.0390  -11.5060  -11.0160 N   0  0  0  0  0
  -13.5040  -15.4920   -9.9270 N   0  3  0  0  0
  -14.0990  -21.2470  -12.5190 N   0  0  0  0  0
  -12.8090  -26.1760   -9.0300 O   0  0  0  0  0
  -14.0510  -23.9630  -11.4770 O   0  0  0  0  0
  -10.5770   -7.0580  -12.3040 S   0  0  0  0  0
  -15.0104   -8.1831  -10.5498 H   0  0  0  0  0
  -16.9462  -17.5132  -10.1144 H   0  0  0  0  0
  -16.3939  -16.6495  -11.5704 H   0  0  0  0  0
  -17.2448  -18.2059  -11.7275 H   0  0  0  0  0
  -12.1564  -18.0442   -9.8051 H   0  0  0  0  0
  -11.9568  -20.2248  -11.0536 H   0  0  0  0  0
   -9.6683  -10.4877  -11.9949 H   0  0  0  0  0
  -17.0647  -19.9342  -12.7706 H   0  0  0  0  0
  -13.3513  -13.3266  -12.6528 H   0  0  0  0  0
  -11.9415  -14.0762  -11.8327 H   0  0  0  0  0
  -11.6018  -13.6922   -9.3597 H   0  0  0  0  0
  -12.6111  -12.5019   -8.5030 H   0  0  0  0  0
  -13.7655  -15.7424  -11.9856 H   0  0  0  0  0
  -14.9084  -14.5801  -11.1780 H   0  0  0  0  0
  -14.6126  -13.9349   -9.0108 H   0  0  0  0  0
  -13.3993  -14.7292   -7.9521 H   0  0  0  0  0
  -14.2460  -23.9833   -9.4356 H   0  0  0  0  0
  -14.8393  -25.4635  -10.3225 H   0  0  0  0  0
  -10.7613  -23.4857  -11.6662 H   0  0  0  0  0
  -11.6652  -24.6299  -12.6623 H   0  0  0  0  0
  -14.0343  -16.7964   -8.5342 H   0  0  0  0  0
  -15.3488  -16.1725   -9.6897 H   0  0  0  0  0
   -8.0074   -7.5588  -13.7188 H   0  0  0  0  0
   -7.6660   -9.2163  -13.1835 H   0  0  0  0  0
  -13.2858  -22.8362  -13.6663 H   0  0  0  0  0
  -12.0783  -21.7589  -12.9160 H   0  0  0  0  0
  -13.9646  -12.1310  -10.6004 H   0  0  0  0  0
  -12.8300  -22.6516  -10.6448 H   0  0  0  0  0
  -10.7859  -25.5508  -10.2902 H   0  0  0  0  0
  -11.0702  -11.7633  -11.2049 H   0  0  0  0  0
  -12.5587  -15.8741   -9.9553 H   0  0  0  0  0
  2  1  4  0  0  0
  1  5  4  0  0  0
  1 42  4  0  0  0
  3  2  4  0  0  0
  2 11  4  0  0  0
  3  4  4  0  0  0
 37  3  1  0  0  0
  4  6  4  0  0  0
  6  5  4  0  0  0
 23  7  1  0  0  0
 25  8  1  0  0  0
  8 35  3  0  0  0
  9 10  4  0  0  0
 26  9  4  0  0  0
 10 28  4  0  0  0
 11 24  4  0  0  0
 12 25  4  0  0  0
 27 12  4  0  0  0
 13 15  1  0  0  0
 29 13  1  0  0  0
 14 16  1  0  0  0
 29 14  1  0  0  0
 15 38  1  0  0  0
 16 38  1  0  0  0
 22 17  1  0  0  0
 17 41  1  0  0  0
 30 18  1  0  0  0
 18 36  1  0  0  0
 19 26  1  0  0  0
 38 19  1  0  0  0
 24 20  1  0  0  0
 20 31  1  0  0  0
 21 30  1  0  0  0
 39 21  1  0  0  0
 36 22  1  0  0  0
 22 40  2  0  0  0
 26 23  4  0  0  0
 23 27  4  0  0  0
 24 42  4  0  0  0
 39 25  4  0  0  0
 27 28  4  0  0  0
 28 39  4  0  0  0
 29 37  1  0  0  0
 30 41  1  0  0  0
 31 32  1  0  0  0
 31 33  1  0  0  0
 31 34  1  0  0  0
  6 43  1  0  0  0
  7 44  1  0  0  0
  7 45  1  0  0  0
  7 46  1  0  0  0
  9 47  1  0  0  0
 10 48  1  0  0  0
 11 49  1  0  0  0
 12 50  1  0  0  0
 13 51  1  0  0  0
 13 52  1  0  0  0
 14 53  1  0  0  0
 14 54  1  0  0  0
 15 55  1  0  0  0
 15 56  1  0  0  0
 16 57  1  0  0  0
 16 58  1  0  0  0
 17 59  1  0  0  0
 17 60  1  0  0  0
 18 61  1  0  0  0
 18 62  1  0  0  0
 19 63  1  0  0  0
 19 64  1  0  0  0
 20 65  1  0  0  0
 20 66  1  0  0  0
 21 67  1  0  0  0
 21 68  1  0  0  0
 29 69  1  0  0  0
 30 70  1  0  0  0
 36 71  1  0  0  0
 37 72  1  0  0  0
 38 73  1  0  0  0
M  END
$$$$
