2gvv_ligand
  -I-interpret- 

 35 36  0  0  0  0  0  0  0  0999 V2000
   19.6170    4.9840   58.4910 C   0  0  0  0  0
   21.0620    4.6560   58.1030 C   0  0  0  0  0
   21.4050    3.5080   59.0510 C   0  0  0  0  0
   20.8830    4.1270   60.3470 C   0  0  0  0  0
   19.4540    4.4810   59.9300 C   0  0  0  0  0
   18.6820    3.2760   59.8910 O   0  0  0  0  0
   17.7730    2.8330   61.1460 P   0  0  0  0  0
   17.4800    4.1850   61.9950 N   0  0  0  0  0
   16.5330    2.1360   60.7390 O   0  0  0  0  0
   18.7160    1.9200   62.0790 O   0  0  0  0  0
   18.3480    1.6610   63.4370 C   0  0  0  0  0
   18.4440    0.1580   63.7050 C   0  0  0  0  0
   19.9590   -0.0010   63.8190 C   0  0  0  0  0
   20.2210    1.0740   64.8740 C   0  0  0  0  0
   19.4320    2.2700   64.3340 C   0  0  0  0  0
   18.9049    4.5062   57.8182 H   0  0  0  0  0
   19.4167    6.0529   58.4168 H   0  0  0  0  0
   21.7350    5.5077   58.2018 H   0  0  0  0  0
   21.1725    4.3899   57.0518 H   0  0  0  0  0
   22.4543    3.2131   59.0651 H   0  0  0  0  0
   20.9728    2.5423   58.7888 H   0  0  0  0  0
   21.4670    4.9758   60.7028 H   0  0  0  0  0
   20.9446    3.4676   61.2127 H   0  0  0  0  0
   18.9726    5.1968   60.5963 H   0  0  0  0  0
   16.5193    4.4659   62.1912 H   0  0  0  0  0
   18.2566    4.7538   62.3323 H   0  0  0  0  0
   17.3483    2.0545   63.6209 H   0  0  0  0  0
   17.9845   -0.4644   62.9372 H   0  0  0  0  0
   17.8909   -0.1771   64.5824 H   0  0  0  0  0
   20.5099    0.1199   62.8863 H   0  0  0  0  0
   20.3023   -1.0018   64.0809 H   0  0  0  0  0
   21.2810    1.2887   65.0100 H   0  0  0  0  0
   19.9095    0.7744   65.8746 H   0  0  0  0  0
   19.0014    2.8655   65.1390 H   0  0  0  0  0
   20.0716    2.9589   63.7823 H   0  0  0  0  0
  1  2  1  0  0  0
  1  5  1  0  0  0
  2  3  1  0  0  0
  3  4  1  0  0  0
  4  5  1  0  0  0
  5  6  1  0  0  0
  6  7  1  0  0  0
  7  8  1  0  0  0
  7  9  2  0  0  0
  7 10  1  0  0  0
 10 11  1  0  0  0
 11 12  1  0  0  0
 11 15  1  0  0  0
 12 13  1  0  0  0
 13 14  1  0  0  0
 14 15  1  0  0  0
  1 16  1  0  0  0
  1 17  1  0  0  0
  2 18  1  0  0  0
  2 19  1  0  0  0
  3 20  1  0  0  0
  3 21  1  0  0  0
  4 22  1  0  0  0
  4 23  1  0  0  0
  5 24  1  0  0  0
  8 25  1  0  0  0
  8 26  1  0  0  0
 11 27  1  0  0  0
 12 28  1  0  0  0
 12 29  1  0  0  0
 13 30  1  0  0  0
 13 31  1  0  0  0
 14 32  1  0  0  0
 14 33  1  0  0  0
 15 34  1  0  0  0
 15 35  1  0  0  0
M  END
$$$$
