1c9d_ligand
  -I-interpret- 

 31 31  0  0  0  0  0  0  0  0999 V2000
   48.6380   29.6800    9.8960 P   0  0  0  0  0
   47.4120   30.4050    9.8700 O   0  0  0  0  0
   48.7220   28.8610    8.7600 O   0  0  0  0  0
   49.7060   30.5850    9.9370 O   0  0  0  0  0
   48.6670   29.4480   12.7140 C   0  0  0  0  0
   48.3390   27.9400   14.7410 C   0  0  0  0  0
   49.9650   24.7630   15.6320 C   0  0  0  0  0
   50.3470   26.1260   15.7160 C   0  0  0  0  0
   51.7050   26.5190   15.3850 C   0  0  0  0  0
   52.1370   27.8750   15.4570 O   0  0  0  0  0
   52.6290   25.5320   14.9870 C   0  0  0  0  0
   52.2260   24.1720   14.9110 C   0  0  0  0  0
   50.8850   23.7960   15.2390 C   0  0  0  0  0
   50.5000   22.4760   15.1660 F   0  0  0  0  0
   49.0870   27.2930   16.2430 S   0  0  0  0  0
   49.2980   28.8680   13.9960 C   0  0  0  0  0
   48.7210   28.6310   11.4210 C   0  0  0  0  0
   46.6772   29.7879    9.8419 H   0  0  0  0  0
   47.9818   28.2498    8.7521 H   0  0  0  0  0
   49.2444   30.3475   12.5006 H   0  0  0  0  0
   47.6052   29.5403   12.9422 H   0  0  0  0  0
   47.4496   28.5079   15.0139 H   0  0  0  0  0
   48.0911   27.1024   14.0890 H   0  0  0  0  0
   48.9438   24.4709   15.8769 H   0  0  0  0  0
   53.0607   27.9294   15.2012 H   0  0  0  0  0
   53.6524   25.8121   14.7376 H   0  0  0  0  0
   52.9421   23.4109   14.6012 H   0  0  0  0  0
   49.5491   29.6980   14.6564 H   0  0  0  0  0
   50.1768   28.2899   13.7104 H   0  0  0  0  0
   49.6714   28.0976   11.4052 H   0  0  0  0  0
   47.8579   27.9654   11.4130 H   0  0  0  0  0
  1  2  1  0  0  0
  1  3  1  0  0  0
  1  4  2  0  0  0
 17  1  1  0  0  0
 16  5  1  0  0  0
  5 17  1  0  0  0
 15  6  1  0  0  0
  6 16  1  0  0  0
  8  7  4  0  0  0
  7 13  4  0  0  0
  8  9  4  0  0  0
  8 15  1  0  0  0
  9 10  1  0  0  0
  9 11  4  0  0  0
 11 12  4  0  0  0
 12 13  4  0  0  0
 13 14  1  0  0  0
  2 18  1  0  0  0
  3 19  1  0  0  0
  5 20  1  0  0  0
  5 21  1  0  0  0
  6 22  1  0  0  0
  6 23  1  0  0  0
  7 24  1  0  0  0
 10 25  1  0  0  0
 11 26  1  0  0  0
 12 27  1  0  0  0
 16 28  1  0  0  0
 16 29  1  0  0  0
 17 30  1  0  0  0
 17 31  1  0  0  0
M  END
$$$$
