### 
### Created by X-TOOL on Mon Sep 10 21:12:47 2018
### 

@<TRIPOS>MOLECULE
1c9d_ligand
   29    29     1     0     0
SMALL
GAST_HUCK


@<TRIPOS>ATOM
      1 P1         48.6380   29.6800    9.8960 P.3       1 HF1         0.0579
      2 O3         47.4120   30.4050    9.8700 O.co2     1 HF1        -0.5623
      3 O1         48.7220   28.8610    8.7600 O.co2     1 HF1        -0.5623
      4 O2         49.7060   30.5850    9.9370 O.co2     1 HF1        -0.5623
      5 C2         48.6670   29.4480   12.7140 C.3       1 HF1        -0.0371
      6 C3         48.3390   27.9400   14.7410 C.3       1 HF1         0.0051
      7 C9         49.9650   24.7630   15.6320 C.ar      1 HF1        -0.0248
      8 C8         50.3470   26.1260   15.7160 C.ar      1 HF1         0.0424
      9 C7         51.7050   26.5190   15.3850 C.ar      1 HF1         0.0956
     10 OH         52.1370   27.8750   15.4570 O.3       1 HF1        -0.3386
     11 C6         52.6290   25.5320   14.9870 C.ar      1 HF1        -0.0407
     12 C5         52.2260   24.1720   14.9110 C.ar      1 HF1        -0.0440
     13 C10        50.8850   23.7960   15.2390 C.ar      1 HF1         0.1145
     14 F          50.5000   22.4760   15.1660 F         1 HF1        -0.1947
     15 S1         49.0870   27.2930   16.2430 S.3       1 HF1        -0.1080
     16 C4         49.2980   28.8680   13.9960 C.3       1 HF1        -0.0409
     17 C1         48.7210   28.6310   11.4210 C.3       1 HF1         0.0196
     18 H1         49.1715   30.4043   12.5114 H         1 HF1         0.0279
     19 H2         47.6051   29.6329   12.9334 H         1 HF1         0.0279
     20 H3         47.4312   28.5017   15.0064 H         1 HF1         0.0399
     21 H4         48.0712   27.0996   14.0837 H         1 HF1         0.0399
     22 H5         48.9495   24.4725   15.8756 H         1 HF1         0.0522
     23 H6         53.0510   27.9288   15.2039 H         1 HF1         0.2443
     24 H7         53.6468   25.8106   14.7390 H         1 HF1         0.0512
     25 H8         52.9382   23.4150   14.6029 H         1 HF1         0.0519
     26 H9         49.5760   29.6986   14.6614 H         1 HF1         0.0275
     27 H10        50.1994   28.3002   13.7219 H         1 HF1         0.0275
     28 H11        49.6629   28.0630   11.4047 H         1 HF1         0.0451
     29 H12        47.8713   27.9325   11.4123 H         1 HF1         0.0451
@<TRIPOS>BOND
     1    1    2 ar 
     2    1    3 ar 
     3    1    4 ar 
     4   17    1 1  
     5   16    5 1  
     6    5   17 1  
     7   15    6 1  
     8    6   16 1  
     9    8    7 ar 
    10    7   13 ar 
    11    8    9 ar 
    12    8   15 1  
    13    9   10 1  
    14    9   11 ar 
    15   11   12 ar 
    16   12   13 ar 
    17   13   14 1  
    18    5   18 1  
    19    5   19 1  
    20    6   20 1  
    21    6   21 1  
    22    7   22 1  
    23   10   23 1  
    24   11   24 1  
    25   12   25 1  
    26   16   26 1  
    27   16   27 1  
    28   17   28 1  
    29   17   29 1  
@<TRIPOS>SUBSTRUCTURE
     1 HF1         1

