### 
### Created by X-TOOL on Mon Sep 10 21:13:05 2018
### 

@<TRIPOS>MOLECULE
3qxc_ligand
   43    45     1     0     0
SMALL
GAST_HUCK


@<TRIPOS>ATOM
      1 PG          7.8390  -26.9300  -20.9440 P.3       1 ATP         0.1879
      2 O1G         8.1880  -26.1910  -19.6830 O.co2     1 ATP        -0.6091
      3 O2G         7.0080  -28.1530  -20.7200 O.co2     1 ATP        -0.6091
      4 O3G         7.3440  -26.0060  -21.9910 O.co2     1 ATP        -0.6091
      5 PB         10.6460  -26.9610  -21.5630 P.3       1 ATP         0.3553
      6 O1B        10.7980  -25.9320  -22.5850 O.co2     1 ATP        -0.5652
      7 O2B        11.0260  -26.6020  -20.1520 O.co2     1 ATP        -0.5652
      8 O3B         9.1610  -27.5540  -21.6020 O.3       1 ATP        -0.1546
      9 PA         12.3590  -29.2820  -21.1780 P.3       1 ATP         0.3266
     10 O1A        11.4780  -29.8880  -20.1620 O.co2     1 ATP        -0.5692
     11 O2A        13.6390  -28.6670  -20.7530 O.co2     1 ATP        -0.5692
     12 O3A        11.5580  -28.2070  -22.0050 O.3       1 ATP        -0.1171
     13 O5'        12.7430  -30.3250  -22.3100 O.3       1 ATP        -0.2441
     14 C5'        11.7330  -31.1480  -22.9620 C.3       1 ATP         0.1131
     15 C4'        12.2380  -32.5630  -23.0680 C.3       1 ATP         0.1189
     16 O4'        13.3790  -32.5790  -23.9590 O.3       1 ATP        -0.3364
     17 C3'        12.6790  -33.0960  -21.7430 C.3       1 ATP         0.1149
     18 O3'        12.3410  -34.5410  -21.7080 O.3       1 ATP        -0.3864
     19 C2'        14.1330  -32.9360  -21.7600 C.3       1 ATP         0.1385
     20 O2'        14.8220  -33.8810  -20.9130 O.3       1 ATP        -0.3836
     21 C1'        14.4690  -33.0670  -23.2590 C.3       1 ATP         0.2010
     22 N9         15.6260  -32.1780  -23.5670 N.pl3     1 ATP        -0.1919
     23 C8         15.6130  -30.8330  -23.6250 C.2       1 ATP         0.1123
     24 N7         16.8070  -30.4060  -23.9090 N.2       1 ATP        -0.2958
     25 C5         17.6220  -31.4510  -24.1560 C.ar      1 ATP         0.1045
     26 C6         18.9990  -31.5660  -24.5440 C.ar      1 ATP         0.1298
     27 N6         19.8130  -30.5520  -24.7500 N.pl3     1 ATP        -0.3152
     28 N1         19.4240  -32.8760  -24.6100 N.ar      1 ATP        -0.2698
     29 C2         18.5880  -33.8760  -24.3790 C.ar      1 ATP         0.0533
     30 N3         17.3370  -33.8070  -24.0330 N.ar      1 ATP        -0.2714
     31 C4         16.8100  -32.5710  -23.9020 C.ar      1 ATP         0.1613
     32 H          11.5308  -30.7567  -23.9590 H         1 ATP         0.0648
     33 H          10.8140  -31.1311  -22.3761 H         1 ATP         0.0648
     34 H          11.4240  -33.1854  -23.4396 H         1 ATP         0.0651
     35 H          12.2186  -32.6001  -20.8885 H         1 ATP         0.0648
     36 H          12.6136  -34.9119  -20.8655 H         1 ATP         0.2100
     37 H          14.4673  -31.9866  -21.3416 H         1 ATP         0.0676
     38 H          15.7680  -33.7264  -20.9664 H         1 ATP         0.2101
     39 H          14.6984  -34.1004  -23.5190 H         1 ATP         0.0996
     40 H          14.7395  -30.2023  -23.4599 H         1 ATP         0.1349
     41 H          19.4762  -29.5961  -24.6351 H         1 ATP         0.1820
     42 H          20.7805  -30.7223  -25.0245 H         1 ATP         0.1820
     43 H          18.9986  -34.8793  -24.4928 H         1 ATP         0.0996
@<TRIPOS>BOND
     1    1    2 ar 
     2    1    3 ar 
     3    1    4 ar 
     4    8    1 1  
     5    5    6 ar 
     6    5    7 ar 
     7    5    8 1  
     8   12    5 1  
     9    9   10 ar 
    10    9   11 ar 
    11    9   12 1  
    12    9   13 1  
    13   13   14 1  
    14   14   15 1  
    15   15   16 1  
    16   15   17 1  
    17   16   21 1  
    18   17   18 1  
    19   17   19 1  
    20   19   20 1  
    21   19   21 1  
    22   21   22 1  
    23   22   23 1  
    24   22   31 1  
    25   23   24 2  
    26   24   25 1  
    27   25   26 ar 
    28   25   31 ar 
    29   26   27 1  
    30   26   28 ar 
    31   28   29 ar 
    32   29   30 ar 
    33   30   31 ar 
    34   14   32 1  
    35   14   33 1  
    36   15   34 1  
    37   17   35 1  
    38   18   36 1  
    39   19   37 1  
    40   20   38 1  
    41   21   39 1  
    42   23   40 1  
    43   27   41 1  
    44   27   42 1  
    45   29   43 1  
@<TRIPOS>SUBSTRUCTURE
     1 ATP         1

