3qxc_ligand
  -I-interpret- 

 47 49  0  0  0  0  0  0  0  0999 V2000
    7.8390  -26.9300  -20.9440 P   0  0  0  0  0
    8.1880  -26.1910  -19.6830 O   0  0  0  0  0
    7.0080  -28.1530  -20.7200 O   0  0  0  0  0
    7.3440  -26.0060  -21.9910 O   0  0  0  0  0
   10.6460  -26.9610  -21.5630 P   0  0  0  0  0
   10.7980  -25.9320  -22.5850 O   0  0  0  0  0
   11.0260  -26.6020  -20.1520 O   0  0  0  0  0
    9.1610  -27.5540  -21.6020 O   0  0  0  0  0
   12.3590  -29.2820  -21.1780 P   0  0  0  0  0
   11.4780  -29.8880  -20.1620 O   0  0  0  0  0
   13.6390  -28.6670  -20.7530 O   0  0  0  0  0
   11.5580  -28.2070  -22.0050 O   0  0  0  0  0
   12.7430  -30.3250  -22.3100 O   0  0  0  0  0
   11.7330  -31.1480  -22.9620 C   0  0  0  0  0
   12.2380  -32.5630  -23.0680 C   0  0  0  0  0
   13.3790  -32.5790  -23.9590 O   0  0  0  0  0
   12.6790  -33.0960  -21.7430 C   0  0  0  0  0
   12.3410  -34.5410  -21.7080 O   0  0  0  0  0
   14.1330  -32.9360  -21.7600 C   0  0  0  0  0
   14.8220  -33.8810  -20.9130 O   0  0  0  0  0
   14.4690  -33.0670  -23.2590 C   0  0  0  0  0
   15.6260  -32.1780  -23.5670 N   0  0  0  0  0
   15.6130  -30.8330  -23.6250 C   0  0  0  0  0
   16.8070  -30.4060  -23.9090 N   0  0  0  0  0
   17.6220  -31.4510  -24.1560 C   0  0  0  0  0
   18.9990  -31.5660  -24.5440 C   0  0  0  0  0
   19.8130  -30.5520  -24.7500 N   0  0  0  0  0
   19.4240  -32.8760  -24.6100 N   0  0  0  0  0
   18.5880  -33.8760  -24.3790 C   0  0  0  0  0
   17.3370  -33.8070  -24.0330 N   0  0  0  0  0
   16.8100  -32.5710  -23.9020 C   0  0  0  0  0
    8.5047  -26.8145  -19.0253 H   0  0  0  0  0
    7.4057  -28.6864  -20.0280 H   0  0  0  0  0
   10.8808  -27.3593  -19.5802 H   0  0  0  0  0
   14.0963  -28.3187  -21.5219 H   0  0  0  0  0
   11.5308  -30.7567  -23.9590 H   0  0  0  0  0
   10.8140  -31.1311  -22.3761 H   0  0  0  0  0
   11.4240  -33.1854  -23.4396 H   0  0  0  0  0
   12.2186  -32.6001  -20.8885 H   0  0  0  0  0
   12.6136  -34.9119  -20.8655 H   0  0  0  0  0
   14.4673  -31.9866  -21.3416 H   0  0  0  0  0
   15.7680  -33.7264  -20.9664 H   0  0  0  0  0
   14.6984  -34.1004  -23.5190 H   0  0  0  0  0
   14.7395  -30.2023  -23.4599 H   0  0  0  0  0
   19.4762  -29.5961  -24.6351 H   0  0  0  0  0
   20.7805  -30.7223  -25.0245 H   0  0  0  0  0
   18.9986  -34.8793  -24.4928 H   0  0  0  0  0
  1  2  1  0  0  0
  1  3  1  0  0  0
  1  4  2  0  0  0
  8  1  1  0  0  0
  5  6  2  0  0  0
  5  7  1  0  0  0
  5  8  1  0  0  0
 12  5  1  0  0  0
  9 10  2  0  0  0
  9 11  1  0  0  0
  9 12  1  0  0  0
  9 13  1  0  0  0
 13 14  1  0  0  0
 14 15  1  0  0  0
 15 16  1  0  0  0
 15 17  1  0  0  0
 16 21  1  0  0  0
 17 18  1  0  0  0
 17 19  1  0  0  0
 19 20  1  0  0  0
 19 21  1  0  0  0
 21 22  1  0  0  0
 22 23  4  0  0  0
 22 31  4  0  0  0
 23 24  4  0  0  0
 24 25  4  0  0  0
 25 26  4  0  0  0
 25 31  4  0  0  0
 26 27  1  0  0  0
 26 28  4  0  0  0
 28 29  4  0  0  0
 29 30  4  0  0  0
 30 31  4  0  0  0
  2 32  1  0  0  0
  3 33  1  0  0  0
  7 34  1  0  0  0
 11 35  1  0  0  0
 14 36  1  0  0  0
 14 37  1  0  0  0
 15 38  1  0  0  0
 17 39  1  0  0  0
 18 40  1  0  0  0
 19 41  1  0  0  0
 20 42  1  0  0  0
 21 43  1  0  0  0
 23 44  1  0  0  0
 27 45  1  0  0  0
 27 46  1  0  0  0
 29 47  1  0  0  0
M  END
$$$$
