### 
### Created by X-TOOL on Mon Sep 10 21:13:33 2018
### 

@<TRIPOS>MOLECULE
5HKI_LIGAND
   37    40     1     0     0
SMALL
GAST_HUCK


@<TRIPOS>ATOM
      1 O11        15.4450   17.2490   26.0530 O.3       1 6ZJ        -0.0912
      2 O12        13.8750   18.0920   27.8250 O.2       1 6ZJ        -0.3668
      3 C10        14.4050   16.9520   27.0690 C.2       1 6ZJ         0.2775
      4 O13        15.6710   13.2550   26.7830 O.2       1 6ZJ        -0.3054
      5 O14        17.8330   17.2420   27.3860 O.3       1 6ZJ        -0.0879
      6 C01        13.7720   13.8990   25.2200 C.3       1 6ZJ         0.0915
      7 C02        15.1880   13.4840   24.5440 C.2       1 6ZJ         0.2775
      8 O03        16.5740   13.7550   24.9160 O.3       1 6ZJ        -0.0912
      9 O05        15.9760   14.7560   28.1690 O.3       1 6ZJ        -0.0879
     10 C06        14.8360   13.9730   27.6730 C.2       1 6ZJ         0.3321
     11 O08        12.1820   13.7270   27.0920 O.3       1 6ZJ        -0.3794
     12 C09        13.2540   15.8490   27.0810 C.3       1 6ZJ         0.0915
     13 C15        18.8180   17.8050   26.4350 C.2       1 6ZJ         0.3321
     14 O17        21.1940   17.7090   25.2670 O.3       1 6ZJ        -0.3794
     15 C18        19.4450   16.1620   24.2980 C.3       1 6ZJ         0.0915
     16 C19        17.9540   15.9870   23.6240 C.2       1 6ZJ         0.2775
     17 O20        16.6230   16.3490   24.1400 O.3       1 6ZJ        -0.0912
     18 O21        17.8150   14.7070   22.8840 O.2       1 6ZJ        -0.3668
     19 C22        20.4130   15.8870   26.6720 C.3       1 6ZJ         0.0915
     20 C23        19.4400   14.7040   27.0670 C.2       1 6ZJ         0.2775
     21 O24        18.4520   14.0740   26.2740 O.3       1 6ZJ        -0.0912
     22 O25        19.9740   13.9440   28.2460 O.2       1 6ZJ        -0.3668
     23 O26        18.1970   18.9750   25.6960 O.2       1 6ZJ        -0.3054
     24 O27        15.1370   13.1630   23.0950 O.2       1 6ZJ        -0.3668
     25 C1         19.9730   16.9770   25.6130 C.3       1 6ZJ         0.1961
     26 C2         13.5080   14.2990   26.7730 C.3       1 6ZJ         0.1961
     27 FE         16.8300   15.5760   26.2250 Fe        1 6ZJ         0.0000
     28 H1         13.1066   13.0437   25.0310 H         1 6ZJ         0.0536
     29 H2         13.4258   14.7679   24.6411 H         1 6ZJ         0.0536
     30 H3         12.2315   12.7788   27.0605 H         1 6ZJ         0.2081
     31 H4         12.5103   16.1835   26.3427 H         1 6ZJ         0.0536
     32 H5         12.8133   15.8863   28.0882 H         1 6ZJ         0.0536
     33 H6         21.7849   17.1326   24.7968 H         1 6ZJ         0.2081
     34 H7         20.0489   16.5793   23.4788 H         1 6ZJ         0.0536
     35 H8         19.7599   15.1267   24.4951 H         1 6ZJ         0.0536
     36 H9         21.3301   15.4220   26.2813 H         1 6ZJ         0.0536
     37 H10        20.6434   16.4277   27.6018 H         1 6ZJ         0.0536
@<TRIPOS>BOND
     1    1    3 1  
     2    3    2 2  
     3    3   12 1  
     4   10    4 2  
     5    5   13 1  
     6    6    7 1  
     7   26    6 1  
     8    7    8 1  
     9    7   24 2  
    10   10    9 1  
    11   26   10 1  
    12   26   11 1  
    13   12   26 1  
    14   13   23 2  
    15   13   25 1  
    16   25   14 1  
    17   15   16 1  
    18   25   15 1  
    19   16   17 1  
    20   16   18 2  
    21   19   20 1  
    22   25   19 1  
    23   20   21 1  
    24   20   22 2  
    25   27    1 1  
    26   27    5 1  
    27   27    8 1  
    28   27    9 1  
    29   27   17 1  
    30   27   21 1  
    31    6   28 1  
    32    6   29 1  
    33   11   30 1  
    34   12   31 1  
    35   12   32 1  
    36   14   33 1  
    37   15   34 1  
    38   15   35 1  
    39   19   36 1  
    40   19   37 1  
@<TRIPOS>SUBSTRUCTURE
     1 6ZJ         1

