5HKI_LIGAND
  -I-interpret- 

 37 40  0  0  0  0  0  0  0  0999 V2000
   15.4450   17.2490   26.0530 O   0  0  0  0  0
   13.8750   18.0920   27.8250 O   0  0  0  0  0
   14.4050   16.9520   27.0690 C   0  0  0  0  0
   15.6710   13.2550   26.7830 O   0  0  0  0  0
   17.8330   17.2420   27.3860 O   0  0  0  0  0
   13.7720   13.8990   25.2200 C   0  0  0  0  0
   15.1880   13.4840   24.5440 C   0  0  0  0  0
   16.5740   13.7550   24.9160 O   0  0  0  0  0
   15.9760   14.7560   28.1690 O   0  0  0  0  0
   14.8360   13.9730   27.6730 C   0  0  0  0  0
   12.1820   13.7270   27.0920 O   0  0  0  0  0
   13.2540   15.8490   27.0810 C   0  0  0  0  0
   18.8180   17.8050   26.4350 C   0  0  0  0  0
   21.1940   17.7090   25.2670 O   0  0  0  0  0
   19.4450   16.1620   24.2980 C   0  0  0  0  0
   17.9540   15.9870   23.6240 C   0  0  0  0  0
   16.6230   16.3490   24.1400 O   0  0  0  0  0
   17.8150   14.7070   22.8840 O   0  0  0  0  0
   20.4130   15.8870   26.6720 C   0  0  0  0  0
   19.4400   14.7040   27.0670 C   0  0  0  0  0
   18.4520   14.0740   26.2740 O   0  0  0  0  0
   19.9740   13.9440   28.2460 O   0  0  0  0  0
   18.1970   18.9750   25.6960 O   0  0  0  0  0
   15.1370   13.1630   23.0950 O   0  0  0  0  0
   19.9730   16.9770   25.6130 C   0  0  0  0  0
   13.5080   14.2990   26.7730 C   0  0  0  0  0
   16.8300   15.5760   26.2250 Fe  0  0  0  0  0
   13.2117   12.9677   25.1380 H   0  0  0  0  0
   13.5584   14.8408   24.7145 H   0  0  0  0  0
   11.5385   14.0365   26.4503 H   0  0  0  0  0
   12.6120   16.1587   26.2564 H   0  0  0  0  0
   12.9361   15.8407   28.1236 H   0  0  0  0  0
   21.7911   17.1266   24.7918 H   0  0  0  0  0
   19.9232   16.7550   23.5184 H   0  0  0  0  0
   19.6023   15.1415   24.6472 H   0  0  0  0  0
   21.2620   15.3886   26.2042 H   0  0  0  0  0
   20.5376   16.4496   27.5972 H   0  0  0  0  0
  1  3  1  0  0  0
  3  2  2  0  0  0
  3 12  1  0  0  0
 10  4  2  0  0  0
  5 13  1  0  0  0
  6  7  1  0  0  0
 26  6  1  0  0  0
  7  8  1  0  0  0
  7 24  2  0  0  0
 10  9  1  0  0  0
 26 10  1  0  0  0
 26 11  1  0  0  0
 12 26  1  0  0  0
 13 23  2  0  0  0
 13 25  1  0  0  0
 25 14  1  0  0  0
 15 16  1  0  0  0
 25 15  1  0  0  0
 16 17  1  0  0  0
 16 18  2  0  0  0
 19 20  1  0  0  0
 25 19  1  0  0  0
 20 21  1  0  0  0
 20 22  2  0  0  0
 27  1  1  0  0  0
 27  5  1  0  0  0
 27  8  1  0  0  0
 27  9  1  0  0  0
 27 17  1  0  0  0
 27 21  1  0  0  0
  6 28  1  0  0  0
  6 29  1  0  0  0
 11 30  1  0  0  0
 12 31  1  0  0  0
 12 32  1  0  0  0
 14 33  1  0  0  0
 15 34  1  0  0  0
 15 35  1  0  0  0
 19 36  1  0  0  0
 19 37  1  0  0  0
M  END
$$$$
