4b9k_ligand
  -I-interpret- 

 58 61  0  0  0  0  0  0  0  0999 V2000
   -4.3610   32.9010   -4.3070 N   0  0  0  0  0
   -5.5000   33.6220   -3.7890 C   0  0  0  0  0
   -5.6260   33.9800   -2.4210 C   0  0  0  0  0
   -4.5440   33.6590   -1.4250 C   0  0  0  0  0
   -6.7910   34.6970   -2.0380 C   0  0  0  0  0
   -7.0110   35.1230   -0.6030 C   0  0  0  0  0
   -7.4550   34.1190    0.3460 N   0  0  0  0  0
   -7.6940   34.3620    1.7650 C   0  0  0  0  0
   -6.4610   34.9100    2.4740 C   0  0  0  0  0
   -6.6590   35.8470    3.5490 N   0  0  0  0  0
   -5.4720   36.3080    4.2460 C   0  0  0  0  0
   -5.2330   35.3920    5.4450 C   0  0  0  0  0
   -3.9810   35.4370    6.0880 C   0  0  0  0  0
   -3.7690   34.6180    7.2060 C   0  0  0  0  0
   -4.7810   33.7510    7.6650 C   0  0  0  0  0
   -4.5740   32.9240    8.9120 C   0  0  0  0  0
   -4.0370   33.4180   10.1520 C   0  0  0  0  0
   -3.5100   34.7910   10.4490 C   0  0  0  0  0
   -4.0420   32.3350   11.1460 N   0  0  0  0  0
   -4.5930   31.1660   10.6520 C   0  0  0  0  0
   -5.0320   31.3830    9.1020 S   0  0  0  0  0
   -6.0100   33.6790    6.9990 C   0  0  0  0  0
   -6.2510   34.5390    5.9260 C   0  0  0  0  0
   -5.3170   34.5450    2.1710 O   0  0  0  0  0
   -8.0280   33.0510    2.3940 C   0  0  0  0  0
   -8.5680   32.3010    1.2460 C   0  0  0  0  0
   -9.9100   32.6300    1.0310 O   0  0  0  0  0
   -7.7380   32.7050    0.0560 C   0  0  0  0  0
   -6.8350   36.2950   -0.2600 O   0  0  0  0  0
   -7.8170   34.9770   -2.9490 C   0  0  0  0  0
   -7.6590   34.6270   -4.2920 C   0  0  0  0  0
   -6.5250   33.9110   -4.6870 C   0  0  0  0  0
   -3.6032   32.6272   -3.6815 H   0  0  0  0  0
   -4.3143   32.6655   -5.2983 H   0  0  0  0  0
   -4.3935   32.5800   -1.3891 H   0  0  0  0  0
   -3.6172   34.1465   -1.7275 H   0  0  0  0  0
   -4.8405   34.0188   -0.4397 H   0  0  0  0  0
   -8.4950   35.0955    1.8566 H   0  0  0  0  0
   -7.5903   36.1719    3.8089 H   0  0  0  0  0
   -5.6116   37.3353    4.5825 H   0  0  0  0  0
   -4.6116   36.2804    3.5773 H   0  0  0  0  0
   -3.1924   36.0955    5.7238 H   0  0  0  0  0
   -2.8115   34.6521    7.7257 H   0  0  0  0  0
   -2.6706   35.0074    9.7881 H   0  0  0  0  0
   -4.2998   35.5247   10.2876 H   0  0  0  0  0
   -3.1781   34.8348   11.4863 H   0  0  0  0  0
   -4.7142   30.2411   11.2159 H   0  0  0  0  0
   -6.7681   32.9617    7.3136 H   0  0  0  0  0
   -7.2339   34.5524    5.4550 H   0  0  0  0  0
   -8.7254   33.1330    3.2277 H   0  0  0  0  0
   -7.1752   32.5659    2.8689 H   0  0  0  0  0
   -8.5232   31.2261    1.4211 H   0  0  0  0  0
  -10.2440   32.1327    0.2808 H   0  0  0  0  0
   -6.8388   32.1015   -0.0679 H   0  0  0  0  0
   -8.2462   32.5531   -0.8962 H   0  0  0  0  0
   -8.7321   35.4644   -2.6126 H   0  0  0  0  0
   -8.4136   34.9098   -5.0260 H   0  0  0  0  0
   -6.4411   33.5717   -5.7195 H   0  0  0  0  0
  1  2  1  0  0  0
  2  3  4  0  0  0
  2 32  4  0  0  0
  3  4  1  0  0  0
  3  5  4  0  0  0
  5  6  1  0  0  0
  5 30  4  0  0  0
  6  7  1  0  0  0
  6 29  2  0  0  0
  7  8  1  0  0  0
  7 28  1  0  0  0
  8  9  1  0  0  0
  8 25  1  0  0  0
  9 10  1  0  0  0
  9 24  2  0  0  0
 10 11  1  0  0  0
 11 12  1  0  0  0
 12 13  4  0  0  0
 12 23  4  0  0  0
 13 14  4  0  0  0
 14 15  4  0  0  0
 15 16  1  0  0  0
 15 22  4  0  0  0
 16 17  4  0  0  0
 16 21  4  0  0  0
 17 18  1  0  0  0
 17 19  4  0  0  0
 19 20  4  0  0  0
 20 21  4  0  0  0
 22 23  4  0  0  0
 25 26  1  0  0  0
 26 27  1  0  0  0
 26 28  1  0  0  0
 30 31  4  0  0  0
 31 32  4  0  0  0
  1 33  1  0  0  0
  1 34  1  0  0  0
  4 35  1  0  0  0
  4 36  1  0  0  0
  4 37  1  0  0  0
  8 38  1  0  0  0
 10 39  1  0  0  0
 11 40  1  0  0  0
 11 41  1  0  0  0
 13 42  1  0  0  0
 14 43  1  0  0  0
 18 44  1  0  0  0
 18 45  1  0  0  0
 18 46  1  0  0  0
 20 47  1  0  0  0
 22 48  1  0  0  0
 23 49  1  0  0  0
 25 50  1  0  0  0
 25 51  1  0  0  0
 26 52  1  0  0  0
 27 53  1  0  0  0
 28 54  1  0  0  0
 28 55  1  0  0  0
 30 56  1  0  0  0
 31 57  1  0  0  0
 32 58  1  0  0  0
M  END
$$$$
