3ao1_ligand
  -I-interpret- 

 16 17  0  0  0  0  0  0  0  0999 V2000
   19.6760    8.1270   10.5730 C   0  0  0  0  0
   20.8500    7.7520   11.2100 C   0  0  0  0  0
   22.1250    8.1560   10.7810 C   0  0  0  0  0
   22.2940    8.9750    9.6620 C   0  0  0  0  0
   21.1340    9.3620    9.0160 C   0  0  0  0  0
   19.8210    8.9430    9.4710 C   0  0  0  0  0
   18.8870    9.4690    8.6220 O   0  0  0  0  0
   19.5820    9.9360    7.4590 C   0  0  0  0  0
   20.9380   10.1230    7.9060 O   0  0  0  0  0
   20.7400    6.9580   12.2930 O   0  0  0  0  0
   18.6979    7.7965   10.9226 H   0  0  0  0  0
   23.0031    7.8227   11.3341 H   0  0  0  0  0
   23.2796    9.2897    9.3191 H   0  0  0  0  0
   19.1496   10.8554    7.0642 H   0  0  0  0  0
   19.5166    9.2303    6.6309 H   0  0  0  0  0
   21.6148    6.7704   12.6411 H   0  0  0  0  0
  1  2  4  0  0  0
  1  6  4  0  0  0
  2  3  4  0  0  0
  2 10  1  0  0  0
  3  4  4  0  0  0
  4  5  4  0  0  0
  5  6  4  0  0  0
  5  9  1  0  0  0
  6  7  1  0  0  0
  7  8  1  0  0  0
  8  9  1  0  0  0
  1 11  1  0  0  0
  3 12  1  0  0  0
  4 13  1  0  0  0
  8 14  1  0  0  0
  8 15  1  0  0  0
 10 16  1  0  0  0
M  END
$$$$
