5l2o_ligand
  -I-interpret- 

 34 35  0  0  0  0  0  0  0  0999 V2000
    7.4650  -11.3190  -32.1130 O   0  0  0  0  0
    7.3730  -12.5310  -32.3770 C   0  0  0  0  0
    6.6470  -12.8710  -33.4730 O   0  0  0  0  0
    6.5310  -14.1740  -33.8390 C   0  0  0  0  0
    7.9950  -13.4790  -31.5740 C   0  0  0  0  0
    7.9210  -14.8410  -31.8520 C   0  0  0  0  0
    8.6210  -15.8500  -30.9790 C   0  0  0  0  0
    7.1560  -15.2410  -33.0590 C   0  0  0  0  0
    7.0020  -16.5490  -33.4830 C   0  0  0  0  0
    6.2580  -16.8150  -34.6310 C   0  0  0  0  0
    5.6400  -15.7980  -35.3680 C   0  0  0  0  0
    5.8040  -14.4810  -34.9560 C   0  0  0  0  0
    4.8410  -16.0800  -36.5100 N   0  0  0  0  0
    4.5560  -17.4800  -36.8960 C   0  0  0  0  0
    3.7610  -18.2930  -35.8720 C   0  0  0  0  0
    4.2890  -15.0040  -37.3510 C   0  0  0  0  0
    2.9490  -14.4680  -36.8770 C   0  0  0  0  0
    8.5571  -13.1467  -30.7012 H   0  0  0  0  0
    9.6921  -15.6481  -30.9797 H   0  0  0  0  0
    8.2368  -15.7769  -29.9616 H   0  0  0  0  0
    8.4386  -16.8524  -31.3664 H   0  0  0  0  0
    7.4591  -17.3651  -32.9234 H   0  0  0  0  0
    6.1541  -17.8472  -34.9654 H   0  0  0  0  0
    5.3451  -13.6784  -35.5333 H   0  0  0  0  0
    5.5206  -17.9755  -37.0062 H   0  0  0  0  0
    3.9478  -17.4366  -37.7995 H   0  0  0  0  0
    4.3161  -18.3371  -34.9350 H   0  0  0  0  0
    2.7957  -17.8162  -35.7018 H   0  0  0  0  0
    3.6068  -19.3028  -36.2524 H   0  0  0  0  0
    4.1346  -15.4210  -38.3462 H   0  0  0  0  0
    4.9964  -14.1754  -37.3183 H   0  0  0  0  0
    2.2177  -15.2763  -36.8701 H   0  0  0  0  0
    3.0561  -14.0646  -35.8701 H   0  0  0  0  0
    2.6150  -13.6799  -37.5519 H   0  0  0  0  0
  1  2  2  0  0  0
  2  3  1  0  0  0
  2  5  1  0  0  0
  3  4  1  0  0  0
  4  8  4  0  0  0
  4 12  4  0  0  0
  5  6  2  0  0  0
  6  7  1  0  0  0
  6  8  1  0  0  0
  8  9  4  0  0  0
  9 10  4  0  0  0
 10 11  4  0  0  0
 11 12  4  0  0  0
 11 13  1  0  0  0
 13 14  1  0  0  0
 13 16  1  0  0  0
 14 15  1  0  0  0
 16 17  1  0  0  0
  5 18  1  0  0  0
  7 19  1  0  0  0
  7 20  1  0  0  0
  7 21  1  0  0  0
  9 22  1  0  0  0
 10 23  1  0  0  0
 12 24  1  0  0  0
 14 25  1  0  0  0
 14 26  1  0  0  0
 15 27  1  0  0  0
 15 28  1  0  0  0
 15 29  1  0  0  0
 16 30  1  0  0  0
 16 31  1  0  0  0
 17 32  1  0  0  0
 17 33  1  0  0  0
 17 34  1  0  0  0
M  END
$$$$
