### 
### Created by X-TOOL on Mon Sep 10 21:13:11 2018
### 

@<TRIPOS>MOLECULE
4euv_ligand
   68    74     1     0     0
SMALL
GAST_HUCK


@<TRIPOS>ATOM
      1 P1         16.5090    2.3420   14.0580 P.3       1 C2E         0.2557
      2 O2P        17.8300    1.6950   14.3220 O.co2     1 C2E        -0.6177
      3 O1P        16.1570    3.5850   14.8560 O.co2     1 C2E        -0.6177
      4 O5'        15.4250    1.2000   14.2750 O.3       1 C2E        -0.2514
      5 C5'        15.6650   -0.1580   13.8950 C.3       1 C2E         0.1128
      6 C4'        14.3440   -0.8850   14.0870 C.3       1 C2E         0.1242
      7 O4'        14.1300   -1.0510   15.5130 O.3       1 C2E        -0.3359
      8 C3'        13.1330   -0.1060   13.5790 C.3       1 C2E         0.1540
      9 O3'        12.7530   -0.4170   12.2350 O.3       1 C2E        -0.2453
     10 C2'        12.0230   -0.5990   14.4910 C.3       1 C2E         0.1440
     11 O2'        11.4640   -1.8330   14.0270 O.3       1 C2E        -0.3832
     12 C1'        12.7350   -0.8400   15.7970 C.3       1 C2E         0.1996
     13 N9         12.5780    0.3770   16.6320 N.pl3     1 C2E        -0.2101
     14 C8         13.5290    1.2820   16.9190 C.2       1 C2E         0.0957
     15 N7         13.0410    2.2540   17.7150 N.2       1 C2E        -0.3235
     16 C5         11.7470    1.9680   17.9460 C.2       1 C2E         0.0926
     17 C6         10.6650    2.6100   18.7150 C.2       1 C2E         0.2135
     18 O6         10.9360    3.7550   19.4010 O.2       1 C2E        -0.4091
     19 N1          9.4570    2.0170   18.7070 N.am      1 C2E        -0.1839
     20 C2          9.2020    0.8600   18.0050 C.2       1 C2E         0.2340
     21 N2          7.9590    0.3360   18.0390 N.pl3     1 C2E        -0.2807
     22 N3         10.1640    0.2050   17.2770 N.2       1 C2E        -0.2765
     23 C4         11.4270    0.7360   17.2120 C.2       1 C2E         0.1159
     24 P11        12.0030    0.6680   11.3100 P.3       1 C2E         0.2557
     25 O21        11.8850   -0.0060    9.9570 O.co2     1 C2E        -0.6177
     26 O11        10.7370    1.1490   11.9920 O.co2     1 C2E        -0.6177
     27 O5A        13.0220    1.9020   11.2070 O.3       1 C2E        -0.2514
     28 C5A        14.1810    1.8010   10.3780 C.3       1 C2E         0.1128
     29 C4A        15.0200    3.0580   10.5190 C.3       1 C2E         0.1242
     30 O4A        14.2870    4.1840   10.0600 O.3       1 C2E        -0.3359
     31 C3A        15.3330    3.4280   11.9630 C.3       1 C2E         0.1540
     32 O3A        16.4380    2.7110   12.4900 O.3       1 C2E        -0.2453
     33 C2A        15.5620    4.9240   11.9260 C.3       1 C2E         0.1440
     34 O2A        16.8810    5.2350   11.4440 O.3       1 C2E        -0.3832
     35 C1A        14.5530    5.3260   10.8770 C.3       1 C2E         0.1996
     36 N91        13.2720    5.7190   11.5270 N.pl3     1 C2E        -0.2101
     37 C81        12.1330    4.9990   11.6380 C.2       1 C2E         0.0957
     38 N71        11.1780    5.7090   12.2820 N.2       1 C2E        -0.3235
     39 C51        11.7140    6.9080   12.5710 C.2       1 C2E         0.0926
     40 C61        11.2850    8.1570   13.2280 C.2       1 C2E         0.2135
     41 O61        10.0370    8.3130   13.7410 O.2       1 C2E        -0.4091
     42 N11        12.1680    9.1600   13.3410 N.am      1 C2E        -0.1839
     43 C21        13.4200    9.0860   12.8380 C.2       1 C2E         0.2340
     44 N21        14.2350   10.1640   12.9700 N.pl3     1 C2E        -0.2807
     45 N31        13.8950    7.9800   12.2190 N.2       1 C2E        -0.2765
     46 C41        13.0900    6.9000   12.0620 C.2       1 C2E         0.1159
     47 H1         16.4424   -0.6023   14.5340 H         1 C2E         0.0647
     48 H2         15.9810   -0.2106   12.8427 H         1 C2E         0.0647
     49 H3         14.3927   -1.8614   13.5827 H         1 C2E         0.0655
     50 H4         13.2991    0.9770   13.6763 H         1 C2E         0.0712
     51 H5         11.2302    0.1565   14.5942 H         1 C2E         0.0681
     52 H6         12.1438   -2.4960   13.9975 H         1 C2E         0.2102
     53 H7         12.3135   -1.7153   16.3130 H         1 C2E         0.0998
     54 H8         14.5552    1.2362   16.5573 H         1 C2E         0.1179
     55 H9          8.7146    2.4333   19.2320 H         1 C2E         0.2515
     56 H10         7.7503   -0.5288   17.5199 H         1 C2E         0.1897
     57 H11         7.2189    0.8008   18.5840 H         1 C2E         0.1897
     58 H12        13.8715    1.6834    9.3290 H         1 C2E         0.0647
     59 H13        14.7755    0.9279   10.6850 H         1 C2E         0.0647
     60 H14        15.9510    2.9313    9.9470 H         1 C2E         0.0655
     61 H15        14.4594    3.2079   12.5942 H         1 C2E         0.0712
     62 H16        15.3804    5.4008   12.9005 H         1 C2E         0.0681
     63 H17        17.5276    4.8425   12.0187 H         1 C2E         0.2102
     64 H18        14.9445    6.1562   10.2708 H         1 C2E         0.0998
     65 H19        12.0021    3.9859   11.2606 H         1 C2E         0.1179
     66 H20        11.8892    9.9948   13.8158 H         1 C2E         0.2515
     67 H21        15.1940   10.1335   12.5954 H         1 C2E         0.1897
     68 H22        13.8942   11.0122   13.4447 H         1 C2E         0.1897
@<TRIPOS>BOND
     1    1    2 ar 
     2    1    3 ar 
     3    1    4 1  
     4    1   32 1  
     5    4    5 1  
     6    5    6 1  
     7    6    7 1  
     8    6    8 1  
     9    7   12 1  
    10    8    9 1  
    11    8   10 1  
    12    9   24 1  
    13   10   11 1  
    14   10   12 1  
    15   12   13 1  
    16   13   14 1  
    17   13   23 1  
    18   14   15 2  
    19   15   16 1  
    20   16   17 1  
    21   16   23 2  
    22   17   18 2  
    23   17   19 am 
    24   19   20 am 
    25   20   21 1  
    26   20   22 2  
    27   22   23 1  
    28   24   25 ar 
    29   24   26 ar 
    30   24   27 1  
    31   27   28 1  
    32   28   29 1  
    33   29   30 1  
    34   29   31 1  
    35   30   35 1  
    36   31   32 1  
    37   31   33 1  
    38   33   34 1  
    39   33   35 1  
    40   35   36 1  
    41   36   37 1  
    42   36   46 1  
    43   37   38 2  
    44   38   39 1  
    45   39   40 1  
    46   39   46 2  
    47   40   41 2  
    48   40   42 am 
    49   42   43 am 
    50   43   44 1  
    51   43   45 2  
    52   45   46 1  
    53    5   47 1  
    54    5   48 1  
    55    6   49 1  
    56    8   50 1  
    57   10   51 1  
    58   11   52 1  
    59   12   53 1  
    60   14   54 1  
    61   19   55 1  
    62   21   56 1  
    63   21   57 1  
    64   28   58 1  
    65   28   59 1  
    66   29   60 1  
    67   31   61 1  
    68   33   62 1  
    69   34   63 1  
    70   35   64 1  
    71   37   65 1  
    72   42   66 1  
    73   44   67 1  
    74   44   68 1  
@<TRIPOS>SUBSTRUCTURE
     1 C2E         1

