4j8r_ligand
  -I-interpret- 

120124  0  0  0  0  0  0  0  0999 V2000
  -17.0440    3.5680   47.9090 N   0  3  0  0  0
  -17.5960    4.6590   48.6990 C   0  0  0  0  0
  -16.8830    5.0310   50.0200 C   0  0  0  0  0
  -16.2790    6.0640   49.9980 O   0  0  0  0  0
  -19.0310    4.2550   48.8330 C   0  0  0  0  0
  -19.3190    3.6770   47.4870 C   0  0  0  0  0
  -18.0520    3.0450   46.9880 C   0  0  0  0  0
  -16.9110    4.2900   51.1160 N   0  0  0  0  0
  -15.9660    4.6210   52.1790 C   0  0  0  0  0
  -15.5510    3.5580   53.2120 C   0  0  0  0  0
  -16.3240    3.2340   54.0880 O   0  0  0  0  0
  -16.4340    5.8630   52.8990 C   0  0  0  0  0
  -16.5080    7.0800   52.0450 C   0  0  0  0  0
  -15.4880    7.9950   51.9650 N   0  0  0  0  0
  -17.4940    7.5510   51.2590 C   0  0  0  0  0
  -15.8360    8.9770   51.1600 C   0  0  0  0  0
  -17.0500    8.7310   50.7140 N   0  0  0  0  0
  -14.3110    3.0780   53.1220 N   0  0  0  0  0
  -13.6690    2.1900   54.0750 C   0  0  0  0  0
  -12.7940    1.3140   53.2200 C   0  0  0  0  0
  -12.8820    1.5070   52.0390 O   0  0  0  0  0
  -12.0190    0.3630   53.7560 N   0  0  0  0  0
  -11.1780   -0.5380   52.9620 C   0  0  0  0  0
  -11.2100   -2.0510   53.2470 C   0  0  0  0  0
  -11.2370   -2.4710   54.3940 O   0  0  0  0  0
  -11.1890   -2.8990   52.2330 N   0  0  0  0  0
  -11.4640   -4.3090   52.4980 C   0  0  0  0  0
  -10.9660   -5.4470   51.5990 C   0  0  0  0  0
  -10.2570   -5.2570   50.6460 O   0  0  0  0  0
  -12.9340   -4.4960   52.7160 C   0  0  0  0  0
  -13.6380   -3.7040   51.8370 O   0  0  0  0  0
  -11.3020   -6.6490   52.0340 N   0  0  0  0  0
  -11.2590   -7.9300   51.3110 C   0  0  0  0  0
   -9.9380   -8.5390   51.0820 C   0  0  0  0  0
   -9.0420   -8.2540   51.8340 O   0  0  0  0  0
  -12.2440   -8.0100   50.1590 C   0  0  0  0  0
  -11.8270   -8.0770   48.7270 C   0  0  0  0  0
  -12.2970   -8.9670   47.8180 C   0  0  0  0  0
  -10.9450   -7.2090   48.0020 C   0  0  0  0  0
  -11.7620   -8.7190   46.5930 N   0  0  0  0  0
  -10.9270   -7.6420   46.6850 C   0  0  0  0  0
  -10.1700   -6.1160   48.3430 C   0  0  0  0  0
  -10.1890   -7.0200   45.7260 C   0  0  0  0  0
   -9.4360   -5.5280   47.3830 C   0  0  0  0  0
   -9.4490   -5.9750   46.1010 C   0  0  0  0  0
   -9.8070   -9.4520   50.1290 N   0  0  0  0  0
  -10.8510  -10.0580   49.3080 C   0  0  0  0  0
  -11.5690  -11.1880   50.0170 C   0  0  0  0  0
  -11.3820  -11.3910   51.1950 O   0  0  0  0  0
  -12.4640  -11.8960   49.3630 N   0  0  0  0  0
  -13.2410  -12.8330   50.1620 C   0  0  0  0  0
  -13.0870  -14.3550   50.0180 C   0  0  0  0  0
  -12.7660  -15.0350   50.9850 O   0  0  0  0  0
  -14.6980  -12.4700   50.0440 C   0  0  0  0  0
  -15.3920  -12.4580   51.3670 C   0  0  0  0  0
  -16.1820  -11.2000   51.5470 C   0  0  0  0  0
  -16.0260  -10.2430   50.7790 O   0  0  0  0  0
  -17.0340  -11.1780   52.5700 N   0  0  0  0  0
  -13.3150  -14.9000   48.8350 N   0  0  0  0  0
  -13.4530  -16.3480   48.7300 C   0  0  0  0  0
  -12.3020  -17.0480   49.4170 C   0  0  0  0  0
  -11.9292  -18.1642   48.9668 O   0  0  0  0  0
  -13.4240  -16.5980   47.2210 C   0  0  0  0  0
  -13.7590  -15.2910   46.6160 C   0  0  0  0  0
  -13.1170  -14.2940   47.5160 C   0  0  0  0  0
  -11.7309  -16.5289   50.4130 O   0  0  0  0  0
  -16.7474    2.8204   48.5364 H   0  0  0  0  0
  -16.2506    3.9159   47.3706 H   0  0  0  0  0
  -17.4499    5.6193   48.2045 H   0  0  0  0  0
  -19.6892    5.0828   49.0967 H   0  0  0  0  0
  -19.2075    3.5550   49.6497 H   0  0  0  0  0
  -19.6530    4.4554   46.8010 H   0  0  0  0  0
  -20.1152    2.9355   47.5526 H   0  0  0  0  0
  -18.0956    1.9559   46.9809 H   0  0  0  0  0
  -17.8399    3.2853   45.9462 H   0  0  0  0  0
  -17.5683    3.5163   51.2147 H   0  0  0  0  0
  -15.0422    4.7483   51.6146 H   0  0  0  0  0
  -15.7080    6.0687   53.6856 H   0  0  0  0  0
  -17.4437    5.6628   53.2575 H   0  0  0  0  0
  -18.4635    7.0834   51.0871 H   0  0  0  0  0
  -15.2250    9.8434   50.9067 H   0  0  0  0  0
  -13.7628    3.3601   52.3095 H   0  0  0  0  0
  -14.3900    1.6145   54.6555 H   0  0  0  0  0
  -13.0999    2.7336   54.8292 H   0  0  0  0  0
  -12.0133    0.2598   54.7707 H   0  0  0  0  0
  -10.1559   -0.2349   53.1890 H   0  0  0  0  0
  -11.5522   -0.4401   51.9429 H   0  0  0  0  0
  -10.9854   -2.5761   51.2871 H   0  0  0  0  0
  -10.8135   -4.4454   53.3619 H   0  0  0  0  0
  -13.1864   -4.2139   53.7382 H   0  0  0  0  0
  -13.1940   -5.5412   52.5484 H   0  0  0  0  0
  -14.5792   -3.8272   51.9804 H   0  0  0  0  0
  -11.6347   -6.6947   52.9971 H   0  0  0  0  0
  -11.6409   -8.6351   52.0493 H   0  0  0  0  0
  -12.7688   -7.0565   50.2178 H   0  0  0  0  0
  -12.7310   -8.9721   50.3184 H   0  0  0  0  0
  -13.0033   -9.7674   48.0383 H   0  0  0  0  0
  -10.1547   -5.7402   49.3660 H   0  0  0  0  0
  -10.2018   -7.3622   44.6912 H   0  0  0  0  0
   -8.8144   -4.6703   47.6401 H   0  0  0  0  0
   -8.8372   -5.4654   45.3566 H   0  0  0  0  0
   -8.8557   -9.7714   49.9464 H   0  0  0  0  0
  -10.3791  -10.4688   48.4155 H   0  0  0  0  0
  -11.5858   -9.2867   49.0774 H   0  0  0  0  0
  -12.6051  -11.7949   48.3579 H   0  0  0  0  0
  -12.7873  -12.6888   51.1426 H   0  0  0  0  0
  -15.1819  -13.2185   49.4166 H   0  0  0  0  0
  -14.7622  -11.4676   49.6208 H   0  0  0  0  0
  -14.6419  -12.5157   52.1558 H   0  0  0  0  0
  -16.0729  -13.3079   51.4123 H   0  0  0  0  0
  -17.5948  -10.3450   52.7488 H   0  0  0  0  0
  -17.1258  -11.9942   53.1749 H   0  0  0  0  0
  -14.3575  -16.7271   49.2057 H   0  0  0  0  0
  -14.1283  -17.3752   46.9245 H   0  0  0  0  0
  -12.4521  -16.9623   46.8883 H   0  0  0  0  0
  -14.8355  -15.1392   46.5368 H   0  0  0  0  0
  -13.3995  -15.2093   45.5902 H   0  0  0  0  0
  -12.0690  -14.1109   47.2786 H   0  0  0  0  0
  -13.5476  -13.2963   47.4310 H   0  0  0  0  0
  -12.1440  -15.6860   50.6140 H   0  0  0  0  0
  1  2  1  0  0  0
  1  7  1  0  0  0
  2  3  1  0  0  0
  2  5  1  0  0  0
  3  4  2  0  0  0
  3  8  1  0  0  0
  5  6  1  0  0  0
  6  7  1  0  0  0
  8  9  1  0  0  0
  9 10  1  0  0  0
  9 12  1  0  0  0
 10 11  2  0  0  0
 10 18  1  0  0  0
 12 13  1  0  0  0
 13 14  4  0  0  0
 13 15  4  0  0  0
 14 16  4  0  0  0
 15 17  4  0  0  0
 16 17  4  0  0  0
 18 19  1  0  0  0
 19 20  1  0  0  0
 20 21  2  0  0  0
 20 22  1  0  0  0
 22 23  1  0  0  0
 23 24  1  0  0  0
 24 25  2  0  0  0
 24 26  1  0  0  0
 26 27  1  0  0  0
 27 28  1  0  0  0
 27 30  1  0  0  0
 28 29  2  0  0  0
 28 32  1  0  0  0
 30 31  1  0  0  0
 32 33  1  0  0  0
 33 34  1  0  0  0
 33 36  1  0  0  0
 34 35  2  0  0  0
 34 46  1  0  0  0
 36 37  1  0  0  0
 37 38  4  0  0  0
 37 39  4  0  0  0
 38 40  4  0  0  0
 39 41  4  0  0  0
 39 42  4  0  0  0
 40 41  4  0  0  0
 41 43  4  0  0  0
 42 44  4  0  0  0
 43 45  4  0  0  0
 44 45  4  0  0  0
 46 47  1  0  0  0
 47 48  1  0  0  0
 48 49  2  0  0  0
 48 50  1  0  0  0
 50 51  1  0  0  0
 51 52  1  0  0  0
 51 54  1  0  0  0
 52 53  2  0  0  0
 52 59  1  0  0  0
 54 55  1  0  0  0
 55 56  1  0  0  0
 56 57  2  0  0  0
 56 58  1  0  0  0
 59 60  1  0  0  0
 59 65  1  0  0  0
 60 61  1  0  0  0
 60 63  1  0  0  0
 61 62  2  0  0  0
 63 64  1  0  0  0
 64 65  1  0  0  0
 61 66  1  0  0  0
  1 67  1  0  0  0
  1 68  1  0  0  0
  2 69  1  0  0  0
  5 70  1  0  0  0
  5 71  1  0  0  0
  6 72  1  0  0  0
  6 73  1  0  0  0
  7 74  1  0  0  0
  7 75  1  0  0  0
  8 76  1  0  0  0
  9 77  1  0  0  0
 12 78  1  0  0  0
 12 79  1  0  0  0
 15 80  1  0  0  0
 16 81  1  0  0  0
 18 82  1  0  0  0
 19 83  1  0  0  0
 19 84  1  0  0  0
 22 85  1  0  0  0
 23 86  1  0  0  0
 23 87  1  0  0  0
 26 88  1  0  0  0
 27 89  1  0  0  0
 30 90  1  0  0  0
 30 91  1  0  0  0
 31 92  1  0  0  0
 32 93  1  0  0  0
 33 94  1  0  0  0
 36 95  1  0  0  0
 36 96  1  0  0  0
 38 97  1  0  0  0
 42 98  1  0  0  0
 43 99  1  0  0  0
 44100  1  0  0  0
 45101  1  0  0  0
 46102  1  0  0  0
 47103  1  0  0  0
 47104  1  0  0  0
 50105  1  0  0  0
 51106  1  0  0  0
 54107  1  0  0  0
 54108  1  0  0  0
 55109  1  0  0  0
 55110  1  0  0  0
 58111  1  0  0  0
 58112  1  0  0  0
 60113  1  0  0  0
 63114  1  0  0  0
 63115  1  0  0  0
 64116  1  0  0  0
 64117  1  0  0  0
 65118  1  0  0  0
 65119  1  0  0  0
 66120  1  0  0  0
M  END
$$$$
