### 
### Created by X-TOOL on Mon Sep 10 21:13:16 2018
### 

@<TRIPOS>MOLECULE
4j8r_ligand
  121   125     1     0     0
SMALL
GAST_HUCK


@<TRIPOS>ATOM
      1 N         -17.0440    3.5680   47.9090 N.4       1 PRO         0.2461
      2 CA        -17.5960    4.6590   48.6990 C.3       1 PRO         0.0670
      3 C         -16.8830    5.0310   50.0200 C.2       1 PRO         0.2269
      4 O         -16.2790    6.0640   49.9980 O.2       1 PRO        -0.3907
      5 CB        -19.0310    4.2550   48.8330 C.3       1 PRO         0.0127
      6 CG        -19.3190    3.6770   47.4870 C.3       1 PRO        -0.0053
      7 CD        -18.0520    3.0450   46.9880 C.3       1 PRO        -0.0313
      8 N         -16.9110    4.2900   51.1160 N.am      1 HIS        -0.2598
      9 CA        -15.9660    4.6210   52.1790 C.3       1 HIS         0.1370
     10 C         -15.5510    3.5580   53.2120 C.2       1 HIS         0.2052
     11 O         -16.3240    3.2340   54.0880 O.2       1 HIS        -0.3942
     12 CB        -16.4340    5.8630   52.8990 C.3       1 HIS         0.0145
     13 CG        -16.5080    7.0800   52.0450 C.2       1 HIS        -0.0027
     14 ND1       -15.4880    7.9950   51.9650 N.2       1 HIS        -0.3252
     15 CD2       -17.4940    7.5510   51.2590 C.2       1 HIS         0.0291
     16 CE1       -15.8360    8.9770   51.1600 C.2       1 HIS         0.0907
     17 NE2       -17.0500    8.7310   50.7140 N.pl3     1 HIS        -0.2752
     18 N         -14.3110    3.0780   53.1220 N.am      1 GLY        -0.2663
     19 CA        -13.6690    2.1900   54.0750 C.3       1 GLY         0.1201
     20 C         -12.7940    1.3140   53.2200 C.2       1 GLY         0.2005
     21 O         -12.8820    1.5070   52.0390 O.2       1 GLY        -0.3947
     22 N         -12.0190    0.3630   53.7560 N.am      1 GLY        -0.2666
     23 CA        -11.1780   -0.5380   52.9620 C.3       1 GLY         0.1201
     24 C         -11.2100   -2.0510   53.2470 C.2       1 GLY         0.2008
     25 O         -11.2370   -2.4710   54.3940 O.2       1 GLY        -0.3947
     26 N         -11.1890   -2.8990   52.2330 N.am      1 SER        -0.2618
     27 CA        -11.4640   -4.3090   52.4980 C.3       1 SER         0.1539
     28 C         -10.9660   -5.4470   51.5990 C.2       1 SER         0.2063
     29 O         -10.2570   -5.2570   50.6460 O.2       1 SER        -0.3943
     30 CB        -12.9340   -4.4960   52.7160 C.3       1 SER         0.0843
     31 OG        -13.6380   -3.7040   51.8370 O.3       1 SER        -0.3903
     32 N         -11.3020   -6.6490   52.0340 N.am      1 TRP        -0.2626
     33 CA        -11.2590   -7.9300   51.3110 C.3       1 TRP         0.1352
     34 C          -9.9380   -8.5390   51.0820 C.2       1 TRP         0.2050
     35 O          -9.0420   -8.2540   51.8340 O.2       1 TRP        -0.3943
     36 CB        -12.2440   -8.0100   50.1590 C.3       1 TRP         0.0042
     37 CG        -11.8270   -8.0770   48.7270 C.2       1 TRP        -0.0418
     38 CD1       -12.2970   -8.9670   47.8180 C.2       1 TRP         0.0167
     39 CD2       -10.9450   -7.2090   48.0020 C.ar      1 TRP        -0.0214
     40 NE1       -11.7620   -8.7190   46.5930 N.pl3     1 TRP        -0.2890
     41 CE2       -10.9270   -7.6420   46.6850 C.ar      1 TRP         0.0603
     42 CE3       -10.1700   -6.1160   48.3430 C.ar      1 TRP        -0.0747
     43 CZ2       -10.1890   -7.0200   45.7260 C.ar      1 TRP        -0.0443
     44 CZ3        -9.4360   -5.5280   47.3830 C.ar      1 TRP        -0.0792
     45 CH2        -9.4490   -5.9750   46.1010 C.ar      1 TRP        -0.0768
     46 N          -9.8070   -9.4520   50.1290 N.am      1 GLY        -0.2663
     47 CA        -10.8510  -10.0580   49.3080 C.3       1 GLY         0.1201
     48 C         -11.5690  -11.1880   50.0170 C.2       1 GLY         0.2007
     49 O         -11.3820  -11.3910   51.1950 O.2       1 GLY        -0.3947
     50 N         -12.4640  -11.8960   49.3630 N.am      1 GLN        -0.2638
     51 CA        -13.2410  -12.8330   50.1620 C.3       1 GLN         0.1332
     52 C         -13.0870  -14.3550   50.0180 C.2       1 GLN         0.2060
     53 O         -12.7660  -15.0350   50.9850 O.2       1 GLN        -0.3942
     54 CB        -14.6980  -12.4700   50.0440 C.3       1 GLN         0.0045
     55 CG        -15.3920  -12.4580   51.3670 C.3       1 GLN         0.0412
     56 CD        -16.1820  -11.2000   51.5470 C.2       1 GLN         0.1737
     57 OE1       -16.0260  -10.2430   50.7790 O.2       1 GLN        -0.3973
     58 NE2       -17.0340  -11.1780   52.5700 N.am      1 GLN        -0.3009
     59 N         -13.3150  -14.9000   48.8350 N.am      1 PRO        -0.2556
     60 CA        -13.4530  -16.3480   48.7300 C.3       1 PRO         0.0972
     61 C         -12.3020  -17.0480   49.4170 C.2       1 PRO         0.0603
     62 O         -11.9292  -18.1642   48.9668 O.co2     1 PRO        -0.5666
     63 CB        -13.4240  -16.5980   47.2210 C.3       1 PRO        -0.0159
     64 CG        -13.7590  -15.2910   46.6160 C.3       1 PRO        -0.0288
     65 CD        -13.1170  -14.2940   47.5160 C.3       1 PRO         0.0362
     66 O         -11.7309  -16.5289   50.4130 O.co2     1 PRO        -0.5666
     67 H1        -16.7433    2.8300   48.5262 H         1 PRO         0.2035
     68 H2        -16.2551    3.9065   47.3806 H         1 PRO         0.2035
     69 H3        -17.5530    5.5700   48.0841 H         1 PRO         0.1099
     70 H4        -19.6729    5.1239   49.0403 H         1 PRO         0.0347
     71 H5        -19.1623    3.5045   49.6264 H         1 PRO         0.0347
     72 H6        -19.6393    4.4719   46.7974 H         1 PRO         0.0320
     73 H7        -20.1116    2.9184   47.5656 H         1 PRO         0.0320
     74 H8        -18.1081    1.9478   47.0435 H         1 PRO         0.0814
     75 H9        -17.8386    3.3494   45.9527 H         1 PRO         0.0814
     76 H10       -17.5554    3.5315   51.2127 H         1 HIS         0.1886
     77 H11       -15.0348    4.8838   51.6558 H         1 HIS         0.0817
     78 H12       -15.7363    6.0648   53.7251 H         1 HIS         0.0420
     79 H13       -17.4371    5.6671   53.3057 H         1 HIS         0.0420
     80 H14       -18.4626    7.0838   51.0873 H         1 HIS         0.0729
     81 H15       -15.2255    9.8426   50.9070 H         1 HIS         0.1199
     82 H16       -17.5806    9.3266   50.0623 H         1 HIS         0.2361
     83 H17       -13.7735    3.3546   52.3254 H         1 GLY         0.1881
     84 H18       -14.4158    1.5894   54.6149 H         1 GLY         0.0763
     85 H19       -13.0658    2.7604   54.7967 H         1 GLY         0.0763
     86 H20       -12.0134    0.2618   54.7509 H         1 GLY         0.1881
     87 H21       -10.1375   -0.2084   53.0988 H         1 GLY         0.0763
     88 H22       -11.4697   -0.4042   51.9099 H         1 GLY         0.0763
     89 H23       -10.9894   -2.5824   51.3057 H         1 SER         0.1884
     90 H24       -10.9718   -4.4962   53.4637 H         1 SER         0.0823
     91 H25       -13.1895   -4.2134   53.7479 H         1 SER         0.0606
     92 H26       -13.1972   -5.5509   52.5489 H         1 SER         0.0606
     93 H27       -14.5694   -3.8259   51.9789 H         1 SER         0.2097
     94 H28       -11.6282   -6.6938   52.9782 H         1 TRP         0.1884
     95 H29       -11.6976   -8.6231   52.0439 H         1 TRP         0.0815
     96 H30       -12.8825   -7.1185   50.2457 H         1 TRP         0.0397
     97 H31       -12.8471   -8.9120   50.3399 H         1 TRP         0.0397
     98 H32       -13.0027   -9.7667   48.0381 H         1 TRP         0.0795
     99 H33       -11.9549   -9.2558   45.7353 H         1 TRP         0.2216
    100 H34       -10.1548   -5.7422   49.3604 H         1 TRP         0.0540
    101 H35       -10.2017   -7.3603   44.6969 H         1 TRP         0.0541
    102 H36        -8.8178   -4.6751   47.6387 H         1 TRP         0.0510
    103 H37        -8.8406   -5.4682   45.3607 H         1 TRP         0.0530
    104 H38        -8.8743   -9.7652   49.9500 H         1 GLY         0.1881
    105 H39       -10.3918  -10.4537   48.3901 H         1 GLY         0.0763
    106 H40       -11.5866   -9.2834   49.0455 H         1 GLY         0.0763
    107 H41       -12.6023  -11.7969   48.3776 H         1 GLN         0.1883
    108 H42       -12.9395  -12.6254   51.1993 H         1 GLN         0.0801
    109 H43       -15.1933  -13.2048   49.3922 H         1 GLN         0.0337
    110 H44       -14.7772  -11.4691   49.5947 H         1 GLN         0.0337
    111 H45       -14.6411  -12.5288   52.1677 H         1 GLN         0.0504
    112 H46       -16.0718  -13.3209   51.4244 H         1 GLN         0.0504
    113 H47       -17.5896  -10.3642   52.7406 H         1 GLN         0.1814
    114 H48       -17.1183  -11.9753   53.1677 H         1 GLN         0.1814
    115 H49       -14.4036  -16.6869   49.1675 H         1 PRO         0.0728
    116 H50       -14.1682  -17.3576   46.9395 H         1 PRO         0.0306
    117 H51       -12.4244  -16.9280   46.9019 H         1 PRO         0.0306
    118 H52       -14.8486  -15.1435   46.5854 H         1 PRO         0.0286
    119 H53       -13.3501  -15.2167   45.5975 H         1 PRO         0.0286
    120 H54       -12.0475  -14.1787   47.2859 H         1 PRO         0.0524
    121 H55       -13.6145  -13.3154   47.4473 H         1 PRO         0.0524
@<TRIPOS>BOND
     1    1    2 1  
     2    1    7 1  
     3    2    3 1  
     4    2    5 1  
     5    3    4 2  
     6    3    8 am 
     7    5    6 1  
     8    6    7 1  
     9    8    9 1  
    10    9   10 1  
    11    9   12 1  
    12   10   11 2  
    13   10   18 am 
    14   12   13 1  
    15   13   14 1  
    16   13   15 2  
    17   14   16 2  
    18   15   17 1  
    19   16   17 1  
    20   18   19 1  
    21   19   20 1  
    22   20   21 2  
    23   20   22 am 
    24   22   23 1  
    25   23   24 1  
    26   24   25 2  
    27   24   26 am 
    28   26   27 1  
    29   27   28 1  
    30   27   30 1  
    31   28   29 2  
    32   28   32 am 
    33   30   31 1  
    34   32   33 1  
    35   33   34 1  
    36   33   36 1  
    37   34   35 2  
    38   34   46 am 
    39   36   37 1  
    40   37   38 2  
    41   37   39 1  
    42   38   40 1  
    43   39   41 ar 
    44   39   42 ar 
    45   40   41 1  
    46   41   43 ar 
    47   42   44 ar 
    48   43   45 ar 
    49   44   45 ar 
    50   46   47 1  
    51   47   48 1  
    52   48   49 2  
    53   48   50 am 
    54   50   51 1  
    55   51   52 1  
    56   51   54 1  
    57   52   53 2  
    58   52   59 am 
    59   54   55 1  
    60   55   56 1  
    61   56   57 2  
    62   56   58 am 
    63   59   60 1  
    64   59   65 1  
    65   60   61 1  
    66   60   63 1  
    67   61   62 ar 
    68   63   64 1  
    69   64   65 1  
    70   61   66 ar 
    71    1   67 1  
    72    1   68 1  
    73    2   69 1  
    74    5   70 1  
    75    5   71 1  
    76    6   72 1  
    77    6   73 1  
    78    7   74 1  
    79    7   75 1  
    80    8   76 1  
    81    9   77 1  
    82   12   78 1  
    83   12   79 1  
    84   15   80 1  
    85   16   81 1  
    86   17   82 1  
    87   18   83 1  
    88   19   84 1  
    89   19   85 1  
    90   22   86 1  
    91   23   87 1  
    92   23   88 1  
    93   26   89 1  
    94   27   90 1  
    95   30   91 1  
    96   30   92 1  
    97   31   93 1  
    98   32   94 1  
    99   33   95 1  
   100   36   96 1  
   101   36   97 1  
   102   38   98 1  
   103   40   99 1  
   104   42  100 1  
   105   43  101 1  
   106   44  102 1  
   107   45  103 1  
   108   46  104 1  
   109   47  105 1  
   110   47  106 1  
   111   50  107 1  
   112   51  108 1  
   113   54  109 1  
   114   54  110 1  
   115   55  111 1  
   116   55  112 1  
   117   58  113 1  
   118   58  114 1  
   119   60  115 1  
   120   63  116 1  
   121   63  117 1  
   122   64  118 1  
   123   64  119 1  
   124   65  120 1  
   125   65  121 1  
@<TRIPOS>SUBSTRUCTURE
     1 PRO         1

