6gj5_ligand
  -I-interpret- 

 43 47  0  0  0  0  0  0  0  0999 V2000
  -21.7010  -26.0070  -14.2440 N   0  0  0  0  0
  -20.5180  -26.0190  -21.0690 C   0  0  0  0  0
  -19.1370  -26.0550  -20.8850 C   0  0  0  0  0
  -18.5500  -26.4950  -19.6920 C   0  0  0  0  0
  -19.3180  -26.9220  -18.6060 C   0  0  0  0  0
  -21.6830  -26.5800  -16.4700 C   0  0  0  0  0
  -21.5450  -24.8390  -14.9120 C   0  0  0  0  0
  -21.2570  -22.7770  -16.8070 C   0  0  0  0  0
  -21.5290  -25.1090  -16.3690 C   0  0  0  0  0
  -20.9130  -28.9320  -13.6820 C   0  0  0  0  0
  -23.0110  -27.0460  -18.4690 N   0  0  0  0  0
  -22.7290  -26.5770  -19.7060 C   0  0  0  0  0
  -23.6400  -26.2770  -20.5610 O   0  0  0  0  0
  -21.7220  -27.2840  -17.7850 C   0  0  0  0  0
  -21.4130  -23.5190  -14.4870 C   0  0  0  0  0
  -21.2740  -22.5050  -15.4360 C   0  0  0  0  0
  -21.3850  -24.0800  -17.2910 C   0  0  0  0  0
  -21.9630  -28.4840  -14.6780 C   0  0  0  0  0
  -21.6290  -29.9600  -12.8160 C   0  0  0  0  0
  -23.1170  -29.6580  -12.9410 C   0  0  0  0  0
  -20.6910  -26.8890  -18.7460 C   0  0  0  0  0
  -21.2860  -26.4360  -20.0010 C   0  0  0  0  0
  -21.7790  -27.0720  -15.0780 C   0  0  0  0  0
  -23.2670  -28.6320  -13.9960 N   0  3  0  0  0
  -20.9660  -25.6807  -22.0033 H   0  0  0  0  0
  -18.4901  -25.7288  -21.6994 H   0  0  0  0  0
  -17.4632  -26.5045  -19.6085 H   0  0  0  0  0
  -18.8512  -27.2679  -17.6837 H   0  0  0  0  0
  -21.1414  -21.9545  -17.5128 H   0  0  0  0  0
  -20.5240  -28.1005  -13.0944 H   0  0  0  0  0
  -20.0342  -29.3501  -14.1728 H   0  0  0  0  0
  -23.9404  -27.2058  -18.0803 H   0  0  0  0  0
  -21.5588  -28.3261  -17.5104 H   0  0  0  0  0
  -21.4182  -23.2803  -13.4235 H   0  0  0  0  0
  -21.1761  -21.4731  -15.0989 H   0  0  0  0  0
  -21.3723  -24.2842  -18.3616 H   0  0  0  0  0
  -21.8942  -29.0826  -15.5863 H   0  0  0  0  0
  -21.3009  -29.8969  -11.7785 H   0  0  0  0  0
  -21.4050  -30.9750  -13.1443 H   0  0  0  0  0
  -23.5165  -29.2962  -11.9936 H   0  0  0  0  0
  -23.6716  -30.5598  -13.2004 H   0  0  0  0  0
  -23.9839  -28.9154  -14.6639 H   0  0  0  0  0
  -23.5528  -27.7432  -13.5852 H   0  0  0  0  0
  1  7  4  0  0  0
 23  1  4  0  0  0
  3  2  4  0  0  0
 22  2  4  0  0  0
  4  3  4  0  0  0
  5  4  4  0  0  0
 21  5  4  0  0  0
  6  9  4  0  0  0
  6 14  1  0  0  0
 23  6  4  0  0  0
  9  7  4  0  0  0
  7 15  4  0  0  0
  8 16  4  0  0  0
 17  8  4  0  0  0
  9 17  4  0  0  0
 18 10  1  0  0  0
 10 19  1  0  0  0
 11 12  1  0  0  0
 14 11  1  0  0  0
 12 13  2  0  0  0
 12 22  1  0  0  0
 14 21  1  0  0  0
 15 16  4  0  0  0
 18 23  1  0  0  0
 18 24  1  0  0  0
 19 20  1  0  0  0
 20 24  1  0  0  0
 21 22  4  0  0  0
  2 25  1  0  0  0
  3 26  1  0  0  0
  4 27  1  0  0  0
  5 28  1  0  0  0
  8 29  1  0  0  0
 10 30  1  0  0  0
 10 31  1  0  0  0
 11 32  1  0  0  0
 14 33  1  0  0  0
 15 34  1  0  0  0
 16 35  1  0  0  0
 17 36  1  0  0  0
 18 37  1  0  0  0
 19 38  1  0  0  0
 19 39  1  0  0  0
 20 40  1  0  0  0
 20 41  1  0  0  0
 24 42  1  0  0  0
 24 43  1  0  0  0
M  END
$$$$
