### 
### Created by X-TOOL on Mon Aug  2 16:14:21 2021
### 

@<TRIPOS>MOLECULE
6ipj_ligand
   42    43     1     0     0
SMALL
GAST_HUCK


@<TRIPOS>ATOM
      1 PA        249.0790  461.5910  100.8230 P.3       1 TTP         0.3266
      2 O1A       247.9350  460.7600  100.1160 O.co2     1 TTP        -0.5692
      3 O2A       249.5860  461.1620  102.1630 O.co2     1 TTP        -0.5692
      4 O3A       250.5220  461.9040  100.1210 O.3       1 TTP        -0.1171
      5 PB        251.0690  461.7620   98.5940 P.3       1 TTP         0.3553
      6 O1B       249.9140  461.4290   97.6880 O.co2     1 TTP        -0.5652
      7 O2B       251.8710  463.0100   98.3150 O.co2     1 TTP        -0.5652
      8 O3B       252.1200  460.5300   98.6000 O.3       1 TTP        -0.1546
      9 PG        251.7700  458.9320   98.5950 P.3       1 TTP         0.1879
     10 O1G       252.3200  458.3970   97.3010 O.co2     1 TTP        -0.6091
     11 O2G       252.5040  458.3940   99.8100 O.co2     1 TTP        -0.6091
     12 O3G       250.2700  458.8060   98.7370 O.co2     1 TTP        -0.6091
     13 O5'       248.5550  463.0850  101.0720 O.3       1 TTP        -0.2441
     14 C5'       248.3020  463.9780   99.9860 C.3       1 TTP         0.1130
     15 C4'       248.5160  465.4280  100.4130 C.3       1 TTP         0.1163
     16 O4'       247.5290  465.8280  101.3550 O.3       1 TTP        -0.3395
     17 C3'       249.8510  465.7550  101.0800 C.3       1 TTP         0.0889
     18 O3'       250.7960  466.1760  100.0910 O.3       1 TTP        -0.3890
     19 C2'       249.5240  466.8660  102.0730 C.3       1 TTP         0.0308
     20 C1'       248.0010  467.0150  101.9850 C.3       1 TTP         0.1757
     21 N1        247.2690  467.2300  103.2550 N.am      1 TTP        -0.1736
     22 C2        246.3230  468.3010  103.3680 C.2       1 TTP         0.3265
     23 O2        246.1010  469.0870  102.4190 O.2       1 TTP        -0.3843
     24 N3        245.6390  468.5120  104.5050 N.am      1 TTP        -0.1859
     25 C4        245.8060  467.7240  105.5760 C.2       1 TTP         0.1930
     26 O4        245.1470  467.9590  106.6150 O.2       1 TTP        -0.4079
     27 C5        246.7740  466.5900  105.4970 C.2       1 TTP         0.0225
     28 C5M       247.0210  465.6590  106.6570 C.3       1 TTP        -0.0437
     29 C6        247.4650  466.4000  104.3020 C.2       1 TTP         0.0524
     30 H1        247.2623  463.8511   99.6499 H         1 TTP         0.0648
     31 H2        248.9865  463.7415   99.1581 H         1 TTP         0.0648
     32 H3        248.4260  466.0461   99.5076 H         1 TTP         0.0650
     33 H4        250.2476  464.8761  101.6093 H         1 TTP         0.0622
     34 H5        251.6238  466.3779  100.5112 H         1 TTP         0.2099
     35 H6        250.0244  467.8032  101.7881 H         1 TTP         0.0344
     36 H7        249.8297  466.5817  103.0907 H         1 TTP         0.0344
     37 H8        247.7856  467.8789  101.3391 H         1 TTP         0.0959
     38 H9        244.9919  469.2729  104.5531 H         1 TTP         0.2259
     39 H10       247.7692  464.9056  106.3696 H         1 TTP         0.0296
     40 H11       246.0814  465.1568  106.9306 H         1 TTP         0.0296
     41 H12       247.3927  466.2353  107.5170 H         1 TTP         0.0296
     42 H13       248.1696  465.5746  104.2116 H         1 TTP         0.1011
@<TRIPOS>BOND
     1    1    2 ar 
     2    1    3 ar 
     3    1    4 1  
     4    1   13 1  
     5    4    5 1  
     6    5    6 ar 
     7    5    7 ar 
     8    5    8 1  
     9    8    9 1  
    10    9   10 ar 
    11    9   11 ar 
    12    9   12 ar 
    13   13   14 1  
    14   14   15 1  
    15   15   16 1  
    16   15   17 1  
    17   16   20 1  
    18   17   18 1  
    19   17   19 1  
    20   19   20 1  
    21   20   21 1  
    22   21   22 am 
    23   21   29 1  
    24   22   23 2  
    25   22   24 am 
    26   24   25 am 
    27   25   26 2  
    28   25   27 1  
    29   27   28 1  
    30   27   29 2  
    31   14   30 1  
    32   14   31 1  
    33   15   32 1  
    34   17   33 1  
    35   18   34 1  
    36   19   35 1  
    37   19   36 1  
    38   20   37 1  
    39   24   38 1  
    40   28   39 1  
    41   28   40 1  
    42   28   41 1  
    43   29   42 1  
@<TRIPOS>SUBSTRUCTURE
     1 TTP         1

