6ipj_ligand
  -I-interpret- 

 46 47  0  0  0  0  0  0  0  0999 V2000
  249.0790  461.5910  100.8230 P   0  0  0  0  0
  247.9350  460.7600  100.1160 O   0  0  0  0  0
  249.5860  461.1620  102.1630 O   0  0  0  0  0
  250.5220  461.9040  100.1210 O   0  0  0  0  0
  251.0690  461.7620   98.5940 P   0  0  0  0  0
  249.9140  461.4290   97.6880 O   0  0  0  0  0
  251.8710  463.0100   98.3150 O   0  0  0  0  0
  252.1200  460.5300   98.6000 O   0  0  0  0  0
  251.7700  458.9320   98.5950 P   0  0  0  0  0
  252.3200  458.3970   97.3010 O   0  0  0  0  0
  252.5040  458.3940   99.8100 O   0  0  0  0  0
  250.2700  458.8060   98.7370 O   0  0  0  0  0
  248.5550  463.0850  101.0720 O   0  0  0  0  0
  248.3020  463.9780   99.9860 C   0  0  0  0  0
  248.5160  465.4280  100.4130 C   0  0  0  0  0
  247.5290  465.8280  101.3550 O   0  0  0  0  0
  249.8510  465.7550  101.0800 C   0  0  0  0  0
  250.7960  466.1760  100.0910 O   0  0  0  0  0
  249.5240  466.8660  102.0730 C   0  0  0  0  0
  248.0010  467.0150  101.9850 C   0  0  0  0  0
  247.2690  467.2300  103.2550 N   0  0  0  0  0
  246.3230  468.3010  103.3680 C   0  0  0  0  0
  246.1010  469.0870  102.4190 O   0  0  0  0  0
  245.6390  468.5120  104.5050 N   0  0  0  0  0
  245.8060  467.7240  105.5760 C   0  0  0  0  0
  245.1470  467.9590  106.6150 O   0  0  0  0  0
  246.7740  466.5900  105.4970 C   0  0  0  0  0
  247.0210  465.6590  106.6570 C   0  0  0  0  0
  247.4650  466.4000  104.3020 C   0  0  0  0  0
  247.7244  461.1627   99.2704 H   0  0  0  0  0
  252.5693  463.0930   98.9685 H   0  0  0  0  0
  252.1164  458.7641  100.6065 H   0  0  0  0  0
  249.9984  459.1675   99.5839 H   0  0  0  0  0
  247.2675  463.8558   99.6650 H   0  0  0  0  0
  248.9906  463.7463   99.1735 H   0  0  0  0  0
  248.4701  465.9562   99.4606 H   0  0  0  0  0
  250.3032  464.9007  101.5838 H   0  0  0  0  0
  251.6325  466.3800  100.5156 H   0  0  0  0  0
  250.0420  467.7951  101.8351 H   0  0  0  0  0
  249.8554  466.6248  103.0830 H   0  0  0  0  0
  247.8043  467.9338  101.4325 H   0  0  0  0  0
  244.9789  469.2881  104.5540 H   0  0  0  0  0
  246.7716  464.6396  106.3625 H   0  0  0  0  0
  248.0713  465.7090  106.9441 H   0  0  0  0  0
  246.3980  465.9578  107.5000 H   0  0  0  0  0
  248.1702  465.5738  104.2115 H   0  0  0  0  0
  1  2  1  0  0  0
  1  3  2  0  0  0
  1  4  1  0  0  0
  1 13  1  0  0  0
  4  5  1  0  0  0
  5  6  2  0  0  0
  5  7  1  0  0  0
  5  8  1  0  0  0
  8  9  1  0  0  0
  9 10  2  0  0  0
  9 11  1  0  0  0
  9 12  1  0  0  0
 13 14  1  0  0  0
 14 15  1  0  0  0
 15 16  1  0  0  0
 15 17  1  0  0  0
 16 20  1  0  0  0
 17 18  1  0  0  0
 17 19  1  0  0  0
 19 20  1  0  0  0
 20 21  1  0  0  0
 21 22  1  0  0  0
 21 29  1  0  0  0
 22 23  2  0  0  0
 22 24  1  0  0  0
 24 25  1  0  0  0
 25 26  2  0  0  0
 25 27  1  0  0  0
 27 28  1  0  0  0
 27 29  2  0  0  0
  2 30  1  0  0  0
  7 31  1  0  0  0
 11 32  1  0  0  0
 12 33  1  0  0  0
 14 34  1  0  0  0
 14 35  1  0  0  0
 15 36  1  0  0  0
 17 37  1  0  0  0
 18 38  1  0  0  0
 19 39  1  0  0  0
 19 40  1  0  0  0
 20 41  1  0  0  0
 24 42  1  0  0  0
 28 43  1  0  0  0
 28 44  1  0  0  0
 28 45  1  0  0  0
 29 46  1  0  0  0
M  END
$$$$
