5eue_ligand
  -I-interpret- 

 57 59  0  0  0  0  0  0  0  0999 V2000
   10.4190  -17.4850   -6.9560 C   0  0  0  0  0
    9.9060  -17.6680   -8.2260 C   0  0  0  0  0
   10.4560  -16.9900   -9.3030 C   0  0  0  0  0
    9.9210  -17.1480  -10.6890 C   0  0  0  0  0
   10.1730  -18.5150  -11.2920 C   0  0  0  0  0
    8.2270  -15.5370  -11.4580 C   0  0  0  0  0
    4.7670  -14.4720  -11.4380 C   0  0  0  0  0
    3.4900  -13.7600  -11.2600 C   0  0  0  0  0
   10.1330  -18.5510  -15.1030 C   0  0  0  0  0
    9.7170  -17.4040  -15.7700 C   0  0  0  0  0
   10.0750  -17.2120  -17.0910 C   0  0  0  0  0
   11.2750  -19.2990  -17.0920 C   0  0  0  0  0
    8.8890  -16.3510  -15.1200 C   0  0  0  0  0
   11.4690  -16.6090   -6.7620 C   0  0  0  0  0
   12.0180  -15.9240   -7.8260 C   0  0  0  0  0
   11.5110  -16.1200   -9.0950 C   0  0  0  0  0
   10.8970  -19.4880  -15.7760 C   0  0  0  0  0
    6.0640  -14.2180  -11.0500 C   0  0  0  0  0
   10.8670  -18.1420  -17.7490 C   0  0  0  0  0
    6.8110  -15.3130  -11.5520 C   0  0  0  0  0
   12.0910  -20.3680  -17.7400 C   0  0  0  0  0
   12.0910  -16.8310  -19.2100 C   0  0  0  0  0
    9.7580  -18.8500  -13.6870 C   0  0  0  0  0
    6.0190  -16.1750  -12.2000 N   0  0  0  0  0
    8.5450  -16.7190  -10.8150 N   0  0  0  0  0
   10.7000  -18.3250  -12.6710 N   0  3  0  0  0
    9.0180  -14.7310  -11.9340 O   0  0  0  0  0
    4.7290  -15.6450  -12.1240 O   0  0  0  0  0
   11.1920  -17.9320  -19.0930 O   0  0  0  0  0
    9.9969  -18.0295   -6.1113 H   0  0  0  0  0
    9.0673  -18.3467   -8.3813 H   0  0  0  0  0
   10.5079  -16.4603  -11.2979 H   0  0  0  0  0
    9.2465  -19.0885  -11.3206 H   0  0  0  0  0
   10.8948  -19.0640  -10.6873 H   0  0  0  0  0
    3.2783  -13.6567  -10.1957 H   0  0  0  0  0
    3.5597  -12.7722  -11.7154 H   0  0  0  0  0
    2.6902  -14.3260  -11.7376 H   0  0  0  0  0
    9.7324  -16.3228  -17.6202 H   0  0  0  0  0
    7.9469  -16.7859  -14.7863 H   0  0  0  0  0
    9.4269  -15.9450  -14.2633 H   0  0  0  0  0
    8.6893  -15.5540  -15.8362 H   0  0  0  0  0
   11.8675  -16.4575   -5.7588 H   0  0  0  0  0
   12.8458  -15.2332   -7.6660 H   0  0  0  0  0
   11.9454  -15.5851   -9.9395 H   0  0  0  0  0
   11.2075  -20.3949  -15.2571 H   0  0  0  0  0
    6.4340  -13.3640  -10.4826 H   0  0  0  0  0
   13.0230  -20.4959  -17.1894 H   0  0  0  0  0
   11.5323  -21.3039  -17.7336 H   0  0  0  0  0
   12.3114  -20.0819  -18.7684 H   0  0  0  0  0
   11.6187  -15.9339  -18.8097 H   0  0  0  0  0
   13.0008  -17.0453  -18.6492 H   0  0  0  0  0
   12.3381  -16.6754  -20.2601 H   0  0  0  0  0
    9.7529  -19.9350  -13.5832 H   0  0  0  0  0
    8.7967  -18.3692  -13.5058 H   0  0  0  0  0
    7.8000  -17.2959  -10.4245 H   0  0  0  0  0
   11.5812  -18.8321  -12.7537 H   0  0  0  0  0
   10.8285  -17.3263  -12.8339 H   0  0  0  0  0
  2  1  4  0  0  0
  1 14  4  0  0  0
  3  2  4  0  0  0
  4  3  1  0  0  0
  3 16  4  0  0  0
  5  4  1  0  0  0
  4 25  1  0  0  0
 26  5  1  0  0  0
  6 20  1  0  0  0
 25  6  1  0  0  0
  6 27  2  0  0  0
  7  8  1  0  0  0
 18  7  4  0  0  0
  7 28  4  0  0  0
  9 10  4  0  0  0
  9 17  4  0  0  0
 23  9  1  0  0  0
 10 11  4  0  0  0
 10 13  1  0  0  0
 11 19  4  0  0  0
 17 12  4  0  0  0
 12 19  4  0  0  0
 12 21  1  0  0  0
 15 14  4  0  0  0
 16 15  4  0  0  0
 20 18  4  0  0  0
 19 29  1  0  0  0
 20 24  4  0  0  0
 29 22  1  0  0  0
 23 26  1  0  0  0
 24 28  4  0  0  0
  1 30  1  0  0  0
  2 31  1  0  0  0
  4 32  1  0  0  0
  5 33  1  0  0  0
  5 34  1  0  0  0
  8 35  1  0  0  0
  8 36  1  0  0  0
  8 37  1  0  0  0
 11 38  1  0  0  0
 13 39  1  0  0  0
 13 40  1  0  0  0
 13 41  1  0  0  0
 14 42  1  0  0  0
 15 43  1  0  0  0
 16 44  1  0  0  0
 17 45  1  0  0  0
 18 46  1  0  0  0
 21 47  1  0  0  0
 21 48  1  0  0  0
 21 49  1  0  0  0
 22 50  1  0  0  0
 22 51  1  0  0  0
 22 52  1  0  0  0
 23 53  1  0  0  0
 23 54  1  0  0  0
 25 55  1  0  0  0
 26 56  1  0  0  0
 26 57  1  0  0  0
M  END
$$$$
