### 
### Created by X-TOOL on Mon Sep 10 21:12:48 2018
### 

@<TRIPOS>MOLECULE
1iq1_ligand
  133   132     1     0     0
SMALL
GAST_HUCK


@<TRIPOS>ATOM
      1 N          47.2970   50.6360   38.7170 N.4       1 MET         0.2377
      2 CA         46.3070   51.0010   39.7800 C.3       1 MET         0.0621
      3 C          45.0640   51.6560   39.1730 C.2       1 MET         0.2264
      4 O          45.1080   52.8190   38.7640 O.2       1 MET        -0.3907
      5 CB         46.9600   51.9530   40.7930 C.3       1 MET        -0.0040
      6 N          43.9620   50.9080   39.1180 N.am      1 LEU        -0.2610
      7 CA         42.7100   51.4250   38.5680 C.3       1 LEU         0.1313
      8 C          42.1580   52.5590   39.4400 C.2       1 LEU         0.2039
      9 O          41.3890   53.4040   38.9620 O.2       1 LEU        -0.3944
     10 CB         41.6630   50.3090   38.4590 C.3       1 LEU        -0.0101
     11 CG         41.9310   49.1130   37.5420 C.3       1 LEU        -0.0425
     12 CD1        40.7110   48.2000   37.5860 C.3       1 LEU        -0.0625
     13 CD2        42.2110   49.5800   36.1040 C.3       1 LEU        -0.0625
     14 N          42.5620   52.5660   40.7140 N.am      1 LYS        -0.2637
     15 CA         42.1410   53.5850   41.6820 C.3       1 LYS         0.1310
     16 C          42.7990   54.9120   41.3390 C.2       1 LYS         0.2039
     17 O          43.9800   55.0930   41.6020 O.2       1 LYS        -0.3944
     18 CB         42.5710   53.2020   43.1020 C.3       1 LYS        -0.0122
     19 CG         41.9620   51.9310   43.6500 C.3       1 LYS        -0.0440
     20 CD         41.0570   52.2200   44.8320 C.3       1 LYS        -0.0124
     21 CE         40.5540   50.9320   45.4550 C.3       1 LYS        -0.0354
     22 NZ         39.5970   51.1750   46.5600 N.4       1 LYS         0.2185
     23 N          42.0450   55.8380   40.7600 N.am      1 ARG        -0.2637
     24 CA         42.6110   57.1280   40.4070 C.3       1 ARG         0.1311
     25 C          42.2220   58.2380   41.3690 C.2       1 ARG         0.2039
     26 O          41.0390   58.5010   41.5910 O.2       1 ARG        -0.3944
     27 CB         42.2260   57.5060   38.9710 C.3       1 ARG        -0.0092
     28 CG         40.7450   57.5170   38.6780 C.3       1 ARG        -0.0156
     29 CD         40.4640   57.9800   37.2670 C.3       1 ARG         0.0627
     30 NE         39.5150   59.0920   37.2200 N.pl3     1 ARG        -0.2723
     31 CZ         38.2730   59.0360   37.6970 C.cat     1 ARG         0.2882
     32 NH1        37.8170   57.9170   38.2620 N.pl3     1 ARG        -0.2849
     33 NH2        37.4830   60.0980   37.6150 N.pl3     1 ARG        -0.2849
     34 N          43.2440   58.8820   41.9350 N.am      1 ARG        -0.2637
     35 CA         43.0620   59.9820   42.8760 C.3       1 ARG         0.1311
     36 C          42.8360   61.3080   42.1490 C.2       1 ARG         0.2040
     37 O          43.6990   62.1900   42.1490 O.2       1 ARG        -0.3944
     38 CB         44.2800   60.1050   43.8110 C.3       1 ARG        -0.0092
     39 CG         44.4000   58.9980   44.8500 C.3       1 ARG        -0.0156
     40 CD         45.6660   59.1200   45.6800 C.3       1 ARG         0.0627
     41 NE         45.8100   58.0260   46.6470 N.pl3     1 ARG        -0.2723
     42 CZ         45.1360   57.9260   47.7920 C.cat     1 ARG         0.2882
     43 NH1        44.2560   58.8590   48.1410 N.pl3     1 ARG        -0.2849
     44 NH2        45.3390   56.8850   48.5890 N.pl3     1 ARG        -0.2849
     45 N          41.6660   61.4390   41.5280 N.am      1 ASN        -0.2616
     46 CA         41.2860   62.6620   40.8250 C.3       1 ASN         0.1476
     47 C          41.3970   63.7850   41.8620 C.2       1 ASN         0.2063
     48 O          41.1840   64.9640   41.5610 O.2       1 ASN        -0.3942
     49 CB         39.8490   62.4930   40.2790 C.3       1 ASN         0.0773
     50 CG         38.9440   63.7130   40.5250 C.2       1 ASN         0.1780
     51 OD1        38.6350   64.0710   41.6740 O.2       1 ASN        -0.3970
     52 ND2        38.5010   64.3410   39.4370 N.am      1 ASN        -0.3007
     53 N          41.7820   63.3740   43.0740 N.am      1 VAL        -0.2620
     54 CA         41.9690   64.2240   44.2450 C.3       1 VAL         0.1443
     55 C          40.8280   65.2180   44.4700 C.2       1 VAL         0.2573
     56 O          40.0630   64.9780   45.4390 O.2       1 VAL        -0.3680
     57 CB         43.3530   64.9630   44.1990 C.3       1 VAL        -0.0049
     58 CG1        44.4680   63.9630   44.4460 C.3       1 VAL        -0.0583
     59 CG2        43.5670   65.6520   42.8500 C.3       1 VAL        -0.0583
     60 O1         40.6547   66.2772   43.6845 O.3       1 VAL        -0.2910
     61 H1         48.1041   50.2075   39.1424 H         1 MET         0.2015
     62 H2         47.5798   51.4670   38.2215 H         1 MET         0.2015
     63 H3         46.8735   49.9878   38.0717 H         1 MET         0.2015
     64 H4         45.9992   50.0834   40.3028 H         1 MET         0.1095
     65 H5         46.2290   52.2178   41.5712 H         1 MET         0.0310
     66 H6         47.2928   52.8656   40.2768 H         1 MET         0.0310
     67 H7         47.8257   51.4575   41.2566 H         1 MET         0.0310
     68 H8         43.9925   49.9694   39.4617 H         1 LEU         0.1884
     69 H9         42.9099   51.8205   37.5612 H         1 LEU         0.0800
     70 H10        40.7308   50.7773   38.1102 H         1 LEU         0.0315
     71 H11        41.5152   49.9084   39.4727 H         1 LEU         0.0315
     72 H12        42.8089   48.5628   37.9113 H         1 LEU         0.0298
     73 H13        40.8798   47.3309   36.9332 H         1 LEU         0.0232
     74 H14        39.8262   48.7533   37.2383 H         1 LEU         0.0232
     75 H15        40.5468   47.8569   38.6181 H         1 LEU         0.0232
     76 H16        43.0938   50.2362   36.0970 H         1 LEU         0.0232
     77 H17        41.3402   50.1329   35.7219 H         1 LEU         0.0232
     78 H18        42.3994   48.7051   35.4644 H         1 LEU         0.0232
     79 H19        43.1802   51.8428   41.0219 H         1 LYS         0.1883
     80 H20        41.0467   53.6901   41.6445 H         1 LYS         0.0800
     81 H21        42.2927   54.0273   43.7738 H         1 LYS         0.0312
     82 H22        43.6643   53.0810   43.1032 H         1 LYS         0.0312
     83 H23        42.7691   51.2569   43.9728 H         1 LYS         0.0269
     84 H24        41.3732   51.4451   42.8581 H         1 LYS         0.0269
     85 H25        40.1971   52.8148   44.4904 H         1 LYS         0.0317
     86 H26        41.6201   52.7891   45.5863 H         1 LYS         0.0317
     87 H27        41.4140   50.3710   45.8495 H         1 LYS         0.0813
     88 H28        40.0526   50.3361   44.6782 H         1 LYS         0.0813
     89 H29        39.2922   50.2928   46.9406 H         1 LYS         0.1994
     90 H30        38.8001   51.6827   46.2089 H         1 LYS         0.1994
     91 H31        40.0477   51.7147   47.2823 H         1 LYS         0.1994
     92 H32        41.0829   55.6466   40.5659 H         1 ARG         0.1883
     93 H33        43.7056   57.0277   40.4482 H         1 ARG         0.0800
     94 H34        42.7008   56.7833   38.2911 H         1 ARG         0.0313
     95 H35        42.6192   58.5131   38.7684 H         1 ARG         0.0313
     96 H36        40.2459   58.1973   39.3837 H         1 ARG         0.0301
     97 H37        40.3475   56.4994   38.8063 H         1 ARG         0.0301
     98 H38        40.0480   57.1371   36.6956 H         1 ARG         0.0689
     99 H39        41.4094   58.3037   36.8072 H         1 ARG         0.0689
    100 H40        39.8273   59.9746   36.7906 H         1 ARG         0.2642
    101 H41        36.8553   57.8803   38.6290 H         1 ARG         0.2615
    102 H42        38.4266   57.0897   38.3313 H         1 ARG         0.2615
    103 H43        37.8292   60.9650   37.1799 H         1 ARG         0.2615
    104 H44        36.5232   60.0558   37.9864 H         1 ARG         0.2615
    105 H45        44.1749   58.5986   41.7044 H         1 ARG         0.1883
    106 H46        42.1732   59.7664   43.4872 H         1 ARG         0.0800
    107 H47        44.2090   61.0661   44.3413 H         1 ARG         0.0313
    108 H48        45.1893   60.0939   43.1922 H         1 ARG         0.0313
    109 H49        44.4085   58.0272   44.3329 H         1 ARG         0.0301
    110 H50        43.5306   59.0480   45.5220 H         1 ARG         0.0301
    111 H51        45.6387   60.0737   46.2275 H         1 ARG         0.0689
    112 H52        46.5337   59.1100   45.0040 H         1 ARG         0.0689
    113 H53        46.4830   57.2788   46.4239 H         1 ARG         0.2642
    114 H54        43.7394   58.7736   49.0280 H         1 ARG         0.2615
    115 H55        44.0907   59.6674   47.5245 H         1 ARG         0.2615
    116 H56        46.0196   56.1586   48.3242 H         1 ARG         0.2615
    117 H57        44.8160   56.8032   49.4726 H         1 ARG         0.2615
    118 H58        41.0239   60.6726   41.5432 H         1 ASN         0.1885
    119 H59        41.9716   62.8579   39.9874 H         1 ASN         0.0826
    120 H60        39.3931   61.6189   40.7670 H         1 ASN         0.0551
    121 H61        39.9083   62.3182   39.1946 H         1 ASN         0.0551
    122 H62        37.9086   65.1414   39.5281 H         1 ASN         0.1814
    123 H63        38.7609   64.0120   38.5291 H         1 ASN         0.1814
    124 H64        41.9577   62.3962   43.1886 H         1 VAL         0.1885
    125 H65        41.9852   63.5569   45.1195 H         1 VAL         0.0819
    126 H66        43.3731   65.7256   44.9914 H         1 VAL         0.0344
    127 H67        45.4382   64.4803   44.4139 H         1 VAL         0.0235
    128 H68        44.4415   63.1849   43.6689 H         1 VAL         0.0235
    129 H69        44.3324   63.4992   45.4342 H         1 VAL         0.0235
    130 H70        42.7570   66.3755   42.6753 H         1 VAL         0.0235
    131 H71        43.5645   64.8983   42.0488 H         1 VAL         0.0235
    132 H72        44.5332   66.1777   42.8559 H         1 VAL         0.0235
    133 H73        41.3278   66.2864   43.0142 H         1 VAL         0.2540
@<TRIPOS>BOND
     1    2    1 1  
     2    2    5 1  
     3    3    2 1  
     4    3    4 2  
     5    7    6 1  
     6    7   10 1  
     7    8    7 1  
     8    8    9 2  
     9   10   11 1  
    10   11   12 1  
    11   11   13 1  
    12    6    3 am 
    13   15   14 1  
    14   15   18 1  
    15   16   15 1  
    16   16   17 2  
    17   18   19 1  
    18   19   20 1  
    19   20   21 1  
    20   21   22 1  
    21   14    8 am 
    22   24   23 1  
    23   24   27 1  
    24   25   24 1  
    25   25   26 2  
    26   27   28 1  
    27   28   29 1  
    28   29   30 1  
    29   30   31 ar 
    30   31   33 ar 
    31   31   32 ar 
    32   23   16 am 
    33   35   34 1  
    34   35   38 1  
    35   36   35 1  
    36   36   37 2  
    37   38   39 1  
    38   39   40 1  
    39   40   41 1  
    40   41   42 ar 
    41   42   44 ar 
    42   42   43 ar 
    43   34   25 am 
    44   46   45 1  
    45   46   49 1  
    46   47   46 1  
    47   47   48 2  
    48   49   50 1  
    49   50   52 am 
    50   50   51 2  
    51   45   36 am 
    52   53   54 1  
    53   54   57 1  
    54   54   55 1  
    55   55   56 2  
    56   57   59 1  
    57   57   58 1  
    58   47   53 am 
    59   55   60 1  
    60    1   61 1  
    61    1   62 1  
    62    1   63 1  
    63    2   64 1  
    64    5   65 1  
    65    5   66 1  
    66    5   67 1  
    67    6   68 1  
    68    7   69 1  
    69   10   70 1  
    70   10   71 1  
    71   11   72 1  
    72   12   73 1  
    73   12   74 1  
    74   12   75 1  
    75   13   76 1  
    76   13   77 1  
    77   13   78 1  
    78   14   79 1  
    79   15   80 1  
    80   18   81 1  
    81   18   82 1  
    82   19   83 1  
    83   19   84 1  
    84   20   85 1  
    85   20   86 1  
    86   21   87 1  
    87   21   88 1  
    88   22   89 1  
    89   22   90 1  
    90   22   91 1  
    91   23   92 1  
    92   24   93 1  
    93   27   94 1  
    94   27   95 1  
    95   28   96 1  
    96   28   97 1  
    97   29   98 1  
    98   29   99 1  
    99   30  100 1  
   100   32  101 1  
   101   32  102 1  
   102   33  103 1  
   103   33  104 1  
   104   34  105 1  
   105   35  106 1  
   106   38  107 1  
   107   38  108 1  
   108   39  109 1  
   109   39  110 1  
   110   40  111 1  
   111   40  112 1  
   112   41  113 1  
   113   43  114 1  
   114   43  115 1  
   115   44  116 1  
   116   44  117 1  
   117   45  118 1  
   118   46  119 1  
   119   49  120 1  
   120   49  121 1  
   121   52  122 1  
   122   52  123 1  
   123   53  124 1  
   124   54  125 1  
   125   57  126 1  
   126   58  127 1  
   127   58  128 1  
   128   58  129 1  
   129   59  130 1  
   130   59  131 1  
   131   59  132 1  
   132   60  133 1  
@<TRIPOS>SUBSTRUCTURE
     1 MET         1

