1iq1_ligand
  -I-interpret- 

131130  0  0  0  0  0  0  0  0999 V2000
   47.2970   50.6360   38.7170 N   0  3  0  0  0
   46.3070   51.0010   39.7800 C   0  0  0  0  0
   45.0640   51.6560   39.1730 C   0  0  0  0  0
   45.1080   52.8190   38.7640 O   0  0  0  0  0
   46.9600   51.9530   40.7930 C   0  0  0  0  0
   43.9620   50.9080   39.1180 N   0  0  0  0  0
   42.7100   51.4250   38.5680 C   0  0  0  0  0
   42.1580   52.5590   39.4400 C   0  0  0  0  0
   41.3890   53.4040   38.9620 O   0  0  0  0  0
   41.6630   50.3090   38.4590 C   0  0  0  0  0
   41.9310   49.1130   37.5420 C   0  0  0  0  0
   40.7110   48.2000   37.5860 C   0  0  0  0  0
   42.2110   49.5800   36.1040 C   0  0  0  0  0
   42.5620   52.5660   40.7140 N   0  0  0  0  0
   42.1410   53.5850   41.6820 C   0  0  0  0  0
   42.7990   54.9120   41.3390 C   0  0  0  0  0
   43.9800   55.0930   41.6020 O   0  0  0  0  0
   42.5710   53.2020   43.1020 C   0  0  0  0  0
   41.9620   51.9310   43.6500 C   0  0  0  0  0
   41.0570   52.2200   44.8320 C   0  0  0  0  0
   40.5540   50.9320   45.4550 C   0  0  0  0  0
   39.5970   51.1750   46.5600 N   0  3  0  0  0
   42.0450   55.8380   40.7600 N   0  0  0  0  0
   42.6110   57.1280   40.4070 C   0  0  0  0  0
   42.2220   58.2380   41.3690 C   0  0  0  0  0
   41.0390   58.5010   41.5910 O   0  0  0  0  0
   42.2260   57.5060   38.9710 C   0  0  0  0  0
   40.7450   57.5170   38.6780 C   0  0  0  0  0
   40.4640   57.9800   37.2670 C   0  0  0  0  0
   39.5150   59.0920   37.2200 N   0  0  0  0  0
   38.2730   59.0360   37.6970 C   0  0  0  0  0
   37.8170   57.9170   38.2620 N   0  0  0  0  0
   37.4830   60.0980   37.6150 N   0  0  0  0  0
   43.2440   58.8820   41.9350 N   0  0  0  0  0
   43.0620   59.9820   42.8760 C   0  0  0  0  0
   42.8360   61.3080   42.1490 C   0  0  0  0  0
   43.6990   62.1900   42.1490 O   0  0  0  0  0
   44.2800   60.1050   43.8110 C   0  0  0  0  0
   44.4000   58.9980   44.8500 C   0  0  0  0  0
   45.6660   59.1200   45.6800 C   0  0  0  0  0
   45.8100   58.0260   46.6470 N   0  0  0  0  0
   45.1360   57.9260   47.7920 C   0  0  0  0  0
   44.2560   58.8590   48.1410 N   0  0  0  0  0
   45.3390   56.8850   48.5890 N   0  0  0  0  0
   41.6660   61.4390   41.5280 N   0  0  0  0  0
   41.2860   62.6620   40.8250 C   0  0  0  0  0
   41.3970   63.7850   41.8620 C   0  0  0  0  0
   41.1840   64.9640   41.5610 O   0  0  0  0  0
   39.8490   62.4930   40.2790 C   0  0  0  0  0
   38.9440   63.7130   40.5250 C   0  0  0  0  0
   38.6350   64.0710   41.6740 O   0  0  0  0  0
   38.5010   64.3410   39.4370 N   0  0  0  0  0
   41.7820   63.3740   43.0740 N   0  0  0  0  0
   41.9690   64.2240   44.2450 C   0  0  0  0  0
   40.8280   65.2180   44.4700 C   0  0  0  0  0
   40.0630   64.9780   45.4390 O   0  0  0  0  0
   43.3530   64.9630   44.1990 C   0  0  0  0  0
   44.4680   63.9630   44.4460 C   0  0  0  0  0
   43.5670   65.6520   42.8500 C   0  0  0  0  0
   40.6547   66.2772   43.6845 O   0  0  0  0  0
   48.1132   50.2025   39.1486 H   0  0  0  0  0
   46.8673   49.9801   38.0646 H   0  0  0  0  0
   47.5823   51.4776   38.2164 H   0  0  0  0  0
   45.9958   50.0878   40.2873 H   0  0  0  0  0
   47.2495   52.8750   40.2888 H   0  0  0  0  0
   46.2489   52.1796   41.5874 H   0  0  0  0  0
   47.8435   51.4776   41.2192 H   0  0  0  0  0
   43.9931   49.9506   39.4685 H   0  0  0  0  0
   42.9221   51.8142   37.5722 H   0  0  0  0  0
   40.7846   50.7937   38.0328 H   0  0  0  0  0
   41.6066   49.8830   39.4607 H   0  0  0  0  0
   42.8135   48.5722   37.8838 H   0  0  0  0  0
   40.5494   47.8608   38.6092 H   0  0  0  0  0
   39.8350   48.7495   37.2413 H   0  0  0  0  0
   40.8794   47.3392   36.9388 H   0  0  0  0  0
   41.3470   50.1268   35.7262 H   0  0  0  0  0
   43.0853   50.2309   36.0985 H   0  0  0  0  0
   42.3984   48.7123   35.4715 H   0  0  0  0  0
   43.1926   51.8283   41.0280 H   0  0  0  0  0
   41.0547   53.6628   41.6371 H   0  0  0  0  0
   42.2389   54.0099   43.7540 H   0  0  0  0  0
   43.6479   53.0378   43.0651 H   0  0  0  0  0
   42.7669   51.2748   43.9811 H   0  0  0  0  0
   41.3686   51.4633   42.8644 H   0  0  0  0  0
   40.2014   52.7995   44.4853 H   0  0  0  0  0
   41.6236   52.7739   45.5805 H   0  0  0  0  0
   41.4117   50.3974   45.8632 H   0  0  0  0  0
   40.0387   50.3622   44.6818 H   0  0  0  0  0
   39.2893   50.2817   46.9443 H   0  0  0  0  0
   40.0541   51.7212   47.2901 H   0  0  0  0  0
   38.7912   51.6888   46.2035 H   0  0  0  0  0
   41.0636   55.6428   40.5620 H   0  0  0  0  0
   43.6933   57.0210   40.4793 H   0  0  0  0  0
   42.6657   56.7489   38.3218 H   0  0  0  0  0
   42.5820   58.5238   38.8114 H   0  0  0  0  0
   40.2607   58.2054   39.3706 H   0  0  0  0  0
   40.3627   56.5026   38.7915 H   0  0  0  0  0
   40.0292   57.1439   36.7193 H   0  0  0  0  0
   41.4034   58.3214   36.8321 H   0  0  0  0  0
   39.8242   59.9660   36.7948 H   0  0  0  0  0
   36.8656   57.8815   38.6280 H   0  0  0  0  0
   38.4197   57.0968   38.3281 H   0  0  0  0  0
   37.8268   60.9575   37.1866 H   0  0  0  0  0
   44.1935   58.5930   41.6998 H   0  0  0  0  0
   42.1752   59.7589   43.4692 H   0  0  0  0  0
   44.1670   61.0415   44.3572 H   0  0  0  0  0
   45.1689   60.0478   43.1828 H   0  0  0  0  0
   44.4312   58.0435   44.3246 H   0  0  0  0  0
   43.5461   59.0726   45.5233 H   0  0  0  0  0
   45.6153   60.0563   46.2358 H   0  0  0  0  0
   46.5183   59.0840   45.0015 H   0  0  0  0  0
   46.4764   57.2861   46.4260 H   0  0  0  0  0
   43.7412   58.7722   49.0173 H   0  0  0  0  0
   44.0955   59.6617   47.5325 H   0  0  0  0  0
   46.0098   56.1635   48.3247 H   0  0  0  0  0
   41.0110   60.6572   41.5435 H   0  0  0  0  0
   41.9209   62.8894   39.9687 H   0  0  0  0  0
   39.4012   61.6459   40.7987 H   0  0  0  0  0
   39.9250   62.3568   39.2002 H   0  0  0  0  0
   37.8841   65.1480   39.5296 H   0  0  0  0  0
   38.7786   64.0148   38.5113 H   0  0  0  0  0
   41.9612   62.3767   43.1908 H   0  0  0  0  0
   41.9593   63.5507   45.1021 H   0  0  0  0  0
   43.3612   65.7277   44.9757 H   0  0  0  0  0
   44.3324   63.5041   45.4254 H   0  0  0  0  0
   44.4406   63.1926   43.6754 H   0  0  0  0  0
   45.4288   64.4768   44.4139 H   0  0  0  0  0
   43.5432   64.9067   42.0550 H   0  0  0  0  0
   42.7756   66.3837   42.6876 H   0  0  0  0  0
   44.5341   66.1548   42.8496 H   0  0  0  0  0
   41.3349   66.2865   43.0071 H   0  0  0  0  0
  2  1  1  0  0  0
  2  5  1  0  0  0
  3  2  1  0  0  0
  3  4  2  0  0  0
  7  6  1  0  0  0
  7 10  1  0  0  0
  8  7  1  0  0  0
  8  9  2  0  0  0
 10 11  1  0  0  0
 11 12  1  0  0  0
 11 13  1  0  0  0
  6  3  1  0  0  0
 15 14  1  0  0  0
 15 18  1  0  0  0
 16 15  1  0  0  0
 16 17  2  0  0  0
 18 19  1  0  0  0
 19 20  1  0  0  0
 20 21  1  0  0  0
 21 22  1  0  0  0
 14  8  1  0  0  0
 24 23  1  0  0  0
 24 27  1  0  0  0
 25 24  1  0  0  0
 25 26  2  0  0  0
 27 28  1  0  0  0
 28 29  1  0  0  0
 29 30  1  0  0  0
 30 31  1  0  0  0
 31 33  2  0  0  0
 31 32  1  0  0  0
 23 16  1  0  0  0
 35 34  1  0  0  0
 35 38  1  0  0  0
 36 35  1  0  0  0
 36 37  2  0  0  0
 38 39  1  0  0  0
 39 40  1  0  0  0
 40 41  1  0  0  0
 41 42  1  0  0  0
 42 44  2  0  0  0
 42 43  1  0  0  0
 34 25  1  0  0  0
 46 45  1  0  0  0
 46 49  1  0  0  0
 47 46  1  0  0  0
 47 48  2  0  0  0
 49 50  1  0  0  0
 50 52  1  0  0  0
 50 51  2  0  0  0
 45 36  1  0  0  0
 53 54  1  0  0  0
 54 57  1  0  0  0
 54 55  1  0  0  0
 55 56  2  0  0  0
 57 59  1  0  0  0
 57 58  1  0  0  0
 47 53  1  0  0  0
 55 60  1  0  0  0
  1 61  1  0  0  0
  1 62  1  0  0  0
  1 63  1  0  0  0
  2 64  1  0  0  0
  5 65  1  0  0  0
  5 66  1  0  0  0
  5 67  1  0  0  0
  6 68  1  0  0  0
  7 69  1  0  0  0
 10 70  1  0  0  0
 10 71  1  0  0  0
 11 72  1  0  0  0
 12 73  1  0  0  0
 12 74  1  0  0  0
 12 75  1  0  0  0
 13 76  1  0  0  0
 13 77  1  0  0  0
 13 78  1  0  0  0
 14 79  1  0  0  0
 15 80  1  0  0  0
 18 81  1  0  0  0
 18 82  1  0  0  0
 19 83  1  0  0  0
 19 84  1  0  0  0
 20 85  1  0  0  0
 20 86  1  0  0  0
 21 87  1  0  0  0
 21 88  1  0  0  0
 22 89  1  0  0  0
 22 90  1  0  0  0
 22 91  1  0  0  0
 23 92  1  0  0  0
 24 93  1  0  0  0
 27 94  1  0  0  0
 27 95  1  0  0  0
 28 96  1  0  0  0
 28 97  1  0  0  0
 29 98  1  0  0  0
 29 99  1  0  0  0
 30100  1  0  0  0
 32101  1  0  0  0
 32102  1  0  0  0
 33103  1  0  0  0
 34104  1  0  0  0
 35105  1  0  0  0
 38106  1  0  0  0
 38107  1  0  0  0
 39108  1  0  0  0
 39109  1  0  0  0
 40110  1  0  0  0
 40111  1  0  0  0
 41112  1  0  0  0
 43113  1  0  0  0
 43114  1  0  0  0
 44115  1  0  0  0
 45116  1  0  0  0
 46117  1  0  0  0
 49118  1  0  0  0
 49119  1  0  0  0
 52120  1  0  0  0
 52121  1  0  0  0
 53122  1  0  0  0
 54123  1  0  0  0
 57124  1  0  0  0
 58125  1  0  0  0
 58126  1  0  0  0
 58127  1  0  0  0
 59128  1  0  0  0
 59129  1  0  0  0
 59130  1  0  0  0
 60131  1  0  0  0
M  END
$$$$
