4ear_ligand
  -I-interpret- 

 36 38  0  0  0  0  0  0  0  0999 V2000
  -19.8460   26.4910  -47.3730 N   0  0  0  0  0
  -18.9290   27.1450  -46.5310 C   0  0  0  0  0
  -18.4760   26.4840  -45.4810 N   0  0  0  0  0
  -18.6000   28.4440  -46.7570 N   0  0  0  0  0
  -19.1600   29.1090  -47.8200 C   0  0  0  0  0
  -20.0320   28.4690  -48.6590 C   0  0  0  0  0
  -20.3920   27.1680  -48.4520 C   0  0  0  0  0
  -21.1760   26.5190  -49.1820 O   0  0  0  0  0
  -20.3890   29.3620  -49.6030 N   0  0  0  0  0
  -19.7760   30.5280  -49.3530 C   0  0  0  0  0
  -18.9870   30.3680  -48.2820 C   0  0  0  0  0
  -16.6800   31.5010  -48.0870 N   0  3  0  0  0
  -18.1220   31.4520  -47.6210 C   0  0  0  0  0
  -15.9090   30.3670  -47.6320 C   0  0  0  0  0
  -14.5440   30.7200  -48.3060 C   0  0  0  0  0
  -13.8130   31.7610  -47.6080 O   0  0  0  0  0
  -14.9880   31.1760  -49.7040 C   0  0  0  0  0
  -14.8610   30.0210  -50.6510 C   0  0  0  0  0
  -15.5840   30.3640  -51.8460 O   0  0  0  0  0
  -16.5110   31.5640  -49.5310 C   0  0  0  0  0
  -18.7925   25.5308  -45.3029 H   0  0  0  0  0
  -17.9418   28.9217  -46.1414 H   0  0  0  0  0
  -19.8986   31.4486  -49.9235 H   0  0  0  0  0
  -16.3420   32.3692  -47.6719 H   0  0  0  0  0
  -18.0987   31.2266  -46.5548 H   0  0  0  0  0
  -18.5682   32.4113  -47.8832 H   0  0  0  0  0
  -16.3181   29.3930  -47.9004 H   0  0  0  0  0
  -15.8703   30.2392  -46.5502 H   0  0  0  0  0
  -13.8451   29.8835  -48.3084 H   0  0  0  0  0
  -12.9875   31.9334  -48.0667 H   0  0  0  0  0
  -14.3949   32.0031  -50.0942 H   0  0  0  0  0
  -15.2687   29.1140  -50.2046 H   0  0  0  0  0
  -13.8130   29.8281  -50.8803 H   0  0  0  0  0
  -15.5215   29.6414  -52.4750 H   0  0  0  0  0
  -16.7574   32.5390  -49.9513 H   0  0  0  0  0
  -17.1879   30.9036  -50.0730 H   0  0  0  0  0
  1  2  4  0  0  0
  1  7  1  0  0  0
  2  3  2  0  0  0
  2  4  1  0  0  0
  4  5  1  0  0  0
  5  6  4  0  0  0
  5 11  4  0  0  0
  6  7  1  0  0  0
  6  9  4  0  0  0
  7  8  2  0  0  0
  9 10  4  0  0  0
 10 11  4  0  0  0
 11 13  1  0  0  0
 13 12  1  0  0  0
 12 14  1  0  0  0
 12 20  1  0  0  0
 14 15  1  0  0  0
 15 16  1  0  0  0
 15 17  1  0  0  0
 17 18  1  0  0  0
 17 20  1  0  0  0
 18 19  1  0  0  0
  3 21  1  0  0  0
  4 22  1  0  0  0
 10 23  1  0  0  0
 12 24  1  0  0  0
 13 25  1  0  0  0
 13 26  1  0  0  0
 14 27  1  0  0  0
 14 28  1  0  0  0
 15 29  1  0  0  0
 16 30  1  0  0  0
 17 31  1  0  0  0
 18 32  1  0  0  0
 18 33  1  0  0  0
 19 34  1  0  0  0
 20 35  1  0  0  0
 20 36  1  0  0  0
M  END
$$$$
