5aoj_ligand
  -I-interpret- 

 24 25  0  0  0  0  0  0  0  0999 V2000
   90.9370   95.4720  -44.7510 C   0  0  0  0  0
   92.4310   94.3090  -40.8100 I   0  0  0  0  0
   92.5010   91.9530  -42.9970 N   0  0  0  0  0
   90.2040   97.7230  -44.6300 O   0  0  0  0  0
   91.0430   94.3050  -45.5300 C   0  0  0  0  0
   91.5860   91.4910  -46.4040 I   0  0  0  0  0
   91.2350   96.5930  -42.6750 O   0  0  0  0  0
   91.5490   93.1040  -45.0100 C   0  0  0  0  0
   90.1910   96.6550  -46.6390 O   0  0  0  0  0
   91.9550   93.0810  -43.6520 C   0  0  0  0  0
   91.8570   94.2580  -42.8690 C   0  0  0  0  0
   91.3450   95.4450  -43.4190 C   0  0  0  0  0
   93.8520   91.7770  -42.7550 C   0  0  0  0  0
   94.0310   90.5990  -42.0640 C   0  0  0  0  0
   92.7490   90.0330  -41.8770 C   0  0  0  0  0
   91.8270   90.8810  -42.4540 C   0  0  0  0  0
   90.3940   96.7170  -45.3840 C   0  0  0  0  0
   90.7216   94.3349  -46.5711 H   0  0  0  0  0
   91.5510   96.4269  -41.7838 H   0  0  0  0  0
   90.4173   95.7774  -46.9557 H   0  0  0  0  0
   94.6451   92.4592  -43.0612 H   0  0  0  0  0
   94.9799   90.1826  -41.7259 H   0  0  0  0  0
   92.5288   89.0946  -41.3680 H   0  0  0  0  0
   90.7479   90.7289  -42.4766 H   0  0  0  0  0
  5  1  4  0  0  0
  1 12  4  0  0  0
  1 17  1  0  0  0
 11  2  1  0  0  0
 10  3  1  0  0  0
  3 13  4  0  0  0
  3 16  4  0  0  0
 17  4  2  0  0  0
  8  5  4  0  0  0
  8  6  1  0  0  0
 12  7  1  0  0  0
 10  8  4  0  0  0
 17  9  1  0  0  0
 10 11  4  0  0  0
 11 12  4  0  0  0
 13 14  4  0  0  0
 14 15  4  0  0  0
 15 16  4  0  0  0
  5 18  1  0  0  0
  7 19  1  0  0  0
  9 20  1  0  0  0
 13 21  1  0  0  0
 14 22  1  0  0  0
 15 23  1  0  0  0
 16 24  1  0  0  0
M  END
$$$$
