4wvl_ligand
  -I-interpret- 

 99102  0  0  0  0  0  0  0  0999 V2000
   62.4150   15.4750  -12.2810 C   0  0  0  0  0
   62.5050   16.8950  -12.5150 C   0  0  0  0  0
   64.4570   16.0720  -12.3810 C   0  0  0  0  0
   67.6480   10.5350   -4.4770 O   0  0  0  0  0
   66.4700   10.6560   -4.4640 C   0  0  0  0  0
   65.8430   11.2830   -3.5120 N   0  0  0  0  0
   66.4260   11.9170   -2.4980 C   0  0  0  0  0
   65.8300   13.0260   -1.9580 C   0  0  0  0  0
   66.4140   13.6860   -0.9050 C   0  0  0  0  0
   67.6050   11.4900   -1.9580 C   0  0  0  0  0
   68.1940   12.1460   -0.9150 C   0  0  0  0  0
   67.6070   13.2570   -0.3680 C   0  0  0  0  0
   68.2690   13.9540    0.7870 C   0  0  0  0  0
   67.8840   15.4110    0.8260 C   0  0  0  0  0
   67.8600   13.2880    2.0660 C   0  0  0  0  0
   69.7670   13.8780    0.7020 C   0  0  0  0  0
   65.7480   10.1530   -5.4200 N   0  0  0  0  0
   66.3070    9.5570   -6.6010 C   0  0  0  0  0
   66.3570   10.4690   -7.8150 C   0  0  0  0  0
   67.0670   11.8040   -7.6270 C   0  0  0  0  0
   66.5520   12.8080   -8.5620 N   0  3  0  0  0
   67.1810   14.1270   -8.4700 C   0  0  0  0  0
   66.1920   15.1030   -7.8970 C   0  0  0  0  0
   68.5390   14.2300   -7.7980 C   0  0  0  0  0
   66.8050   12.4470   -9.9550 C   0  0  0  0  0
   65.5600   12.3680  -10.8150 C   0  0  0  0  0
   65.8730   12.1610  -12.2660 C   0  0  0  0  0
   65.2600   10.9400  -12.6510 O   0  0  0  0  0
   65.1770   13.2950  -12.9630 C   0  0  0  0  0
   64.5640   12.8500  -14.1410 O   0  0  0  0  0
   64.1130   13.6750  -11.9880 C   0  0  0  0  0
   64.8130   13.5490  -10.7930 O   0  0  0  0  0
   63.6510   15.0440  -12.2090 N   0  0  0  0  0
   63.7800   17.1860  -12.5630 N   0  0  0  0  0
   61.2130   14.9350  -12.1780 N   0  0  0  0  0
   60.1440   15.7020  -12.3020 C   0  0  0  0  0
   61.2870   17.6840  -12.6350 C   0  0  0  0  0
   60.1530   17.0150  -12.5270 N   0  0  0  0  0
   61.3430   19.0070  -12.8600 N   0  0  0  0  0
   61.9050   19.4920  -14.1030 C   0  0  0  0  0
   63.0290   20.5000  -13.9790 C   0  0  0  0  0
   64.3370   20.0910  -14.6490 C   0  0  0  0  0
   65.4020   19.7410  -13.6100 C   0  0  0  0  0
   66.7530   20.1540  -13.9280 N   0  0  0  0  0
   67.8210   19.4010  -13.6600 C   0  0  0  0  0
   67.7400   18.3270  -13.1410 O   0  0  0  0  0
   69.1710   19.9140  -14.0270 C   0  0  0  0  0
   65.5451   16.0081  -12.3735 H   0  0  0  0  0
   64.8236   11.2890   -3.5457 H   0  0  0  0  0
   64.8862   13.3868   -2.3668 H   0  0  0  0  0
   65.9243   14.5654   -0.4867 H   0  0  0  0  0
   68.0881   10.6037   -2.3694 H   0  0  0  0  0
   69.1400   11.7824   -0.5138 H   0  0  0  0  0
   68.1955   15.8927   -0.1008 H   0  0  0  0  0
   66.8030   15.4970    0.9361 H   0  0  0  0  0
   68.3761   15.8930    1.6708 H   0  0  0  0  0
   66.7771   13.3472    2.1748 H   0  0  0  0  0
   68.1677   12.2426    2.0443 H   0  0  0  0  0
   68.3389   13.7917    2.9057 H   0  0  0  0  0
   70.0775   12.8332    0.7092 H   0  0  0  0  0
   70.1018   14.3515   -0.2209 H   0  0  0  0  0
   70.2048   14.3944    1.5563 H   0  0  0  0  0
   64.7327   10.1830   -5.3270 H   0  0  0  0  0
   65.6654    8.7161   -6.8642 H   0  0  0  0  0
   67.3370    9.2913   -6.3632 H   0  0  0  0  0
   65.3217   10.7073   -8.0587 H   0  0  0  0  0
   66.9203    9.9300   -8.5768 H   0  0  0  0  0
   68.1314   11.6639   -7.8152 H   0  0  0  0  0
   66.8935   12.1524   -6.6088 H   0  0  0  0  0
   65.5664   12.8404   -8.3012 H   0  0  0  0  0
   67.4425   14.3753   -9.4986 H   0  0  0  0  0
   65.3184   15.1566   -8.5466 H   0  0  0  0  0
   65.8885   14.7702   -6.9044 H   0  0  0  0  0
   66.6545   16.0875   -7.8259 H   0  0  0  0  0
   68.4604   13.8830   -6.7677 H   0  0  0  0  0
   69.2574   13.6123   -8.3369 H   0  0  0  0  0
   68.8704   15.2683   -7.8087 H   0  0  0  0  0
   67.2562   11.4548   -9.9522 H   0  0  0  0  0
   67.4382   13.2267  -10.3784 H   0  0  0  0  0
   65.0111   11.5281  -10.3892 H   0  0  0  0  0
   66.9391   12.1292  -12.4909 H   0  0  0  0  0
   65.4390   10.7721  -13.5791 H   0  0  0  0  0
   65.8558   14.1030  -13.2358 H   0  0  0  0  0
   64.1256   13.5880  -14.5708 H   0  0  0  0  0
   63.2032   13.0773  -12.0434 H   0  0  0  0  0
   59.1711   15.2187  -12.2125 H   0  0  0  0  0
   60.9931   19.6634  -12.1621 H   0  0  0  0  0
   61.0952   20.0012  -14.6256 H   0  0  0  0  0
   62.3292   18.6227  -14.6055 H   0  0  0  0  0
   63.2401   20.6073  -12.9150 H   0  0  0  0  0
   62.6921   21.4102  -14.4750 H   0  0  0  0  0
   64.6971   20.9262  -15.2497 H   0  0  0  0  0
   64.1520   19.2131  -15.2680 H   0  0  0  0  0
   65.4206   18.6532  -13.5429 H   0  0  0  0  0
   65.1260   20.2683  -12.6968 H   0  0  0  0  0
   66.8940   21.0594  -14.3761 H   0  0  0  0  0
   69.7853   19.9909  -13.1299 H   0  0  0  0  0
   69.6398   19.2276  -14.7321 H   0  0  0  0  0
   69.0720   20.8974  -14.4865 H   0  0  0  0  0
  1  2  4  0  0  0
 33  1  4  0  0  0
  1 35  4  0  0  0
 34  2  4  0  0  0
  2 37  4  0  0  0
 33  3  4  0  0  0
  3 34  4  0  0  0
  5  4  2  0  0  0
  5  6  1  0  0  0
 17  5  1  0  0  0
  6  7  1  0  0  0
  7  8  4  0  0  0
  7 10  4  0  0  0
  8  9  4  0  0  0
  9 12  4  0  0  0
 10 11  4  0  0  0
 11 12  4  0  0  0
 12 13  1  0  0  0
 13 14  1  0  0  0
 13 15  1  0  0  0
 13 16  1  0  0  0
 18 17  1  0  0  0
 19 18  1  0  0  0
 20 19  1  0  0  0
 21 20  1  0  0  0
 21 22  1  0  0  0
 25 21  1  0  0  0
 22 23  1  0  0  0
 22 24  1  0  0  0
 26 25  1  0  0  0
 26 27  1  0  0  0
 32 26  1  0  0  0
 27 28  1  0  0  0
 29 27  1  0  0  0
 29 30  1  0  0  0
 31 29  1  0  0  0
 31 32  1  0  0  0
 31 33  1  0  0  0
 35 36  4  0  0  0
 36 38  4  0  0  0
 37 38  4  0  0  0
 37 39  1  0  0  0
 39 40  1  0  0  0
 40 41  1  0  0  0
 41 42  1  0  0  0
 42 43  1  0  0  0
 43 44  1  0  0  0
 44 45  1  0  0  0
 45 46  2  0  0  0
 45 47  1  0  0  0
  3 48  1  0  0  0
  6 49  1  0  0  0
  8 50  1  0  0  0
  9 51  1  0  0  0
 10 52  1  0  0  0
 11 53  1  0  0  0
 14 54  1  0  0  0
 14 55  1  0  0  0
 14 56  1  0  0  0
 15 57  1  0  0  0
 15 58  1  0  0  0
 15 59  1  0  0  0
 16 60  1  0  0  0
 16 61  1  0  0  0
 16 62  1  0  0  0
 17 63  1  0  0  0
 18 64  1  0  0  0
 18 65  1  0  0  0
 19 66  1  0  0  0
 19 67  1  0  0  0
 20 68  1  0  0  0
 20 69  1  0  0  0
 21 70  1  0  0  0
 22 71  1  0  0  0
 23 72  1  0  0  0
 23 73  1  0  0  0
 23 74  1  0  0  0
 24 75  1  0  0  0
 24 76  1  0  0  0
 24 77  1  0  0  0
 25 78  1  0  0  0
 25 79  1  0  0  0
 26 80  1  0  0  0
 27 81  1  0  0  0
 28 82  1  0  0  0
 29 83  1  0  0  0
 30 84  1  0  0  0
 31 85  1  0  0  0
 36 86  1  0  0  0
 39 87  1  0  0  0
 40 88  1  0  0  0
 40 89  1  0  0  0
 41 90  1  0  0  0
 41 91  1  0  0  0
 42 92  1  0  0  0
 42 93  1  0  0  0
 43 94  1  0  0  0
 43 95  1  0  0  0
 44 96  1  0  0  0
 47 97  1  0  0  0
 47 98  1  0  0  0
 47 99  1  0  0  0
M  END
$$$$
