6dlj_ligand
  -I-interpret- 

 24 24  0  0  0  0  0  0  0  0999 V2000
   33.2620   76.5900   61.9580 C   0  0  0  0  0
   33.4480   74.4090   62.9520 C   0  0  0  0  0
   35.1290   76.1010   63.3640 C   0  0  0  0  0
   35.1290   78.4130   62.3950 C   0  0  0  0  0
   36.1820   78.8380   63.2920 C   0  0  0  0  0
   36.8340   80.0150   63.1320 C   0  0  0  0  0
   38.1090   80.2250   63.8800 C   0  0  0  0  0
   34.4760   77.0430   62.5690 C   0  0  0  0  0
   32.7620   75.2870   62.1490 C   0  0  0  0  0
   34.6290   74.8190   63.5500 C   0  0  0  0  0
   32.5120   77.4800   61.0900 N   0  0  0  0  0
   35.1150   78.9160   61.2760 O   0  0  0  0  0
   39.1520   80.2700   63.0270 O   0  0  0  0  0
   38.3000   79.8290   65.0310 O   0  0  0  0  0
   36.6730   80.9400   62.1370 O   0  0  0  0  0
   31.5020   77.0350   60.3560 O   0  0  0  0  0
   32.6380   78.6360   61.0020 O   0  0  0  0  0
   33.0678   73.4009   63.1171 H   0  0  0  0  0
   36.0614   76.3801   63.8548 H   0  0  0  0  0
   36.4597   78.1902   64.1235 H   0  0  0  0  0
   31.8368   74.9776   61.6627 H   0  0  0  0  0
   35.1777   74.1194   64.1805 H   0  0  0  0  0
   38.8533   80.5962   62.1750 H   0  0  0  0  0
   37.2723   81.6752   62.2850 H   0  0  0  0  0
  8  1  4  0  0  0
  1  9  4  0  0  0
  1 11  1  0  0  0
  9  2  4  0  0  0
 10  2  4  0  0  0
  8  3  4  0  0  0
  3 10  4  0  0  0
  4  5  1  0  0  0
  4  8  1  0  0  0
  4 12  2  0  0  0
  5  6  2  0  0  0
  6  7  1  0  0  0
  6 15  1  0  0  0
  7 13  1  0  0  0
  7 14  2  0  0  0
 11 16  2  0  0  0
 11 17  2  0  0  0
  2 18  1  0  0  0
  3 19  1  0  0  0
  5 20  1  0  0  0
  9 21  1  0  0  0
 10 22  1  0  0  0
 13 23  1  0  0  0
 15 24  1  0  0  0
M  END
$$$$
