### 
### Created by X-TOOL on Fri Nov 18 12:21:47 2016
### 

@<TRIPOS>MOLECULE
1czr_ligand
   50    52     1     0     0
SMALL
GAST_HUCK


@<TRIPOS>ATOM
      1 N1          1.4800   44.1530   53.5050 N.2       1 FMN        -0.2549
      2 C2          0.5360   44.9640   54.1030 C.2       1 FMN         0.2439
      3 O2         -0.5880   44.5580   54.3700 O.2       1 FMN        -0.3902
      4 N3          0.8680   46.2900   54.4130 N.am      1 FMN        -0.1938
      5 C4          2.0810   46.8730   54.1560 C.2       1 FMN         0.2704
      6 O4          2.3020   48.0480   54.4460 O.2       1 FMN        -0.3655
      7 C4A         3.0980   45.9970   53.5070 C.2       1 FMN         0.2076
      8 N5          4.3050   46.4720   53.2590 N.2       1 FMN        -0.2387
      9 C5A         5.2280   45.6310   52.6780 C.ar      1 FMN         0.0856
     10 C6          6.5280   46.1110   52.4240 C.ar      1 FMN        -0.0403
     11 C7          7.5010   45.3220   51.8420 C.ar      1 FMN        -0.0428
     12 C7M         8.8720   45.9070   51.5370 C.3       1 FMN        -0.0352
     13 C8          7.1820   43.9570   51.5280 C.ar      1 FMN        -0.0416
     14 C8M         8.2300   43.0130   50.9820 C.3       1 FMN        -0.0312
     15 C9          5.9040   43.4680   51.7330 C.ar      1 FMN        -0.0258
     16 C9A         4.9080   44.2860   52.3230 C.ar      1 FMN         0.1048
     17 N10         3.5970   43.8410   52.5860 N.pl3     1 FMN        -0.2138
     18 C10         2.6720   44.6380   53.2200 C.2       1 FMN         0.1894
     19 C1          3.2040   42.4790   52.1750 C.3       1 FMN         0.0886
     20 C2          2.8350   42.4170   50.6860 C.3       1 FMN         0.1102
     21 O2          1.7280   43.2180   50.2480 O.3       1 FMN        -0.3865
     22 C3          2.6080   40.9680   50.2760 C.3       1 FMN         0.1118
     23 O3          3.8450   40.2440   50.3430 O.3       1 FMN        -0.3865
     24 C4          1.9280   40.7070   48.9280 C.3       1 FMN         0.1111
     25 O4          1.8050   39.2970   48.7350 O.3       1 FMN        -0.3865
     26 C5          2.7530   41.2790   47.7730 C.3       1 FMN         0.1068
     27 O5          2.0100   41.1290   46.5510 O.3       1 FMN        -0.2734
     28 P           2.6180   41.3140   45.1210 P.3       1 FMN         0.2008
     29 O1P         3.3270   40.0920   44.7710 O.co2     1 FMN        -0.5537
     30 O2P         3.2360   42.6300   44.9350 O.co2     1 FMN        -0.5537
     31 O3P         1.3360   41.2910   44.2440 O.co2     1 FMN        -0.5537
     32 H1          0.1682   46.8518   54.8541 H         1 FMN         0.2248
     33 H2          6.7724   47.1320   52.6939 H         1 FMN         0.0564
     34 H3          8.9009   46.9592   51.8563 H         1 FMN         0.0366
     35 H4          9.0641   45.8466   50.4556 H         1 FMN         0.0366
     36 H5          9.6421   45.3382   52.0786 H         1 FMN         0.0366
     37 H6          7.7795   42.0241   50.8114 H         1 FMN         0.0395
     38 H7          9.0533   42.9209   51.7057 H         1 FMN         0.0395
     39 H8          8.6194   43.4073   50.0318 H         1 FMN         0.0395
     40 H9          5.6628   42.4525   51.4404 H         1 FMN         0.0493
     41 H10         2.3345   42.1643   52.7707 H         1 FMN         0.0631
     42 H11         4.0441   41.7942   52.3624 H         1 FMN         0.0631
     43 H12         3.7146   42.7853   50.1378 H         1 FMN         0.0647
     44 H13         1.9108   44.1331   50.4257 H         1 FMN         0.2100
     45 H14         1.9370   40.5432   51.0371 H         1 FMN         0.0647
     46 H15         3.6967   39.3414   50.0862 H         1 FMN         0.2100
     47 H16         0.9309   41.1715   48.9292 H         1 FMN         0.0646
     48 H17         2.6686   38.9012   48.7409 H         1 FMN         0.2100
     49 H18         3.7059   40.7350   47.6949 H         1 FMN         0.0639
     50 H19         2.9533   42.3452   47.9548 H         1 FMN         0.0639
@<TRIPOS>BOND
     1    1    2 1  
     2    1   18 2  
     3    2    3 2  
     4    2    4 am 
     5    4    5 am 
     6    5    6 2  
     7    5    7 1  
     8    7    8 2  
     9    7   18 1  
    10    8    9 1  
    11    9   10 ar 
    12    9   16 ar 
    13   10   11 ar 
    14   11   12 1  
    15   11   13 ar 
    16   13   14 1  
    17   13   15 ar 
    18   15   16 ar 
    19   16   17 1  
    20   17   18 1  
    21   17   19 1  
    22   19   20 1  
    23   20   21 1  
    24   20   22 1  
    25   22   23 1  
    26   22   24 1  
    27   24   25 1  
    28   24   26 1  
    29   26   27 1  
    30   27   28 1  
    31   28   29 ar 
    32   28   30 ar 
    33   28   31 ar 
    34    4   32 1  
    35   10   33 1  
    36   12   34 1  
    37   12   35 1  
    38   12   36 1  
    39   14   37 1  
    40   14   38 1  
    41   14   39 1  
    42   15   40 1  
    43   19   41 1  
    44   19   42 1  
    45   20   43 1  
    46   21   44 1  
    47   22   45 1  
    48   23   46 1  
    49   24   47 1  
    50   25   48 1  
    51   26   49 1  
    52   26   50 1  
@<TRIPOS>SUBSTRUCTURE
     1 FMN         1

