5yqn_ligand
  -I-interpret- 

 62 65  0  0  0  0  0  0  0  0999 V2000
  -16.1580   -6.6980  -17.6460 N   0  0  0  0  0
  -16.2920   -7.7340  -18.6690 C   0  0  0  0  0
  -16.0940   -9.0470  -18.2800 C   0  0  0  0  0
  -16.1960  -10.0820  -19.1890 C   0  0  0  0  0
  -16.5020   -9.8080  -20.5100 C   0  0  0  0  0
  -16.6910   -8.4820  -20.9150 C   0  0  0  0  0
  -16.5820   -7.4420  -19.9880 C   0  0  0  0  0
  -15.9660  -11.4930  -18.6130 C   0  0  0  0  0
  -16.2230  -12.4980  -19.5560 O   0  0  0  0  0
  -15.0460  -12.9610  -20.1820 C   0  0  0  0  0
  -14.5420  -12.2190  -21.2370 C   0  0  0  0  0
  -13.3940  -12.6280  -21.8840 C   0  0  0  0  0
  -12.7550  -13.7760  -21.4570 C   0  0  0  0  0
  -13.2290  -14.5230  -20.3940 C   0  0  0  0  0
  -14.3980  -14.1210  -19.7460 C   0  0  0  0  0
  -12.4550  -15.7230  -20.0630 N   0  0  0  0  0
  -12.0730  -16.2020  -18.7370 C   0  0  0  0  0
  -12.3740  -15.6550  -17.7250 O   0  0  0  0  0
  -11.2430  -17.4950  -18.7550 C   0  0  0  0  0
  -10.5220  -17.9200  -19.8620 C   0  0  0  0  0
   -9.9320  -19.0590  -19.5590 N   0  0  0  0  0
  -10.2510  -19.3970  -18.2760 N   0  0  0  0  0
  -11.0490  -18.4600  -17.7700 C   0  0  0  0  0
   -9.7690  -20.6040  -17.6050 C   0  0  0  0  0
  -16.6870   -6.9030  -16.2880 C   0  0  0  0  0
  -17.2480   -7.9060  -16.0000 O   0  0  0  0  0
  -16.5170   -5.8070  -15.2180 C   0  0  0  0  0
  -14.7410   -5.6330  -14.8200 S   0  0  0  0  0
  -14.0640   -4.4300  -16.0070 C   0  0  0  0  0
  -12.9590   -3.7820  -15.7170 N   0  0  0  0  0
  -12.4550   -2.9020  -16.5650 C   0  0  0  0  0
  -13.1100   -2.6730  -17.7640 C   0  0  0  0  0
  -14.2700   -3.3670  -18.0400 C   0  0  0  0  0
  -14.7120   -4.2230  -17.1360 N   0  0  0  0  0
  -15.0280   -3.1580  -19.3450 C   0  0  0  0  0
  -11.1670   -2.1560  -16.2400 C   0  0  0  0  0
  -15.6913   -5.8209  -17.8767 H   0  0  0  0  0
  -15.8538   -9.2680  -17.2400 H   0  0  0  0  0
  -16.5953  -10.6201  -21.2310 H   0  0  0  0  0
  -16.9239   -8.2597  -21.9564 H   0  0  0  0  0
  -16.7247   -6.4083  -20.3031 H   0  0  0  0  0
  -16.6481  -11.6324  -17.7743 H   0  0  0  0  0
  -14.9215  -11.5701  -18.3112 H   0  0  0  0  0
  -15.0528  -11.3107  -21.5567 H   0  0  0  0  0
  -12.9967  -12.0532  -22.7206 H   0  0  0  0  0
  -11.8517  -14.1022  -21.9725 H   0  0  0  0  0
  -14.7988  -14.7010  -18.9147 H   0  0  0  0  0
  -12.1466  -16.2909  -20.8522 H   0  0  0  0  0
  -10.4551  -17.4009  -20.8181 H   0  0  0  0  0
  -11.4739  -18.4497  -16.7663 H   0  0  0  0  0
  -10.1016  -21.4827  -18.1575 H   0  0  0  0  0
   -8.6798  -20.5872  -17.5681 H   0  0  0  0  0
  -10.1677  -20.6383  -16.5911 H   0  0  0  0  0
  -17.0696   -6.0819  -14.3196 H   0  0  0  0  0
  -16.9030   -4.8607  -15.5969 H   0  0  0  0  0
  -12.7138   -1.9534  -18.4805 H   0  0  0  0  0
  -15.3358   -2.1152  -19.4219 H   0  0  0  0  0
  -14.3799   -3.4097  -20.1845 H   0  0  0  0  0
  -15.9087   -3.8001  -19.3590 H   0  0  0  0  0
  -11.3029   -1.5809  -15.3241 H   0  0  0  0  0
  -10.3577   -2.8733  -16.1034 H   0  0  0  0  0
  -10.9221   -1.4819  -17.0608 H   0  0  0  0  0
  1  2  1  0  0  0
  1 25  1  0  0  0
  2  3  4  0  0  0
  2  7  4  0  0  0
  3  4  4  0  0  0
  4  5  4  0  0  0
  4  8  1  0  0  0
  5  6  4  0  0  0
  6  7  4  0  0  0
  8  9  1  0  0  0
  9 10  1  0  0  0
 10 11  4  0  0  0
 10 15  4  0  0  0
 11 12  4  0  0  0
 12 13  4  0  0  0
 13 14  4  0  0  0
 14 15  4  0  0  0
 14 16  1  0  0  0
 16 17  1  0  0  0
 17 18  2  0  0  0
 17 19  1  0  0  0
 19 20  4  0  0  0
 19 23  4  0  0  0
 20 21  4  0  0  0
 21 22  4  0  0  0
 22 23  4  0  0  0
 22 24  1  0  0  0
 25 26  2  0  0  0
 25 27  1  0  0  0
 27 28  1  0  0  0
 28 29  1  0  0  0
 29 30  4  0  0  0
 29 34  4  0  0  0
 30 31  4  0  0  0
 31 32  4  0  0  0
 31 36  1  0  0  0
 32 33  4  0  0  0
 33 34  4  0  0  0
 33 35  1  0  0  0
  1 37  1  0  0  0
  3 38  1  0  0  0
  5 39  1  0  0  0
  6 40  1  0  0  0
  7 41  1  0  0  0
  8 42  1  0  0  0
  8 43  1  0  0  0
 11 44  1  0  0  0
 12 45  1  0  0  0
 13 46  1  0  0  0
 15 47  1  0  0  0
 16 48  1  0  0  0
 20 49  1  0  0  0
 23 50  1  0  0  0
 24 51  1  0  0  0
 24 52  1  0  0  0
 24 53  1  0  0  0
 27 54  1  0  0  0
 27 55  1  0  0  0
 32 56  1  0  0  0
 35 57  1  0  0  0
 35 58  1  0  0  0
 35 59  1  0  0  0
 36 60  1  0  0  0
 36 61  1  0  0  0
 36 62  1  0  0  0
M  END
$$$$
