5llo_ligand
  -I-interpret- 

 46 48  0  0  0  0  0  0  0  0999 V2000
   23.6930    8.7640   13.0280 O   0  0  0  0  0
   24.2650    8.2170   15.2190 C   0  0  0  0  0
   23.4720    4.0110   12.7990 C   0  0  0  0  0
   22.4340    3.2100   13.1950 F   0  0  0  0  0
   24.0510    3.9100   11.5350 C   0  0  0  0  0
   23.3330    4.9510   14.9900 F   0  0  0  0  0
   25.7300    4.6530   10.1450 F   0  0  0  0  0
   26.8040    7.6400   14.4120 O   0  0  0  0  0
   25.4400    6.9420   14.7330 S   0  0  0  0  0
   25.7980    6.1220   15.9700 O   0  0  0  0  0
   24.2740    9.3060   14.1780 C   0  0  0  0  0
   24.9600    5.7520   13.4720 C   0  0  0  0  0
   23.8840    4.9040   13.7680 C   0  0  0  0  0
   25.5840    5.6870   12.2270 C   0  0  0  0  0
   25.1270    4.7830   11.2960 C   0  0  0  0  0
   23.5410    2.7030   10.3280 S   0  0  0  0  0
   24.6720    1.7820    9.9910 O   0  0  0  0  0
   22.2670    1.8030   10.8650 N   0  0  0  0  0
   23.1130    3.4270    9.0570 O   0  0  0  0  0
   26.6510    6.5750   11.8280 N   0  0  0  0  0
   26.6460    7.2390   10.4980 C   0  0  0  0  0
   25.9580    8.6220   10.5740 C   0  0  0  0  0
   26.7080    9.5200    9.5460 C   0  0  0  0  0
   28.0590    8.9550    9.7330 C   0  0  0  0  0
   29.2970    9.5840    9.4430 C   0  0  0  0  0
   30.5270    8.9280    9.7140 C   0  0  0  0  0
   30.5050    7.6110   10.2760 C   0  0  0  0  0
   29.2410    7.0200   10.5350 C   0  0  0  0  0
   28.0440    7.6830   10.2410 C   0  0  0  0  0
   23.6783    9.4280   12.3349 H   0  0  0  0  0
   24.5464    8.6293   16.1880 H   0  0  0  0  0
   23.2658    7.7886   15.2974 H   0  0  0  0  0
   23.7171   10.1777   14.5217 H   0  0  0  0  0
   25.2905    9.6449   13.9779 H   0  0  0  0  0
   22.3465    0.7875   10.9185 H   0  0  0  0  0
   21.3997    2.2620   11.1435 H   0  0  0  0  0
   27.4230    6.7499   12.4713 H   0  0  0  0  0
   26.1876    6.5516    9.7871 H   0  0  0  0  0
   26.0107    9.0385   11.5799 H   0  0  0  0  0
   24.8955    8.5518   10.3411 H   0  0  0  0  0
   26.6206   10.5944    9.7077 H   0  0  0  0  0
   26.3228    9.4912    8.5268 H   0  0  0  0  0
   29.3042   10.5829    9.0069 H   0  0  0  0  0
   31.4750    9.4203    9.4972 H   0  0  0  0  0
   31.4302    7.0791   10.4979 H   0  0  0  0  0
   29.2014    6.0233   10.9745 H   0  0  0  0  0
 11  1  1  0  0  0
  9  2  1  0  0  0
  2 11  1  0  0  0
  3  4  1  0  0  0
  3  5  4  0  0  0
 13  3  4  0  0  0
  5 15  4  0  0  0
  5 16  1  0  0  0
 13  6  1  0  0  0
 15  7  1  0  0  0
  9  8  2  0  0  0
  9 10  2  0  0  0
 12  9  1  0  0  0
 12 13  4  0  0  0
 12 14  4  0  0  0
 14 15  4  0  0  0
 14 20  1  0  0  0
 16 17  2  0  0  0
 16 18  1  0  0  0
 16 19  2  0  0  0
 20 21  1  0  0  0
 21 22  1  0  0  0
 21 29  1  0  0  0
 22 23  1  0  0  0
 23 24  1  0  0  0
 24 25  4  0  0  0
 24 29  4  0  0  0
 25 26  4  0  0  0
 26 27  4  0  0  0
 27 28  4  0  0  0
 28 29  4  0  0  0
  1 30  1  0  0  0
  2 31  1  0  0  0
  2 32  1  0  0  0
 11 33  1  0  0  0
 11 34  1  0  0  0
 18 35  1  0  0  0
 18 36  1  0  0  0
 20 37  1  0  0  0
 21 38  1  0  0  0
 22 39  1  0  0  0
 22 40  1  0  0  0
 23 41  1  0  0  0
 23 42  1  0  0  0
 25 43  1  0  0  0
 26 44  1  0  0  0
 27 45  1  0  0  0
 28 46  1  0  0  0
M  END
$$$$
