3dga_ligand
  -I-interpret- 

 27 27  0  0  0  0  0  0  0  0999 V2000
   25.6380    5.4370   60.6740 C   0  0  0  0  0
   25.8740    4.6760   61.7840 C   0  0  0  0  0
   27.0450    4.0240   61.9620 C   0  0  0  0  0
   28.0440    4.1090   61.0290 C   0  0  0  0  0
   27.8620    4.8730   59.8610 C   0  0  0  0  0
   26.6480    5.5320   59.7080 C   0  0  0  0  0
   29.4650    3.2390   61.3980 Cl  0  0  0  0  0
   24.3060    6.1480   60.5390 C   0  0  0  0  0
   24.2830    7.0750   59.5210 F   0  0  0  0  0
   23.2530    5.2400   60.3250 F   0  0  0  0  0
   24.0210    6.8620   61.7000 F   0  0  0  0  0
   28.8500    4.9850   58.8950 N   0  0  0  0  0
   29.8560    4.3890   58.1720 C   0  0  0  0  0
   30.2380    4.7140   56.9210 N   0  0  0  0  0
   29.6890    5.2210   55.8100 C   0  0  0  0  0
   29.9690    4.7480   54.5800 N   0  0  0  0  0
   30.5120    3.4340   58.7320 N   0  0  0  0  0
   28.8690    6.2020   55.9300 N   0  0  0  0  0
   25.0985    4.5924   62.5454 H   0  0  0  0  0
   27.1958    3.4234   62.8590 H   0  0  0  0  0
   26.4780    6.1361   58.8167 H   0  0  0  0  0
   28.8141    5.9524   58.5735 H   0  0  0  0  0
   31.2290    4.5175   56.7803 H   0  0  0  0  0
   29.5317    5.1686   53.7601 H   0  0  0  0  0
   30.6183    3.9693   54.4687 H   0  0  0  0  0
   30.2786    3.1431   59.6814 H   0  0  0  0  0
   28.6513    6.5746   56.8542 H   0  0  0  0  0
  1  2  4  0  0  0
  1  6  4  0  0  0
  1  8  1  0  0  0
  2  3  4  0  0  0
  3  4  4  0  0  0
  4  5  4  0  0  0
  4  7  1  0  0  0
  5  6  4  0  0  0
  5 12  1  0  0  0
  8  9  1  0  0  0
  8 10  1  0  0  0
  8 11  1  0  0  0
 12 13  1  0  0  0
 13 14  1  0  0  0
 13 17  2  0  0  0
 14 15  1  0  0  0
 15 16  1  0  0  0
 15 18  2  0  0  0
  2 19  1  0  0  0
  3 20  1  0  0  0
  6 21  1  0  0  0
 12 22  1  0  0  0
 14 23  1  0  0  0
 16 24  1  0  0  0
 16 25  1  0  0  0
 17 26  1  0  0  0
 18 27  1  0  0  0
M  END
$$$$
