4aft_ligand
  -I-interpret- 

 30 33  0  0  0  0  0  0  0  0999 V2000
  -29.4400  -88.9840   28.8380 C   0  0  0  0  0
  -28.2800  -88.2420   29.3830 N   0  3  0  0  0
  -28.7240  -87.2680   30.4060 C   0  0  0  0  0
  -29.7800  -86.3440   29.8250 C   0  0  0  0  0
  -30.9860  -87.2240   29.5150 C   0  0  0  0  0
  -30.4940  -88.0170   28.3130 C   0  0  0  0  0
  -29.8090  -86.9730   27.5410 C   0  0  0  0  0
  -29.5360  -86.8860   26.1890 C   0  0  0  0  0
  -28.8310  -85.7630   25.7580 C   0  0  0  0  0
  -28.5350  -85.5920   24.4560 N   0  0  0  0  0
  -27.8540  -84.5040   24.0580 C   0  0  0  0  0
  -27.4350  -83.5240   24.9620 C   0  0  0  0  0
  -27.7010  -83.6370   26.2690 N   0  0  0  0  0
  -28.3800  -84.7110   26.7240 C   0  0  0  0  0
  -28.6570  -84.8350   28.0770 C   0  0  0  0  0
  -29.3640  -85.9470   28.4800 C   0  0  0  0  0
  -29.8784  -89.5883   29.6322 H   0  0  0  0  0
  -29.1014  -89.6176   28.0182 H   0  0  0  0  0
  -27.8206  -87.7396   28.6234 H   0  0  0  0  0
  -27.6346  -88.9044   29.8132 H   0  0  0  0  0
  -27.8688  -86.6746   30.7293 H   0  0  0  0  0
  -29.1482  -87.8076   31.2528 H   0  0  0  0  0
  -29.9527  -85.5076   30.5023 H   0  0  0  0  0
  -31.8959  -86.6574   29.3169 H   0  0  0  0  0
  -31.2907  -87.8516   30.3525 H   0  0  0  0  0
  -31.2565  -88.5627   27.7573 H   0  0  0  0  0
  -29.8571  -87.6598   25.4917 H   0  0  0  0  0
  -27.6218  -84.3824   23.0000 H   0  0  0  0  0
  -26.8845  -82.6565   24.5981 H   0  0  0  0  0
  -28.3284  -84.0824   28.7937 H   0  0  0  0  0
  1  2  1  0  0  0
  1  6  1  0  0  0
  2  3  1  0  0  0
  3  4  1  0  0  0
  4  5  1  0  0  0
  4 16  1  0  0  0
  5  6  1  0  0  0
  6  7  1  0  0  0
  7  8  4  0  0  0
  7 16  4  0  0  0
  8  9  4  0  0  0
  9 10  4  0  0  0
  9 14  4  0  0  0
 10 11  4  0  0  0
 11 12  4  0  0  0
 12 13  4  0  0  0
 13 14  4  0  0  0
 14 15  4  0  0  0
 15 16  4  0  0  0
  1 17  1  0  0  0
  1 18  1  0  0  0
  2 19  1  0  0  0
  2 20  1  0  0  0
  3 21  1  0  0  0
  3 22  1  0  0  0
  4 23  1  0  0  0
  5 24  1  0  0  0
  5 25  1  0  0  0
  6 26  1  0  0  0
  8 27  1  0  0  0
 11 28  1  0  0  0
 12 29  1  0  0  0
 15 30  1  0  0  0
M  END
$$$$
