5kzi_ligand
  -I-interpret- 

 53 57  0  0  0  0  0  0  0  0999 V2000
  -43.0660   -2.9100    3.0190 F   0  0  0  0  0
  -44.0740   -2.0540    3.2620 C   0  0  0  0  0
  -44.6180   -2.0130    4.5440 C   0  0  0  0  0
  -45.6690   -1.1420    4.8290 C   0  0  0  0  0
  -46.1620   -0.3210    3.8170 C   0  0  0  0  0
  -45.6050   -0.3640    2.5400 C   0  0  0  0  0
  -46.0970    0.4390    1.5870 F   0  0  0  0  0
  -44.5530   -1.2270    2.2380 C   0  0  0  0  0
  -43.9910   -1.2980    0.9420 C   0  0  0  0  0
  -44.7540   -1.2290   -0.2310 C   0  0  0  0  0
  -44.1410   -1.3140   -1.4840 C   0  0  0  0  0
  -42.6740   -1.4510    0.8040 N   0  0  0  0  0
  -42.1140   -1.5360   -0.3010 N   0  0  0  0  0
  -42.7630   -1.4820   -1.5120 C   0  0  0  0  0
  -41.8350   -1.6150   -2.4770 C   0  0  0  0  0
  -40.6190   -1.7500   -1.9200 N   0  0  0  0  0
  -40.7920   -1.7150   -0.5990 C   0  0  0  0  0
  -39.9430   -1.7860    0.4270 N   0  0  0  0  0
  -38.6680   -2.1580    0.4380 C   0  0  0  0  0
  -37.8940   -2.1930   -0.7150 C   0  0  0  0  0
  -36.6220   -2.5620   -0.6590 N   0  0  0  0  0
  -36.0410   -2.9010    0.4840 C   0  0  0  0  0
  -36.7440   -2.8850    1.6830 C   0  0  0  0  0
  -38.0830   -2.5140    1.6550 C   0  0  0  0  0
  -38.7860   -2.4590    2.8760 N   0  0  0  0  0
  -38.8350   -3.6310    3.7770 C   0  0  0  0  0
  -39.2650   -1.1180    3.3340 C   0  0  0  0  0
  -40.4690   -1.2050    4.2720 C   0  0  0  0  0
  -40.2480   -2.2700    5.3410 C   0  0  0  0  0
  -40.0860   -3.6490    4.6560 C   0  0  0  0  0
  -39.9730   -4.7110    5.6670 N   0  3  0  0  0
  -44.2218   -2.6622    5.3248 H   0  0  0  0  0
  -46.0990   -1.1040    5.8299 H   0  0  0  0  0
  -46.9881    0.3589    4.0251 H   0  0  0  0  0
  -45.8353   -1.1080   -0.1657 H   0  0  0  0  0
  -44.7223   -1.2508   -2.4039 H   0  0  0  0  0
  -42.0383   -1.6135   -3.5479 H   0  0  0  0  0
  -40.3276   -1.5162    1.3323 H   0  0  0  0  0
  -38.3355   -1.9152   -1.6721 H   0  0  0  0  0
  -34.9922   -3.1978    0.4831 H   0  0  0  0  0
  -36.2580   -3.1562    2.6202 H   0  0  0  0  0
  -37.9659   -3.5847    4.4333 H   0  0  0  0  0
  -38.8484   -4.5281    3.1581 H   0  0  0  0  0
  -39.5699   -0.5544    2.4523 H   0  0  0  0  0
  -38.4507   -0.6424    3.8807 H   0  0  0  0  0
  -41.3503   -1.4709    3.6884 H   0  0  0  0  0
  -40.6041   -0.2400    4.7604 H   0  0  0  0  0
  -41.1029   -2.2943    6.0168 H   0  0  0  0  0
  -39.3492   -2.0360    5.9115 H   0  0  0  0  0
  -40.9629   -3.8490    4.0402 H   0  0  0  0  0
  -40.8110   -4.7158    6.2484 H   0  0  0  0  0
  -39.8757   -5.6132    5.2012 H   0  0  0  0  0
  -39.1542   -4.5380    6.2501 H   0  0  0  0  0
  1  2  1  0  0  0
  2  3  4  0  0  0
  2  8  4  0  0  0
  3  4  4  0  0  0
  4  5  4  0  0  0
  5  6  4  0  0  0
  6  7  1  0  0  0
  6  8  4  0  0  0
  8  9  1  0  0  0
  9 10  4  0  0  0
  9 12  4  0  0  0
 10 11  4  0  0  0
 11 14  4  0  0  0
 12 13  4  0  0  0
 13 14  4  0  0  0
 13 17  4  0  0  0
 14 15  4  0  0  0
 15 16  4  0  0  0
 16 17  4  0  0  0
 17 18  1  0  0  0
 18 19  1  0  0  0
 19 20  4  0  0  0
 19 24  4  0  0  0
 20 21  4  0  0  0
 21 22  4  0  0  0
 22 23  4  0  0  0
 23 24  4  0  0  0
 24 25  1  0  0  0
 25 26  1  0  0  0
 25 27  1  0  0  0
 26 30  1  0  0  0
 27 28  1  0  0  0
 28 29  1  0  0  0
 29 30  1  0  0  0
 30 31  1  0  0  0
  3 32  1  0  0  0
  4 33  1  0  0  0
  5 34  1  0  0  0
 10 35  1  0  0  0
 11 36  1  0  0  0
 15 37  1  0  0  0
 18 38  1  0  0  0
 20 39  1  0  0  0
 22 40  1  0  0  0
 23 41  1  0  0  0
 26 42  1  0  0  0
 26 43  1  0  0  0
 27 44  1  0  0  0
 27 45  1  0  0  0
 28 46  1  0  0  0
 28 47  1  0  0  0
 29 48  1  0  0  0
 29 49  1  0  0  0
 30 50  1  0  0  0
 31 51  1  0  0  0
 31 52  1  0  0  0
 31 53  1  0  0  0
M  END
$$$$
