2qoe_ligand
  -I-interpret- 

 47 49  0  0  0  0  0  0  0  0999 V2000
   33.2850   48.5150   36.1680 F   0  0  0  0  0
   34.5020   49.0660   36.2650 C   0  0  0  0  0
   34.6640   50.4110   36.5640 C   0  0  0  0  0
   35.9420   50.9410   36.6590 C   0  0  0  0  0
   36.0700   52.2300   36.9630 F   0  0  0  0  0
   35.6880   48.2170   36.0360 C   0  0  0  0  0
   35.4520   46.9300   35.7330 F   0  0  0  0  0
   36.9770   48.7530   36.1330 C   0  0  0  0  0
   37.1480   50.1080   36.4390 C   0  0  0  0  0
   38.5310   50.7510   36.5500 C   0  0  0  0  0
   39.1910   50.7920   35.1520 C   0  0  0  0  0
   38.3380   51.5500   34.2390 N   0  3  0  0  0
   40.6270   51.3520   35.1590 C   0  0  0  0  0
   41.5800   50.4780   35.9660 C   0  0  0  0  0
   41.2310   49.3460   36.2980 O   0  0  0  0  0
   42.7730   50.9710   36.3590 N   0  0  0  0  0
   43.5390   52.0920   35.7530 C   0  0  0  0  0
   45.0090   51.7200   35.4350 C   0  0  0  0  0
   43.3590   50.3210   37.5590 C   0  0  0  0  0
   42.8110   50.8850   38.8790 C   0  0  0  0  0
   44.8370   50.3670   37.5470 C   0  0  0  0  0
   45.5280   50.9940   36.5920 N   0  0  0  0  0
   46.9050   50.8900   36.8160 N   0  0  0  0  0
   45.7080   49.8080   38.4420 N   0  0  0  0  0
   46.9200   50.1390   37.9540 C   0  0  0  0  0
   48.1930   49.7250   38.6650 C   0  0  0  0  0
   48.0260   49.7910   39.9850 F   0  0  0  0  0
   49.1080   50.5910   38.2490 F   0  0  0  0  0
   48.5680   48.4740   38.3790 F   0  0  0  0  0
   33.7930   51.0467   36.7231 H   0  0  0  0  0
   37.8466   48.1162   35.9705 H   0  0  0  0  0
   39.1514   50.1658   37.2288 H   0  0  0  0  0
   38.4312   51.7656   36.9357 H   0  0  0  0  0
   39.2859   49.7614   34.8101 H   0  0  0  0  0
   38.7710   51.5787   33.3159 H   0  0  0  0  0
   37.4257   51.0984   34.1741 H   0  0  0  0  0
   38.2240   52.5001   34.5920 H   0  0  0  0  0
   40.6037   52.3412   35.6161 H   0  0  0  0  0
   40.9843   51.3838   34.1297 H   0  0  0  0  0
   43.5523   52.9114   36.4717 H   0  0  0  0  0
   43.0531   52.3562   34.8137 H   0  0  0  0  0
   45.6004   52.6158   35.2457 H   0  0  0  0  0
   45.0646   51.1040   34.5375 H   0  0  0  0  0
   43.0490   49.2774   37.5053 H   0  0  0  0  0
   43.0342   51.9503   38.9379 H   0  0  0  0  0
   41.7319   50.7360   38.9161 H   0  0  0  0  0
   43.2796   50.3675   39.7161 H   0  0  0  0  0
  1  2  1  0  0  0
  2  3  4  0  0  0
  2  6  4  0  0  0
  3  4  4  0  0  0
  4  5  1  0  0  0
  4  9  4  0  0  0
  6  7  1  0  0  0
  6  8  4  0  0  0
  8  9  4  0  0  0
  9 10  1  0  0  0
 10 11  1  0  0  0
 11 12  1  0  0  0
 11 13  1  0  0  0
 13 14  1  0  0  0
 14 15  2  0  0  0
 14 16  1  0  0  0
 16 17  1  0  0  0
 16 19  1  0  0  0
 17 18  1  0  0  0
 18 22  1  0  0  0
 19 20  1  0  0  0
 19 21  1  0  0  0
 21 22  4  0  0  0
 21 24  4  0  0  0
 22 23  4  0  0  0
 23 25  4  0  0  0
 24 25  4  0  0  0
 25 26  1  0  0  0
 26 27  1  0  0  0
 26 28  1  0  0  0
 26 29  1  0  0  0
  3 30  1  0  0  0
  8 31  1  0  0  0
 10 32  1  0  0  0
 10 33  1  0  0  0
 11 34  1  0  0  0
 12 35  1  0  0  0
 12 36  1  0  0  0
 12 37  1  0  0  0
 13 38  1  0  0  0
 13 39  1  0  0  0
 17 40  1  0  0  0
 17 41  1  0  0  0
 18 42  1  0  0  0
 18 43  1  0  0  0
 19 44  1  0  0  0
 20 45  1  0  0  0
 20 46  1  0  0  0
 20 47  1  0  0  0
M  END
$$$$
