6qxu_ligand
  -I-interpret- 

 37 39  0  0  0  0  0  0  0  0999 V2000
  -29.1120  -15.6510    4.5170 C   0  0  0  0  0
  -28.3110  -16.0920    3.4610 C   0  0  0  0  0
  -28.8570  -15.9150    5.8210 C   0  0  0  0  0
  -26.9760  -17.2880    5.1190 C   0  0  0  0  0
  -26.4550  -17.5260    2.6880 C   0  0  0  0  0
  -27.7720  -16.1770    1.2330 C   0  0  0  0  0
  -27.9900  -15.7160   -0.1330 C   0  0  0  0  0
  -29.2070  -15.0790   -0.4180 C   0  0  0  0  0
  -29.4460  -14.6340   -1.7080 C   0  0  0  0  0
  -28.4830  -14.6940   -2.7130 C   0  0  0  0  0
  -27.2430  -15.2750   -2.4210 C   0  0  0  0  0
  -29.8590  -14.9130   -4.8120 C   0  0  0  0  0
  -27.2480  -16.9780    3.7850 C   0  0  0  0  0
  -28.5310  -15.7180    2.1930 N   0  0  0  0  0
  -27.8080  -16.7830    6.1160 C   0  0  0  0  0
  -26.7790  -17.1040    1.4580 N   0  0  0  0  0
  -25.5600  -18.3720    2.8930 O   0  0  0  0  0
  -27.0020  -15.7650   -1.1320 C   0  0  0  0  0
  -28.7330  -14.1380   -4.1110 C   0  0  0  0  0
  -27.5770  -14.2810   -4.9470 O   0  0  0  0  0
  -30.1150  -14.8040    4.2040 F   0  0  0  0  0
  -27.5420  -17.0510    7.4070 F   0  0  0  0  0
  -29.0710  -12.6410   -4.0710 C   0  0  0  0  0
  -29.4532  -15.4630    6.6137 H   0  0  0  0  0
  -26.1239  -17.9169    5.3770 H   0  0  0  0  0
  -29.9532  -14.9364    0.3636 H   0  0  0  0  0
  -30.4261  -14.2206   -1.9461 H   0  0  0  0  0
  -26.4732  -15.3451   -3.1895 H   0  0  0  0  0
  -29.5784  -15.9629   -4.8954 H   0  0  0  0  0
  -30.7759  -14.8259   -4.2290 H   0  0  0  0  0
  -30.0189  -14.4982   -5.8072 H   0  0  0  0  0
  -26.2712  -17.4835    0.6589 H   0  0  0  0  0
  -26.0276  -16.1937   -0.8979 H   0  0  0  0  0
  -27.7665  -13.9226   -5.8172 H   0  0  0  0  0
  -29.9697  -12.4886   -3.4734 H   0  0  0  0  0
  -28.2400  -12.0940   -3.6258 H   0  0  0  0  0
  -29.2424  -12.2813   -5.0856 H   0  0  0  0  0
  2  1  4  0  0  0
  1  3  4  0  0  0
  1 21  1  0  0  0
  2 13  4  0  0  0
 14  2  1  0  0  0
  3 15  4  0  0  0
 13  4  4  0  0  0
  4 15  4  0  0  0
 13  5  1  0  0  0
  5 16  1  0  0  0
  5 17  2  0  0  0
  6  7  1  0  0  0
  6 14  2  0  0  0
  6 16  1  0  0  0
  7  8  4  0  0  0
  7 18  4  0  0  0
  8  9  4  0  0  0
  9 10  4  0  0  0
 10 11  4  0  0  0
 10 19  1  0  0  0
 11 18  4  0  0  0
 19 12  1  0  0  0
 15 22  1  0  0  0
 19 20  1  0  0  0
 19 23  1  0  0  0
  3 24  1  0  0  0
  4 25  1  0  0  0
  8 26  1  0  0  0
  9 27  1  0  0  0
 11 28  1  0  0  0
 12 29  1  0  0  0
 12 30  1  0  0  0
 12 31  1  0  0  0
 16 32  1  0  0  0
 18 33  1  0  0  0
 20 34  1  0  0  0
 23 35  1  0  0  0
 23 36  1  0  0  0
 23 37  1  0  0  0
M  END
$$$$
