3qsd_ligand
  -I-interpret- 

 58 58  0  0  0  0  0  0  0  0999 V2000
   19.0750    7.7230   19.2750 C   0  0  0  0  0
   18.6270    9.1290   19.5670 C   0  0  0  0  0
   19.6940    9.9450   20.2700 C   0  0  0  0  0
   19.2620   11.3560   20.4030 N   0  0  0  0  0
   18.5250   11.8080   21.4210 C   0  0  0  0  0
   18.1870   11.0440   22.3640 O   0  0  0  0  0
   18.1510   13.2470   21.5440 C   0  0  0  0  0
   19.3680   14.0110   21.4040 O   0  0  0  0  0
   17.2300   13.6960   20.3770 C   0  0  0  0  0
   16.7930   15.0690   20.7430 C   0  0  0  0  0
   16.0510   15.3340   21.6950 O   0  0  0  0  0
   17.3580   16.0080   19.9970 N   0  0  0  0  0
   17.3340   17.4030   20.3540 C   0  0  0  0  0
   16.0280   18.1060   20.2290 C   0  0  0  0  0
   15.1980   17.6910   19.4260 O   0  0  0  0  0
   18.4160   18.1550   19.4680 C   0  0  0  0  0
   18.0910   18.0060   17.9750 C   0  0  0  0  0
   19.8320   17.6150   19.8570 C   0  0  0  0  0
   18.9170   19.0120   17.1900 C   0  0  0  0  0
   15.8680   19.1840   20.9930 N   0  0  0  0  0
   14.7080   20.0170   20.7880 C   0  0  0  0  0
   14.9710   20.9790   19.6030 C   0  0  0  0  0
   16.1240   21.0770   19.0430 O   0  0  0  0  0
   14.6410   20.8760   22.0290 C   0  0  0  0  0
   16.0750   20.9470   22.4740 C   0  0  0  0  0
   16.7690   19.6830   22.0280 C   0  0  0  0  0
   14.0340   21.7120   19.2100 O   0  0  0  0  0
   19.9552    7.7495   18.6327 H   0  0  0  0  0
   19.3210    7.2198   20.2101 H   0  0  0  0  0
   18.2722    7.1844   18.7714 H   0  0  0  0  0
   17.7583    9.0754   20.2231 H   0  0  0  0  0
   18.4040    9.6147   18.6170 H   0  0  0  0  0
   20.6121    9.9088   19.6836 H   0  0  0  0  0
   19.8608    9.5298   21.2639 H   0  0  0  0  0
   19.5423   12.0172   19.6787 H   0  0  0  0  0
   17.6396   13.3964   22.4949 H   0  0  0  0  0
   19.9777   13.7710   22.1056 H   0  0  0  0  0
   16.3831   13.0223   20.2469 H   0  0  0  0  0
   17.7509   13.6782   19.4197 H   0  0  0  0  0
   17.8287   15.7313   19.1354 H   0  0  0  0  0
   17.5493   17.4303   21.4222 H   0  0  0  0  0
   18.4021   19.2275   19.6623 H   0  0  0  0  0
   17.0296   18.1898   17.8083 H   0  0  0  0  0
   18.3293   16.9950   17.6446 H   0  0  0  0  0
   20.0150   17.8074   20.9142 H   0  0  0  0  0
   19.8746   16.5422   19.6689 H   0  0  0  0  0
   20.5894   18.1206   19.2580 H   0  0  0  0  0
   18.6714   20.0205   17.5229 H   0  0  0  0  0
   19.9767   18.8204   17.3585 H   0  0  0  0  0
   18.6931   18.9140   16.1278 H   0  0  0  0  0
   13.8119   19.4267   20.5967 H   0  0  0  0  0
   16.7307   20.4550   19.4513 H   0  0  0  0  0
   13.9833   20.4613   22.7929 H   0  0  0  0  0
   14.2105   21.8590   21.8378 H   0  0  0  0  0
   16.1270   21.0408   23.5587 H   0  0  0  0  0
   16.5617   21.8175   22.0341 H   0  0  0  0  0
   17.7836   19.8541   21.6682 H   0  0  0  0  0
   16.9282   18.9716   22.8383 H   0  0  0  0  0
  1  2  1  0  0  0
  2  3  1  0  0  0
  3  4  1  0  0  0
  4  5  1  0  0  0
  5  6  2  0  0  0
  5  7  1  0  0  0
  7  8  1  0  0  0
  7  9  1  0  0  0
  9 10  1  0  0  0
 10 11  2  0  0  0
 10 12  1  0  0  0
 12 13  1  0  0  0
 13 14  1  0  0  0
 13 16  1  0  0  0
 14 15  2  0  0  0
 14 20  1  0  0  0
 16 17  1  0  0  0
 16 18  1  0  0  0
 17 19  1  0  0  0
 20 21  1  0  0  0
 20 26  1  0  0  0
 21 22  1  0  0  0
 21 24  1  0  0  0
 22 23  1  0  0  0
 22 27  2  0  0  0
 24 25  1  0  0  0
 25 26  1  0  0  0
  1 28  1  0  0  0
  1 29  1  0  0  0
  1 30  1  0  0  0
  2 31  1  0  0  0
  2 32  1  0  0  0
  3 33  1  0  0  0
  3 34  1  0  0  0
  4 35  1  0  0  0
  7 36  1  0  0  0
  8 37  1  0  0  0
  9 38  1  0  0  0
  9 39  1  0  0  0
 12 40  1  0  0  0
 13 41  1  0  0  0
 16 42  1  0  0  0
 17 43  1  0  0  0
 17 44  1  0  0  0
 18 45  1  0  0  0
 18 46  1  0  0  0
 18 47  1  0  0  0
 19 48  1  0  0  0
 19 49  1  0  0  0
 19 50  1  0  0  0
 21 51  1  0  0  0
 23 52  1  0  0  0
 24 53  1  0  0  0
 24 54  1  0  0  0
 25 55  1  0  0  0
 25 56  1  0  0  0
 26 57  1  0  0  0
 26 58  1  0  0  0
M  END
$$$$
