3bbt_ligand
  -I-interpret- 

 42 45  0  0  0  0  0  0  0  0999 V2000
  -43.1070   47.9300   15.8280 C   0  0  0  0  0
  -43.9820   47.9690   14.7410 C   0  0  0  0  0
  -43.6240   48.6640   13.5860 C   0  0  0  0  0
  -42.3920   49.3150   13.5180 C   0  0  0  0  0
  -42.0420   49.9880   12.3970 N   0  0  0  0  0
  -40.8590   50.6190   12.3220 C   0  0  0  0  0
  -39.9960   50.5980   13.3520 N   0  0  0  0  0
  -40.2880   49.9410   14.5040 C   0  0  0  0  0
  -39.4090   49.9240   15.5490 N   0  0  0  0  0
  -38.1570   50.5660   15.5280 C   0  0  0  0  0
  -36.9880   49.8070   15.5430 C   0  0  0  0  0
  -35.7460   50.4420   15.5290 C   0  0  0  0  0
  -35.6630   51.8380   15.5070 C   0  0  0  0  0
  -34.4460   52.4780   15.4850 O   0  0  0  0  0
  -33.4190   52.2220   16.4440 C   0  0  0  0  0
  -32.1190   51.8930   15.7400 C   0  0  0  0  0
  -31.8750   52.3430   14.4400 C   0  0  0  0  0
  -30.6750   52.0340   13.8010 C   0  0  0  0  0
  -29.7120   51.2730   14.4620 C   0  0  0  0  0
  -29.9530   50.8230   15.7590 C   0  0  0  0  0
  -29.0240   50.0900   16.3960 F   0  0  0  0  0
  -31.1520   51.1340   16.3980 C   0  0  0  0  0
  -36.8270   52.5950   15.4930 C   0  0  0  0  0
  -36.7320   54.3900   15.4600 Cl  0  0  0  0  0
  -38.0700   51.9610   15.5080 C   0  0  0  0  0
  -41.5140   49.2770   14.6050 C   0  0  0  0  0
  -41.8750   48.5820   15.7630 C   0  0  0  0  0
  -43.3873   47.3880   16.7312 H   0  0  0  0  0
  -44.9430   47.4574   14.7948 H   0  0  0  0  0
  -44.3065   48.6985   12.7368 H   0  0  0  0  0
  -40.5946   51.1566   11.4114 H   0  0  0  0  0
  -39.6752   49.4169   16.3930 H   0  0  0  0  0
  -37.0442   48.7187   15.5656 H   0  0  0  0  0
  -34.8335   49.8458   15.5353 H   0  0  0  0  0
  -33.7130   51.3762   17.0655 H   0  0  0  0  0
  -33.2768   53.1092   17.0610 H   0  0  0  0  0
  -32.6269   52.9389   13.9226 H   0  0  0  0  0
  -30.4901   52.3868   12.7864 H   0  0  0  0  0
  -28.7724   51.0304   13.9655 H   0  0  0  0  0
  -31.3340   50.7833   17.4139 H   0  0  0  0  0
  -38.9813   52.5590   15.5041 H   0  0  0  0  0
  -41.1949   48.5494   16.6142 H   0  0  0  0  0
  1  2  4  0  0  0
  1 27  4  0  0  0
  2  3  4  0  0  0
  3  4  4  0  0  0
  4  5  4  0  0  0
  4 26  4  0  0  0
  5  6  4  0  0  0
  6  7  4  0  0  0
  7  8  4  0  0  0
  8  9  1  0  0  0
  8 26  4  0  0  0
  9 10  1  0  0  0
 10 11  4  0  0  0
 10 25  4  0  0  0
 11 12  4  0  0  0
 12 13  4  0  0  0
 13 14  1  0  0  0
 13 23  4  0  0  0
 14 15  1  0  0  0
 15 16  1  0  0  0
 16 17  4  0  0  0
 16 22  4  0  0  0
 17 18  4  0  0  0
 18 19  4  0  0  0
 19 20  4  0  0  0
 20 21  1  0  0  0
 20 22  4  0  0  0
 23 24  1  0  0  0
 23 25  4  0  0  0
 26 27  4  0  0  0
  1 28  1  0  0  0
  2 29  1  0  0  0
  3 30  1  0  0  0
  6 31  1  0  0  0
  9 32  1  0  0  0
 11 33  1  0  0  0
 12 34  1  0  0  0
 15 35  1  0  0  0
 15 36  1  0  0  0
 17 37  1  0  0  0
 18 38  1  0  0  0
 19 39  1  0  0  0
 22 40  1  0  0  0
 25 41  1  0  0  0
 27 42  1  0  0  0
M  END
$$$$
