3fq7_ligand
  -I-interpret- 

 42 43  0  0  0  0  0  0  0  0999 V2000
    4.1940   15.9520  -34.3100 N   0  0  0  0  0
    4.1130   17.0600  -35.1750 C   0  0  0  0  0
    3.3250   16.9030  -36.4400 C   0  0  0  0  0
    4.7690   18.3030  -34.8130 C   0  0  0  0  0
    4.6710   19.3800  -35.5850 O   0  0  0  0  0
    5.5520   17.3250  -32.7230 C   0  0  0  0  0
    4.9080   16.1100  -33.1100 C   0  0  0  0  0
    6.0540   17.3840  -31.2860 C   0  0  0  0  0
    5.3640   18.0090  -30.0610 O   0  0  0  0  0
    6.3180   18.8620  -29.1380 P   0  0  0  0  0
    5.2950   19.3930  -28.1470 O   0  0  0  0  0
    7.3650   17.8460  -28.3030 O   0  0  0  0  0
    7.1890   19.7850  -29.9230 O   0  0  0  0  0
    5.4890   18.4590  -33.6210 C   0  0  0  0  0
    6.2020   19.8860  -33.3840 C   0  0  0  0  0
   10.1570   23.1920  -31.7350 C   0  0  0  0  0
    9.0610   23.1380  -32.8230 C   0  0  0  0  0
   10.8350   24.2040  -31.4890 O   0  0  0  0  0
    7.9910   22.1430  -32.8490 C   0  0  0  0  0
    7.1290   21.9920  -34.0370 C   0  0  0  0  0
    7.3690   22.8000  -35.0930 C   0  0  0  0  0
    8.4010   23.8820  -35.0310 C   0  0  0  0  0
    9.1250   24.0940  -33.8150 C   0  0  0  0  0
   10.4490   22.2190  -31.0080 O   0  0  0  0  0
    6.0750   21.1290  -34.1800 N   0  0  0  0  0
    3.7589   16.1031  -37.0399 H   0  0  0  0  0
    2.2921   16.6556  -36.1948 H   0  0  0  0  0
    3.3528   17.8365  -37.0021 H   0  0  0  0  0
    5.1655   20.1017  -35.1898 H   0  0  0  0  0
    4.9743   15.2562  -32.4356 H   0  0  0  0  0
    6.9180   18.0396  -31.3946 H   0  0  0  0  0
    6.0380   16.3278  -31.0169 H   0  0  0  0  0
    4.8325   18.6564  -27.7407 H   0  0  0  0  0
    6.8553   17.2258  -27.7766 H   0  0  0  0  0
    7.2438   19.6276  -33.5738 H   0  0  0  0  0
    5.7356   20.1943  -32.4483 H   0  0  0  0  0
    7.8278   21.5049  -31.9805 H   0  0  0  0  0
    6.7980   22.6606  -36.0109 H   0  0  0  0  0
    8.5995   24.5032  -35.9044 H   0  0  0  0  0
    9.7182   24.9976  -33.6749 H   0  0  0  0  0
    9.8966   21.4694  -31.2415 H   0  0  0  0  0
    5.2743   21.3247  -34.7808 H   0  0  0  0  0
  2  1  4  0  0  0
  7  1  4  0  0  0
  2  3  1  0  0  0
  4  2  4  0  0  0
  4  5  1  0  0  0
 14  4  4  0  0  0
  6  7  4  0  0  0
  6  8  1  0  0  0
 14  6  4  0  0  0
  8  9  1  0  0  0
  9 10  1  0  0  0
 10 11  1  0  0  0
 10 12  1  0  0  0
 10 13  2  0  0  0
 15 14  1  0  0  0
 25 15  1  0  0  0
 17 16  1  0  0  0
 16 18  2  0  0  0
 16 24  1  0  0  0
 19 17  4  0  0  0
 17 23  4  0  0  0
 20 19  4  0  0  0
 20 21  4  0  0  0
 20 25  1  0  0  0
 21 22  4  0  0  0
 22 23  4  0  0  0
  3 26  1  0  0  0
  3 27  1  0  0  0
  3 28  1  0  0  0
  5 29  1  0  0  0
  7 30  1  0  0  0
  8 31  1  0  0  0
  8 32  1  0  0  0
 11 33  1  0  0  0
 12 34  1  0  0  0
 15 35  1  0  0  0
 15 36  1  0  0  0
 19 37  1  0  0  0
 21 38  1  0  0  0
 22 39  1  0  0  0
 23 40  1  0  0  0
 24 41  1  0  0  0
 25 42  1  0  0  0
M  END
$$$$
