### 
### Created by X-TOOL on Mon Sep 10 21:13:01 2018
### 

@<TRIPOS>MOLECULE
3fq7_ligand
   39    40     1     0     0
SMALL
GAST_HUCK


@<TRIPOS>ATOM
      1 N1          4.1940   15.9520  -34.3100 N.ar      1 PXG        -0.3257
      2 C2          4.1130   17.0600  -35.1750 C.ar      1 PXG         0.0389
      3 C2A         3.3250   16.9030  -36.4400 C.3       1 PXG        -0.0224
      4 C3          4.7690   18.3030  -34.8130 C.ar      1 PXG         0.1136
      5 O3          4.6710   19.3800  -35.5850 O.3       1 PXG        -0.3348
      6 C5          5.5520   17.3250  -32.7230 C.ar      1 PXG         0.0025
      7 C6          4.9080   16.1100  -33.1100 C.ar      1 PXG        -0.0131
      8 C5A         6.0540   17.3840  -31.2860 C.3       1 PXG         0.1104
      9 OP4         5.3640   18.0090  -30.0610 O.3       1 PXG        -0.2651
     10 P           6.3180   18.8620  -29.1380 P.3       1 PXG         0.2035
     11 OP1         5.2950   19.3930  -28.1470 O.co2     1 PXG        -0.5536
     12 OP2         7.3650   17.8460  -28.3030 O.co2     1 PXG        -0.5536
     13 OP3         7.1890   19.7850  -29.9230 O.co2     1 PXG        -0.5536
     14 C4          5.4890   18.4590  -33.6210 C.ar      1 PXG         0.0246
     15 C4A         6.2020   19.8860  -33.3840 C.3       1 PXG         0.0585
     16 C7         10.1570   23.1920  -31.7350 C.2       1 PXG         0.0599
     17 C8          9.0610   23.1380  -32.8230 C.ar      1 PXG        -0.0016
     18 O2         10.8350   24.2040  -31.4890 O.co2     1 PXG        -0.5608
     19 C9          7.9910   22.1430  -32.8490 C.ar      1 PXG        -0.0303
     20 C10         7.1290   21.9920  -34.0370 C.ar      1 PXG         0.0429
     21 C11         7.3690   22.8000  -35.0930 C.ar      1 PXG        -0.0418
     22 C12         8.4010   23.8820  -35.0310 C.ar      1 PXG        -0.0701
     23 C13         9.1250   24.0940  -33.8150 C.ar      1 PXG        -0.0610
     24 O8         10.4490   22.2190  -31.0080 O.co2     1 PXG        -0.5608
     25 N9          6.0750   21.1290  -34.1800 N.pl3     1 PXG        -0.3123
     26 H1          3.3523   17.8445  -37.0082 H         1 PXG         0.0382
     27 H2          2.2824   16.6534  -36.1939 H         1 PXG         0.0382
     28 H3          3.7620   16.0960  -37.0465 H         1 PXG         0.0382
     29 H4          5.1603   20.0942  -35.1939 H         1 PXG         0.2454
     30 H5          4.9739   15.2609  -32.4393 H         1 PXG         0.0621
     31 H6          7.0230   17.9005  -31.3518 H         1 PXG         0.0762
     32 H7          6.2171   16.3328  -31.0059 H         1 PXG         0.0762
     33 H8          7.2786   19.6607  -33.3962 H         1 PXG         0.0659
     34 H9          5.9001   20.1786  -32.3675 H         1 PXG         0.0659
     35 H10         7.8287   21.5084  -31.9853 H         1 PXG         0.0547
     36 H11         6.8011   22.6613  -36.0059 H         1 PXG         0.0536
     37 H12         8.5984   24.4997  -35.8996 H         1 PXG         0.0590
     38 H13         9.7150   24.9926  -33.6756 H         1 PXG         0.0538
     39 H14         5.2664   21.3266  -34.7867 H         1 PXG         0.1779
@<TRIPOS>BOND
     1    2    1 ar 
     2    7    1 ar 
     3    2    3 1  
     4    4    2 ar 
     5    4    5 1  
     6   14    4 ar 
     7    6    7 ar 
     8    6    8 1  
     9   14    6 ar 
    10    8    9 1  
    11    9   10 1  
    12   10   11 ar 
    13   10   12 ar 
    14   10   13 ar 
    15   15   14 1  
    16   25   15 1  
    17   17   16 1  
    18   16   18 ar 
    19   16   24 ar 
    20   19   17 ar 
    21   17   23 ar 
    22   20   19 ar 
    23   20   21 ar 
    24   20   25 1  
    25   21   22 ar 
    26   22   23 ar 
    27    3   26 1  
    28    3   27 1  
    29    3   28 1  
    30    5   29 1  
    31    7   30 1  
    32    8   31 1  
    33    8   32 1  
    34   15   33 1  
    35   15   34 1  
    36   19   35 1  
    37   21   36 1  
    38   22   37 1  
    39   23   38 1  
    40   25   39 1  
@<TRIPOS>SUBSTRUCTURE
     1 PXG         1

