4ryl_ligand
  -I-interpret- 

 40 42  0  0  0  0  0  0  0  0999 V2000
   -4.6550   -0.4920  -13.0110 C   0  0  0  0  0
   -4.9950   -0.9240  -14.2600 C   0  0  0  0  0
   -5.6090   -0.0480  -15.1920 C   0  0  0  0  0
   -4.4750    1.1740  -11.3020 N   0  0  0  0  0
   -6.0330   -0.4330  -16.4920 C   0  0  0  0  0
   -6.8100    1.6600  -16.9820 C   0  0  0  0  0
   -6.6280    0.3820  -17.3580 N   0  0  0  0  0
   -6.4440    2.1580  -15.7650 C   0  0  0  0  0
   -5.8450    1.2880  -14.8140 C   0  0  0  0  0
   -5.4870    1.7040  -13.5070 C   0  0  0  0  0
   -3.3030    6.2690   -7.6000 C   0  0  0  0  0
   -4.5590    5.5370   -7.6500 N   0  0  0  0  0
   -3.7320    7.6320   -7.1410 C   0  0  0  0  0
   -4.9150    7.4010   -6.3410 C   0  0  0  0  0
   -5.6460    6.3140   -7.0480 C   0  0  0  0  0
   -4.4750    3.4670  -11.3640 O   0  0  0  0  0
   -4.3860    2.4180  -10.7400 C   0  0  0  0  0
   -4.1250    2.4020   -9.4330 N   0  0  0  0  0
   -3.6300    3.5860   -8.7710 C   0  0  0  0  0
   -4.8050    4.3340   -8.1820 C   0  0  0  0  0
   -5.9170    3.8630   -8.1970 O   0  0  0  0  0
   -4.9030    0.8210  -12.6120 C   0  0  0  0  0
   -4.1821   -1.1841  -12.3143 H   0  0  0  0  0
   -4.7921   -1.9562  -14.5455 H   0  0  0  0  0
   -4.1978    0.3967  -10.7025 H   0  0  0  0  0
   -5.8592   -1.4641  -16.7998 H   0  0  0  0  0
   -7.2788    2.3404  -17.6929 H   0  0  0  0  0
   -6.6088    3.2086  -15.5257 H   0  0  0  0  0
   -5.6737    2.7334  -13.2012 H   0  0  0  0  0
   -2.7837    6.2875   -8.5582 H   0  0  0  0  0
   -2.5695    5.8092   -6.9377 H   0  0  0  0  0
   -3.9351    8.2963   -7.9810 H   0  0  0  0  0
   -2.9491    8.1316   -6.5704 H   0  0  0  0  0
   -5.5215    8.3015   -6.2441 H   0  0  0  0  0
   -4.6646    7.1224   -5.3174 H   0  0  0  0  0
   -6.2759    5.7221   -6.3840 H   0  0  0  0  0
   -6.3598    6.6879   -7.7820 H   0  0  0  0  0
   -4.2760    1.5476   -8.8968 H   0  0  0  0  0
   -3.1061    4.2203   -9.4861 H   0  0  0  0  0
   -2.9333    3.3063   -7.9807 H   0  0  0  0  0
  1  2  4  0  0  0
 22  1  4  0  0  0
  2  3  4  0  0  0
  3  5  4  0  0  0
  9  3  4  0  0  0
 17  4  1  0  0  0
  4 22  1  0  0  0
  5  7  4  0  0  0
  6  7  4  0  0  0
  8  6  4  0  0  0
  9  8  4  0  0  0
 10  9  4  0  0  0
 22 10  4  0  0  0
 12 11  1  0  0  0
 11 13  1  0  0  0
 12 15  1  0  0  0
 20 12  1  0  0  0
 14 13  1  0  0  0
 15 14  1  0  0  0
 17 16  2  0  0  0
 18 17  1  0  0  0
 19 18  1  0  0  0
 19 20  1  0  0  0
 20 21  2  0  0  0
  1 23  1  0  0  0
  2 24  1  0  0  0
  4 25  1  0  0  0
  5 26  1  0  0  0
  6 27  1  0  0  0
  8 28  1  0  0  0
 10 29  1  0  0  0
 11 30  1  0  0  0
 11 31  1  0  0  0
 13 32  1  0  0  0
 13 33  1  0  0  0
 14 34  1  0  0  0
 14 35  1  0  0  0
 15 36  1  0  0  0
 15 37  1  0  0  0
 18 38  1  0  0  0
 19 39  1  0  0  0
 19 40  1  0  0  0
M  END
$$$$
