3l13_ligand
  -I-interpret- 

 64 68  0  0  0  0  0  0  0  0999 V2000
   22.7580   64.9390   20.9940 C   0  0  0  0  0
   24.2270   63.1360   21.0200 N   0  0  0  0  0
   19.4150   59.7320   24.4770 O   0  0  0  0  0
   20.6810   63.9490   22.0010 S   0  0  0  0  0
   21.5040   65.2300   21.3210 C   0  0  0  0  0
   23.3030   61.0680   21.9590 N   0  0  0  0  0
   18.4570   66.8960   15.5480 O   0  0  0  0  0
   17.8510   67.7280   16.5590 S   0  0  0  0  0
   23.0370   63.6700   21.2720 C   0  0  0  0  0
   21.1960   60.9260   22.7580 N   0  0  0  0  0
   16.5180   67.2330   16.8000 O   0  0  0  0  0
   22.0360   62.9850   21.8300 C   0  0  0  0  0
   20.0780   66.9290   20.0390 N   0  3  0  0  0
   27.7650   58.4150   23.9810 O   0  0  0  0  0
   24.4170   61.7480   21.3560 C   0  0  0  0  0
   18.6650   67.5690   17.8490 N   0  0  0  0  0
   22.1450   61.6770   22.1790 C   0  0  0  0  0
   25.6940   61.0510   21.1600 C   0  0  0  0  0
   19.7590   60.9610   22.4810 C   0  0  0  0  0
   19.0720   60.9510   23.8370 C   0  0  0  0  0
   20.7970   59.6910   24.7900 C   0  0  0  0  0
   21.6150   59.7430   23.5160 C   0  0  0  0  0
   20.9300   66.6190   21.1690 C   0  0  0  0  0
   19.7850   68.3450   19.8590 C   0  0  0  0  0
   19.5430   68.6160   18.3730 C   0  0  0  0  0
   19.0410   66.2010   18.1460 C   0  0  0  0  0
   19.0050   66.0420   19.6520 C   0  0  0  0  0
   17.7580   69.3020   15.9980 C   0  0  0  0  0
   26.6410   61.5140   20.2660 C   0  0  0  0  0
   27.8390   60.8360   20.1350 C   0  0  0  0  0
   28.0990   59.7170   20.9090 C   0  0  0  0  0
   27.1540   59.2670   21.8190 C   0  0  0  0  0
   25.9540   59.9370   21.9460 C   0  0  0  0  0
   27.4100   58.0430   22.6630 C   0  0  0  0  0
   23.4631   65.6458   20.5566 H   0  0  0  0  0
   20.7422   66.6602   19.3131 H   0  0  0  0  0
   27.9241   57.6254   24.5033 H   0  0  0  0  0
   19.4521   60.1078   21.8761 H   0  0  0  0  0
   19.4885   61.8475   21.9073 H   0  0  0  0  0
   19.3966   61.8017   24.4362 H   0  0  0  0  0
   17.9913   61.0295   23.7185 H   0  0  0  0  0
   21.0181   58.7658   25.3221 H   0  0  0  0  0
   21.0499   60.5473   25.4152 H   0  0  0  0  0
   22.6774   59.8034   23.7522 H   0  0  0  0  0
   21.4527   58.8406   22.9266 H   0  0  0  0  0
   21.8007   67.2617   21.0391 H   0  0  0  0  0
   20.2861   66.7453   22.0394 H   0  0  0  0  0
   20.6260   68.9428   20.2104 H   0  0  0  0  0
   18.8973   68.6133   20.4318 H   0  0  0  0  0
   19.0770   69.5928   18.2433 H   0  0  0  0  0
   20.4905   68.6121   17.8342 H   0  0  0  0  0
   20.0379   65.9853   17.7615 H   0  0  0  0  0
   18.3528   65.5024   17.6702 H   0  0  0  0  0
   18.0426   66.2857   20.1019 H   0  0  0  0  0
   19.1321   65.0148   19.9938 H   0  0  0  0  0
   18.7609   69.6674   15.7770 H   0  0  0  0  0
   17.1525   69.3283   15.0920 H   0  0  0  0  0
   17.3003   69.9318   16.7609 H   0  0  0  0  0
   26.4453   62.4053   19.6698 H   0  0  0  0  0
   28.5831   61.1841   19.4185 H   0  0  0  0  0
   29.0470   59.1897   20.8028 H   0  0  0  0  0
   25.2102   59.5911   22.6638 H   0  0  0  0  0
   26.5022   57.4406   22.6975 H   0  0  0  0  0
   28.2292   57.4745   22.2228 H   0  0  0  0  0
  1  5  4  0  0  0
  9  1  4  0  0  0
  2  9  4  0  0  0
 15  2  4  0  0  0
 20  3  1  0  0  0
 21  3  1  0  0  0
  4  5  4  0  0  0
 12  4  4  0  0  0
  5 23  1  0  0  0
 15  6  4  0  0  0
  6 17  4  0  0  0
  8  7  2  0  0  0
  8 11  2  0  0  0
 16  8  1  0  0  0
  8 28  1  0  0  0
  9 12  4  0  0  0
 17 10  1  0  0  0
 10 19  1  0  0  0
 10 22  1  0  0  0
 17 12  4  0  0  0
 23 13  1  0  0  0
 13 24  1  0  0  0
 13 27  1  0  0  0
 34 14  1  0  0  0
 18 15  1  0  0  0
 25 16  1  0  0  0
 26 16  1  0  0  0
 18 29  4  0  0  0
 33 18  4  0  0  0
 19 20  1  0  0  0
 22 21  1  0  0  0
 24 25  1  0  0  0
 27 26  1  0  0  0
 30 29  4  0  0  0
 31 30  4  0  0  0
 32 31  4  0  0  0
 32 33  4  0  0  0
 32 34  1  0  0  0
  1 35  1  0  0  0
 13 36  1  0  0  0
 14 37  1  0  0  0
 19 38  1  0  0  0
 19 39  1  0  0  0
 20 40  1  0  0  0
 20 41  1  0  0  0
 21 42  1  0  0  0
 21 43  1  0  0  0
 22 44  1  0  0  0
 22 45  1  0  0  0
 23 46  1  0  0  0
 23 47  1  0  0  0
 24 48  1  0  0  0
 24 49  1  0  0  0
 25 50  1  0  0  0
 25 51  1  0  0  0
 26 52  1  0  0  0
 26 53  1  0  0  0
 27 54  1  0  0  0
 27 55  1  0  0  0
 28 56  1  0  0  0
 28 57  1  0  0  0
 28 58  1  0  0  0
 29 59  1  0  0  0
 30 60  1  0  0  0
 31 61  1  0  0  0
 33 62  1  0  0  0
 34 63  1  0  0  0
 34 64  1  0  0  0
M  END
$$$$
