### 
### Created by X-TOOL on Mon Sep 10 21:13:04 2018
### 

@<TRIPOS>MOLECULE
3l13_ligand
   63    67     1     0     0
SMALL
GAST_HUCK


@<TRIPOS>ATOM
      1 C1         22.7580   64.9390   20.9940 C.2       1 JZW        -0.0460
      2 N1         24.2270   63.1360   21.0200 N.ar      1 JZW        -0.3044
      3 O1         19.4150   59.7320   24.4770 O.3       1 JZW        -0.3757
      4 S1         20.6810   63.9490   22.0010 S.3       1 JZW        -0.0160
      5 C2         21.5040   65.2300   21.3210 C.2       1 JZW         0.0093
      6 N2         23.3030   61.0680   21.9590 N.ar      1 JZW        -0.2681
      7 O2         18.4570   66.8960   15.5480 O.2       1 JZW        -0.1556
      8 S2         17.8510   67.7280   16.5590 S.o2      1 JZW         0.0384
      9 C3         23.0370   63.6700   21.2720 C.ar      1 JZW         0.0275
     10 N3         21.1960   60.9260   22.7580 N.pl3     1 JZW        -0.2854
     11 O3         16.5180   67.2330   16.8000 O.2       1 JZW        -0.1556
     12 C4         22.0360   62.9850   21.8300 C.ar      1 JZW         0.0991
     13 N4         20.0780   66.9290   20.0390 N.4       1 JZW         0.4131
     14 O4         27.7650   58.4150   23.9810 O.3       1 JZW        -0.3825
     15 C5         24.4170   61.7480   21.3560 C.ar      1 JZW         0.0855
     16 N5         18.6650   67.5690   17.8490 N.am      1 JZW        -0.2426
     17 C6         22.1450   61.6770   22.1790 C.ar      1 JZW         0.1357
     18 C7         25.6940   61.0510   21.1600 C.ar      1 JZW         0.0038
     19 C8         19.7590   60.9610   22.4810 C.3       1 JZW         0.0548
     20 C9         19.0720   60.9510   23.8370 C.3       1 JZW         0.0681
     21 C10        20.7970   59.6910   24.7900 C.3       1 JZW         0.0681
     22 C11        21.6150   59.7430   23.5160 C.3       1 JZW         0.0548
     23 C12        20.9300   66.6190   21.1690 C.3       1 JZW        -0.0535
     24 C13        19.7850   68.3450   19.8590 C.3       1 JZW        -0.0918
     25 C14        19.5430   68.6160   18.3730 C.3       1 JZW         0.0110
     26 C15        19.0410   66.2010   18.1460 C.3       1 JZW         0.0110
     27 C16        19.0050   66.0420   19.6520 C.3       1 JZW        -0.0918
     28 C17        17.7580   69.3020   15.9980 C.3       1 JZW         0.0734
     29 C18        26.6410   61.5140   20.2660 C.ar      1 JZW        -0.0549
     30 C19        27.8390   60.8360   20.1350 C.ar      1 JZW        -0.0645
     31 C20        28.0990   59.7170   20.9090 C.ar      1 JZW        -0.0552
     32 C21        27.1540   59.2670   21.8190 C.ar      1 JZW        -0.0141
     33 C22        25.9540   59.9370   21.9460 C.ar      1 JZW        -0.0447
     34 C23        27.4100   58.0430   22.6630 C.3       1 JZW         0.0787
     35 H          23.4631   65.6458   20.5566 H         1 JZW         0.0314
     36 H          27.0495   58.9208   24.3733 H         1 JZW         0.2126
     37 H          19.4521   60.1078   21.8761 H         1 JZW         0.0547
     38 H          19.4885   61.8475   21.9073 H         1 JZW         0.0547
     39 H          19.3966   61.8017   24.4362 H         1 JZW         0.0580
     40 H          17.9913   61.0295   23.7185 H         1 JZW         0.0580
     41 H          21.0181   58.7658   25.3221 H         1 JZW         0.0580
     42 H          21.0499   60.5473   25.4152 H         1 JZW         0.0580
     43 H          22.6774   59.8034   23.7522 H         1 JZW         0.0547
     44 H          21.4527   58.8406   22.9266 H         1 JZW         0.0547
     45 H          21.8007   67.2617   21.0391 H         1 JZW         0.0255
     46 H          20.2861   66.7453   22.0394 H         1 JZW         0.0255
     47 H          20.6260   68.9428   20.2104 H         1 JZW         0.0037
     48 H          18.8973   68.6133   20.4318 H         1 JZW         0.0037
     49 H          19.0770   69.5928   18.2433 H         1 JZW         0.0458
     50 H          20.4905   68.6121   17.8342 H         1 JZW         0.0458
     51 H          20.0379   65.9853   17.7615 H         1 JZW         0.0458
     52 H          18.3528   65.5024   17.6702 H         1 JZW         0.0458
     53 H          18.0426   66.2857   20.1019 H         1 JZW         0.0037
     54 H          19.1321   65.0148   19.9938 H         1 JZW         0.0037
     55 H          18.7609   69.6674   15.7770 H         1 JZW         0.0482
     56 H          17.1525   69.3283   15.0920 H         1 JZW         0.0482
     57 H          17.3003   69.9318   16.7609 H         1 JZW         0.0482
     58 H          26.4453   62.4053   19.6698 H         1 JZW         0.0595
     59 H          28.5831   61.1841   19.4185 H         1 JZW         0.0608
     60 H          29.0470   59.1897   20.8028 H         1 JZW         0.0582
     61 H          25.2102   59.5911   22.6638 H         1 JZW         0.0589
     62 H          26.5022   57.4406   22.6975 H         1 JZW         0.0721
     63 H          28.2292   57.4745   22.2228 H         1 JZW         0.0721
@<TRIPOS>BOND
     1    1    5 2  
     2    9    1 1  
     3    2    9 ar 
     4   15    2 ar 
     5   20    3 1  
     6   21    3 1  
     7    4    5 1  
     8   12    4 1  
     9    5   23 1  
    10   15    6 ar 
    11    6   17 ar 
    12    8    7 2  
    13    8   11 2  
    14   16    8 am 
    15    8   28 1  
    16    9   12 ar 
    17   17   10 1  
    18   10   19 1  
    19   10   22 1  
    20   17   12 ar 
    21   23   13 1  
    22   13   24 1  
    23   13   27 1  
    24   34   14 1  
    25   18   15 1  
    26   25   16 1  
    27   26   16 1  
    28   18   29 ar 
    29   33   18 ar 
    30   19   20 1  
    31   22   21 1  
    32   24   25 1  
    33   27   26 1  
    34   30   29 ar 
    35   31   30 ar 
    36   32   31 ar 
    37   32   33 ar 
    38   32   34 1  
    39    1   35 1  
    40   14   36 1  
    41   19   37 1  
    42   19   38 1  
    43   20   39 1  
    44   20   40 1  
    45   21   41 1  
    46   21   42 1  
    47   22   43 1  
    48   22   44 1  
    49   23   45 1  
    50   23   46 1  
    51   24   47 1  
    52   24   48 1  
    53   25   49 1  
    54   25   50 1  
    55   26   51 1  
    56   26   52 1  
    57   27   53 1  
    58   27   54 1  
    59   28   55 1  
    60   28   56 1  
    61   28   57 1  
    62   29   58 1  
    63   30   59 1  
    64   31   60 1  
    65   33   61 1  
    66   34   62 1  
    67   34   63 1  
@<TRIPOS>SUBSTRUCTURE
     1 JZW         1

