### 
### Created by X-TOOL on Mon Sep 10 21:13:17 2018
### 

@<TRIPOS>MOLECULE
4ozl_ligand
   35    37     1     0     0
SMALL
GAST_HUCK


@<TRIPOS>ATOM
      1 P          55.9730   90.4040  106.3820 P.3       1 AMP         0.2008
      2 O1P        55.6170   91.4870  105.3990 O.co2     1 AMP        -0.5537
      3 O2P        57.3730   89.8330  106.3170 O.co2     1 AMP        -0.5537
      4 O3P        55.6570   90.9190  107.7700 O.co2     1 AMP        -0.5537
      5 O5'        54.9330   89.2180  106.2390 O.3       1 AMP        -0.2734
      6 C5'        54.9200   88.4030  105.0820 C.3       1 AMP         0.1072
      7 C4'        53.5920   87.7230  104.9410 C.3       1 AMP         0.1182
      8 O4'        53.2760   87.0500  106.1880 O.3       1 AMP        -0.3365
      9 C3'        52.4110   88.6580  104.7180 C.3       1 AMP         0.1149
     10 O3'        52.2450   89.0210  103.3590 O.3       1 AMP        -0.3864
     11 C2'        51.2460   87.8600  105.2740 C.3       1 AMP         0.1385
     12 O2'        50.8530   86.8630  104.3410 O.3       1 AMP        -0.3836
     13 C1'        51.8990   87.1650  106.4620 C.3       1 AMP         0.2010
     14 N9         51.7380   87.9080  107.7300 N.pl3     1 AMP        -0.1919
     15 C8         52.6670   88.6990  108.3170 C.2       1 AMP         0.1123
     16 N7         52.2110   89.1870  109.5010 N.2       1 AMP        -0.2958
     17 C5         50.9680   88.6720  109.6870 C.ar      1 AMP         0.1045
     18 C6         49.9180   88.7820  110.7110 C.ar      1 AMP         0.1298
     19 N6         50.1160   89.5330  111.8270 N.pl3     1 AMP        -0.3152
     20 N1         48.7780   88.0870  110.5130 N.ar      1 AMP        -0.2698
     21 C2         48.5710   87.3320  109.4140 C.ar      1 AMP         0.0533
     22 N3         49.4820   87.2000  108.4320 N.ar      1 AMP        -0.2714
     23 C4         50.6720   87.8380  108.5210 C.ar      1 AMP         0.1613
     24 H          55.7103   87.6424  105.1647 H         1 AMP         0.0639
     25 H          55.1038   89.0279  104.1956 H         1 AMP         0.0639
     26 H          53.6526   87.0025  104.1120 H         1 AMP         0.0650
     27 H          52.5457   89.5809  105.3013 H         1 AMP         0.0648
     28 H          53.0276   89.4640  103.0529 H         1 AMP         0.2100
     29 H          50.3957   88.4959  105.5614 H         1 AMP         0.0676
     30 H          50.1239   86.3683  104.6962 H         1 AMP         0.2101
     31 H          51.4556   86.1651  106.5782 H         1 AMP         0.0996
     32 H          53.6481   88.9153  107.8969 H         1 AMP         0.1349
     33 H          49.3745   89.6037  112.5384 H         1 AMP         0.1820
     34 H          51.0075   90.0312  111.9610 H         1 AMP         0.1820
     35 H          47.6273   86.8075  109.3175 H         1 AMP         0.0996
@<TRIPOS>BOND
     1    1    2 ar 
     2    1    3 ar 
     3    1    4 ar 
     4    1    5 1  
     5    5    6 1  
     6    6    7 1  
     7    7    8 1  
     8    7    9 1  
     9    8   13 1  
    10    9   10 1  
    11    9   11 1  
    12   11   12 1  
    13   11   13 1  
    14   13   14 1  
    15   14   15 1  
    16   14   23 1  
    17   15   16 2  
    18   16   17 1  
    19   17   18 ar 
    20   17   23 ar 
    21   18   19 1  
    22   18   20 ar 
    23   20   21 ar 
    24   21   22 ar 
    25   22   23 ar 
    26    6   24 1  
    27    6   25 1  
    28    7   26 1  
    29    9   27 1  
    30   10   28 1  
    31   11   29 1  
    32   12   30 1  
    33   13   31 1  
    34   15   32 1  
    35   19   33 1  
    36   19   34 1  
    37   21   35 1  
@<TRIPOS>SUBSTRUCTURE
     1 AMP         1

