4ozl_ligand
  -I-interpret- 

 37 39  0  0  0  0  0  0  0  0999 V2000
   55.9730   90.4040  106.3820 P   0  0  0  0  0
   55.6170   91.4870  105.3990 O   0  0  0  0  0
   57.3730   89.8330  106.3170 O   0  0  0  0  0
   55.6570   90.9190  107.7700 O   0  0  0  0  0
   54.9330   89.2180  106.2390 O   0  0  0  0  0
   54.9200   88.4030  105.0820 C   0  0  0  0  0
   53.5920   87.7230  104.9410 C   0  0  0  0  0
   53.2760   87.0500  106.1880 O   0  0  0  0  0
   52.4110   88.6580  104.7180 C   0  0  0  0  0
   52.2450   89.0210  103.3590 O   0  0  0  0  0
   51.2460   87.8600  105.2740 C   0  0  0  0  0
   50.8530   86.8630  104.3410 O   0  0  0  0  0
   51.8990   87.1650  106.4620 C   0  0  0  0  0
   51.7380   87.9080  107.7300 N   0  0  0  0  0
   52.6670   88.6990  108.3170 C   0  0  0  0  0
   52.2110   89.1870  109.5010 N   0  0  0  0  0
   50.9680   88.6720  109.6870 C   0  0  0  0  0
   49.9180   88.7820  110.7110 C   0  0  0  0  0
   50.1160   89.5330  111.8270 N   0  0  0  0  0
   48.7780   88.0870  110.5130 N   0  0  0  0  0
   48.5710   87.3320  109.4140 C   0  0  0  0  0
   49.4820   87.2000  108.4320 N   0  0  0  0  0
   50.6720   87.8380  108.5210 C   0  0  0  0  0
   57.4729   89.1561  106.9904 H   0  0  0  0  0
   55.8757   90.2450  108.4177 H   0  0  0  0  0
   55.6999   87.6467  105.1702 H   0  0  0  0  0
   55.0960   89.0262  104.2052 H   0  0  0  0  0
   53.7072   87.0731  104.0735 H   0  0  0  0  0
   52.5306   89.6249  105.2068 H   0  0  0  0  0
   51.4902   89.6083  103.2757 H   0  0  0  0  0
   50.3683   88.4632  105.5061 H   0  0  0  0  0
   50.1162   86.3631  104.6999 H   0  0  0  0  0
   51.4137   86.1975  106.5907 H   0  0  0  0  0
   53.6490   88.9155  107.8965 H   0  0  0  0  0
   50.9988   90.0263  111.9597 H   0  0  0  0  0
   49.3817   89.6031  112.5315 H   0  0  0  0  0
   47.6221   86.8046  109.3170 H   0  0  0  0  0
  1  2  2  0  0  0
  1  3  1  0  0  0
  1  4  1  0  0  0
  1  5  1  0  0  0
  5  6  1  0  0  0
  6  7  1  0  0  0
  7  8  1  0  0  0
  7  9  1  0  0  0
  8 13  1  0  0  0
  9 10  1  0  0  0
  9 11  1  0  0  0
 11 12  1  0  0  0
 11 13  1  0  0  0
 13 14  1  0  0  0
 14 15  4  0  0  0
 14 23  4  0  0  0
 15 16  4  0  0  0
 16 17  4  0  0  0
 17 18  4  0  0  0
 17 23  4  0  0  0
 18 19  1  0  0  0
 18 20  4  0  0  0
 20 21  4  0  0  0
 21 22  4  0  0  0
 22 23  4  0  0  0
  3 24  1  0  0  0
  4 25  1  0  0  0
  6 26  1  0  0  0
  6 27  1  0  0  0
  7 28  1  0  0  0
  9 29  1  0  0  0
 10 30  1  0  0  0
 11 31  1  0  0  0
 12 32  1  0  0  0
 13 33  1  0  0  0
 15 34  1  0  0  0
 19 35  1  0  0  0
 19 36  1  0  0  0
 21 37  1  0  0  0
M  END
$$$$
