5gvm_ligand
  -I-interpret- 

 58 61  0  0  0  0  0  0  0  0999 V2000
   39.9410   45.4310   21.9890 O   0  0  0  0  0
   38.8570   45.5510   22.6090 C   0  0  0  0  0
   38.2930   46.6640   22.7390 O   0  0  0  0  0
   38.2280   44.3040   23.2100 C   0  0  0  0  0
   36.7520   44.5260   23.4750 C   0  0  0  0  0
   35.8400   44.5030   22.4130 C   0  0  0  0  0
   36.3170   44.7650   24.7730 C   0  0  0  0  0
   34.9660   45.0010   25.0050 C   0  0  0  0  0
   34.0500   44.9700   23.9430 C   0  0  0  0  0
   34.4790   44.6950   22.6490 C   0  0  0  0  0
   33.4830   44.7140   21.5530 C   0  0  0  0  0
   33.7490   45.5130   20.4500 C   0  0  0  0  0
   32.8310   45.6060   19.4070 C   0  0  0  0  0
   33.1290   46.4790   18.2190 C   0  0  0  0  0
   32.2400   46.4280   17.2720 F   0  0  0  0  0
   33.2910   47.7120   18.6620 F   0  0  0  0  0
   34.2140   46.0630   17.6290 F   0  0  0  0  0
   31.6330   44.9090   19.4770 C   0  0  0  0  0
   32.2830   44.0030   21.6180 C   0  0  0  0  0
   31.3230   44.0980   20.5850 C   0  0  0  0  0
   30.0200   43.2930   20.5700 C   0  0  0  0  0
   28.7650   43.9980   19.9970 C   0  0  0  0  0
   27.4770   43.1540   20.1000 C   0  0  0  0  0
   28.4830   45.4070   20.5630 C   0  0  0  0  0
   30.3530   42.0950   19.6620 C   0  0  0  0  0
   30.7890   42.3140   18.4970 C   0  0  0  0  0
   31.1860   42.5280   17.4360 N   0  0  0  0  0
   30.2000   40.8030   20.0210 C   0  0  0  0  0
   30.4870   39.7690   19.2310 N   0  0  0  0  0
   29.7450   42.7880   21.9420 C   0  0  0  0  0
   29.5890   43.4280   23.2740 C   0  0  0  0  0
   29.6380   44.8920   23.6220 C   0  0  0  0  0
   29.3870   42.4160   24.1390 N   0  0  0  0  0
   29.4310   41.1350   23.5650 N   0  0  0  0  0
   29.6280   41.3770   22.2810 C   0  0  0  0  0
   29.7190   40.4400   21.3170 O   0  0  0  0  0
   40.2126   44.5103   21.9969 H   0  0  0  0  0
   38.7258   44.0764   24.1526 H   0  0  0  0  0
   38.3405   43.4780   22.5077 H   0  0  0  0  0
   36.1955   44.3342   21.3965 H   0  0  0  0  0
   37.0267   44.7675   25.6003 H   0  0  0  0  0
   34.6176   45.2109   26.0163 H   0  0  0  0  0
   32.9942   45.1629   24.1334 H   0  0  0  0  0
   34.6834   46.0719   20.3997 H   0  0  0  0  0
   30.9183   44.9911   18.6582 H   0  0  0  0  0
   32.0835   43.3648   22.4788 H   0  0  0  0  0
   29.0356   44.1150   18.9476 H   0  0  0  0  0
   27.6083   42.2241   19.5467 H   0  0  0  0  0
   27.2739   42.9297   21.1472 H   0  0  0  0  0
   26.6423   43.7143   19.6786 H   0  0  0  0  0
   28.3365   45.3414   21.6411 H   0  0  0  0  0
   29.3297   46.0593   20.3491 H   0  0  0  0  0
   27.5844   45.8112   20.0969 H   0  0  0  0  0
   30.8466   39.9303   18.2902 H   0  0  0  0  0
   30.3471   38.8162   19.5671 H   0  0  0  0  0
   30.6105   45.2980   23.3435 H   0  0  0  0  0
   28.8536   45.4196   23.0793 H   0  0  0  0  0
   29.4852   45.0146   24.6943 H   0  0  0  0  0
  1  2  1  0  0  0
  2  3  2  0  0  0
  2  4  1  0  0  0
  4  5  1  0  0  0
  5  6  4  0  0  0
  5  7  4  0  0  0
  6 10  4  0  0  0
  7  8  4  0  0  0
  8  9  4  0  0  0
  9 10  4  0  0  0
 10 11  1  0  0  0
 11 12  4  0  0  0
 11 19  4  0  0  0
 12 13  4  0  0  0
 13 14  1  0  0  0
 13 18  4  0  0  0
 14 15  1  0  0  0
 14 16  1  0  0  0
 14 17  1  0  0  0
 18 20  4  0  0  0
 19 20  4  0  0  0
 20 21  1  0  0  0
 21 22  1  0  0  0
 21 25  1  0  0  0
 21 30  1  0  0  0
 22 23  1  0  0  0
 22 24  1  0  0  0
 25 26  1  0  0  0
 25 28  2  0  0  0
 26 27  3  0  0  0
 28 29  1  0  0  0
 28 36  1  0  0  0
 30 31  4  0  0  0
 30 35  4  0  0  0
 31 32  1  0  0  0
 31 33  4  0  0  0
 33 34  4  0  0  0
 34 35  4  0  0  0
 35 36  1  0  0  0
  1 37  1  0  0  0
  4 38  1  0  0  0
  4 39  1  0  0  0
  6 40  1  0  0  0
  7 41  1  0  0  0
  8 42  1  0  0  0
  9 43  1  0  0  0
 12 44  1  0  0  0
 18 45  1  0  0  0
 19 46  1  0  0  0
 22 47  1  0  0  0
 23 48  1  0  0  0
 23 49  1  0  0  0
 23 50  1  0  0  0
 24 51  1  0  0  0
 24 52  1  0  0  0
 24 53  1  0  0  0
 29 54  1  0  0  0
 29 55  1  0  0  0
 32 56  1  0  0  0
 32 57  1  0  0  0
 32 58  1  0  0  0
M  END
$$$$
