3hky_ligand
  -I-interpret- 

 73 77  0  0  0  0  0  0  0  0999 V2000
  -20.9700   -6.8890   30.0110 C   0  0  0  0  0
  -21.2050   -7.9020   29.1370 C   0  0  0  0  0
  -22.4730   -8.0580   28.6180 C   0  0  0  0  0
  -23.5340   -7.1800   28.9510 C   0  0  0  0  0
  -23.2880   -6.1760   29.8640 C   0  0  0  0  0
  -21.9900   -6.0320   30.3520 C   0  0  0  0  0
  -25.9050   -7.5850   29.4360 C   0  0  0  0  0
  -26.1560   -3.8790   30.8510 C   0  0  0  0  0
  -25.3220   -8.1380   31.8820 C   0  0  0  0  0
  -25.4360   -8.5240   30.5520 C   0  0  0  0  0
  -24.8830   -9.0210   32.8360 C   0  0  0  0  0
  -24.5360  -10.3200   32.4850 C   0  0  0  0  0
  -25.0630   -9.8180   30.2090 C   0  0  0  0  0
  -27.5460   -4.7180   32.7690 C   0  0  0  0  0
  -26.4480  -11.6600   34.9110 C   0  0  0  0  0
  -21.7470   -5.0430   31.2170 O   0  0  0  0  0
  -24.9730   -7.4020   27.0590 C   0  0  0  0  0
  -24.0840   -6.8280   26.0350 C   0  0  0  0  0
  -23.6240   -5.5390   25.9520 C   0  0  0  0  0
  -22.8310   -6.5350   24.3970 C   0  0  0  0  0
  -22.0150   -6.7640   23.1450 C   0  0  0  0  0
  -23.9460   -4.3930   26.8730 C   0  0  0  0  0
  -25.1450  -10.2140   28.9500 F   0  0  0  0  0
  -24.6120  -10.7000   31.1520 C   0  0  0  0  0
  -24.0910  -11.2300   33.3940 O   0  0  0  0  0
  -24.0310  -11.0530   34.8010 C   0  0  0  0  0
  -25.4070  -10.9840   35.4290 C   0  0  0  0  0
  -25.6390  -10.1680   36.6650 C   0  0  0  0  0
  -24.8310   -7.4100   28.4360 N   0  0  0  0  0
  -23.5490   -7.4900   25.0150 N   0  0  0  0  0
  -22.9170   -5.4460   24.9610 O   0  0  0  0  0
  -25.9560   -7.9970   26.6830 O   0  0  0  0  0
  -26.3580   -6.2160   29.8950 C   0  0  0  0  0
  -28.0750   -5.9750   29.7770 S   0  0  0  0  0
  -28.6580   -7.0540   30.5320 O   0  0  0  0  0
  -28.3570   -5.9640   28.3620 O   0  0  0  0  0
  -28.5470   -4.3920   30.4660 C   0  0  0  0  0
  -27.5460   -3.8600   31.5060 C   0  0  0  0  0
  -27.9070   -2.4120   31.8310 C   0  0  0  0  0
  -25.5880   -5.1890   30.3150 C   0  0  0  0  0
  -24.1990   -5.2020   30.2910 N   0  0  0  0  0
  -19.9770   -6.7560   30.4403 H   0  0  0  0  0
  -20.4027   -8.5818   28.8500 H   0  0  0  0  0
  -22.6649   -8.8819   27.9306 H   0  0  0  0  0
  -26.7813   -8.0750   29.0117 H   0  0  0  0  0
  -25.4727   -3.5906   31.6498 H   0  0  0  0  0
  -26.2593   -3.2446   29.9707 H   0  0  0  0  0
  -25.5848   -7.1204   32.1712 H   0  0  0  0  0
  -24.8060   -8.7017   33.8753 H   0  0  0  0  0
  -27.2875   -5.7446   32.5093 H   0  0  0  0  0
  -26.8135   -4.3247   33.4739 H   0  0  0  0  0
  -28.5370   -4.6951   33.2222 H   0  0  0  0  0
  -26.3106  -12.2737   34.0207 H   0  0  0  0  0
  -27.4290  -11.5941   35.3815 H   0  0  0  0  0
  -22.5497   -4.5345   31.3537 H   0  0  0  0  0
  -21.2558   -7.5212   23.3411 H   0  0  0  0  0
  -22.6702   -7.1038   22.3429 H   0  0  0  0  0
  -21.5327   -5.8316   22.8516 H   0  0  0  0  0
  -25.0206   -4.2110   26.8624 H   0  0  0  0  0
  -23.6283   -4.6420   27.8855 H   0  0  0  0  0
  -23.4214   -3.4990   26.5357 H   0  0  0  0  0
  -24.3112  -11.7049   30.8558 H   0  0  0  0  0
  -23.5191  -10.1120   35.0025 H   0  0  0  0  0
  -23.5063  -11.9077   35.2279 H   0  0  0  0  0
  -26.3954   -9.4099   36.4617 H   0  0  0  0  0
  -25.9820  -10.8187   37.4694 H   0  0  0  0  0
  -24.7077   -9.6841   36.9595 H   0  0  0  0  0
  -29.5057   -4.5231   30.9677 H   0  0  0  0  0
  -28.5850   -3.6737   29.6470 H   0  0  0  0  0
  -27.1662   -1.9991   32.5157 H   0  0  0  0  0
  -27.9197   -1.8269   30.9114 H   0  0  0  0  0
  -28.8918   -2.3802   32.2970 H   0  0  0  0  0
  -23.7656   -4.3505   30.6480 H   0  0  0  0  0
  2  1  4  0  0  0
  6  1  4  0  0  0
  3  2  4  0  0  0
  4  3  4  0  0  0
  4  5  4  0  0  0
 29  4  1  0  0  0
  5  6  4  0  0  0
  5 41  1  0  0  0
  6 16  1  0  0  0
  7 10  1  0  0  0
  7 29  1  0  0  0
 33  7  1  0  0  0
  8 38  1  0  0  0
 40  8  1  0  0  0
 10  9  4  0  0  0
  9 11  4  0  0  0
 10 13  4  0  0  0
 11 12  4  0  0  0
 24 12  4  0  0  0
 12 25  1  0  0  0
 13 23  1  0  0  0
 13 24  4  0  0  0
 38 14  1  0  0  0
 27 15  2  0  0  0
 17 18  1  0  0  0
 29 17  1  0  0  0
 17 32  2  0  0  0
 18 19  4  0  0  0
 18 30  4  0  0  0
 19 22  1  0  0  0
 19 31  4  0  0  0
 20 21  1  0  0  0
 30 20  4  0  0  0
 20 31  4  0  0  0
 25 26  1  0  0  0
 26 27  1  0  0  0
 27 28  1  0  0  0
 33 34  1  0  0  0
 33 40  2  0  0  0
 34 35  2  0  0  0
 34 36  2  0  0  0
 34 37  1  0  0  0
 37 38  1  0  0  0
 38 39  1  0  0  0
 40 41  1  0  0  0
  1 42  1  0  0  0
  2 43  1  0  0  0
  3 44  1  0  0  0
  7 45  1  0  0  0
  8 46  1  0  0  0
  8 47  1  0  0  0
  9 48  1  0  0  0
 11 49  1  0  0  0
 14 50  1  0  0  0
 14 51  1  0  0  0
 14 52  1  0  0  0
 15 53  1  0  0  0
 15 54  1  0  0  0
 16 55  1  0  0  0
 21 56  1  0  0  0
 21 57  1  0  0  0
 21 58  1  0  0  0
 22 59  1  0  0  0
 22 60  1  0  0  0
 22 61  1  0  0  0
 24 62  1  0  0  0
 26 63  1  0  0  0
 26 64  1  0  0  0
 28 65  1  0  0  0
 28 66  1  0  0  0
 28 67  1  0  0  0
 37 68  1  0  0  0
 37 69  1  0  0  0
 39 70  1  0  0  0
 39 71  1  0  0  0
 39 72  1  0  0  0
 41 73  1  0  0  0
M  END
$$$$
