3n7h_ligand
  -I-interpret- 

 31 31  0  0  0  0  0  0  0  0999 V2000
   13.7050    4.1300   14.6610 C   0  0  0  0  0
   12.8460    3.0480   14.4360 C   0  0  0  0  0
   15.0550    3.8920   14.9340 C   0  0  0  0  0
   13.3410    1.7470   14.4470 C   0  0  0  0  0
   14.6900    1.5140   14.6970 C   0  0  0  0  0
   15.5510    2.5870   14.9370 C   0  0  0  0  0
   12.4140    0.5620   14.1720 C   0  0  0  0  0
   13.1370    5.5550   14.6580 C   0  0  0  0  0
   12.1740    8.0630   12.8880 C   0  0  0  0  0
   15.0260    6.3000   13.2120 C   0  0  0  0  0
   13.2470    7.9070   13.9640 C   0  0  0  0  0
   16.1320    7.1520   13.7660 C   0  0  0  0  0
   13.7580    6.5210   13.9260 N   0  0  0  0  0
   12.1130    5.7820   15.2990 O   0  0  0  0  0
   11.7863    3.2247   14.2516 H   0  0  0  0  0
   15.7223    4.7276   15.1451 H   0  0  0  0  0
   15.0746    0.4941   14.7055 H   0  0  0  0  0
   16.6090    2.4058   15.1264 H   0  0  0  0  0
   11.6192    0.5434   14.9177 H   0  0  0  0  0
   11.9790    0.6657   13.1779 H   0  0  0  0  0
   12.9855   -0.3647   14.2251 H   0  0  0  0  0
   12.6086    7.8547   11.9104 H   0  0  0  0  0
   11.3616    7.3628   13.0826 H   0  0  0  0  0
   11.7888    9.0825   12.9060 H   0  0  0  0  0
   15.3077    5.2535   13.3286 H   0  0  0  0  0
   14.8807    6.5646   12.1646 H   0  0  0  0  0
   12.8211    8.1179   14.9449 H   0  0  0  0  0
   14.0616    8.6072   13.7789 H   0  0  0  0  0
   15.8621    8.2036   13.6692 H   0  0  0  0  0
   16.2834    6.9098   14.8179 H   0  0  0  0  0
   17.0503    6.9587   13.2115 H   0  0  0  0  0
  1  2  4  0  0  0
  1  3  4  0  0  0
  8  1  1  0  0  0
  2  4  4  0  0  0
  3  6  4  0  0  0
  4  5  4  0  0  0
  4  7  1  0  0  0
  6  5  4  0  0  0
 13  8  1  0  0  0
  8 14  2  0  0  0
 11  9  1  0  0  0
 10 12  1  0  0  0
 13 10  1  0  0  0
 11 13  1  0  0  0
  2 15  1  0  0  0
  3 16  1  0  0  0
  5 17  1  0  0  0
  6 18  1  0  0  0
  7 19  1  0  0  0
  7 20  1  0  0  0
  7 21  1  0  0  0
  9 22  1  0  0  0
  9 23  1  0  0  0
  9 24  1  0  0  0
 10 25  1  0  0  0
 10 26  1  0  0  0
 11 27  1  0  0  0
 11 28  1  0  0  0
 12 29  1  0  0  0
 12 30  1  0  0  0
 12 31  1  0  0  0
M  END
$$$$
