6efj_ligand
  -I-interpret- 

 35 37  0  0  0  0  0  0  0  0999 V2000
   49.2960   11.7830   46.8900 C   0  0  0  0  0
   47.1090   10.6600   46.0530 C   0  0  0  0  0
   49.9260   13.1710   47.0610 C   0  0  0  0  0
   49.7620   14.2260   44.7660 C   0  0  0  0  0
   49.8550   13.1580   43.8910 C   0  0  0  0  0
   50.3800   13.3210   42.6200 C   0  0  0  0  0
   50.8010   14.5670   42.2010 C   0  0  0  0  0
   50.7040   15.6400   43.0720 C   0  0  0  0  0
   50.1940   15.4770   44.3510 C   0  0  0  0  0
   51.4210   13.2850   46.7530 C   0  0  0  0  0
   52.0920   12.3400   45.9970 C   0  0  0  0  0
   53.4380   12.4820   45.7060 C   0  0  0  0  0
   54.1270   13.5800   46.1800 C   0  0  0  0  0
   53.4660   14.5360   46.9370 C   0  0  0  0  0
   52.1140   14.3940   47.2170 C   0  0  0  0  0
   47.9610   11.8010   46.3160 N   0  0  0  0  0
   45.9290   10.7560   45.4760 N   0  0  0  0  0
   45.3840    9.5130   45.3930 N   0  0  0  0  0
   46.2720    8.6490   45.9560 N   0  0  0  0  0
   47.3440    9.3930   46.3530 N   0  0  0  0  0
   49.2270   14.0320   46.1130 N   0  0  0  0  0
   49.8370   10.7660   47.2030 O   0  0  0  0  0
   49.8309   13.4340   48.1145 H   0  0  0  0  0
   49.5098   12.1736   44.2070 H   0  0  0  0  0
   50.4608   12.4650   41.9501 H   0  0  0  0  0
   51.2045   14.7049   41.1979 H   0  0  0  0  0
   51.0335   16.6269   42.7470 H   0  0  0  0  0
   50.1328   16.3291   45.0280 H   0  0  0  0  0
   51.5519   11.4696   45.6245 H   0  0  0  0  0
   53.9510   11.7306   45.1057 H   0  0  0  0  0
   55.1883   13.6956   45.9599 H   0  0  0  0  0
   54.0104   15.4021   47.3134 H   0  0  0  0  0
   51.5962   15.1542   47.8018 H   0  0  0  0  0
   47.5832   12.7165   46.0719 H   0  0  0  0  0
   48.3638   14.4993   46.3903 H   0  0  0  0  0
  3  1  1  0  0  0
  1 16  1  0  0  0
  1 22  2  0  0  0
 16  2  1  0  0  0
  2 17  4  0  0  0
  2 20  4  0  0  0
  3 10  1  0  0  0
 21  3  1  0  0  0
  4  5  4  0  0  0
  4  9  4  0  0  0
  4 21  1  0  0  0
  5  6  4  0  0  0
  6  7  4  0  0  0
  7  8  4  0  0  0
  8  9  4  0  0  0
 10 11  4  0  0  0
 10 15  4  0  0  0
 11 12  4  0  0  0
 12 13  4  0  0  0
 13 14  4  0  0  0
 14 15  4  0  0  0
 17 18  4  0  0  0
 18 19  4  0  0  0
 19 20  4  0  0  0
  3 23  1  0  0  0
  5 24  1  0  0  0
  6 25  1  0  0  0
  7 26  1  0  0  0
  8 27  1  0  0  0
  9 28  1  0  0  0
 11 29  1  0  0  0
 12 30  1  0  0  0
 13 31  1  0  0  0
 14 32  1  0  0  0
 15 33  1  0  0  0
 16 34  1  0  0  0
 21 35  1  0  0  0
M  END
$$$$
