### 
### Created by X-TOOL on Mon Sep 10 21:13:11 2018
### 

@<TRIPOS>MOLECULE
4djh_ligand
   74    77     1     0     0
SMALL
GAST_HUCK


@<TRIPOS>ATOM
      1 C1          3.2120  -20.4100   59.6680 C.3       1 JDC        -0.0023
      2 N2          2.9250  -21.7880   59.5580 N.4       1 JDC         0.2581
      3 C3          2.2000  -22.0810   58.3660 C.3       1 JDC         0.0749
      4 C4          0.8340  -21.4170   58.3950 C.3       1 JDC         0.0344
      5 C4A         0.9410  -19.9830   58.8450 C.ar      1 JDC        -0.0390
      6 C5         -0.1620  -19.0560   58.6390 C.ar      1 JDC        -0.0747
      7 C6         -0.0500  -17.7050   59.0610 C.ar      1 JDC        -0.0468
      8 C7          1.1110  -17.2580   59.6700 C.ar      1 JDC         0.0741
      9 O7          1.2310  -15.9780   60.0740 O.3       1 JDC        -0.3393
     10 C8          2.1660  -18.1470   59.8630 C.ar      1 JDC        -0.0335
     11 C8A         2.0500  -19.5400   59.4310 C.ar      1 JDC        -0.0047
     12 C1A         2.1110  -23.5980   58.1900 C.2       1 JDC         0.2264
     13 O1          1.7270  -24.3180   59.1200 O.2       1 JDC        -0.3907
     14 N2A         2.5030  -24.1780   56.9210 N.am      1 JDC        -0.2809
     15 C2A         2.4450  -25.5850   56.7110 C.3       1 JDC         0.0261
     16 C3A         1.6140  -25.7430   55.4290 C.3       1 JDC        -0.0256
     17 C3D         0.1930  -25.0530   55.5450 C.3       1 JDC        -0.0606
     18 C3B         1.5760  -27.1070   54.8640 C.3       1 JDC        -0.0606
     19 C4D         3.8110  -26.2230   56.5650 C.3       1 JDC        -0.0893
     20 N11         4.6780  -26.2930   57.8350 N.4       1 JDC         0.4035
     21 C21         4.0430  -27.0360   58.9030 C.3       1 JDC        -0.1174
     22 C31         4.6790  -26.8460   60.2290 C.3       1 JDC        -0.0810
     23 C34         4.3120  -25.4010   60.7390 C.3       1 JDC        -0.0713
     24 C41         6.1290  -27.0320   60.2020 C.3       1 JDC        -0.0432
     25 C51         6.7520  -26.2720   59.1520 C.3       1 JDC        -0.0901
     26 C61         6.1150  -26.4610   57.8180 C.3       1 JDC        -0.1200
     27 C4E         6.4230  -28.4780   59.8440 C.3       1 JDC        -0.0834
     28 C1C         6.7210  -26.8030   61.5930 C.ar      1 JDC        -0.0564
     29 C2C         6.1110  -27.3820   62.7090 C.ar      1 JDC        -0.0119
     30 C3C         6.6580  -27.1750   63.9920 C.ar      1 JDC         0.1156
     31 O3C         6.0210  -27.7740   65.1510 O.3       1 JDC        -0.3262
     32 C4C         7.8390  -26.3720   64.1480 C.ar      1 JDC        -0.0039
     33 C5C         8.4410  -25.8010   63.0380 C.ar      1 JDC        -0.0394
     34 C6C         7.8990  -26.0050   61.7540 C.ar      1 JDC        -0.0491
     35 H           3.9564  -20.1717   58.9083 H         1 JDC         0.0963
     36 H           3.5503  -20.2292   60.6883 H         1 JDC         0.0963
     37 H           2.3542  -22.0626   60.3575 H         1 JDC         0.2050
     38 H           3.8072  -22.2993   59.5319 H         1 JDC         0.2050
     39 H           2.7242  -21.6734   57.5016 H         1 JDC         0.1119
     40 H           0.1971  -21.9571   59.0956 H         1 JDC         0.0472
     41 H           0.4133  -21.4379   57.3897 H         1 JDC         0.0472
     42 H          -1.0779  -19.4004   58.1587 H         1 JDC         0.0511
     43 H          -0.8809  -17.0169   58.9051 H         1 JDC         0.0468
     44 H           0.5483  -15.7821   60.7199 H         1 JDC         0.2457
     45 H           3.0840  -17.8025   60.3390 H         1 JDC         0.0464
     46 H           2.8249  -23.5699   56.1680 H         1 JDC         0.1855
     47 H           2.0053  -26.0933   57.5691 H         1 JDC         0.0538
     48 H           2.1652  -25.1871   54.6706 H         1 JDC         0.0317
     49 H          -0.3630  -25.5050   56.3663 H         1 JDC         0.0233
     50 H           0.3223  -23.9875   55.7351 H         1 JDC         0.0233
     51 H          -0.3548  -25.1933   54.6131 H         1 JDC         0.0233
     52 H           2.5890  -27.4251   54.6174 H         1 JDC         0.0233
     53 H           1.1474  -27.7906   55.5968 H         1 JDC         0.0233
     54 H           0.9637  -27.1084   53.9623 H         1 JDC         0.0233
     55 H           4.3604  -25.5999   55.8593 H         1 JDC         0.0040
     56 H           3.6306  -27.2556   56.2663 H         1 JDC         0.0040
     57 H           4.1236  -28.0941   58.6538 H         1 JDC         0.0012
     58 H           3.0168  -26.6770   58.9816 H         1 JDC         0.0012
     59 H           4.2986  -27.6090   60.9082 H         1 JDC         0.0188
     60 H           4.6858  -24.6614   60.0310 H         1 JDC         0.0224
     61 H           3.2290  -25.3108   60.8228 H         1 JDC         0.0224
     62 H           4.7683  -25.2347   61.7148 H         1 JDC         0.0224
     63 H           7.7845  -26.6120   59.0716 H         1 JDC         0.0154
     64 H           6.6576  -25.2177   59.4122 H         1 JDC         0.0154
     65 H           6.5252  -25.7044   57.1492 H         1 JDC         0.0009
     66 H           6.3215  -27.4824   57.4984 H         1 JDC         0.0009
     67 H           5.9772  -29.1339   60.5917 H         1 JDC         0.0138
     68 H           6.0005  -28.7016   58.8644 H         1 JDC         0.0138
     69 H           7.5017  -28.6329   59.8198 H         1 JDC         0.0138
     70 H           5.2155  -27.9915   62.5881 H         1 JDC         0.0755
     71 H           6.5122  -27.5393   65.9417 H         1 JDC         0.2487
     72 H           8.2617  -26.2118   65.1398 H         1 JDC         0.0793
     73 H           9.3369  -25.1920   63.1590 H         1 JDC         0.0674
     74 H           8.3762  -25.5555   60.8832 H         1 JDC         0.0769
@<TRIPOS>BOND
     1    1    2 1  
     2    1   11 1  
     3    2    3 1  
     4    3    4 1  
     5    3   12 1  
     6    4    5 1  
     7    5    6 ar 
     8    5   11 ar 
     9    6    7 ar 
    10    7    8 ar 
    11    8    9 1  
    12    8   10 ar 
    13   10   11 ar 
    14   12   13 2  
    15   12   14 am 
    16   14   15 1  
    17   15   16 1  
    18   15   19 1  
    19   16   17 1  
    20   16   18 1  
    21   19   20 1  
    22   20   21 1  
    23   20   26 1  
    24   21   22 1  
    25   22   23 1  
    26   22   24 1  
    27   24   25 1  
    28   24   27 1  
    29   24   28 1  
    30   25   26 1  
    31   28   29 ar 
    32   28   34 ar 
    33   29   30 ar 
    34   30   31 1  
    35   30   32 ar 
    36   32   33 ar 
    37   33   34 ar 
    38    1   35 1  
    39    1   36 1  
    40    2   37 1  
    41    2   38 1  
    42    3   39 1  
    43    4   40 1  
    44    4   41 1  
    45    6   42 1  
    46    7   43 1  
    47    9   44 1  
    48   10   45 1  
    49   14   46 1  
    50   15   47 1  
    51   16   48 1  
    52   17   49 1  
    53   17   50 1  
    54   17   51 1  
    55   18   52 1  
    56   18   53 1  
    57   18   54 1  
    58   19   55 1  
    59   19   56 1  
    60   21   57 1  
    61   21   58 1  
    62   22   59 1  
    63   23   60 1  
    64   23   61 1  
    65   23   62 1  
    66   25   63 1  
    67   25   64 1  
    68   26   65 1  
    69   26   66 1  
    70   27   67 1  
    71   27   68 1  
    72   27   69 1  
    73   29   70 1  
    74   31   71 1  
    75   32   72 1  
    76   33   73 1  
    77   34   74 1  
@<TRIPOS>SUBSTRUCTURE
     1 JDC         1

