4djh_ligand
  -I-interpret- 

 75 78  0  0  0  0  0  0  0  0999 V2000
    3.2120  -20.4100   59.6680 C   0  0  0  0  0
    2.9250  -21.7880   59.5580 N   0  3  0  0  0
    2.2000  -22.0810   58.3660 C   0  0  0  0  0
    0.8340  -21.4170   58.3950 C   0  0  0  0  0
    0.9410  -19.9830   58.8450 C   0  0  0  0  0
   -0.1620  -19.0560   58.6390 C   0  0  0  0  0
   -0.0500  -17.7050   59.0610 C   0  0  0  0  0
    1.1110  -17.2580   59.6700 C   0  0  0  0  0
    1.2310  -15.9780   60.0740 O   0  0  0  0  0
    2.1660  -18.1470   59.8630 C   0  0  0  0  0
    2.0500  -19.5400   59.4310 C   0  0  0  0  0
    2.1110  -23.5980   58.1900 C   0  0  0  0  0
    1.7270  -24.3180   59.1200 O   0  0  0  0  0
    2.5030  -24.1780   56.9210 N   0  0  0  0  0
    2.4450  -25.5850   56.7110 C   0  0  0  0  0
    1.6140  -25.7430   55.4290 C   0  0  0  0  0
    0.1930  -25.0530   55.5450 C   0  0  0  0  0
    1.5760  -27.1070   54.8640 C   0  0  0  0  0
    3.8110  -26.2230   56.5650 C   0  0  0  0  0
    4.6780  -26.2930   57.8350 N   0  3  0  0  0
    4.0430  -27.0360   58.9030 C   0  0  0  0  0
    4.6790  -26.8460   60.2290 C   0  0  0  0  0
    4.3120  -25.4010   60.7390 C   0  0  0  0  0
    6.1290  -27.0320   60.2020 C   0  0  0  0  0
    6.7520  -26.2720   59.1520 C   0  0  0  0  0
    6.1150  -26.4610   57.8180 C   0  0  0  0  0
    6.4230  -28.4780   59.8440 C   0  0  0  0  0
    6.7210  -26.8030   61.5930 C   0  0  0  0  0
    6.1110  -27.3820   62.7090 C   0  0  0  0  0
    6.6580  -27.1750   63.9920 C   0  0  0  0  0
    6.0210  -27.7740   65.1510 O   0  0  0  0  0
    7.8390  -26.3720   64.1480 C   0  0  0  0  0
    8.4410  -25.8010   63.0380 C   0  0  0  0  0
    7.8990  -26.0050   61.7540 C   0  0  0  0  0
    3.9564  -20.1717   58.9083 H   0  0  0  0  0
    3.5503  -20.2292   60.6883 H   0  0  0  0  0
    2.3542  -22.0626   60.3575 H   0  0  0  0  0
    3.8072  -22.2993   59.5319 H   0  0  0  0  0
    2.7242  -21.6734   57.5016 H   0  0  0  0  0
    0.1971  -21.9571   59.0956 H   0  0  0  0  0
    0.4133  -21.4379   57.3897 H   0  0  0  0  0
   -1.0779  -19.4004   58.1587 H   0  0  0  0  0
   -0.8809  -17.0169   58.9051 H   0  0  0  0  0
    2.0954  -15.8487   60.4712 H   0  0  0  0  0
    3.0840  -17.8025   60.3390 H   0  0  0  0  0
    2.8249  -23.5699   56.1680 H   0  0  0  0  0
    2.0053  -26.0933   57.5691 H   0  0  0  0  0
    2.1652  -25.1871   54.6706 H   0  0  0  0  0
   -0.3630  -25.5050   56.3663 H   0  0  0  0  0
    0.3223  -23.9875   55.7351 H   0  0  0  0  0
   -0.3548  -25.1933   54.6131 H   0  0  0  0  0
    2.5890  -27.4251   54.6174 H   0  0  0  0  0
    1.1474  -27.7906   55.5968 H   0  0  0  0  0
    0.9637  -27.1084   53.9623 H   0  0  0  0  0
    4.3604  -25.5999   55.8593 H   0  0  0  0  0
    3.6306  -27.2556   56.2663 H   0  0  0  0  0
    4.6930  -25.2875   58.0056 H   0  0  0  0  0
    4.1236  -28.0941   58.6538 H   0  0  0  0  0
    3.0168  -26.6770   58.9816 H   0  0  0  0  0
    4.2986  -27.6090   60.9082 H   0  0  0  0  0
    4.6858  -24.6614   60.0310 H   0  0  0  0  0
    3.2290  -25.3108   60.8228 H   0  0  0  0  0
    4.7683  -25.2347   61.7148 H   0  0  0  0  0
    7.7845  -26.6120   59.0716 H   0  0  0  0  0
    6.6576  -25.2177   59.4122 H   0  0  0  0  0
    6.5252  -25.7044   57.1492 H   0  0  0  0  0
    6.3215  -27.4824   57.4984 H   0  0  0  0  0
    5.9772  -29.1339   60.5917 H   0  0  0  0  0
    6.0005  -28.7016   58.8644 H   0  0  0  0  0
    7.5017  -28.6329   59.8198 H   0  0  0  0  0
    5.2155  -27.9915   62.5881 H   0  0  0  0  0
    6.5122  -27.5393   65.9417 H   0  0  0  0  0
    8.2617  -26.2118   65.1398 H   0  0  0  0  0
    9.3369  -25.1920   63.1590 H   0  0  0  0  0
    8.3762  -25.5555   60.8832 H   0  0  0  0  0
  1  2  1  0  0  0
  1 11  1  0  0  0
  2  3  1  0  0  0
  3  4  1  0  0  0
  3 12  1  0  0  0
  4  5  1  0  0  0
  5  6  4  0  0  0
  5 11  4  0  0  0
  6  7  4  0  0  0
  7  8  4  0  0  0
  8  9  1  0  0  0
  8 10  4  0  0  0
 10 11  4  0  0  0
 12 13  2  0  0  0
 12 14  1  0  0  0
 14 15  1  0  0  0
 15 16  1  0  0  0
 15 19  1  0  0  0
 16 17  1  0  0  0
 16 18  1  0  0  0
 19 20  1  0  0  0
 20 21  1  0  0  0
 20 26  1  0  0  0
 21 22  1  0  0  0
 22 23  1  0  0  0
 22 24  1  0  0  0
 24 25  1  0  0  0
 24 27  1  0  0  0
 24 28  1  0  0  0
 25 26  1  0  0  0
 28 29  4  0  0  0
 28 34  4  0  0  0
 29 30  4  0  0  0
 30 31  1  0  0  0
 30 32  4  0  0  0
 32 33  4  0  0  0
 33 34  4  0  0  0
  1 35  1  0  0  0
  1 36  1  0  0  0
  2 37  1  0  0  0
  2 38  1  0  0  0
  3 39  1  0  0  0
  4 40  1  0  0  0
  4 41  1  0  0  0
  6 42  1  0  0  0
  7 43  1  0  0  0
  9 44  1  0  0  0
 10 45  1  0  0  0
 14 46  1  0  0  0
 15 47  1  0  0  0
 16 48  1  0  0  0
 17 49  1  0  0  0
 17 50  1  0  0  0
 17 51  1  0  0  0
 18 52  1  0  0  0
 18 53  1  0  0  0
 18 54  1  0  0  0
 19 55  1  0  0  0
 19 56  1  0  0  0
 20 57  1  0  0  0
 21 58  1  0  0  0
 21 59  1  0  0  0
 22 60  1  0  0  0
 23 61  1  0  0  0
 23 62  1  0  0  0
 23 63  1  0  0  0
 25 64  1  0  0  0
 25 65  1  0  0  0
 26 66  1  0  0  0
 26 67  1  0  0  0
 27 68  1  0  0  0
 27 69  1  0  0  0
 27 70  1  0  0  0
 29 71  1  0  0  0
 31 72  1  0  0  0
 32 73  1  0  0  0
 33 74  1  0  0  0
 34 75  1  0  0  0
M  END
$$$$
