1g54_ligand
  -I-interpret- 

 34 35  0  0  0  0  0  0  0  0999 V2000
   -3.4990    3.5140   14.8940 C   0  0  0  0  0
   -3.9700    2.4230   15.6520 C   0  0  0  0  0
   -5.3570    2.3000   15.9540 C   0  0  0  0  0
   -6.1840    3.3040   15.4690 C   0  0  0  0  0
   -5.6860    4.3730   14.7270 C   0  0  0  0  0
   -4.3550    4.5030   14.4230 C   0  0  0  0  0
   -3.8980    5.7010   13.5960 C   0  0  0  0  0
   -4.8220    6.4410   13.2880 O   0  0  0  0  0
   -2.5810    6.0700   13.1380 N   0  0  0  0  0
   -2.5570    7.3350   12.3420 C   0  0  0  0  0
   -5.9420    0.8710   16.9250 S   0  0  0  0  0
   -5.4100   -0.5200   16.1990 N   0  0  0  0  0
   -7.3760    1.0970   16.9330 O   0  0  0  0  0
   -5.3850    1.0630   18.2610 O   0  0  0  0  0
   -2.2100    8.6120   12.8640 C   0  0  0  0  0
   -2.2510    9.7780   12.0200 C   0  0  0  0  0
   -1.9020   11.0540   12.5910 C   0  0  0  0  0
   -1.5250   11.1470   13.9530 C   0  0  0  0  0
   -1.4860    9.9880   14.7750 C   0  0  0  0  0
   -1.8250    8.7280   14.2450 C   0  0  0  0  0
   -2.6090    9.6900   10.7320 F   0  0  0  0  0
   -1.9340   12.1560   11.8310 F   0  0  0  0  0
   -1.2010   12.3350   14.4790 F   0  0  0  0  0
   -1.1280   10.0760   16.0630 F   0  0  0  0  0
   -1.7760    7.6620   15.0560 F   0  0  0  0  0
   -2.4344    3.5842   14.6710 H   0  0  0  0  0
   -3.2689    1.6688   16.0093 H   0  0  0  0  0
   -7.2533    3.2546   15.6745 H   0  0  0  0  0
   -6.3809    5.1352   14.3746 H   0  0  0  0  0
   -1.7456    5.5201   13.3382 H   0  0  0  0  0
   -3.6061    7.4662   12.0770 H   0  0  0  0  0
   -1.7563    7.1477   11.6266 H   0  0  0  0  0
   -4.7608   -1.1351   16.6894 H   0  0  0  0  0
   -5.7317   -0.7612   15.2616 H   0  0  0  0  0
  1  6  4  0  0  0
  1  2  4  0  0  0
  2  3  4  0  0  0
  3 11  1  0  0  0
  3  4  4  0  0  0
  4  5  4  0  0  0
  5  6  4  0  0  0
  6  7  1  0  0  0
  7  9  1  0  0  0
  7  8  2  0  0  0
  9 10  1  0  0  0
 10 15  1  0  0  0
 15 20  4  0  0  0
 15 16  4  0  0  0
 16 17  4  0  0  0
 17 18  4  0  0  0
 18 19  4  0  0  0
 19 20  4  0  0  0
 11 14  2  0  0  0
 11 13  2  0  0  0
 11 12  1  0  0  0
 20 25  1  0  0  0
 19 24  1  0  0  0
 18 23  1  0  0  0
 17 22  1  0  0  0
 16 21  1  0  0  0
  1 26  1  0  0  0
  2 27  1  0  0  0
  4 28  1  0  0  0
  5 29  1  0  0  0
  9 30  1  0  0  0
 10 31  1  0  0  0
 10 32  1  0  0  0
 12 33  1  0  0  0
 12 34  1  0  0  0
M  END
$$$$
