6m7i_ligand
  -I-interpret- 

 25 27  0  0  0  0  0  0  0  0999 V2000
    7.8310   28.7100   30.3830 C   0  0  0  0  0
    7.9380   27.6580   32.6070 C   0  0  0  0  0
    7.2640   28.0500   31.4610 C   0  0  0  0  0
    2.5060   26.8670   34.1200 C   0  0  0  0  0
    3.6610   27.3970   33.5690 C   0  0  0  0  0
    4.7440   26.5690   33.3190 C   0  0  0  0  0
    4.6730   25.2170   33.6330 C   0  0  0  0  0
    3.5170   24.6910   34.1830 C   0  0  0  0  0
    2.4380   25.5180   34.4280 C   0  0  0  0  0
    5.9400   27.6700   31.6150 C   0  0  0  0  0
    5.8460   27.0780   32.7970 N   0  0  0  0  0
    7.0670   27.0710   33.4040 N   0  0  0  0  0
    7.2150   29.0410   29.2620 N   0  0  0  0  0
    8.1080   29.6800   28.4540 N   0  0  0  0  0
    9.2900   29.7240   29.1290 N   0  0  0  0  0
    9.0860   29.1140   30.3310 N   0  0  0  0  0
    4.8670   27.8760   30.6580 N   0  0  0  0  0
    0.9520   24.8370   35.1390 Cl  0  0  0  0  0
    6.0610   24.1380   33.3260 Cl  0  0  0  0  0
    8.9979   27.8081   32.8124 H   0  0  0  0  0
    1.6489   27.5126   34.3117 H   0  0  0  0  0
    3.7179   28.4597   33.3332 H   0  0  0  0  0
    3.4583   23.6291   34.4217 H   0  0  0  0  0
    5.0574   28.3417   29.7707 H   0  0  0  0  0
    3.9231   27.5550   30.8732 H   0  0  0  0  0
  3  1  1  0  0  0
  1 13  4  0  0  0
  1 16  4  0  0  0
  3  2  4  0  0  0
  2 12  4  0  0  0
 10  3  4  0  0  0
  5  4  4  0  0  0
  4  9  4  0  0  0
  6  5  4  0  0  0
  6  7  4  0  0  0
 11  6  1  0  0  0
  7  8  4  0  0  0
  7 19  1  0  0  0
  8  9  4  0  0  0
  9 18  1  0  0  0
 10 11  4  0  0  0
 10 17  1  0  0  0
 11 12  4  0  0  0
 13 14  4  0  0  0
 14 15  4  0  0  0
 15 16  4  0  0  0
  2 20  1  0  0  0
  4 21  1  0  0  0
  5 22  1  0  0  0
  8 23  1  0  0  0
 17 24  1  0  0  0
 17 25  1  0  0  0
M  END
$$$$
