2z60_ligand
  -I-interpret- 

 47 50  0  0  0  0  0  0  0  0999 V2000
   16.5060   -9.2590    8.3320 N   0  0  0  0  0
   17.2470   -8.4830    7.4880 C   0  0  0  0  0
   18.1980   -7.5600    7.9830 C   0  0  0  0  0
   18.3460   -7.4790    9.3900 C   0  0  0  0  0
   17.5490   -8.3090   10.2520 C   0  0  0  0  0
   16.6440   -9.1800    9.6830 C   0  0  0  0  0
   17.4640   -8.4560   11.6670 C   0  0  0  0  0
   16.4730   -9.4440   11.7990 C   0  0  0  0  0
   15.9650   -9.8960   10.6090 N   0  0  0  0  0
   18.2100   -7.7730   12.7840 C   0  0  0  0  0
   18.3520   -6.3410   12.8870 C   0  0  0  0  0
   19.0910   -5.7890   14.0020 C   0  0  0  0  0
   19.6640   -6.6250   14.9760 C   0  0  0  0  0
   19.5160   -8.0170   14.8690 C   0  0  0  0  0
   18.8000   -8.5850   13.7850 C   0  0  0  0  0
   17.7490   -5.5430   11.8760 O   0  0  0  0  0
   19.0080   -6.7250    7.0540 C   0  0  0  0  0
   19.2180   -5.3330    7.2550 C   0  0  0  0  0
   19.9670   -4.5750    6.3890 N   0  0  0  0  0
   20.5360   -5.1640    5.2910 C   0  0  0  0  0
   20.3730   -6.5440    5.0260 C   0  0  0  0  0
   19.6030   -7.3100    5.9250 C   0  0  0  0  0
   21.0130   -7.1580    3.8420 C   0  0  0  0  0
   22.2250   -7.4060    3.8850 O   0  0  0  0  0
   20.2490   -7.4680    2.6990 N   0  0  0  0  0
   18.7740   -7.4760    2.6120 C   0  0  0  0  0
   21.0070   -7.9270    1.5160 C   0  0  0  0  0
   17.6720   -4.1120   12.0080 C   0  0  0  0  0
   17.1031   -8.5764    6.4116 H   0  0  0  0  0
   19.0672   -6.7844    9.8206 H   0  0  0  0  0
   16.1370   -9.8189   12.7658 H   0  0  0  0  0
   19.2051   -4.7084   14.0879 H   0  0  0  0  0
   20.2198   -6.1951   15.8093 H   0  0  0  0  0
   19.9554   -8.6668   15.6259 H   0  0  0  0  0
   18.7012   -9.6686   13.7200 H   0  0  0  0  0
   18.7699   -4.8522    8.1246 H   0  0  0  0  0
   21.1274   -4.5560    4.6064 H   0  0  0  0  0
   19.4672   -8.3756    5.7401 H   0  0  0  0  0
   18.3732   -8.1976    3.3239 H   0  0  0  0  0
   18.3921   -6.4823    2.8460 H   0  0  0  0  0
   18.4724   -7.7540    1.6021 H   0  0  0  0  0
   21.7070   -7.1493    1.2104 H   0  0  0  0  0
   21.5567   -8.8339    1.7677 H   0  0  0  0  0
   20.3143   -8.1350    0.7005 H   0  0  0  0  0
   17.1025   -3.8611   12.9029 H   0  0  0  0  0
   18.6784   -3.7012   12.0892 H   0  0  0  0  0
   17.1770   -3.6937   11.1316 H   0  0  0  0  0
  1  2  4  0  0  0
  1  6  4  0  0  0
  2  3  4  0  0  0
  3  4  4  0  0  0
  3 17  1  0  0  0
  4  5  4  0  0  0
  5  6  4  0  0  0
  5  7  4  0  0  0
  6  9  4  0  0  0
  7  8  4  0  0  0
  7 10  1  0  0  0
  8  9  4  0  0  0
 10 11  4  0  0  0
 10 15  4  0  0  0
 11 12  4  0  0  0
 11 16  1  0  0  0
 12 13  4  0  0  0
 13 14  4  0  0  0
 14 15  4  0  0  0
 16 28  1  0  0  0
 17 18  4  0  0  0
 17 22  4  0  0  0
 18 19  4  0  0  0
 19 20  4  0  0  0
 20 21  4  0  0  0
 21 22  4  0  0  0
 21 23  1  0  0  0
 23 24  2  0  0  0
 23 25  1  0  0  0
 25 26  1  0  0  0
 25 27  1  0  0  0
  2 29  1  0  0  0
  4 30  1  0  0  0
  8 31  1  0  0  0
 12 32  1  0  0  0
 13 33  1  0  0  0
 14 34  1  0  0  0
 15 35  1  0  0  0
 18 36  1  0  0  0
 20 37  1  0  0  0
 22 38  1  0  0  0
 26 39  1  0  0  0
 26 40  1  0  0  0
 26 41  1  0  0  0
 27 42  1  0  0  0
 27 43  1  0  0  0
 27 44  1  0  0  0
 28 45  1  0  0  0
 28 46  1  0  0  0
 28 47  1  0  0  0
M  END
$$$$
