3nht_ligand
  -I-interpret- 

 57 59  0  0  0  0  0  0  0  0999 V2000
   -0.6280   -5.5810   23.6480 C   0  0  0  0  0
   -0.3200   -5.1720   24.9380 O   0  0  0  0  0
   -1.7270   -4.7840   22.9180 C   0  0  0  0  0
   -2.3030   -5.6130   21.7680 C   0  0  0  0  0
   -3.3340   -4.7500   21.0330 C   0  0  0  0  0
   -4.5490   -4.5940   21.9570 C   0  0  0  0  0
   -5.3940   -3.4540   21.7040 C   0  0  0  0  0
   -5.1770   -2.3960   20.6070 C   0  0  0  0  0
   -5.4630   -1.0280   21.2470 C   0  0  0  0  0
   -4.5160   -0.7030   22.4090 C   0  0  0  0  0
   -4.0880    0.7330   22.3090 C   0  0  0  0  0
   -3.0730   -0.6040   21.9390 C   0  0  0  0  0
   -2.7900    0.4320   20.8820 O   0  0  0  0  0
   -4.1430    1.1440   20.8310 C   0  0  0  0  0
   -5.1770    0.1540   20.2990 C   0  0  0  0  0
   -6.4650    0.8390   19.8410 C   0  0  0  0  0
   -7.0360    0.4700   18.5840 C   0  0  0  0  0
   -8.3400    1.1430   18.1840 C   0  0  0  0  0
   -8.6850    1.0450   16.7120 C   0  0  0  0  0
  -10.0980    1.4970   16.3430 C   0  0  0  0  0
  -10.4960    1.4760   14.8690 C   0  0  0  0  0
   -9.8180    2.4580   13.9190 C   0  0  0  0  0
  -10.2130    2.3520   12.4380 C   0  0  0  0  0
   -1.0026   -6.6008   23.7360 H   0  0  0  0  0
    0.2818   -5.4460   23.0631 H   0  0  0  0  0
    0.3720   -5.7341   25.2941 H   0  0  0  0  0
   -1.2964   -3.8666   22.5166 H   0  0  0  0  0
   -2.5245   -4.5473   23.6223 H   0  0  0  0  0
   -2.7747   -6.5166   22.1542 H   0  0  0  0  0
   -1.5082   -5.9138   21.0854 H   0  0  0  0  0
   -3.6268   -5.2222   20.0953 H   0  0  0  0  0
   -2.9115   -3.7747   20.7915 H   0  0  0  0  0
   -4.7606   -5.3032   22.7572 H   0  0  0  0  0
   -6.2651   -3.3299   22.3473 H   0  0  0  0  0
   -5.8398   -2.5740   19.7602 H   0  0  0  0  0
   -4.1577   -2.4389   20.2232 H   0  0  0  0  0
   -6.5097   -1.1216   21.5366 H   0  0  0  0  0
   -4.9572   -1.2823   23.2201 H   0  0  0  0  0
   -4.2461    1.5925   22.9605 H   0  0  0  0  0
   -2.3191   -1.3850   22.0378 H   0  0  0  0  0
   -4.3146    2.1186   20.3740 H   0  0  0  0  0
   -4.7106   -0.2843   19.4167 H   0  0  0  0  0
   -6.9403    1.5970   20.4636 H   0  0  0  0  0
   -6.5560   -0.2647   17.9375 H   0  0  0  0  0
   -8.2300    2.2032   18.4118 H   0  0  0  0  0
   -9.1363    0.6356   18.7286 H   0  0  0  0  0
   -8.6135   -0.0089   16.4433 H   0  0  0  0  0
   -7.9973    1.7062   16.1847 H   0  0  0  0  0
  -10.1540    2.5435   16.6425 H   0  0  0  0  0
  -10.7653    0.7877   16.8326 H   0  0  0  0  0
  -11.5515    1.7477   14.8546 H   0  0  0  0  0
  -10.2091    0.4876   14.5101 H   0  0  0  0  0
   -8.7512    2.2394   13.9658 H   0  0  0  0  0
  -10.1201    3.4536   14.2440 H   0  0  0  0  0
   -9.9673    1.3566   12.0681 H   0  0  0  0  0
  -11.2843    2.5248   12.3358 H   0  0  0  0  0
   -9.6666    3.0997   11.8631 H   0  0  0  0  0
  1  2  1  0  0  0
  1  3  1  0  0  0
  3  4  1  0  0  0
  4  5  1  0  0  0
  5  6  1  0  0  0
  6  7  2  0  0  0
  7  8  1  0  0  0
  8  9  1  0  0  0
  9 10  1  0  0  0
  9 15  1  0  0  0
 10 11  1  0  0  0
 10 12  1  0  0  0
 11 12  1  0  0  0
 11 14  1  0  0  0
 12 13  1  0  0  0
 13 14  1  0  0  0
 14 15  1  0  0  0
 15 16  1  0  0  0
 16 17  2  0  0  0
 17 18  1  0  0  0
 18 19  1  0  0  0
 19 20  1  0  0  0
 20 21  1  0  0  0
 21 22  1  0  0  0
 22 23  1  0  0  0
  1 24  1  0  0  0
  1 25  1  0  0  0
  2 26  1  0  0  0
  3 27  1  0  0  0
  3 28  1  0  0  0
  4 29  1  0  0  0
  4 30  1  0  0  0
  5 31  1  0  0  0
  5 32  1  0  0  0
  6 33  1  0  0  0
  7 34  1  0  0  0
  8 35  1  0  0  0
  8 36  1  0  0  0
  9 37  1  0  0  0
 10 38  1  0  0  0
 11 39  1  0  0  0
 12 40  1  0  0  0
 14 41  1  0  0  0
 15 42  1  0  0  0
 16 43  1  0  0  0
 17 44  1  0  0  0
 18 45  1  0  0  0
 18 46  1  0  0  0
 19 47  1  0  0  0
 19 48  1  0  0  0
 20 49  1  0  0  0
 20 50  1  0  0  0
 21 51  1  0  0  0
 21 52  1  0  0  0
 22 53  1  0  0  0
 22 54  1  0  0  0
 23 55  1  0  0  0
 23 56  1  0  0  0
 23 57  1  0  0  0
M  END
$$$$
