3njy_ligand
  -I-interpret- 

 21 22  0  0  0  0  0  0  0  0999 V2000
   24.1250  -22.9420   -3.2330 O   0  0  0  0  0
   23.3040  -21.3210   -4.4660 O   0  0  0  0  0
   29.1620  -21.7440   -6.8710 O   0  0  0  0  0
   24.8510  -19.2560   -7.2630 C   0  0  0  0  0
   26.0690  -19.1980   -7.9050 C   0  0  0  0  0
   27.8230  -22.7330   -5.2340 C   0  0  0  0  0
   26.6040  -22.8130   -4.5570 C   0  0  0  0  0
   24.6630  -20.1800   -6.2560 C   0  0  0  0  0
   27.0460  -20.0150   -7.5690 N   0  0  0  0  0
   24.2310  -22.0830   -4.1370 C   0  0  0  0  0
   27.9750  -21.7940   -6.2460 C   0  0  0  0  0
   25.5500  -21.9630   -4.8870 C   0  0  0  0  0
   25.7090  -21.0280   -5.9040 C   0  0  0  0  0
   26.9210  -20.9330   -6.5880 C   0  0  0  0  0
   24.9549  -23.4165   -3.1451 H   0  0  0  0  0
   29.1395  -21.0597   -7.5439 H   0  0  0  0  0
   24.0452  -18.5794   -7.5476 H   0  0  0  0  0
   26.2256  -18.4682   -8.6994 H   0  0  0  0  0
   28.6448  -23.3992   -4.9714 H   0  0  0  0  0
   26.4757  -23.5479   -3.7623 H   0  0  0  0  0
   23.7046  -20.2453   -5.7410 H   0  0  0  0  0
 10  1  1  0  0  0
 10  2  2  0  0  0
 11  3  1  0  0  0
  5  4  4  0  0  0
  4  8  4  0  0  0
  9  5  4  0  0  0
  6  7  4  0  0  0
 11  6  4  0  0  0
  7 12  4  0  0  0
  8 13  4  0  0  0
 14  9  4  0  0  0
 12 10  1  0  0  0
 11 14  4  0  0  0
 12 13  4  0  0  0
 13 14  4  0  0  0
  1 15  1  0  0  0
  3 16  1  0  0  0
  4 17  1  0  0  0
  5 18  1  0  0  0
  6 19  1  0  0  0
  7 20  1  0  0  0
  8 21  1  0  0  0
M  END
$$$$
