1mdl_ligand
  -I-interpret- 

 19 19  0  0  0  0  0  0  0  0999 V2000
   36.7150    2.1570   17.6590 C   0  0  0  0  0
   38.0530    1.9740   17.3430 C   0  0  0  0  0
   38.9540    2.9950   17.5560 C   0  0  0  0  0
   38.5290    4.2090   18.0750 C   0  0  0  0  0
   37.2020    4.4080   18.4100 C   0  0  0  0  0
   36.3020    3.3790   18.2010 C   0  0  0  0  0
   35.6670    1.0340   17.4160 C   0  0  0  0  0
   34.6860    0.9550   18.5790 C   0  0  0  0  0
   36.2600   -0.2640   17.0940 O   0  0  0  0  0
   34.0220    1.9480   18.7300 O   0  0  0  0  0
   34.6420   -0.0320   19.2850 O   0  0  0  0  0
   38.3912    1.0249   16.9272 H   0  0  0  0  0
   40.0068    2.8475   17.3152 H   0  0  0  0  0
   39.2485    5.0148   18.2204 H   0  0  0  0  0
   36.8718    5.3578   18.8307 H   0  0  0  0  0
   35.2537    3.5223   18.4628 H   0  0  0  0  0
   35.1100    1.3116   16.5211 H   0  0  0  0  0
   36.8682   -0.1630   16.3582 H   0  0  0  0  0
   35.2653   -0.6853   18.9590 H   0  0  0  0  0
  1  2  4  0  0  0
  1  6  4  0  0  0
  1  7  1  0  0  0
  2  3  4  0  0  0
  3  4  4  0  0  0
  4  5  4  0  0  0
  5  6  4  0  0  0
  7  8  1  0  0  0
  7  9  1  0  0  0
  8 10  2  0  0  0
  8 11  1  0  0  0
  2 12  1  0  0  0
  3 13  1  0  0  0
  4 14  1  0  0  0
  5 15  1  0  0  0
  6 16  1  0  0  0
  7 17  1  0  0  0
  9 18  1  0  0  0
 11 19  1  0  0  0
M  END
$$$$
