6mx8_ligand
  -I-interpret- 

 81 85  0  0  0  0  0  0  0  0999 V2000
    4.2100   15.5960    9.9080 C   0  0  0  0  0
    4.7050   16.5040    8.9890 C   0  0  0  0  0
   10.7220   16.9480    8.9860 C   0  0  0  0  0
    2.6900   17.6290    9.0880 C   0  0  0  0  0
    2.9300   15.7740   10.3730 C   0  0  0  0  0
    3.4920   20.2060    7.5580 C   0  0  0  0  0
    3.7080   21.3580    6.8250 C   0  0  0  0  0
    2.6420   22.1370    6.4130 C   0  0  0  0  0
    1.3580   21.7560    6.7410 C   0  0  0  0  0
    1.1490   20.6090    7.4790 C   0  0  0  0  0
   -0.1230   20.1730    7.8360 O   0  0  0  0  0
   -1.0820   20.8780    7.0590 C   0  0  0  0  0
    3.2750   25.7600    5.5750 C   0  0  0  0  0
    4.7270   28.2870    1.6340 C   0  0  0  0  0
    3.9230   17.5080    8.5780 N   0  0  0  0  0
    2.1510   16.7850    9.9780 N   0  0  0  0  0
    1.8720   18.6690    8.6280 N   0  0  0  0  0
    2.2060   19.8210    7.8860 C   0  0  0  0  0
    2.8510   23.3160    5.6650 N   0  0  0  0  0
    3.4440   24.4650    6.3410 C   0  0  0  0  0
    3.7010   25.5890    4.1350 C   0  0  0  0  0
    2.8940   24.4830    3.4790 C   0  0  0  0  0
    3.0590   23.1700    4.2250 C   0  0  0  0  0
    3.7090   26.8870    3.3940 N   0  3  0  0  0
    2.3870   27.5620    3.2210 C   0  0  0  0  0
    2.5630   28.9530    2.6460 C   0  0  0  0  0
    3.3800   28.8790    1.4080 N   0  3  0  0  0
    4.5810   26.8820    2.1840 C   0  0  0  0  0
    3.4090   30.1620    0.6660 C   0  0  0  0  0
    6.0240   16.3430    8.4900 N   0  0  0  0  0
    6.7300   17.3280    7.7620 C   0  0  0  0  0
    8.0470   17.6590    8.0590 C   0  0  0  0  0
    8.6860   18.6290    7.3110 C   0  0  0  0  0
    8.0460   19.2710    6.2750 C   0  0  0  0  0
    6.7440   18.9430    5.9750 C   0  0  0  0  0
    6.0990   17.9780    6.7180 C   0  0  0  0  0
    8.9440   16.8800    9.3700 P   0  0  0  0  0
    8.8920   17.9300   10.8410 C   0  0  0  0  0
    8.5220   15.4540    9.6340 O   0  0  0  0  0
    5.1480   14.2670   10.4700 Cl  0  0  0  0  0
   11.2900   16.5575    9.8304 H   0  0  0  0  0
   10.9245   16.3454    8.1005 H   0  0  0  0  0
   11.0125   17.9816    8.7979 H   0  0  0  0  0
    2.5329   15.0603   11.0948 H   0  0  0  0  0
    4.3390   19.5993    7.8783 H   0  0  0  0  0
    4.7254   21.6545    6.5700 H   0  0  0  0  0
    0.5099   22.3597    6.4180 H   0  0  0  0  0
   -0.9890   21.9468    7.2516 H   0  0  0  0  0
   -0.9062   20.6815    6.0014 H   0  0  0  0  0
   -2.0836   20.5444    7.3302 H   0  0  0  0  0
    3.8968   26.5265    6.0376 H   0  0  0  0  0
    2.2243   26.0491    5.5995 H   0  0  0  0  0
    5.2760   28.8999    2.3489 H   0  0  0  0  0
    5.2693   28.2509    0.6891 H   0  0  0  0  0
    0.8842   18.5795    8.8660 H   0  0  0  0  0
    2.9396   24.5804    7.3004 H   0  0  0  0  0
    4.5130   24.2757    6.4381 H   0  0  0  0  0
    4.7407   25.2634    4.1030 H   0  0  0  0  0
    3.2494   24.3508    2.4571 H   0  0  0  0  0
    1.8408   24.7632    3.4946 H   0  0  0  0  0
    2.3132   22.4712    3.8460 H   0  0  0  0  0
    4.0782   22.8179    4.0658 H   0  0  0  0  0
    4.1703   27.5218    4.0456 H   0  0  0  0  0
    1.9041   27.6432    4.1948 H   0  0  0  0  0
    1.7790   26.9727    2.5346 H   0  0  0  0  0
    3.0672   29.5861    3.3760 H   0  0  0  0  0
    1.5857   29.3747    2.4110 H   0  0  0  0  0
    2.9039   28.2206    0.7913 H   0  0  0  0  0
    5.5658   26.5029    2.4570 H   0  0  0  0  0
    4.1285   26.2472    1.4222 H   0  0  0  0  0
    3.9944   30.8911    1.2262 H   0  0  0  0  0
    3.8628   30.0042   -0.3124 H   0  0  0  0  0
    2.3910   30.5308    0.5405 H   0  0  0  0  0
    6.4947   15.4559    8.6689 H   0  0  0  0  0
    9.7176   18.8912    7.5459 H   0  0  0  0  0
    8.5671   20.0338    5.6965 H   0  0  0  0  0
    6.2266   19.4425    5.1560 H   0  0  0  0  0
    5.0675   17.7214    6.4768 H   0  0  0  0  0
    7.8746   17.9565   11.2311 H   0  0  0  0  0
    9.5627   17.5250   11.5988 H   0  0  0  0  0
    9.2075   18.9393   10.5767 H   0  0  0  0  0
  2  1  4  0  0  0
  1  5  4  0  0  0
  1 40  1  0  0  0
  2 15  4  0  0  0
 30  2  1  0  0  0
 37  3  1  0  0  0
 15  4  4  0  0  0
  4 16  4  0  0  0
  4 17  1  0  0  0
  5 16  4  0  0  0
  6  7  4  0  0  0
 18  6  4  0  0  0
  7  8  4  0  0  0
  9  8  4  0  0  0
  8 19  1  0  0  0
 10  9  4  0  0  0
 10 11  1  0  0  0
 18 10  4  0  0  0
 11 12  1  0  0  0
 20 13  1  0  0  0
 13 21  1  0  0  0
 14 27  1  0  0  0
 28 14  1  0  0  0
 17 18  1  0  0  0
 19 20  1  0  0  0
 19 23  1  0  0  0
 22 21  1  0  0  0
 21 24  1  0  0  0
 23 22  1  0  0  0
 24 25  1  0  0  0
 24 28  1  0  0  0
 25 26  1  0  0  0
 26 27  1  0  0  0
 27 29  1  0  0  0
 31 30  1  0  0  0
 32 31  4  0  0  0
 31 36  4  0  0  0
 32 33  4  0  0  0
 32 37  1  0  0  0
 33 34  4  0  0  0
 34 35  4  0  0  0
 35 36  4  0  0  0
 37 38  1  0  0  0
 37 39  2  0  0  0
  3 41  1  0  0  0
  3 42  1  0  0  0
  3 43  1  0  0  0
  5 44  1  0  0  0
  6 45  1  0  0  0
  7 46  1  0  0  0
  9 47  1  0  0  0
 12 48  1  0  0  0
 12 49  1  0  0  0
 12 50  1  0  0  0
 13 51  1  0  0  0
 13 52  1  0  0  0
 14 53  1  0  0  0
 14 54  1  0  0  0
 17 55  1  0  0  0
 20 56  1  0  0  0
 20 57  1  0  0  0
 21 58  1  0  0  0
 22 59  1  0  0  0
 22 60  1  0  0  0
 23 61  1  0  0  0
 23 62  1  0  0  0
 24 63  1  0  0  0
 25 64  1  0  0  0
 25 65  1  0  0  0
 26 66  1  0  0  0
 26 67  1  0  0  0
 27 68  1  0  0  0
 28 69  1  0  0  0
 28 70  1  0  0  0
 29 71  1  0  0  0
 29 72  1  0  0  0
 29 73  1  0  0  0
 30 74  1  0  0  0
 33 75  1  0  0  0
 34 76  1  0  0  0
 35 77  1  0  0  0
 36 78  1  0  0  0
 38 79  1  0  0  0
 38 80  1  0  0  0
 38 81  1  0  0  0
M  END
$$$$
