5tq8_ligand
  -I-interpret- 

 71 77  0  0  0  0  0  0  0  0999 V2000
    3.9170    4.5170    9.6010 C   0  0  0  0  0
    2.8060    4.7020    8.8370 C   0  0  0  0  0
    1.9120    3.6580    8.7140 C   0  0  0  0  0
    3.2260    2.2610   10.1650 C   0  0  0  0  0
    4.6650   -1.1830   10.6960 C   0  0  0  0  0
    3.5720   -2.9970   12.3260 C   0  0  0  0  0
    2.4420    0.3830   11.7100 C   0  0  0  0  0
    4.3620   -4.1890   12.1170 C   0  0  0  0  0
    7.0460   -6.3130   10.9990 C   0  0  0  0  0
    5.9390   -8.3540   11.9900 C   0  0  0  0  0
    4.9030   -6.2330   12.3430 C   0  0  0  0  0
    5.0540    3.2950   12.6480 C   0  0  0  0  0
    5.3950    3.1860   11.1610 C   0  0  0  0  0
    4.1390    3.3200   10.2720 C   0  0  0  0  0
    2.5620    5.8540    8.1070 O   0  0  0  0  0
    0.8460    3.8700    7.9350 F   0  0  0  0  0
    2.0960    2.4180    9.3730 C   0  0  0  0  0
    3.3510    0.8810   10.7580 C   0  0  0  0  0
    4.4040    0.1280   10.2880 C   0  0  0  0  0
    3.7350   -1.6710   11.6840 C   0  0  0  0  0
    2.5210   -2.9490   13.0680 N   0  0  0  0  0
    1.9770   -1.7120   13.0300 N   0  0  0  0  0
    2.6850   -0.9290   12.1400 C   0  0  0  0  0
    5.4520   -4.3410   11.4490 N   0  0  0  0  0
    5.8420   -5.6330   11.6040 C   0  0  0  0  0
    7.1700   -7.6530   11.6850 N   0  0  0  0  0
    4.8940   -7.6720   12.7890 C   0  0  0  0  0
    3.9970   -5.3390   12.6800 N   0  0  0  0  0
    8.3640   -8.1600   12.0410 C   0  0  0  0  0
    8.4290   -9.2020   12.6610 O   0  0  0  0  0
    9.6620   -7.6450   11.7430 C   0  0  0  0  0
    9.8940   -7.2530   10.4170 C   0  0  0  0  0
   11.0700   -6.7930   10.0320 N   0  0  0  0  0
   12.1110   -6.7280   10.8980 C   0  0  0  0  0
   11.8550   -7.1690   12.2230 C   0  0  0  0  0
   10.6740   -7.6270   12.5970 N   0  0  0  0  0
   13.3440   -6.2450   10.4620 N   0  0  0  0  0
   13.6440   -6.3050    8.9900 C   0  0  0  0  0
   14.7170   -5.3160    8.5200 C   0  0  0  0  0
   15.6640   -4.8830    9.6770 C   0  0  0  0  0
   15.8260   -6.0780   10.6460 C   0  0  0  0  0
   14.4820   -6.1520   11.3870 C   0  0  0  0  0
    4.6463    5.3224    9.6884 H   0  0  0  0  0
    5.4905   -1.7782   10.3057 H   0  0  0  0  0
    1.6081    0.9755   12.0864 H   0  0  0  0  0
    7.9460   -5.7153   11.1436 H   0  0  0  0  0
    6.9260   -6.4348    9.9225 H   0  0  0  0  0
    6.2465   -9.2027   12.6010 H   0  0  0  0  0
    5.4743   -8.5343   11.0207 H   0  0  0  0  0
    4.5972    4.2650   12.8446 H   0  0  0  0  0
    4.3567    2.5021   12.9186 H   0  0  0  0  0
    5.9658    3.1953   13.2368 H   0  0  0  0  0
    5.8377    2.2061   10.9824 H   0  0  0  0  0
    6.0816    3.9936   10.9073 H   0  0  0  0  0
    1.7247    5.7677    7.6454 H   0  0  0  0  0
    1.3721    1.6107    9.2619 H   0  0  0  0  0
    5.0724    0.5806    9.5556 H   0  0  0  0  0
    5.0963   -7.7555   13.8568 H   0  0  0  0  0
    3.9165   -8.1279   12.6316 H   0  0  0  0  0
    9.0865   -7.3297    9.6888 H   0  0  0  0  0
   12.6603   -7.1282   12.9564 H   0  0  0  0  0
   12.7230   -6.0499    8.4657 H   0  0  0  0  0
   14.0196   -7.3067    8.7812 H   0  0  0  0  0
   14.2152   -4.4257    8.1410 H   0  0  0  0  0
   15.3185   -5.8064    7.7546 H   0  0  0  0  0
   15.2418   -4.0281   10.2053 H   0  0  0  0  0
   16.6352   -4.5927    9.2762 H   0  0  0  0  0
   16.6640   -5.9410   11.3294 H   0  0  0  0  0
   16.0556   -7.0045   10.1197 H   0  0  0  0  0
   14.4868   -7.0460   12.0105 H   0  0  0  0  0
   14.3680   -5.2415   11.9753 H   0  0  0  0  0
  1  2  4  0  0  0
 14  1  4  0  0  0
  3  2  4  0  0  0
  2 15  1  0  0  0
  3 16  1  0  0  0
 17  3  4  0  0  0
  4 14  4  0  0  0
  4 17  4  0  0  0
 18  4  1  0  0  0
 19  5  4  0  0  0
  5 20  4  0  0  0
  6  8  1  0  0  0
 20  6  4  0  0  0
  6 21  4  0  0  0
 18  7  4  0  0  0
  7 23  4  0  0  0
  8 24  4  0  0  0
  8 28  4  0  0  0
 25  9  1  0  0  0
  9 26  1  0  0  0
 10 26  1  0  0  0
 27 10  1  0  0  0
 11 25  4  0  0  0
 11 27  1  0  0  0
 28 11  4  0  0  0
 13 12  1  0  0  0
 14 13  1  0  0  0
 18 19  4  0  0  0
 20 23  4  0  0  0
 21 22  4  0  0  0
 22 23  4  0  0  0
 24 25  4  0  0  0
 26 29  1  0  0  0
 29 30  2  0  0  0
 29 31  1  0  0  0
 31 32  4  0  0  0
 31 36  4  0  0  0
 32 33  4  0  0  0
 33 34  4  0  0  0
 34 35  4  0  0  0
 34 37  1  0  0  0
 35 36  4  0  0  0
 37 38  1  0  0  0
 37 42  1  0  0  0
 38 39  1  0  0  0
 39 40  1  0  0  0
 40 41  1  0  0  0
 41 42  1  0  0  0
  1 43  1  0  0  0
  5 44  1  0  0  0
  7 45  1  0  0  0
  9 46  1  0  0  0
  9 47  1  0  0  0
 10 48  1  0  0  0
 10 49  1  0  0  0
 12 50  1  0  0  0
 12 51  1  0  0  0
 12 52  1  0  0  0
 13 53  1  0  0  0
 13 54  1  0  0  0
 15 55  1  0  0  0
 17 56  1  0  0  0
 19 57  1  0  0  0
 27 58  1  0  0  0
 27 59  1  0  0  0
 32 60  1  0  0  0
 35 61  1  0  0  0
 38 62  1  0  0  0
 38 63  1  0  0  0
 39 64  1  0  0  0
 39 65  1  0  0  0
 40 66  1  0  0  0
 40 67  1  0  0  0
 41 68  1  0  0  0
 41 69  1  0  0  0
 42 70  1  0  0  0
 42 71  1  0  0  0
M  END
$$$$
