4y7r_ligand
  -I-interpret- 

127126  0  0  0  0  0  0  0  0999 V2000
   24.9940    0.9360   18.2950 N   0  3  0  0  0
   24.1740    1.0160   17.1050 C   0  0  0  0  0
   22.8250    1.6820   17.3250 C   0  0  0  0  0
   22.1830    2.0740   16.3860 O   0  0  0  0  0
   23.9880   -0.3560   16.5110 C   0  0  0  0  0
   24.1310   -0.3650   15.0070 C   0  0  0  0  0
   23.2210   -1.3660   14.3530 C   0  0  0  0  0
   23.4230   -1.6700   13.1650 O   0  0  0  0  0
   22.2990   -1.8500   15.0290 O   0  0  0  0  0
   22.3920    1.7880   18.5620 N   0  0  0  0  0
   21.1350    2.4380   18.8710 C   0  0  0  0  0
   21.5650    3.8620   19.1070 C   0  0  0  0  0
   22.3980    4.1270   19.9490 O   0  0  0  0  0
   20.5010    1.8030   20.1020 C   0  0  0  0  0
   19.4720    2.6540   20.8200 C   0  0  0  0  0
   18.2130    1.9050   21.2080 C   0  0  0  0  0
   17.8800    0.8800   20.5810 O   0  0  0  0  0
   17.5340    2.3750   22.1350 O   0  0  0  0  0
   21.0230    4.7870   18.3390 N   0  0  0  0  0
   21.4230    6.1670   18.4640 C   0  0  0  0  0
   20.5440    6.9480   19.4080 C   0  0  0  0  0
   19.3590    6.7440   19.4300 O   0  0  0  0  0
   21.4720    6.8020   17.0670 C   0  0  0  0  0
   22.7510    6.3910   16.3910 C   0  0  0  0  0
   21.4770    8.3090   17.1040 C   0  0  0  0  0
   22.5690    5.2300   15.4800 C   0  0  0  0  0
   21.1590    7.8440   20.1580 N   0  0  0  0  0
   20.4780    8.7030   21.0840 C   0  0  0  0  0
   20.6210   10.1430   20.6320 C   0  0  0  0  0
   21.6500   10.7520   20.7910 O   0  0  0  0  0
   21.0520    8.5710   22.4850 C   0  0  0  0  0
   20.3230    9.4130   23.4960 C   0  0  0  0  0
   19.5750   10.2960   23.1140 O   0  0  0  0  0
   20.5030    9.1920   24.7070 O   0  0  0  0  0
   19.5500   10.6850   20.0900 N   0  0  0  0  0
   19.5710   12.0480   19.5990 C   0  0  0  0  0
   19.1220   13.0890   20.5950 C   0  0  0  0  0
   18.9960   14.2380   20.2530 O   0  0  0  0  0
   18.6850   12.1590   18.3530 C   0  0  0  0  0
   19.1400   11.1810   17.3100 C   0  0  0  0  0
   17.2510   11.8530   18.7230 C   0  0  0  0  0
   18.8960   12.6900   21.8320 N   0  0  0  0  0
   18.4320   13.6210   22.8210 C   0  0  0  0  0
   19.3570   13.9530   23.9810 C   0  0  0  0  0
   19.5380   15.1030   24.2980 O   0  0  0  0  0
   17.0940   13.1220   23.3820 C   0  0  0  0  0
   16.5420   14.0670   24.4160 C   0  0  0  0  0
   16.1140   12.9350   22.2550 C   0  0  0  0  0
   19.9250   12.9490   24.6200 N   0  0  0  0  0
   20.7670   13.2110   25.7740 C   0  0  0  0  0
   21.9640   14.0110   25.4020 C   0  0  0  0  0
   22.5950   13.7610   24.4210 O   0  0  0  0  0
   21.1550   11.9340   26.5010 C   0  0  0  0  0
   20.8530   10.7880   25.7550 O   0  0  0  0  0
   22.2600   15.0020   26.2100 N   0  0  0  0  0
   23.4070   15.8420   25.9470 C   0  0  0  0  0
   24.6640   15.3830   26.6880 C   0  0  0  0  0
   24.5800   14.3830   27.4540 O   0  0  0  0  0
   23.1250   17.3230   26.2390 C   0  0  0  0  0
   21.9790   17.8030   25.3830 C   0  0  0  0  0
   22.7740   17.5290   27.6850 C   0  0  0  0  0
   25.7280   16.0260   26.4490 O   0  0  0  0  0
   25.1129    1.8697   18.6879 H   0  0  0  0  0
   24.5388    0.3329   18.9802 H   0  0  0  0  0
   25.9061    0.5492   18.0526 H   0  0  0  0  0
   24.7140    1.6578   16.4089 H   0  0  0  0  0
   22.9796   -0.6914   16.7531 H   0  0  0  0  0
   24.7587   -1.0067   16.9242 H   0  0  0  0  0
   25.1592   -0.6356   14.7669 H   0  0  0  0  0
   23.8661    0.6252   14.6364 H   0  0  0  0  0
   24.1815   -1.1824   12.8356 H   0  0  0  0  0
   22.9542    1.4037   19.3214 H   0  0  0  0  0
   20.3739    2.3555   18.0951 H   0  0  0  0  0
   21.3094    1.6290   20.8122 H   0  0  0  0  0
   19.9788    0.9108   19.7564 H   0  0  0  0  0
   19.1765    3.4493   20.1356 H   0  0  0  0  0
   19.9332    3.0093   21.7415 H   0  0  0  0  0
   18.5389    0.6888   19.9096 H   0  0  0  0  0
   20.3162    4.5247   17.6520 H   0  0  0  0  0
   22.4176    6.1974   18.9089 H   0  0  0  0  0
   20.5800    6.4625   16.5406 H   0  0  0  0  0
   23.4615    6.1016   17.1653 H   0  0  0  0  0
   23.1009    7.2336   15.7946 H   0  0  0  0  0
   20.5712    8.6621   17.5970 H   0  0  0  0  0
   22.3510    8.6547   17.6560 H   0  0  0  0  0
   21.5124    8.6961   16.0856 H   0  0  0  0  0
   22.2019    4.3766   16.0500 H   0  0  0  0  0
   21.8478    5.4879   14.7045 H   0  0  0  0  0
   23.5244    4.9775   15.0200 H   0  0  0  0  0
   22.1719    7.9301   20.0747 H   0  0  0  0  0
   19.4284    8.4099   21.1080 H   0  0  0  0  0
   22.0879    8.9088   22.4543 H   0  0  0  0  0
   20.9561    7.5283   22.7879 H   0  0  0  0  0
   21.1207    8.4644   24.8100 H   0  0  0  0  0
   18.6930   10.1371   20.0148 H   0  0  0  0  0
   20.6180   12.2580   19.3801 H   0  0  0  0  0
   18.7583   13.1718   17.9569 H   0  0  0  0  0
   20.1727   11.3976   17.0366 H   0  0  0  0  0
   19.0731   10.1689   17.7090 H   0  0  0  0  0
   18.5036   11.2686   16.4294 H   0  0  0  0  0
   17.1886   10.8415   19.1242 H   0  0  0  0  0
   16.9113   12.5652   19.4750 H   0  0  0  0  0
   16.6232   11.9326   17.8355 H   0  0  0  0  0
   19.0518   11.7147   22.0869 H   0  0  0  0  0
   18.3578   14.5609   22.2741 H   0  0  0  0  0
   17.2622   12.1650   23.8759 H   0  0  0  0  0
   17.2502   14.1562   25.2397 H   0  0  0  0  0
   16.3834   15.0460   23.9638 H   0  0  0  0  0
   15.5941   13.6805   24.7904 H   0  0  0  0  0
   15.9622   13.8866   21.7456 H   0  0  0  0  0
   16.5082   12.2029   21.5502 H   0  0  0  0  0
   15.1644   12.5805   22.6560 H   0  0  0  0  0
   19.7734   11.9909   24.3046 H   0  0  0  0  0
   20.1757   13.8049   26.4710 H   0  0  0  0  0
   20.5918   11.8900   27.4332 H   0  0  0  0  0
   22.2315   11.9542   26.6709 H   0  0  0  0  0
   21.1136   10.0076   26.2497 H   0  0  0  0  0
   21.6776   15.1806   27.0281 H   0  0  0  0  0
   23.6005   15.7381   24.8794 H   0  0  0  0  0
   24.0272   17.8904   26.0104 H   0  0  0  0  0
   22.2389   17.6854   24.3310 H   0  0  0  0  0
   21.0889   17.2149   25.6067 H   0  0  0  0  0
   21.7842   18.8543   25.5951 H   0  0  0  0  0
   21.8840   16.9485   27.9278 H   0  0  0  0  0
   23.6049   17.2009   28.3096 H   0  0  0  0  0
   22.5793   18.5866   27.8632 H   0  0  0  0  0
   25.5377   16.7416   25.8380 H   0  0  0  0  0
  1  2  1  0  0  0
  2  3  1  0  0  0
  2  5  1  0  0  0
  3  4  2  0  0  0
  3 10  1  0  0  0
  5  6  1  0  0  0
  6  7  1  0  0  0
  7  8  1  0  0  0
  7  9  2  0  0  0
 10 11  1  0  0  0
 11 12  1  0  0  0
 11 14  1  0  0  0
 12 13  2  0  0  0
 12 19  1  0  0  0
 14 15  1  0  0  0
 15 16  1  0  0  0
 16 17  1  0  0  0
 16 18  2  0  0  0
 19 20  1  0  0  0
 20 21  1  0  0  0
 20 23  1  0  0  0
 21 22  2  0  0  0
 21 27  1  0  0  0
 23 24  1  0  0  0
 23 25  1  0  0  0
 24 26  1  0  0  0
 27 28  1  0  0  0
 28 29  1  0  0  0
 28 31  1  0  0  0
 29 30  2  0  0  0
 29 35  1  0  0  0
 31 32  1  0  0  0
 32 33  2  0  0  0
 32 34  1  0  0  0
 35 36  1  0  0  0
 36 37  1  0  0  0
 36 39  1  0  0  0
 37 38  2  0  0  0
 37 42  1  0  0  0
 39 40  1  0  0  0
 39 41  1  0  0  0
 42 43  1  0  0  0
 43 44  1  0  0  0
 43 46  1  0  0  0
 44 45  2  0  0  0
 44 49  1  0  0  0
 46 47  1  0  0  0
 46 48  1  0  0  0
 49 50  1  0  0  0
 50 51  1  0  0  0
 50 53  1  0  0  0
 51 52  2  0  0  0
 51 55  1  0  0  0
 53 54  1  0  0  0
 55 56  1  0  0  0
 56 57  1  0  0  0
 56 59  1  0  0  0
 57 58  2  0  0  0
 57 62  1  0  0  0
 59 60  1  0  0  0
 59 61  1  0  0  0
  1 63  1  0  0  0
  1 64  1  0  0  0
  1 65  1  0  0  0
  2 66  1  0  0  0
  5 67  1  0  0  0
  5 68  1  0  0  0
  6 69  1  0  0  0
  6 70  1  0  0  0
  8 71  1  0  0  0
 10 72  1  0  0  0
 11 73  1  0  0  0
 14 74  1  0  0  0
 14 75  1  0  0  0
 15 76  1  0  0  0
 15 77  1  0  0  0
 17 78  1  0  0  0
 19 79  1  0  0  0
 20 80  1  0  0  0
 23 81  1  0  0  0
 24 82  1  0  0  0
 24 83  1  0  0  0
 25 84  1  0  0  0
 25 85  1  0  0  0
 25 86  1  0  0  0
 26 87  1  0  0  0
 26 88  1  0  0  0
 26 89  1  0  0  0
 27 90  1  0  0  0
 28 91  1  0  0  0
 31 92  1  0  0  0
 31 93  1  0  0  0
 34 94  1  0  0  0
 35 95  1  0  0  0
 36 96  1  0  0  0
 39 97  1  0  0  0
 40 98  1  0  0  0
 40 99  1  0  0  0
 40100  1  0  0  0
 41101  1  0  0  0
 41102  1  0  0  0
 41103  1  0  0  0
 42104  1  0  0  0
 43105  1  0  0  0
 46106  1  0  0  0
 47107  1  0  0  0
 47108  1  0  0  0
 47109  1  0  0  0
 48110  1  0  0  0
 48111  1  0  0  0
 48112  1  0  0  0
 49113  1  0  0  0
 50114  1  0  0  0
 53115  1  0  0  0
 53116  1  0  0  0
 54117  1  0  0  0
 55118  1  0  0  0
 56119  1  0  0  0
 59120  1  0  0  0
 60121  1  0  0  0
 60122  1  0  0  0
 60123  1  0  0  0
 61124  1  0  0  0
 61125  1  0  0  0
 61126  1  0  0  0
 62127  1  0  0  0
M  END
$$$$
