### 
### Created by X-TOOL on Mon Sep 10 21:13:21 2018
### 

@<TRIPOS>MOLECULE
4y7r_ligand
  123   122     1     0     0
SMALL
GAST_HUCK


@<TRIPOS>ATOM
      1 N          24.9940    0.9360   18.2950 N.4       1 GLU         0.2380
      2 CA         24.1740    1.0160   17.1050 C.3       1 GLU         0.0665
      3 C          22.8250    1.6820   17.3250 C.2       1 GLU         0.2268
      4 O          22.1830    2.0740   16.3860 O.2       1 GLU        -0.3907
      5 CB         23.9880   -0.3560   16.5110 C.3       1 GLU         0.0194
      6 CG         24.1310   -0.3650   15.0070 C.3       1 GLU         0.0075
      7 CD         23.2210   -1.3660   14.3530 C.2       1 GLU         0.0351
      8 OE1        23.4230   -1.6700   13.1650 O.co2     1 GLU        -0.5690
      9 OE2        22.2990   -1.8500   15.0290 O.co2     1 GLU        -0.5690
     10 N          22.3920    1.7880   18.5620 N.am      1 GLU        -0.2609
     11 CA         21.1350    2.4380   18.8710 C.3       1 GLU         0.1326
     12 C          21.5650    3.8620   19.1070 C.2       1 GLU         0.2040
     13 O          22.3980    4.1270   19.9490 O.2       1 GLU        -0.3944
     14 CB         20.5010    1.8030   20.1020 C.3       1 GLU        -0.0008
     15 CG         19.4720    2.6540   20.8200 C.3       1 GLU         0.0044
     16 CD         18.2130    1.9050   21.2080 C.2       1 GLU         0.0350
     17 OE1        17.8800    0.8800   20.5810 O.co2     1 GLU        -0.5690
     18 OE2        17.5340    2.3750   22.1350 O.co2     1 GLU        -0.5690
     19 N          21.0230    4.7870   18.3390 N.am      1 ILE        -0.2635
     20 CA         21.4230    6.1670   18.4640 C.3       1 ILE         0.1335
     21 C          20.5440    6.9480   19.4080 C.2       1 ILE         0.2042
     22 O          19.3590    6.7440   19.4300 O.2       1 ILE        -0.3944
     23 CB         21.4720    6.8020   17.0670 C.3       1 ILE        -0.0037
     24 CG1        22.7510    6.3910   16.3910 C.3       1 ILE        -0.0491
     25 CG2        21.4770    8.3090   17.1040 C.3       1 ILE        -0.0582
     26 CD1        22.5690    5.2300   15.4800 C.3       1 ILE        -0.0648
     27 N          21.1590    7.8440   20.1580 N.am      1 ASP        -0.2622
     28 CA         20.4780    8.7030   21.0840 C.3       1 ASP         0.1423
     29 C          20.6210   10.1430   20.6320 C.2       1 ASP         0.2056
     30 O          21.6500   10.7520   20.7910 O.2       1 ASP        -0.3943
     31 CB         21.0520    8.5710   22.4850 C.3       1 ASP         0.0406
     32 CG         20.3230    9.4130   23.4960 C.2       1 ASP         0.0393
     33 OD1        19.5750   10.2960   23.1140 O.co2     1 ASP        -0.5688
     34 OD2        20.5030    9.1920   24.7070 O.co2     1 ASP        -0.5688
     35 N          19.5500   10.6850   20.0900 N.am      1 VAL        -0.2634
     36 CA         19.5710   12.0480   19.5990 C.3       1 VAL         0.1333
     37 C          19.1220   13.0890   20.5950 C.2       1 VAL         0.2042
     38 O          18.9960   14.2380   20.2530 O.2       1 VAL        -0.3944
     39 CB         18.6850   12.1590   18.3530 C.3       1 VAL        -0.0063
     40 CG1        19.1400   11.1810   17.3100 C.3       1 VAL        -0.0584
     41 CG2        17.2510   11.8530   18.7230 C.3       1 VAL        -0.0584
     42 N          18.8960   12.6900   21.8320 N.am      1 VAL        -0.2635
     43 CA         18.4320   13.6210   22.8210 C.3       1 VAL         0.1333
     44 C          19.3570   13.9530   23.9810 C.2       1 VAL         0.2042
     45 O          19.5380   15.1030   24.2980 O.2       1 VAL        -0.3944
     46 CB         17.0940   13.1220   23.3820 C.3       1 VAL        -0.0063
     47 CG1        16.5420   14.0670   24.4160 C.3       1 VAL        -0.0584
     48 CG2        16.1140   12.9350   22.2550 C.3       1 VAL        -0.0584
     49 N          19.9250   12.9490   24.6200 N.am      1 SER        -0.2616
     50 CA         20.7670   13.2110   25.7740 C.3       1 SER         0.1539
     51 C          21.9640   14.0110   25.4020 C.2       1 SER         0.2056
     52 O          22.5950   13.7610   24.4210 O.2       1 SER        -0.3943
     53 CB         21.1550   11.9340   26.5010 C.3       1 SER         0.0843
     54 OG         20.8530   10.7880   25.7550 O.3       1 SER        -0.3903
     55 N          22.2600   15.0020   26.2100 N.am      1 VAL        -0.2692
     56 CA         23.4070   15.8420   25.9470 C.3       1 VAL         0.0967
     57 C          24.6640   15.3830   26.6880 C.2       1 VAL         0.0603
     58 O          24.5800   14.3830   27.4540 O.co2     1 VAL        -0.5666
     59 CB         23.1250   17.3230   26.2390 C.3       1 VAL        -0.0118
     60 CG1        21.9790   17.8030   25.3830 C.3       1 VAL        -0.0590
     61 CG2        22.7740   17.5290   27.6850 C.3       1 VAL        -0.0590
     62 OXT        25.7280   16.0260   26.4490 O.co2     1 VAL        -0.5666
     63 H1         25.8673    0.4850   18.0715 H         1 GLU         0.2015
     64 H2         24.5111    0.4022   19.0006 H         1 GLU         0.2015
     65 H3         25.1748    1.8651   18.6416 H         1 GLU         0.2015
     66 H4         24.7221    1.6290   16.3744 H         1 GLU         0.1099
     67 H5         22.9825   -0.7186   16.7709 H         1 GLU         0.0363
     68 H6         24.7434   -1.0306   16.9402 H         1 GLU         0.0363
     69 H7         25.1717   -0.6139   14.7522 H         1 GLU         0.0434
     70 H8         23.8889    0.6369   14.6227 H         1 GLU         0.0434
     71 H9         22.9431    1.4112   19.3065 H         1 GLU         0.1885
     72 H10        20.4324    2.3752   18.0270 H         1 GLU         0.0801
     73 H11        21.3053    1.5704   20.8154 H         1 GLU         0.0330
     74 H12        20.0092    0.8708   19.7870 H         1 GLU         0.0330
     75 H13        19.1891    3.4860   20.1583 H         1 GLU         0.0433
     76 H14        19.9323    3.0538   21.7356 H         1 GLU         0.0433
     77 H15        20.3300    4.5298   17.6655 H         1 ILE         0.1883
     78 H16        22.4414    6.1844   18.8794 H         1 ILE         0.0803
     79 H17        20.6052    6.4536   16.4863 H         1 ILE         0.0345
     80 H18        23.4865    6.1210   17.1631 H         1 ILE         0.0267
     81 H19        23.1294    7.2420   15.8057 H         1 ILE         0.0267
     82 H20        20.5581    8.6668   17.5913 H         1 ILE         0.0235
     83 H21        21.5239    8.7009   16.0773 H         1 ILE         0.0235
     84 H22        22.3526    8.6590   17.6705 H         1 ILE         0.0235
     85 H23        23.5326    4.9741   15.0151 H         1 ILE         0.0230
     86 H24        21.8414    5.4890   14.6968 H         1 ILE         0.0230
     87 H25        22.1985    4.3679   16.0541 H         1 ILE         0.0230
     88 H26        22.1521    7.9284   20.0763 H         1 ASP         0.1884
     89 H27        19.4125    8.4305   21.1058 H         1 ASP         0.0819
     90 H28        22.1067    8.8826   22.4634 H         1 ASP         0.0478
     91 H29        20.9872    7.5171   22.7934 H         1 ASP         0.0478
     92 H30        18.7098   10.1478   20.0162 H         1 VAL         0.1883
     93 H31        20.6084   12.2809   19.3170 H         1 VAL         0.0802
     94 H32        18.7505   13.1804   17.9499 H         1 VAL         0.0343
     95 H33        18.4985   11.2684   16.4207 H         1 VAL         0.0234
     96 H34        19.0729   10.1591   17.7114 H         1 VAL         0.0234
     97 H35        20.1821   11.3985   17.0331 H         1 VAL         0.0234
     98 H36        16.9095   12.5661   19.4878 H         1 VAL         0.0234
     99 H37        17.1853   10.8295   19.1207 H         1 VAL         0.0234
    100 H38        16.6151   11.9409   17.8298 H         1 VAL         0.0234
    101 H39        19.0488   11.7339   22.0819 H         1 VAL         0.1883
    102 H40        18.2494   14.5677   22.2915 H         1 VAL         0.0802
    103 H41        17.2622   12.1476   23.8639 H         1 VAL         0.0343
    104 H42        15.5853   13.6780   24.7947 H         1 VAL         0.0234
    105 H43        16.3815   15.0555   23.9609 H         1 VAL         0.0234
    106 H44        17.2558   14.1579   25.2479 H         1 VAL         0.0234
    107 H45        16.5369   12.2423   21.5125 H         1 VAL         0.0234
    108 H46        15.9138   13.9059   21.7783 H         1 VAL         0.0234
    109 H47        15.1752   12.5201   22.6505 H         1 VAL         0.0234
    110 H48        19.7764   12.0097   24.3108 H         1 SER         0.1884
    111 H49        20.1752   13.8164   26.4763 H         1 SER         0.0823
    112 H50        20.6092   11.8896   27.4550 H         1 SER         0.0606
    113 H51        22.2370   11.9534   26.6981 H         1 SER         0.0606
    114 H52        21.3252   10.8143   24.9311 H         1 SER         0.2097
    115 H53        21.6890   15.1771   27.0121 H         1 VAL         0.1875
    116 H54        23.6188   15.7583   24.8708 H         1 VAL         0.0729
    117 H55        24.0250   17.9094   26.0020 H         1 VAL         0.0336
    118 H56        21.7814   18.8639   25.5962 H         1 VAL         0.0234
    119 H57        21.0800   17.2103   25.6078 H         1 VAL         0.0234
    120 H58        22.2400   17.6849   24.3210 H         1 VAL         0.0234
    121 H59        23.6046   17.1815   28.3170 H         1 VAL         0.0234
    122 H60        21.8655   16.9579   27.9268 H         1 VAL         0.0234
    123 H61        22.5950   18.5984   27.8701 H         1 VAL         0.0234
@<TRIPOS>BOND
     1    1    2 1  
     2    2    3 1  
     3    2    5 1  
     4    3    4 2  
     5    3   10 am 
     6    5    6 1  
     7    6    7 1  
     8    7    8 ar 
     9    7    9 ar 
    10   10   11 1  
    11   11   12 1  
    12   11   14 1  
    13   12   13 2  
    14   12   19 am 
    15   14   15 1  
    16   15   16 1  
    17   16   17 ar 
    18   16   18 ar 
    19   19   20 1  
    20   20   21 1  
    21   20   23 1  
    22   21   22 2  
    23   21   27 am 
    24   23   24 1  
    25   23   25 1  
    26   24   26 1  
    27   27   28 1  
    28   28   29 1  
    29   28   31 1  
    30   29   30 2  
    31   29   35 am 
    32   31   32 1  
    33   32   33 ar 
    34   32   34 ar 
    35   35   36 1  
    36   36   37 1  
    37   36   39 1  
    38   37   38 2  
    39   37   42 am 
    40   39   40 1  
    41   39   41 1  
    42   42   43 1  
    43   43   44 1  
    44   43   46 1  
    45   44   45 2  
    46   44   49 am 
    47   46   47 1  
    48   46   48 1  
    49   49   50 1  
    50   50   51 1  
    51   50   53 1  
    52   51   52 2  
    53   51   55 am 
    54   53   54 1  
    55   55   56 1  
    56   56   57 1  
    57   56   59 1  
    58   57   58 ar 
    59   57   62 ar 
    60   59   60 1  
    61   59   61 1  
    62    1   63 1  
    63    1   64 1  
    64    1   65 1  
    65    2   66 1  
    66    5   67 1  
    67    5   68 1  
    68    6   69 1  
    69    6   70 1  
    70   10   71 1  
    71   11   72 1  
    72   14   73 1  
    73   14   74 1  
    74   15   75 1  
    75   15   76 1  
    76   19   77 1  
    77   20   78 1  
    78   23   79 1  
    79   24   80 1  
    80   24   81 1  
    81   25   82 1  
    82   25   83 1  
    83   25   84 1  
    84   26   85 1  
    85   26   86 1  
    86   26   87 1  
    87   27   88 1  
    88   28   89 1  
    89   31   90 1  
    90   31   91 1  
    91   35   92 1  
    92   36   93 1  
    93   39   94 1  
    94   40   95 1  
    95   40   96 1  
    96   40   97 1  
    97   41   98 1  
    98   41   99 1  
    99   41  100 1  
   100   42  101 1  
   101   43  102 1  
   102   46  103 1  
   103   47  104 1  
   104   47  105 1  
   105   47  106 1  
   106   48  107 1  
   107   48  108 1  
   108   48  109 1  
   109   49  110 1  
   110   50  111 1  
   111   53  112 1  
   112   53  113 1  
   113   54  114 1  
   114   55  115 1  
   115   56  116 1  
   116   59  117 1  
   117   60  118 1  
   118   60  119 1  
   119   60  120 1  
   120   61  121 1  
   121   61  122 1  
   122   61  123 1  
@<TRIPOS>SUBSTRUCTURE
     1 GLU         1

