3rqw_ligand
  -I-interpret- 

 26 25  0  0  0  0  0  0  0  0999 V2000
 -112.5680  -70.4070  -61.3420 N   0  3  0  0  0
 -113.0550  -69.2140  -62.0510 C   0  0  0  0  0
 -114.5300  -69.2870  -62.4240 C   0  0  0  0  0
 -115.2950  -69.5300  -61.2500 O   0  0  0  0  0
 -116.6330  -68.9750  -61.2050 C   0  0  0  0  0
 -116.9500  -68.2060  -62.1110 O   0  0  0  0  0
 -117.4860  -69.2450  -59.9950 C   0  0  0  0  0
 -111.1040  -70.4250  -61.4790 C   0  0  0  0  0
 -113.0860  -71.6540  -61.9470 C   0  0  0  0  0
 -112.9140  -70.3140  -59.9070 C   0  0  0  0  0
 -112.4871  -69.1296  -62.9775 H   0  0  0  0  0
 -112.9283  -68.3620  -61.3830 H   0  0  0  0  0
 -114.6881  -70.0948  -63.1386 H   0  0  0  0  0
 -114.8411  -68.3452  -62.8761 H   0  0  0  0  0
 -117.6493  -68.3140  -59.4521 H   0  0  0  0  0
 -118.4448  -69.6552  -60.3121 H   0  0  0  0  0
 -116.9795  -69.9607  -59.3474 H   0  0  0  0  0
 -110.7026  -71.2960  -60.9610 H   0  0  0  0  0
 -110.8398  -70.4752  -62.5353 H   0  0  0  0  0
 -110.6883  -69.5171  -61.0419 H   0  0  0  0  0
 -112.8015  -71.6916  -62.9985 H   0  0  0  0  0
 -112.6642  -72.5124  -61.4242 H   0  0  0  0  0
 -114.1725  -71.6733  -61.8624 H   0  0  0  0  0
 -112.5046  -71.1754  -59.3793 H   0  0  0  0  0
 -112.4933  -69.3982  -59.4917 H   0  0  0  0  0
 -113.9983  -70.3001  -59.7962 H   0  0  0  0  0
  1  2  1  0  0  0
  1  8  1  0  0  0
  1  9  1  0  0  0
  1 10  1  0  0  0
  2  3  1  0  0  0
  3  4  1  0  0  0
  4  5  1  0  0  0
  5  6  2  0  0  0
  5  7  1  0  0  0
  2 11  1  0  0  0
  2 12  1  0  0  0
  3 13  1  0  0  0
  3 14  1  0  0  0
  7 15  1  0  0  0
  7 16  1  0  0  0
  7 17  1  0  0  0
  8 18  1  0  0  0
  8 19  1  0  0  0
  8 20  1  0  0  0
  9 21  1  0  0  0
  9 22  1  0  0  0
  9 23  1  0  0  0
 10 24  1  0  0  0
 10 25  1  0  0  0
 10 26  1  0  0  0
M  END
$$$$
