6b7a_ligand
  -I-interpret- 

 18 19  0  0  0  0  0  0  0  0999 V2000
  -34.1910  -32.4170   55.2970 C   0  0  0  0  0
  -35.2560  -32.6920   54.4510 C   0  0  0  0  0
  -35.9280  -33.9020   54.5240 C   0  0  0  0  0
  -35.4240  -37.8860   57.4130 C   0  0  0  0  0
  -33.7750  -33.3580   56.2350 C   0  0  0  0  0
  -34.4650  -34.5790   56.2820 C   0  0  0  0  0
  -35.5170  -34.8490   55.4600 C   0  0  0  0  0
  -35.2710  -36.5640   56.7440 C   0  0  0  0  0
  -34.3090  -35.6760   57.0990 N   0  0  0  0  0
  -36.0330  -36.1150   55.7530 N   0  0  0  0  0
  -32.7480  -33.0730   57.0780 O   0  0  0  0  0
  -33.6770  -31.4584   55.2267 H   0  0  0  0  0
  -35.5682  -31.9467   53.7195 H   0  0  0  0  0
  -36.7660  -34.1099   53.8587 H   0  0  0  0  0
  -34.5076  -38.4629   57.2887 H   0  0  0  0  0
  -35.6180  -37.7342   58.4748 H   0  0  0  0  0
  -36.2580  -38.4249   56.9634 H   0  0  0  0  0
  -32.5914  -33.8240   57.6551 H   0  0  0  0  0
  1  2  4  0  0  0
  5  1  4  0  0  0
  3  2  4  0  0  0
  7  3  4  0  0  0
  8  4  1  0  0  0
  6  5  4  0  0  0
  5 11  1  0  0  0
  6  7  4  0  0  0
  9  6  4  0  0  0
  7 10  4  0  0  0
  8  9  4  0  0  0
  8 10  4  0  0  0
  1 12  1  0  0  0
  2 13  1  0  0  0
  3 14  1  0  0  0
  4 15  1  0  0  0
  4 16  1  0  0  0
  4 17  1  0  0  0
 11 18  1  0  0  0
M  END
$$$$
