4e4a_ligand
  -I-interpret- 

 16 16  0  0  0  0  0  0  0  0999 V2000
   15.0270    4.4040   14.0040 S   0  0  0  0  0
   16.7260    2.3700   15.2740 C   0  0  0  0  0
   17.4480    3.4770   14.5920 C   0  0  0  0  0
   17.4330    5.4910   13.3220 C   0  0  0  0  0
   15.4710    2.1550   15.1570 O   0  0  0  0  0
   19.4930    4.6050   13.9610 C   0  0  0  0  0
   17.4000    1.7780   16.0980 O   0  0  0  0  0
   16.7520    4.4780   13.9840 C   0  0  0  0  0
   18.8470    3.5410   14.6110 C   0  0  0  0  0
   18.7810    5.5910   13.3150 C   0  0  0  0  0
   14.5321    5.4606   13.3656 H   0  0  0  0  0
   16.8536    6.2405   12.7829 H   0  0  0  0  0
   15.1158    2.7113   14.4599 H   0  0  0  0  0
   20.5820    4.6515   13.9679 H   0  0  0  0  0
   19.4273    2.7742   15.1241 H   0  0  0  0  0
   19.2848    6.4197   12.8175 H   0  0  0  0  0
  8  1  1  0  0  0
  3  2  1  0  0  0
  2  5  1  0  0  0
  2  7  2  0  0  0
  3  8  4  0  0  0
  3  9  4  0  0  0
  8  4  4  0  0  0
  4 10  4  0  0  0
  9  6  4  0  0  0
  6 10  4  0  0  0
  1 11  1  0  0  0
  4 12  1  0  0  0
  5 13  1  0  0  0
  6 14  1  0  0  0
  9 15  1  0  0  0
 10 16  1  0  0  0
M  END
$$$$
