6g07_ligand
  -I-interpret- 

 54 56  0  0  0  0  0  0  0  0999 V2000
  -16.8980    5.0340   79.5690 C   0  0  0  0  0
  -16.9080    4.8840   80.9550 C   0  0  0  0  0
  -17.4440    3.7200   81.5130 C   0  0  0  0  0
  -19.7140    2.6400   83.1520 C   0  0  0  0  0
  -20.3250    3.8980   83.3150 C   0  0  0  0  0
  -21.6990    4.0560   83.0740 C   0  0  0  0  0
  -22.4580    2.9510   82.6680 C   0  0  0  0  0
  -21.8600    1.6970   82.4910 C   0  0  0  0  0
  -20.4890    1.5410   82.7360 C   0  0  0  0  0
  -17.9540    2.2560   84.9250 C   0  0  0  0  0
  -17.4350    5.1530   76.5950 C   0  0  0  0  0
  -17.5610    4.9180   75.1100 C   0  0  0  0  0
  -19.0190    5.2660   74.8140 C   0  0  0  0  0
  -19.3240    6.5240   74.2820 C   0  0  0  0  0
  -20.6570    6.8640   74.0280 C   0  0  0  0  0
  -21.6760    5.9480   74.3220 C   0  0  0  0  0
  -21.3790    4.6870   74.8530 C   0  0  0  0  0
  -20.0430    4.3470   75.1070 C   0  0  0  0  0
  -23.6340    7.8130   75.0470 C   0  0  0  0  0
  -23.4880    7.4250   76.5370 C   0  0  0  0  0
  -17.9430    2.7470   80.7200 N   0  0  0  0  0
  -17.9500    2.8640   79.3810 C   0  0  0  0  0
  -17.4220    4.0040   78.7730 C   0  0  0  0  0
  -17.4590    3.5680   82.8940 O   0  0  0  0  0
  -16.2480    6.1380   81.9860 Cl  0  0  0  0  0
  -17.4790    4.0460   77.3590 N   0  0  0  0  0
  -18.2060    2.4450   83.4100 C   0  0  0  0  0
  -17.3400    6.2900   77.0280 O   0  0  0  0  0
  -23.3560    6.3770   73.9920 S   0  0  0  0  0
  -23.3990    6.8260   72.6130 O   0  0  0  0  0
  -24.2340    5.2840   74.3600 O   0  0  0  0  0
  -16.4903    5.9355   79.1117 H   0  0  0  0  0
  -19.7280    4.7538   83.6300 H   0  0  0  0  0
  -22.1711    5.0301   83.2017 H   0  0  0  0  0
  -23.5266    3.0684   82.4877 H   0  0  0  0  0
  -22.4581    0.8464   82.1642 H   0  0  0  0  0
  -20.0212    0.5654   82.6040 H   0  0  0  0  0
  -16.8925    2.0771   85.0959 H   0  0  0  0  0
  -18.2627    3.1551   85.4583 H   0  0  0  0  0
  -18.5299    1.4031   85.2842 H   0  0  0  0  0
  -17.3106    3.8956   74.8269 H   0  0  0  0  0
  -16.8623    5.5223   74.5314 H   0  0  0  0  0
  -18.5268    7.2354   74.0666 H   0  0  0  0  0
  -20.9020    7.8374   73.6031 H   0  0  0  0  0
  -22.1782    3.9772   75.0666 H   0  0  0  0  0
  -19.7982    3.3729   75.5305 H   0  0  0  0  0
  -22.8963    8.5783   74.8059 H   0  0  0  0  0
  -24.6426    8.1890   74.8756 H   0  0  0  0  0
  -24.2195    6.6557   76.7842 H   0  0  0  0  0
  -22.4828    7.0429   76.7148 H   0  0  0  0  0
  -23.6591    8.3040   77.1585 H   0  0  0  0  0
  -18.3693    2.0661   78.7681 H   0  0  0  0  0
  -17.5612    3.1528   76.8734 H   0  0  0  0  0
  -17.8653    1.5498   82.8897 H   0  0  0  0  0
  2  1  4  0  0  0
  1 23  4  0  0  0
  3  2  4  0  0  0
  2 25  1  0  0  0
  3 21  4  0  0  0
 24  3  1  0  0  0
  4  5  4  0  0  0
  4  9  4  0  0  0
 27  4  1  0  0  0
  5  6  4  0  0  0
  6  7  4  0  0  0
  8  7  4  0  0  0
  9  8  4  0  0  0
 27 10  1  0  0  0
 11 12  1  0  0  0
 26 11  1  0  0  0
 11 28  2  0  0  0
 12 13  1  0  0  0
 13 14  4  0  0  0
 13 18  4  0  0  0
 14 15  4  0  0  0
 15 16  4  0  0  0
 17 16  4  0  0  0
 16 29  1  0  0  0
 18 17  4  0  0  0
 19 20  1  0  0  0
 29 19  1  0  0  0
 21 22  4  0  0  0
 22 23  4  0  0  0
 23 26  1  0  0  0
 24 27  1  0  0  0
 29 30  2  0  0  0
 29 31  2  0  0  0
  1 32  1  0  0  0
  5 33  1  0  0  0
  6 34  1  0  0  0
  7 35  1  0  0  0
  8 36  1  0  0  0
  9 37  1  0  0  0
 10 38  1  0  0  0
 10 39  1  0  0  0
 10 40  1  0  0  0
 12 41  1  0  0  0
 12 42  1  0  0  0
 14 43  1  0  0  0
 15 44  1  0  0  0
 17 45  1  0  0  0
 18 46  1  0  0  0
 19 47  1  0  0  0
 19 48  1  0  0  0
 20 49  1  0  0  0
 20 50  1  0  0  0
 20 51  1  0  0  0
 22 52  1  0  0  0
 26 53  1  0  0  0
 27 54  1  0  0  0
M  END
$$$$
