2uw6_ligand
  -I-interpret- 

 37 39  0  0  0  0  0  0  0  0999 V2000
   12.3290    7.3430    2.7480 N   0  3  0  0  0
   10.9700    7.8370    3.0170 C   0  0  0  0  0
   10.8670    9.3790    3.1050 C   0  0  0  0  0
   11.8460    9.7920    4.1880 C   0  0  0  0  0
   11.7960    9.2710    5.4760 C   0  0  0  0  0
   12.7350    9.6380    6.4360 C   0  0  0  0  0
   13.7520   10.5150    6.1200 C   0  0  0  0  0
   14.9090   10.9560    7.3490 Cl  0  0  0  0  0
   13.8240   11.0320    4.8300 C   0  0  0  0  0
   12.8820   10.6610    3.8690 C   0  0  0  0  0
    9.3690    9.5690    3.2780 C   0  0  0  0  0
    8.5970    9.4180    2.1330 C   0  0  0  0  0
    7.2100    9.5120    2.1880 C   0  0  0  0  0
    6.5660    9.7880    3.3980 C   0  0  0  0  0
    7.3420    9.9090    4.5540 C   0  0  0  0  0
    8.7260    9.7920    4.4910 C   0  0  0  0  0
    5.0810    9.8370    3.4410 C   0  0  0  0  0
    4.2770    9.6450    4.5840 C   0  0  0  0  0
    3.0260    9.6850    4.2230 N   0  0  0  0  0
    2.9840    9.8620    2.8390 N   0  0  0  0  0
    4.2340    9.9430    2.3790 C   0  0  0  0  0
   12.3167    6.3240    2.7045 H   0  0  0  0  0
   12.6560    7.7186    1.8578 H   0  0  0  0  0
   12.9535    7.6450    3.4958 H   0  0  0  0  0
   10.6659    7.4368    3.9842 H   0  0  0  0  0
   10.3395    7.5175    2.1872 H   0  0  0  0  0
   11.1614   10.0230    2.2763 H   0  0  0  0  0
   11.0090    8.5639    5.7383 H   0  0  0  0  0
   12.6662    9.2296    7.4443 H   0  0  0  0  0
   14.6196   11.7298    4.5688 H   0  0  0  0  0
   12.9601   11.0576    2.8567 H   0  0  0  0  0
    9.0848    9.2231    1.1779 H   0  0  0  0  0
    6.6214    9.3695    1.2817 H   0  0  0  0  0
    6.8584   10.0966    5.5126 H   0  0  0  0  0
    9.3149    9.8762    5.4043 H   0  0  0  0  0
    4.6415    9.4892    5.5994 H   0  0  0  0  0
    4.5261   10.0714    1.3368 H   0  0  0  0  0
  1  2  1  0  0  0
  2  3  1  0  0  0
  3  4  1  0  0  0
  3 11  1  0  0  0
  4  5  4  0  0  0
  4 10  4  0  0  0
  5  6  4  0  0  0
  6  7  4  0  0  0
  7  8  1  0  0  0
  7  9  4  0  0  0
  9 10  4  0  0  0
 11 12  4  0  0  0
 11 16  4  0  0  0
 12 13  4  0  0  0
 13 14  4  0  0  0
 14 15  4  0  0  0
 14 17  1  0  0  0
 15 16  4  0  0  0
 17 18  4  0  0  0
 17 21  4  0  0  0
 18 19  4  0  0  0
 19 20  4  0  0  0
 20 21  4  0  0  0
  1 22  1  0  0  0
  1 23  1  0  0  0
  1 24  1  0  0  0
  2 25  1  0  0  0
  2 26  1  0  0  0
  3 27  1  0  0  0
  5 28  1  0  0  0
  6 29  1  0  0  0
  9 30  1  0  0  0
 10 31  1  0  0  0
 12 32  1  0  0  0
 13 33  1  0  0  0
 15 34  1  0  0  0
 16 35  1  0  0  0
 18 36  1  0  0  0
 21 37  1  0  0  0
M  END
$$$$
