4k19_ligand
  -I-interpret- 

 79 82  0  0  0  0  0  0  0  0999 V2000
   31.0500   80.9770   64.2740 O   0  0  0  0  0
   30.1190   80.2830   64.6620 C   0  0  0  0  0
   28.9050   80.1280   63.7740 C   0  0  0  0  0
   28.5590   81.1590   62.9050 C   0  0  0  0  0
   27.4370   81.0410   62.0850 C   0  0  0  0  0
   26.6510   79.8980   62.1220 C   0  0  0  0  0
   27.0010   78.8730   62.9850 C   0  0  0  0  0
   26.2460   77.7430   63.0280 O   0  0  0  0  0
   28.1140   78.9870   63.8020 C   0  0  0  0  0
   28.4150   77.9540   64.6360 O   0  0  0  0  0
   30.1540   79.6900   65.8640 N   0  0  0  0  0
   31.2170   79.7100   66.8660 C   0  0  0  0  0
   30.5670   79.6260   68.2520 C   0  0  0  0  0
   30.3560   78.1800   68.7250 C   0  0  0  0  0
   30.1770   78.0630   70.1840 N   0  0  0  0  0
   30.3210   76.9220   70.8810 C   0  0  0  0  0
   30.1360   76.9150   72.0870 O   0  0  0  0  0
   30.6710   75.5880   70.2680 C   0  0  0  0  0
   32.1810   75.3200   70.2570 C   0  0  0  0  0
   32.6120   74.3550   71.3550 C   0  0  0  0  0
   32.4890   74.7500   68.9860 O   0  0  0  0  0
   30.3280   75.3880   68.8660 N   0  0  0  0  0
   31.2960   74.9500   68.1950 C   0  0  0  0  0
   31.2510   74.6620   66.7260 C   0  0  0  0  0
   30.2310   75.1550   65.9270 C   0  0  0  0  0
   29.2340   75.9390   66.4140 O   0  0  0  0  0
   30.2010   74.8620   64.5870 C   0  0  0  0  0
   29.1900   75.3850   63.8420 O   0  0  0  0  0
   31.1910   74.0690   64.0190 C   0  0  0  0  0
   32.2210   73.5710   64.8120 C   0  0  0  0  0
   32.2480   73.8700   66.1700 C   0  0  0  0  0
   29.8090   79.2740   70.9270 C   0  0  0  0  0
   28.3470   79.1330   71.3600 C   0  0  0  0  0
   27.3790   79.7230   70.3350 C   0  0  0  0  0
   26.8240   78.6070   69.5780 N   0  0  0  0  0
   25.5670   78.1650   69.6180 C   0  0  0  0  0
   24.7600   78.6700   70.3850 O   0  0  0  0  0
   25.1470   76.9920   68.7690 C   0  0  0  0  0
   25.8750   76.5790   67.6600 C   0  0  0  0  0
   27.0010   77.2390   67.2820 O   0  0  0  0  0
   25.4760   75.4690   66.9320 C   0  0  0  0  0
   26.2010   75.0660   65.8480 O   0  0  0  0  0
   24.3280   74.7720   67.2890 C   0  0  0  0  0
   23.5840   75.1870   68.3850 C   0  0  0  0  0
   23.9950   76.2920   69.1200 C   0  0  0  0  0
   29.1676   82.0624   62.8652 H   0  0  0  0  0
   27.1750   81.8545   61.4085 H   0  0  0  0  0
   25.7728   79.8084   61.4825 H   0  0  0  0  0
   26.6183   77.1351   63.6710 H   0  0  0  0  0
   27.7672   77.2544   64.5238 H   0  0  0  0  0
   29.3247   79.1509   66.1130 H   0  0  0  0  0
   31.7982   80.6280   66.7787 H   0  0  0  0  0
   31.8910   78.8667   66.7155 H   0  0  0  0  0
   29.5888   80.1029   68.1910 H   0  0  0  0  0
   31.2328   80.1155   68.9627 H   0  0  0  0  0
   31.2469   77.6124   68.4561 H   0  0  0  0  0
   29.4477   77.8079   68.2511 H   0  0  0  0  0
   30.0805   74.9352   70.9109 H   0  0  0  0  0
   32.7109   76.2557   70.4351 H   0  0  0  0  0
   32.3525   74.7737   72.3274 H   0  0  0  0  0
   32.1009   73.4017   71.2203 H   0  0  0  0  0
   33.6898   74.2019   71.2999 H   0  0  0  0  0
   28.6340   76.1712   65.7015 H   0  0  0  0  0
   29.2880   75.1038   62.9294 H   0  0  0  0  0
   31.1610   73.8374   62.9543 H   0  0  0  0  0
   33.0015   72.9506   64.3714 H   0  0  0  0  0
   33.0508   73.4832   66.7977 H   0  0  0  0  0
   29.9336   80.1556   70.2983 H   0  0  0  0  0
   30.4518   79.3921   71.7993 H   0  0  0  0  0
   28.2182   79.6742   72.2973 H   0  0  0  0  0
   28.1255   78.0706   71.4619 H   0  0  0  0  0
   27.8958   80.4179   69.6731 H   0  0  0  0  0
   26.5867   80.2830   70.8317 H   0  0  0  0  0
   27.4630   78.1142   68.9541 H   0  0  0  0  0
   27.3704   76.8185   66.5021 H   0  0  0  0  0
   25.7911   74.2888   65.4613 H   0  0  0  0  0
   24.0131   73.9032   66.7109 H   0  0  0  0  0
   22.6801   74.6476   68.6681 H   0  0  0  0  0
   23.4095   76.6148   69.9809 H   0  0  0  0  0
  1  2  2  0  0  0
  2  3  1  0  0  0
  2 11  1  0  0  0
  3  4  4  0  0  0
  3  9  4  0  0  0
  4  5  4  0  0  0
  5  6  4  0  0  0
  6  7  4  0  0  0
  7  8  1  0  0  0
  7  9  4  0  0  0
  9 10  1  0  0  0
 11 12  1  0  0  0
 12 13  1  0  0  0
 13 14  1  0  0  0
 14 15  1  0  0  0
 15 16  1  0  0  0
 15 32  1  0  0  0
 16 17  2  0  0  0
 16 18  1  0  0  0
 18 19  1  0  0  0
 18 22  1  0  0  0
 19 20  1  0  0  0
 19 21  1  0  0  0
 21 23  1  0  0  0
 22 23  2  0  0  0
 23 24  1  0  0  0
 24 25  4  0  0  0
 24 31  4  0  0  0
 25 26  1  0  0  0
 25 27  4  0  0  0
 27 28  1  0  0  0
 27 29  4  0  0  0
 29 30  4  0  0  0
 30 31  4  0  0  0
 32 33  1  0  0  0
 33 34  1  0  0  0
 34 35  1  0  0  0
 35 36  1  0  0  0
 36 37  2  0  0  0
 36 38  1  0  0  0
 38 39  4  0  0  0
 38 45  4  0  0  0
 39 40  1  0  0  0
 39 41  4  0  0  0
 41 42  1  0  0  0
 41 43  4  0  0  0
 43 44  4  0  0  0
 44 45  4  0  0  0
  4 46  1  0  0  0
  5 47  1  0  0  0
  6 48  1  0  0  0
  8 49  1  0  0  0
 10 50  1  0  0  0
 11 51  1  0  0  0
 12 52  1  0  0  0
 12 53  1  0  0  0
 13 54  1  0  0  0
 13 55  1  0  0  0
 14 56  1  0  0  0
 14 57  1  0  0  0
 18 58  1  0  0  0
 19 59  1  0  0  0
 20 60  1  0  0  0
 20 61  1  0  0  0
 20 62  1  0  0  0
 26 63  1  0  0  0
 28 64  1  0  0  0
 29 65  1  0  0  0
 30 66  1  0  0  0
 31 67  1  0  0  0
 32 68  1  0  0  0
 32 69  1  0  0  0
 33 70  1  0  0  0
 33 71  1  0  0  0
 34 72  1  0  0  0
 34 73  1  0  0  0
 35 74  1  0  0  0
 40 75  1  0  0  0
 42 76  1  0  0  0
 43 77  1  0  0  0
 44 78  1  0  0  0
 45 79  1  0  0  0
M  END
$$$$
