3c94_ligand
  -I-interpret- 

 70 71  0  0  0  0  0  0  0  0999 V2000
   25.9030   21.7210    3.9890 N   0  3  0  0  0
   24.6680   22.4480    3.5810 C   0  0  0  0  0
   24.1720   23.4250    4.6430 C   0  0  0  0  0
   24.0550   23.0700    5.8210 O   0  0  0  0  0
   23.5570   21.4700    3.1990 C   0  0  0  0  0
   23.4930   21.2240    1.7030 C   0  0  0  0  0
   24.4760   21.5430    0.9970 O   0  0  0  0  0
   22.4570   20.7200    1.2220 O   0  0  0  0  0
   23.8830   24.6540    4.2120 N   0  0  0  0  0
   23.4670   25.7260    5.1140 C   0  0  0  0  0
   22.3060   26.5340    4.5410 C   0  0  0  0  0
   22.2150   26.7250    3.3300 O   0  0  0  0  0
   24.6400   26.6850    5.4750 C   0  0  0  0  0
   25.5140   26.9610    4.2450 C   0  0  0  0  0
   25.4750   26.1030    6.6270 C   0  0  0  0  0
   26.0870   28.3750    4.1850 C   0  0  0  0  0
   21.4130   27.0130    5.4180 N   0  0  0  0  0
   20.2350   27.7430    5.0040 C   0  0  0  0  0
   20.4590   29.2340    4.7380 C   0  0  0  0  0
   19.6410   29.8510    4.0590 O   0  0  0  0  0
   19.2850   27.5680    6.1940 C   0  0  0  0  0
   20.0350   26.7350    7.2140 C   0  0  0  0  0
   21.4510   26.8430    6.8770 C   0  0  0  0  0
   21.5410   29.8180    5.2600 N   0  0  0  0  0
   21.7540   31.2780    5.1250 C   0  0  0  0  0
   23.2010   31.7240    5.4080 C   0  0  0  0  0
   23.9860   30.9830    5.9870 O   0  0  0  0  0
   20.7860   32.0540    6.0380 C   0  0  0  0  0
   20.9720   31.7530    7.5010 C   0  0  0  0  0
   22.0750   32.2350    8.1870 C   0  0  0  0  0
   20.0620   30.9640    8.1790 C   0  0  0  0  0
   22.2540   31.9470    9.5000 C   0  0  0  0  0
   20.2370   30.6890    9.4940 C   0  0  0  0  0
   21.3400   31.1790   10.1570 C   0  0  0  0  0
   23.5710   32.8890    5.1960 O   0  0  0  0  0
   26.6265   22.3955    4.2381 H   0  0  0  0  0
   25.6973   21.1286    4.7934 H   0  0  0  0  0
   26.2277   21.1431    3.2138 H   0  0  0  0  0
   24.9388   23.0399    2.7067 H   0  0  0  0  0
   22.6058   21.9011    3.5111 H   0  0  0  0  0
   23.7620   20.5182    3.6891 H   0  0  0  0  0
   25.1643   21.9107    1.5562 H   0  0  0  0  0
   23.9552   24.8532    3.2142 H   0  0  0  0  0
   23.1346   25.2320    6.0270 H   0  0  0  0  0
   24.2203   27.6348    5.8065 H   0  0  0  0  0
   24.8807   26.8343    3.3669 H   0  0  0  0  0
   26.3593   26.2744    4.2919 H   0  0  0  0  0
   24.8407   25.9722    7.5038 H   0  0  0  0  0
   25.8846   25.1387    6.3261 H   0  0  0  0  0
   26.2897   26.7869    6.8651 H   0  0  0  0  0
   25.2699   29.0962    4.1644 H   0  0  0  0  0
   26.7074   28.5519    5.0636 H   0  0  0  0  0
   26.6913   28.4828    3.2843 H   0  0  0  0  0
   19.8692   27.3622    4.0504 H   0  0  0  0  0
   18.3600   27.0781    5.8899 H   0  0  0  0  0
   18.9950   28.5325    6.6107 H   0  0  0  0  0
   19.7057   25.6963    7.1876 H   0  0  0  0  0
   19.8462   27.0940    8.2257 H   0  0  0  0  0
   21.9532   27.6623    7.3915 H   0  0  0  0  0
   22.0345   25.9783    7.1932 H   0  0  0  0  0
   22.2287   29.2522    5.7574 H   0  0  0  0  0
   21.5524   31.5096    4.0791 H   0  0  0  0  0
   19.7722   31.7582    5.7683 H   0  0  0  0  0
   20.9802   33.1169    5.8943 H   0  0  0  0  0
   22.8067   32.8523    7.6658 H   0  0  0  0  0
   19.1975   30.5602    7.6520 H   0  0  0  0  0
   23.1272   32.3291   10.0288 H   0  0  0  0  0
   19.5058   30.0808   10.0264 H   0  0  0  0  0
   21.4828   30.9512   11.2133 H   0  0  0  0  0
   22.8744   33.3668    4.7398 H   0  0  0  0  0
  1  2  1  0  0  0
  2  3  1  0  0  0
  2  5  1  0  0  0
  3  4  2  0  0  0
  3  9  1  0  0  0
  5  6  1  0  0  0
  6  7  1  0  0  0
  6  8  2  0  0  0
  9 10  1  0  0  0
 10 11  1  0  0  0
 10 13  1  0  0  0
 11 12  2  0  0  0
 11 17  1  0  0  0
 13 14  1  0  0  0
 13 15  1  0  0  0
 14 16  1  0  0  0
 17 18  1  0  0  0
 17 23  1  0  0  0
 18 19  1  0  0  0
 18 21  1  0  0  0
 19 20  2  0  0  0
 19 24  1  0  0  0
 21 22  1  0  0  0
 22 23  1  0  0  0
 24 25  1  0  0  0
 25 26  1  0  0  0
 25 28  1  0  0  0
 26 27  2  0  0  0
 26 35  1  0  0  0
 28 29  1  0  0  0
 29 30  4  0  0  0
 29 31  4  0  0  0
 30 32  4  0  0  0
 31 33  4  0  0  0
 32 34  4  0  0  0
 33 34  4  0  0  0
  1 36  1  0  0  0
  1 37  1  0  0  0
  1 38  1  0  0  0
  2 39  1  0  0  0
  5 40  1  0  0  0
  5 41  1  0  0  0
  7 42  1  0  0  0
  9 43  1  0  0  0
 10 44  1  0  0  0
 13 45  1  0  0  0
 14 46  1  0  0  0
 14 47  1  0  0  0
 15 48  1  0  0  0
 15 49  1  0  0  0
 15 50  1  0  0  0
 16 51  1  0  0  0
 16 52  1  0  0  0
 16 53  1  0  0  0
 18 54  1  0  0  0
 21 55  1  0  0  0
 21 56  1  0  0  0
 22 57  1  0  0  0
 22 58  1  0  0  0
 23 59  1  0  0  0
 23 60  1  0  0  0
 24 61  1  0  0  0
 25 62  1  0  0  0
 28 63  1  0  0  0
 28 64  1  0  0  0
 30 65  1  0  0  0
 31 66  1  0  0  0
 32 67  1  0  0  0
 33 68  1  0  0  0
 34 69  1  0  0  0
 35 70  1  0  0  0
M  END
$$$$
