6p89_ligand
  -I-interpret- 

 47 51  0  0  0  0  0  0  0  0999 V2000
   -8.9830   26.5960   12.3410 C   0  0  0  0  0
   -9.0980   27.9800   12.7340 C   0  0  0  0  0
  -15.3630   24.5860   16.5610 C   0  0  0  0  0
  -14.0030   24.5980   16.4440 C   0  0  0  0  0
   -8.1000   27.2340   10.1080 C   0  0  0  0  0
   -9.8510   28.5420   13.8100 C   0  0  0  0  0
  -16.1900   24.2610   15.5270 C   0  0  0  0  0
  -13.4350   24.2910   15.2350 C   0  0  0  0  0
   -8.2190   30.2000   12.2350 C   0  0  0  0  0
  -15.6270   23.9430   14.2470 C   0  0  0  0  0
   -9.7750   29.9260   14.0550 C   0  0  0  0  0
  -14.2440   23.9630   14.1140 C   0  0  0  0  0
   -8.9590   30.7240   13.2960 C   0  0  0  0  0
  -17.0430   24.3440   17.9830 C   0  0  0  0  0
  -18.0070   24.7500   16.8460 C   0  0  0  0  0
  -10.6620   30.5470   15.1020 C   0  0  0  0  0
   -8.4970   26.2170   11.0870 C   0  0  0  0  0
   -9.7910   25.2050   14.3200 C   0  0  0  0  0
   -8.4730   24.8160   11.0230 C   0  0  0  0  0
  -11.3300   25.1300   14.1880 C   0  0  0  0  0
   -8.3070   28.8340   11.9430 C   0  0  0  0  0
   -9.2400   25.3970   12.9950 N   0  0  0  0  0
  -11.9870   24.3230   15.1220 N   0  0  0  0  0
   -8.9320   24.3100   12.2090 N   0  0  0  0  0
   -7.6270   28.4320   10.8090 O   0  0  0  0  0
  -15.8160   24.9400   17.7910 O   0  0  0  0  0
  -17.4990   24.1950   15.5950 O   0  0  0  0  0
  -11.9390   25.7480   13.3400 O   0  0  0  0  0
  -13.3772   24.8484   17.3006 H   0  0  0  0  0
   -8.9570   27.4925    9.4860 H   0  0  0  0  0
   -7.2995   26.8409    9.4812 H   0  0  0  0  0
  -10.4779   27.9057   14.4348 H   0  0  0  0  0
   -7.5778   30.8492   11.6387 H   0  0  0  0  0
  -16.2669   23.6923   13.4010 H   0  0  0  0  0
  -13.7823   23.7283   13.1549 H   0  0  0  0  0
   -8.8867   31.7872   13.5252 H   0  0  0  0  0
  -16.9211   23.2608   17.9820 H   0  0  0  0  0
  -17.4556   24.6691   18.9381 H   0  0  0  0  0
  -18.0669   25.8361   16.7763 H   0  0  0  0  0
  -19.0065   24.3647   17.0476 H   0  0  0  0  0
  -11.7061   30.3788   14.8381 H   0  0  0  0  0
  -10.4527   30.0919   16.0701 H   0  0  0  0  0
  -10.4668   31.6182   15.1529 H   0  0  0  0  0
   -9.4045   24.2858   14.7602 H   0  0  0  0  0
   -9.5076   26.0325   14.9704 H   0  0  0  0  0
   -8.1426   24.2263   10.1679 H   0  0  0  0  0
  -11.4309   23.7371   15.7449 H   0  0  0  0  0
  1  2  1  0  0  0
  1 17  4  0  0  0
 22  1  4  0  0  0
  2  6  4  0  0  0
  2 21  4  0  0  0
  4  3  4  0  0  0
  3  7  4  0  0  0
  3 26  1  0  0  0
  8  4  4  0  0  0
 17  5  1  0  0  0
  5 25  1  0  0  0
  6 11  4  0  0  0
 10  7  4  0  0  0
  7 27  1  0  0  0
  8 12  4  0  0  0
 23  8  1  0  0  0
  9 13  4  0  0  0
 21  9  4  0  0  0
 12 10  4  0  0  0
 11 13  4  0  0  0
 11 16  1  0  0  0
 14 15  1  0  0  0
 26 14  1  0  0  0
 27 15  1  0  0  0
 17 19  4  0  0  0
 20 18  1  0  0  0
 18 22  1  0  0  0
 19 24  4  0  0  0
 20 23  1  0  0  0
 20 28  2  0  0  0
 21 25  1  0  0  0
 22 24  4  0  0  0
  4 29  1  0  0  0
  5 30  1  0  0  0
  5 31  1  0  0  0
  6 32  1  0  0  0
  9 33  1  0  0  0
 10 34  1  0  0  0
 12 35  1  0  0  0
 13 36  1  0  0  0
 14 37  1  0  0  0
 14 38  1  0  0  0
 15 39  1  0  0  0
 15 40  1  0  0  0
 16 41  1  0  0  0
 16 42  1  0  0  0
 16 43  1  0  0  0
 18 44  1  0  0  0
 18 45  1  0  0  0
 19 46  1  0  0  0
 23 47  1  0  0  0
M  END
$$$$
