4hbx_ligand
  -I-interpret- 

 37 39  0  0  0  0  0  0  0  0999 V2000
   50.3320    2.2940   21.5860 C   0  0  0  0  0
   50.1300    3.4580   22.3570 C   0  0  0  0  0
   50.5800    4.6970   21.9600 C   0  0  0  0  0
   53.0150    0.4690   24.3790 C   0  0  0  0  0
   51.3020    4.7550   20.7690 C   0  0  0  0  0
   52.8870    6.1330   19.3740 C   0  0  0  0  0
   52.3450   -0.2860   22.2360 C   0  0  0  0  0
   53.2710   -0.6420   23.3610 C   0  0  0  0  0
   51.5260    0.5500   24.3800 C   0  0  0  0  0
   51.9750    5.9960   20.4340 N   0  0  0  0  0
   51.1570    0.2970   22.9530 N   0  0  0  0  0
   50.9900    2.3900   20.3560 C   0  0  0  0  0
   48.8200    1.0770   23.1520 O   0  0  0  0  0
   49.8160    0.7520   22.1620 S   0  0  0  0  0
   49.8120   -0.1010   21.0900 O   0  0  0  0  0
   51.4560    3.6350   19.9530 C   0  0  0  0  0
   52.0740    3.9020   18.5960 C   0  0  0  0  0
   53.5650    7.1410   19.4030 O   0  0  0  0  0
   53.0590    5.0500   18.6020 N   0  0  0  0  0
   54.1920    5.0510   17.6010 C   0  0  0  0  0
   49.5969    3.3731   23.3039 H   0  0  0  0  0
   50.3809    5.5917   22.5499 H   0  0  0  0  0
   53.4988    1.4111   24.1212 H   0  0  0  0  0
   53.4370    0.2600   25.3620 H   0  0  0  0  0
   52.0861   -1.1420   21.6129 H   0  0  0  0  0
   52.7914    0.4065   21.5224 H   0  0  0  0  0
   53.0836   -1.6371   23.7645 H   0  0  0  0  0
   54.3139   -0.6979   23.0490 H   0  0  0  0  0
   51.1619    1.5124   24.7396 H   0  0  0  0  0
   51.0707   -0.1688   25.0612 H   0  0  0  0  0
   51.7739    6.8187   21.0024 H   0  0  0  0  0
   51.1337    1.5100   19.7291 H   0  0  0  0  0
   51.2666    4.1645   17.9124 H   0  0  0  0  0
   52.6163    3.0044   18.2988 H   0  0  0  0  0
   54.8064    4.1628   17.7487 H   0  0  0  0  0
   53.7826    5.0473   16.5908 H   0  0  0  0  0
   54.8010    5.9436   17.7444 H   0  0  0  0  0
  1  2  4  0  0  0
  1 12  4  0  0  0
 14  1  1  0  0  0
  2  3  4  0  0  0
  3  5  4  0  0  0
  4  8  1  0  0  0
  9  4  1  0  0  0
  5 10  1  0  0  0
  5 16  4  0  0  0
 10  6  1  0  0  0
  6 18  2  0  0  0
  6 19  1  0  0  0
  7  8  1  0  0  0
 11  7  1  0  0  0
 11  9  1  0  0  0
 11 14  1  0  0  0
 12 16  4  0  0  0
 14 13  2  0  0  0
 14 15  2  0  0  0
 16 17  1  0  0  0
 17 19  1  0  0  0
 19 20  1  0  0  0
  2 21  1  0  0  0
  3 22  1  0  0  0
  4 23  1  0  0  0
  4 24  1  0  0  0
  7 25  1  0  0  0
  7 26  1  0  0  0
  8 27  1  0  0  0
  8 28  1  0  0  0
  9 29  1  0  0  0
  9 30  1  0  0  0
 10 31  1  0  0  0
 12 32  1  0  0  0
 17 33  1  0  0  0
 17 34  1  0  0  0
 20 35  1  0  0  0
 20 36  1  0  0  0
 20 37  1  0  0  0
M  END
$$$$
