3i3b_ligand
  -I-interpret- 

 22 22  0  0  0  0  0  0  0  0999 V2000
  -10.6480  -27.9420  -26.4260 C   0  0  0  0  0
   -9.6960  -29.0080  -25.8620 C   0  0  0  0  0
   -8.8230  -29.5690  -26.9840 C   0  0  0  0  0
   -9.6910  -30.0360  -28.1500 C   0  0  0  0  0
  -10.3280  -28.7930  -28.8000 C   0  0  0  0  0
  -11.4440  -29.2070  -29.7590 C   0  0  0  0  0
  -11.1720  -27.1520  -25.6830 O   0  0  0  0  0
   -8.8370  -28.4270  -24.8670 O   0  0  0  0  0
   -8.0720  -30.6540  -26.4770 O   0  0  0  0  0
  -10.7200  -30.9140  -27.6720 O   0  0  0  0  0
  -10.9130  -27.8800  -27.7850 O   0  0  0  0  0
  -10.9030  -29.9280  -30.8640 O   0  0  0  0  0
  -10.2938  -29.8035  -25.4170 H   0  0  0  0  0
   -8.1522  -28.7903  -27.3468 H   0  0  0  0  0
   -9.0849  -30.5758  -28.8776 H   0  0  0  0  0
   -9.5324  -28.2746  -29.3352 H   0  0  0  0  0
  -11.9464  -28.3130  -30.1284 H   0  0  0  0  0
  -12.1510  -29.8451  -29.2288 H   0  0  0  0  0
   -9.3712  -28.0694  -24.1540 H   0  0  0  0  0
   -7.5295  -30.3519  -25.7448 H   0  0  0  0  0
  -10.3178  -31.6865  -27.2681 H   0  0  0  0  0
  -11.6134  -30.1817  -31.4578 H   0  0  0  0  0
  1  2  1  0  0  0
  1  7  2  0  0  0
  1 11  1  0  0  0
  2  3  1  0  0  0
  2  8  1  0  0  0
  3  4  1  0  0  0
  3  9  1  0  0  0
  4  5  1  0  0  0
  4 10  1  0  0  0
  5  6  1  0  0  0
  5 11  1  0  0  0
  6 12  1  0  0  0
  2 13  1  0  0  0
  3 14  1  0  0  0
  4 15  1  0  0  0
  5 16  1  0  0  0
  6 17  1  0  0  0
  6 18  1  0  0  0
  8 19  1  0  0  0
  9 20  1  0  0  0
 10 21  1  0  0  0
 12 22  1  0  0  0
M  END
$$$$
