1ndw_ligand
  -I-interpret- 

 36 37  0  0  0  0  0  0  0  0999 V2000
   50.4340   54.0830   20.9940 C   0  0  0  0  0
   50.6030   55.0790   22.0270 N   0  0  0  0  0
   50.6220   54.4610   23.1890 C   0  0  0  0  0
   50.4690   53.1940   23.0560 N   0  0  0  0  0
   50.3370   52.9290   21.6470 C   0  0  0  0  0
   50.2100   51.6160   21.0130 C   0  0  0  0  0
   50.0870   51.4860   19.7810 O   0  0  0  0  0
   50.1230   50.5410   21.7810 N   0  0  0  0  0
   50.5660   56.5430   21.8290 C   0  0  0  0  0
   51.9810   57.0740   21.4570 C   0  0  0  0  0
   52.7530   56.4190   22.5180 O   0  0  0  0  0
   49.5410   57.0630   20.8240 C   0  0  0  0  0
   48.1120   56.5170   21.1270 C   0  0  0  0  0
   47.0200   57.1540   20.2770 C   0  0  0  0  0
   45.7190   56.7140   20.4330 C   0  0  0  0  0
   44.6770   57.2580   19.6930 C   0  0  0  0  0
   44.9510   58.2310   18.7200 C   0  0  0  0  0
   46.2640   58.6890   18.5160 C   0  0  0  0  0
   47.2690   58.1390   19.3390 C   0  0  0  0  0
   50.3947   54.2426   19.9165 H   0  0  0  0  0
   50.7518   54.9641   24.1472 H   0  0  0  0  0
   49.9578   49.6262   21.3611 H   0  0  0  0  0
   50.2211   50.6276   22.7926 H   0  0  0  0  0
   50.2346   56.9326   22.7915 H   0  0  0  0  0
   52.0722   58.1596   21.4230 H   0  0  0  0  0
   52.3069   56.8470   20.4419 H   0  0  0  0  0
   53.6800   56.6519   22.4281 H   0  0  0  0  0
   49.8338   56.7282   19.8289 H   0  0  0  0  0
   49.5152   58.1507   20.8898 H   0  0  0  0  0
   47.8895   56.7467   22.1690 H   0  0  0  0  0
   48.1170   55.4499   20.9049 H   0  0  0  0  0
   45.5062   55.9231   21.1522 H   0  0  0  0  0
   43.6520   56.9308   19.8673 H   0  0  0  0  0
   44.1382   58.6354   18.1168 H   0  0  0  0  0
   46.4953   59.4355   17.7562 H   0  0  0  0  0
   48.2891   58.5075   19.2305 H   0  0  0  0  0
  1  2  4  0  0  0
  1  5  4  0  0  0
  2  3  4  0  0  0
  2  9  1  0  0  0
  3  4  4  0  0  0
  4  5  4  0  0  0
  5  6  1  0  0  0
  6  7  2  0  0  0
  6  8  1  0  0  0
  9 10  1  0  0  0
  9 12  1  0  0  0
 10 11  1  0  0  0
 12 13  1  0  0  0
 13 14  1  0  0  0
 14 15  4  0  0  0
 14 19  4  0  0  0
 15 16  4  0  0  0
 16 17  4  0  0  0
 17 18  4  0  0  0
 18 19  4  0  0  0
  1 20  1  0  0  0
  3 21  1  0  0  0
  8 22  1  0  0  0
  8 23  1  0  0  0
  9 24  1  0  0  0
 10 25  1  0  0  0
 10 26  1  0  0  0
 11 27  1  0  0  0
 12 28  1  0  0  0
 12 29  1  0  0  0
 13 30  1  0  0  0
 13 31  1  0  0  0
 15 32  1  0  0  0
 16 33  1  0  0  0
 17 34  1  0  0  0
 18 35  1  0  0  0
 19 36  1  0  0  0
M  END
$$$$
