### 
### Created by X-TOOL on Mon Sep 10 21:13:33 2018
### 

@<TRIPOS>MOLECULE
5vlk_ligand
  171   172     1     0     0
SMALL
GAST_HUCK


@<TRIPOS>ATOM
      1 C           4.2350  -10.6430   25.6090 C.2       1 ACE         0.1752
      2 O           4.7440  -11.4000   26.4250 O.2       1 ACE        -0.3972
      3 CH3         3.0140  -11.1480   24.8840 C.3       1 ACE         0.0258
      4 N           4.7250   -9.4140   25.3590 N.am      1 TRP        -0.2648
      5 CA          4.1110   -8.4730   24.3580 C.3       1 TRP         0.1351
      6 C           4.0720   -9.1020   22.9450 C.2       1 TRP         0.2053
      7 O           3.1290   -8.8790   22.1840 O.2       1 TRP        -0.3942
      8 CB          4.8710   -7.1500   24.3480 C.3       1 TRP         0.0042
      9 CG          6.1990   -7.2570   23.6860 C.2       1 TRP        -0.0418
     10 CD1         7.3860   -7.6170   24.2560 C.2       1 TRP         0.0167
     11 CD2         6.4570   -7.0570   22.3030 C.ar      1 TRP        -0.0214
     12 NE1         8.3810   -7.6250   23.3040 N.pl3     1 TRP        -0.2890
     13 CE2         7.8340   -7.2790   22.0950 C.ar      1 TRP         0.0603
     14 CE3         5.6520   -6.6990   21.2120 C.ar      1 TRP        -0.0747
     15 CZ2         8.4340   -7.1390   20.8300 C.ar      1 TRP        -0.0443
     16 CZ3         6.2460   -6.5610   19.9540 C.ar      1 TRP        -0.0792
     17 CH2         7.6250   -6.7770   19.7800 C.ar      1 TRP        -0.0768
     18 N           5.0840   -9.9220   22.6570 N.am      1 ASN        -0.2615
     19 CA          5.3000  -10.5300   21.3360 C.3       1 ASN         0.1476
     20 C           4.2290  -11.5600   20.9170 C.2       1 ASN         0.2063
     21 O           3.7610  -11.5680   19.7740 O.2       1 ASN        -0.3942
     22 CB          6.6930  -11.1810   21.2870 C.3       1 ASN         0.0773
     23 CG          6.9520  -12.1230   22.4560 C.2       1 ASN         0.1780
     24 OD1         6.8030  -11.7370   23.6040 O.2       1 ASN        -0.3970
     25 ND2         7.3210  -13.3540   22.1720 N.am      1 ASN        -0.3007
     26 N           3.8750  -12.4340   21.8500 N.am      1 LEU        -0.2636
     27 CA          2.8170  -13.4310   21.6550 C.3       1 LEU         0.1312
     28 C           1.4360  -12.7740   21.4660 C.2       1 LEU         0.2039
     29 O           0.6150  -13.2750   20.7060 O.2       1 LEU        -0.3944
     30 CB          2.8030  -14.4360   22.8210 C.3       1 LEU        -0.0101
     31 CG          4.1270  -15.1540   23.1440 C.3       1 LEU        -0.0425
     32 CD1         4.0210  -15.9130   24.4560 C.3       1 LEU        -0.0625
     33 CD2         4.5540  -16.0880   22.0240 C.3       1 LEU        -0.0625
     34 N           1.2000  -11.6380   22.1230 N.am      1 VAL        -0.2635
     35 CA         -0.0160  -10.8430   21.8870 C.3       1 VAL         0.1332
     36 C           0.0730  -10.1590   20.5220 C.2       1 VAL         0.2041
     37 O          -0.9170  -10.1020   19.7770 O.2       1 VAL        -0.3944
     38 CB         -0.2260   -9.7580   22.9720 C.3       1 VAL        -0.0063
     39 CG1        -1.4430   -8.8890   22.6520 C.3       1 VAL        -0.0584
     40 CG2        -0.3980  -10.3980   24.3440 C.3       1 VAL        -0.0584
     41 N           1.2600   -9.6380   20.2080 N.am      1 HRG        -0.2637
     42 CA          1.4840   -8.9740   18.9300 C.3       1 HRG         0.1310
     43 CB          2.9130   -8.4230   18.8450 C.3       1 HRG        -0.0123
     44 CG          2.3420   -6.4260   17.3970 C.3       1 HRG        -0.0196
     45 CG'         3.2080   -7.6730   17.5460 C.3       1 HRG        -0.0457
     46 CD          2.6730   -5.6880   16.1170 C.3       1 HRG         0.0625
     47 NE          2.0000   -4.4160   16.1210 N.pl3     1 HRG        -0.2723
     48 CZ          0.7530   -4.1860   15.7250 C.cat     1 HRG         0.2882
     49 NH1        -0.0660   -5.1220   15.2360 N.pl3     1 HRG        -0.2849
     50 NH2         0.3490   -3.0020   15.8280 N.pl3     1 HRG        -0.2849
     51 C           1.1620   -9.8950   17.7630 C.2       1 HRG         0.2039
     52 O           0.4020   -9.5020   16.8690 O.2       1 HRG        -0.3944
     53 N           1.6950  -11.1230   17.7710 N.am      1 ILE        -0.2635
     54 CA          1.3630  -12.1110   16.7150 C.3       1 ILE         0.1335
     55 C          -0.0330  -12.7750   16.8240 C.2       1 ILE         0.2040
     56 O          -0.3330  -13.6720   16.0420 O.2       1 ILE        -0.3944
     57 CB          2.4350  -13.2220   16.5730 C.3       1 ILE        -0.0037
     58 CG1         2.3850  -14.2120   17.7460 C.3       1 ILE        -0.0491
     59 CG2         3.8240  -12.6090   16.3940 C.3       1 ILE        -0.0582
     60 CD1         3.2320  -15.4380   17.5240 C.3       1 ILE        -0.0648
     61 N          -0.8620  -12.3600   17.7850 N.am      1 GLY        -0.2664
     62 CA         -2.2430  -12.8350   17.8970 C.3       1 GLY         0.1201
     63 C          -2.4230  -14.2190   18.4970 C.2       1 GLY         0.2007
     64 O          -3.3260  -14.9540   18.1040 O.2       1 GLY        -0.3947
     65 N          -1.5590  -14.5730   19.4420 N.am      1 LEU        -0.2640
     66 CA         -1.6640  -15.8320   20.1750 C.3       1 LEU         0.1312
     67 C          -2.3970  -15.6240   21.5030 C.2       1 LEU         0.2033
     68 O          -3.2130  -16.4650   21.8900 O.2       1 LEU        -0.3944
     69 CB         -0.2670  -16.4120   20.4160 C.3       1 LEU        -0.0101
     70 CG         -0.1350  -17.7510   21.1480 C.3       1 LEU        -0.0425
     71 CD1        -0.7750  -18.8910   20.3750 C.3       1 LEU        -0.0625
     72 CD2         1.3300  -18.0460   21.4140 C.3       1 LEU        -0.0625
     73 N          -2.1240  -14.4920   22.1650 N.am      1 LEU        -0.2695
     74 CA         -2.5110  -14.2250   23.5650 C.3       1 LEU         0.0946
     75 C          -1.8560  -15.2080   24.5470 C.2       1 LEU         0.0601
     76 O          -0.6990  -15.0250   24.9500 O.co2     1 LEU        -0.5666
     77 CB         -4.0450  -14.1610   23.7600 C.3       1 LEU        -0.0156
     78 CG         -4.7120  -12.7740   23.7310 C.3       1 LEU        -0.0431
     79 CD1        -6.2300  -12.9220   23.7280 C.3       1 LEU        -0.0625
     80 CD2        -4.2750  -11.9010   24.9040 C.3       1 LEU        -0.0625
     81 OXT        -2.4720  -16.2020   24.9540 O.co2     1 LEU        -0.5666
     82 H1          2.6577  -10.3771   24.1849 H         1 ACE         0.0467
     83 H2          2.2225  -11.3756   25.6132 H         1 ACE         0.0467
     84 H3          3.2706  -12.0598   24.3247 H         1 ACE         0.0467
     85 H4          5.5349   -9.1124   25.8621 H         1 TRP         0.1884
     86 H5          3.0750   -8.2715   24.6680 H         1 TRP         0.0815
     87 H6          5.0211   -6.8222   25.3872 H         1 TRP         0.0397
     88 H7          4.2691   -6.4022   23.8109 H         1 TRP         0.0397
     89 H8          7.5255   -7.8617   25.3080 H         1 TRP         0.0795
     90 H9          9.3713   -7.8529   23.4721 H         1 TRP         0.2216
     91 H10         4.5888   -6.5323   21.3417 H         1 TRP         0.0540
     92 H11         9.4951   -7.3104   20.6890 H         1 TRP         0.0541
     93 H12         5.6361   -6.2840   19.1018 H         1 TRP         0.0510
     94 H13         8.0597   -6.6550   18.7945 H         1 TRP         0.0530
     95 H14         5.7358  -10.1363   23.3844 H         1 ASN         0.1885
     96 H15         5.2753   -9.7165   20.5960 H         1 ASN         0.0826
     97 H16         7.4524  -10.3854   21.3033 H         1 ASN         0.0551
     98 H17         6.7802  -11.7521   20.3509 H         1 ASN         0.0551
     99 H18         7.5011  -14.0048   22.9096 H         1 ASN         0.1814
    100 H19         7.4213  -13.6386   21.2186 H         1 ASN         0.1814
    101 H20         4.3524  -12.4121   22.7284 H         1 LEU         0.1883
    102 H21         3.0477  -13.9873   20.7345 H         1 LEU         0.0800
    103 H22         2.0565  -15.2083   22.5840 H         1 LEU         0.0315
    104 H23         2.4926  -13.8910   23.7246 H         1 LEU         0.0315
    105 H24         4.9062  -14.3858   23.2567 H         1 LEU         0.0298
    106 H25         4.9759  -16.4170   24.6662 H         1 LEU         0.0232
    107 H26         3.2193  -16.6626   24.3823 H         1 LEU         0.0232
    108 H27         3.7912  -15.2090   25.2694 H         1 LEU         0.0232
    109 H28         4.6257  -15.5231   21.0828 H         1 LEU         0.0232
    110 H29         3.8112  -16.8917   21.9135 H         1 LEU         0.0232
    111 H30         5.5342  -16.5252   22.2648 H         1 LEU         0.0232
    112 H31         1.8677  -11.3172   22.7948 H         1 VAL         0.1883
    113 H32        -0.8822  -11.5209   21.8953 H         1 VAL         0.0802
    114 H33         0.6659   -9.1146   22.9947 H         1 VAL         0.0343
    115 H34        -1.5676   -8.1290   23.4375 H         1 VAL         0.0234
    116 H35        -2.3427   -9.5203   22.6067 H         1 VAL         0.0234
    117 H36        -1.2942   -8.3925   21.6818 H         1 VAL         0.0234
    118 H37         0.4793  -11.0219   24.5701 H         1 VAL         0.0234
    119 H38        -1.3030  -11.0233   24.3461 H         1 VAL         0.0234
    120 H39        -0.4943   -9.6109   25.1063 H         1 VAL         0.0234
    121 H40         2.0123   -9.7044   20.8634 H         1 HRG         0.1883
    122 H41         0.7951   -8.1183   18.8740 H         1 HRG         0.0800
    123 H42         3.6152   -9.2658   18.9261 H         1 HRG         0.0312
    124 H43         3.0695   -7.7329   19.6872 H         1 HRG         0.0312
    125 H44         2.5203   -5.7592   18.2535 H         1 HRG         0.0299
    126 H45         1.2831   -6.7231   17.3778 H         1 HRG         0.0299
    127 H46         3.0135   -8.3440   16.6964 H         1 HRG         0.0269
    128 H47         4.2663   -7.3730   17.5415 H         1 HRG         0.0269
    129 H48         2.3372   -6.2799   15.2528 H         1 HRG         0.0689
    130 H49         3.7597   -5.5298   16.0531 H         1 HRG         0.0689
    131 H50         2.5366   -3.6064   16.4637 H         1 HRG         0.2642
    132 H51        -1.0224   -4.8701   14.9482 H         1 HRG         0.2615
    133 H52         0.2591   -6.0953   15.1469 H         1 HRG         0.2615
    134 H53         0.9746   -2.2753   16.2040 H         1 HRG         0.2615
    135 H54        -0.6081   -2.7572   15.5365 H         1 HRG         0.2615
    136 H55         2.3281  -11.3789   18.5016 H         1 ILE         0.1883
    137 H56         1.3624  -11.5448   15.7719 H         1 ILE         0.0803
    138 H57         2.2051  -13.7889   15.6588 H         1 ILE         0.0345
    139 H58         1.3419  -14.5294   17.8915 H         1 ILE         0.0267
    140 H59         2.7421  -13.6996   18.6515 H         1 ILE         0.0267
    141 H60         3.8094  -11.9095   15.5451 H         1 ILE         0.0235
    142 H61         4.5548  -13.4075   16.1986 H         1 ILE         0.0235
    143 H62         4.1071  -12.0688   17.3094 H         1 ILE         0.0235
    144 H63         3.1516  -16.1022   18.3972 H         1 ILE         0.0230
    145 H64         4.2815  -15.1386   17.3864 H         1 ILE         0.0230
    146 H65         2.8813  -15.9684   16.6264 H         1 ILE         0.0230
    147 H66        -0.5264  -11.6981   18.4553 H         1 GLY         0.1881
    148 H67        -2.6782  -12.8466   16.8868 H         1 GLY         0.0763
    149 H68        -2.7949  -12.1209   18.5259 H         1 GLY         0.0763
    150 H69        -0.8061  -13.9522   19.6604 H         1 LEU         0.1883
    151 H70        -2.2401  -16.5451   19.5671 H         1 LEU         0.0800
    152 H71         0.2943  -15.6684   21.0007 H         1 LEU         0.0315
    153 H72         0.2051  -16.5357   19.4302 H         1 LEU         0.0315
    154 H73        -0.6530  -17.6644   22.1145 H         1 LEU         0.0298
    155 H74        -0.6553  -19.8284   20.9380 H         1 LEU         0.0232
    156 H75        -0.2874  -18.9879   19.3937 H         1 LEU         0.0232
    157 H76        -1.8457  -18.6825   20.2335 H         1 LEU         0.0232
    158 H77         1.7764  -17.2109   21.9738 H         1 LEU         0.0232
    159 H78         1.8586  -18.1702   20.4574 H         1 LEU         0.0232
    160 H79         1.4167  -18.9706   22.0036 H         1 LEU         0.0232
    161 H80        -1.6229  -13.7774   21.6769 H         1 LEU         0.1875
    162 H81        -2.1214  -13.2262   23.8110 H         1 LEU         0.0726
    163 H82        -4.2714  -14.6142   24.7364 H         1 LEU         0.0308
    164 H83        -4.5032  -14.7628   22.9613 H         1 LEU         0.0308
    165 H84        -4.4097  -12.2706   22.8008 H         1 LEU         0.0297
    166 H85        -6.6955  -11.9256   23.7072 H         1 LEU         0.0232
    167 H86        -6.5481  -13.4564   24.6353 H         1 LEU         0.0232
    168 H87        -6.5412  -13.4907   22.8393 H         1 LEU         0.0232
    169 H88        -3.1797  -11.8001   24.8978 H         1 LEU         0.0232
    170 H89        -4.5949  -12.3675   25.8474 H         1 LEU         0.0232
    171 H90        -4.7353  -10.9062   24.8122 H         1 LEU         0.0232
@<TRIPOS>BOND
     1    1    2 2  
     2    1    3 1  
     3    1    4 am 
     4    4    5 1  
     5    5    6 1  
     6    5    8 1  
     7    6    7 2  
     8    6   18 am 
     9    8    9 1  
    10    9   10 2  
    11    9   11 1  
    12   10   12 1  
    13   11   13 ar 
    14   11   14 ar 
    15   12   13 1  
    16   13   15 ar 
    17   14   16 ar 
    18   15   17 ar 
    19   16   17 ar 
    20   18   19 1  
    21   19   20 1  
    22   19   22 1  
    23   20   21 2  
    24   20   26 am 
    25   22   23 1  
    26   23   24 2  
    27   23   25 am 
    28   26   27 1  
    29   27   28 1  
    30   27   30 1  
    31   28   29 2  
    32   28   34 am 
    33   30   31 1  
    34   31   32 1  
    35   31   33 1  
    36   34   35 1  
    37   35   36 1  
    38   35   38 1  
    39   36   37 2  
    40   36   41 am 
    41   38   39 1  
    42   38   40 1  
    43   41   42 1  
    44   42   43 1  
    45   42   51 1  
    46   43   45 1  
    47   45   44 1  
    48   44   46 1  
    49   46   47 1  
    50   47   48 ar 
    51   48   49 ar 
    52   48   50 ar 
    53   51   52 2  
    54   51   53 am 
    55   53   54 1  
    56   54   55 1  
    57   54   57 1  
    58   55   56 2  
    59   55   61 am 
    60   57   58 1  
    61   57   59 1  
    62   58   60 1  
    63   61   62 1  
    64   62   63 1  
    65   63   64 2  
    66   63   65 am 
    67   65   66 1  
    68   66   67 1  
    69   66   69 1  
    70   67   68 2  
    71   67   73 am 
    72   69   70 1  
    73   70   71 1  
    74   70   72 1  
    75   73   74 1  
    76   74   75 1  
    77   74   77 1  
    78   75   76 ar 
    79   75   81 ar 
    80   77   78 1  
    81   78   79 1  
    82   78   80 1  
    83    3   82 1  
    84    3   83 1  
    85    3   84 1  
    86    4   85 1  
    87    5   86 1  
    88    8   87 1  
    89    8   88 1  
    90   10   89 1  
    91   12   90 1  
    92   14   91 1  
    93   15   92 1  
    94   16   93 1  
    95   17   94 1  
    96   18   95 1  
    97   19   96 1  
    98   22   97 1  
    99   22   98 1  
   100   25   99 1  
   101   25  100 1  
   102   26  101 1  
   103   27  102 1  
   104   30  103 1  
   105   30  104 1  
   106   31  105 1  
   107   32  106 1  
   108   32  107 1  
   109   32  108 1  
   110   33  109 1  
   111   33  110 1  
   112   33  111 1  
   113   34  112 1  
   114   35  113 1  
   115   38  114 1  
   116   39  115 1  
   117   39  116 1  
   118   39  117 1  
   119   40  118 1  
   120   40  119 1  
   121   40  120 1  
   122   41  121 1  
   123   42  122 1  
   124   43  123 1  
   125   43  124 1  
   126   44  125 1  
   127   44  126 1  
   128   45  127 1  
   129   45  128 1  
   130   46  129 1  
   131   46  130 1  
   132   47  131 1  
   133   49  132 1  
   134   49  133 1  
   135   50  134 1  
   136   50  135 1  
   137   53  136 1  
   138   54  137 1  
   139   57  138 1  
   140   58  139 1  
   141   58  140 1  
   142   59  141 1  
   143   59  142 1  
   144   59  143 1  
   145   60  144 1  
   146   60  145 1  
   147   60  146 1  
   148   61  147 1  
   149   62  148 1  
   150   62  149 1  
   151   65  150 1  
   152   66  151 1  
   153   69  152 1  
   154   69  153 1  
   155   70  154 1  
   156   71  155 1  
   157   71  156 1  
   158   71  157 1  
   159   72  158 1  
   160   72  159 1  
   161   72  160 1  
   162   73  161 1  
   163   74  162 1  
   164   77  163 1  
   165   77  164 1  
   166   78  165 1  
   167   79  166 1  
   168   79  167 1  
   169   79  168 1  
   170   80  169 1  
   171   80  170 1  
   172   80  171 1  
@<TRIPOS>SUBSTRUCTURE
     1 ACE         1

