5vlk_ligand
  -I-interpret- 

170171  0  0  0  0  0  0  0  0999 V2000
    4.2350  -10.6430   25.6090 C   0  0  0  0  0
    4.7440  -11.4000   26.4250 O   0  0  0  0  0
    3.0140  -11.1480   24.8840 C   0  0  0  0  0
    4.7250   -9.4140   25.3590 N   0  0  0  0  0
    4.1110   -8.4730   24.3580 C   0  0  0  0  0
    4.0720   -9.1020   22.9450 C   0  0  0  0  0
    3.1290   -8.8790   22.1840 O   0  0  0  0  0
    4.8710   -7.1500   24.3480 C   0  0  0  0  0
    6.1990   -7.2570   23.6860 C   0  0  0  0  0
    7.3860   -7.6170   24.2560 C   0  0  0  0  0
    6.4570   -7.0570   22.3030 C   0  0  0  0  0
    8.3810   -7.6250   23.3040 N   0  0  0  0  0
    7.8340   -7.2790   22.0950 C   0  0  0  0  0
    5.6520   -6.6990   21.2120 C   0  0  0  0  0
    8.4340   -7.1390   20.8300 C   0  0  0  0  0
    6.2460   -6.5610   19.9540 C   0  0  0  0  0
    7.6250   -6.7770   19.7800 C   0  0  0  0  0
    5.0840   -9.9220   22.6570 N   0  0  0  0  0
    5.3000  -10.5300   21.3360 C   0  0  0  0  0
    4.2290  -11.5600   20.9170 C   0  0  0  0  0
    3.7610  -11.5680   19.7740 O   0  0  0  0  0
    6.6930  -11.1810   21.2870 C   0  0  0  0  0
    6.9520  -12.1230   22.4560 C   0  0  0  0  0
    6.8030  -11.7370   23.6040 O   0  0  0  0  0
    7.3210  -13.3540   22.1720 N   0  0  0  0  0
    3.8750  -12.4340   21.8500 N   0  0  0  0  0
    2.8170  -13.4310   21.6550 C   0  0  0  0  0
    1.4360  -12.7740   21.4660 C   0  0  0  0  0
    0.6150  -13.2750   20.7060 O   0  0  0  0  0
    2.8030  -14.4360   22.8210 C   0  0  0  0  0
    4.1270  -15.1540   23.1440 C   0  0  0  0  0
    4.0210  -15.9130   24.4560 C   0  0  0  0  0
    4.5540  -16.0880   22.0240 C   0  0  0  0  0
    1.2000  -11.6380   22.1230 N   0  0  0  0  0
   -0.0160  -10.8430   21.8870 C   0  0  0  0  0
    0.0730  -10.1590   20.5220 C   0  0  0  0  0
   -0.9170  -10.1020   19.7770 O   0  0  0  0  0
   -0.2260   -9.7580   22.9720 C   0  0  0  0  0
   -1.4430   -8.8890   22.6520 C   0  0  0  0  0
   -0.3980  -10.3980   24.3440 C   0  0  0  0  0
    1.2600   -9.6380   20.2080 N   0  0  0  0  0
    1.4840   -8.9740   18.9300 C   0  0  0  0  0
    2.9130   -8.4230   18.8450 C   0  0  0  0  0
    2.3420   -6.4260   17.3970 C   0  0  0  0  0
    3.2080   -7.6730   17.5460 C   0  0  0  0  0
    2.6730   -5.6880   16.1170 C   0  0  0  0  0
    2.0000   -4.4160   16.1210 N   0  0  0  0  0
    0.7530   -4.1860   15.7250 C   0  0  0  0  0
   -0.0660   -5.1220   15.2360 N   0  0  0  0  0
    0.3490   -3.0020   15.8280 N   0  0  0  0  0
    1.1620   -9.8950   17.7630 C   0  0  0  0  0
    0.4020   -9.5020   16.8690 O   0  0  0  0  0
    1.6950  -11.1230   17.7710 N   0  0  0  0  0
    1.3630  -12.1110   16.7150 C   0  0  0  0  0
   -0.0330  -12.7750   16.8240 C   0  0  0  0  0
   -0.3330  -13.6720   16.0420 O   0  0  0  0  0
    2.4350  -13.2220   16.5730 C   0  0  0  0  0
    2.3850  -14.2120   17.7460 C   0  0  0  0  0
    3.8240  -12.6090   16.3940 C   0  0  0  0  0
    3.2320  -15.4380   17.5240 C   0  0  0  0  0
   -0.8620  -12.3600   17.7850 N   0  0  0  0  0
   -2.2430  -12.8350   17.8970 C   0  0  0  0  0
   -2.4230  -14.2190   18.4970 C   0  0  0  0  0
   -3.3260  -14.9540   18.1040 O   0  0  0  0  0
   -1.5590  -14.5730   19.4420 N   0  0  0  0  0
   -1.6640  -15.8320   20.1750 C   0  0  0  0  0
   -2.3970  -15.6240   21.5030 C   0  0  0  0  0
   -3.2130  -16.4650   21.8900 O   0  0  0  0  0
   -0.2670  -16.4120   20.4160 C   0  0  0  0  0
   -0.1350  -17.7510   21.1480 C   0  0  0  0  0
   -0.7750  -18.8910   20.3750 C   0  0  0  0  0
    1.3300  -18.0460   21.4140 C   0  0  0  0  0
   -2.1240  -14.4920   22.1650 N   0  0  0  0  0
   -2.5110  -14.2250   23.5650 C   0  0  0  0  0
   -1.8560  -15.2080   24.5470 C   0  0  0  0  0
   -0.6990  -15.0250   24.9500 O   0  0  0  0  0
   -4.0450  -14.1610   23.7600 C   0  0  0  0  0
   -4.7120  -12.7740   23.7310 C   0  0  0  0  0
   -6.2300  -12.9220   23.7280 C   0  0  0  0  0
   -4.2750  -11.9010   24.9040 C   0  0  0  0  0
   -2.4720  -16.2020   24.9540 O   0  0  0  0  0
    3.2695  -12.0514   24.3303 H   0  0  0  0  0
    2.2306  -11.3732   25.6076 H   0  0  0  0  0
    2.6620  -10.3833   24.1916 H   0  0  0  0  0
    5.5511   -9.1064   25.8722 H   0  0  0  0  0
    3.0804   -8.2802   24.6559 H   0  0  0  0  0
    5.0357   -6.8504   25.3830 H   0  0  0  0  0
    4.2762   -6.4261   23.7909 H   0  0  0  0  0
    7.5256   -7.8619   25.3089 H   0  0  0  0  0
    4.5829   -6.5314   21.3424 H   0  0  0  0  0
    9.5009   -7.3113   20.6883 H   0  0  0  0  0
    5.6327   -6.2825   19.0970 H   0  0  0  0  0
    8.0621   -6.6543   18.7890 H   0  0  0  0  0
    5.7489  -10.1406   23.3990 H   0  0  0  0  0
    5.2218   -9.7137   20.6179 H   0  0  0  0  0
    7.4340  -10.3830   21.3334 H   0  0  0  0  0
    6.7537  -11.7663   20.3695 H   0  0  0  0  0
    7.4926  -14.0213   22.9241 H   0  0  0  0  0
    7.4354  -13.6407   21.1998 H   0  0  0  0  0
    4.3619  -12.4116   22.7460 H   0  0  0  0  0
    3.0373  -13.9737   20.7357 H   0  0  0  0  0
    2.1039  -15.2196   22.5291 H   0  0  0  0  0
    2.5553  -13.8559   23.7100 H   0  0  0  0  0
    4.8947  -14.3865   23.2426 H   0  0  0  0  0
    3.7932  -15.2144   25.2611 H   0  0  0  0  0
    3.2263  -16.6553   24.3817 H   0  0  0  0  0
    4.9677  -16.4119   24.6632 H   0  0  0  0  0
    3.7841  -16.8441   21.8698 H   0  0  0  0  0
    4.6910  -15.5148   21.1070 H   0  0  0  0  0
    5.4920  -16.5727   22.2946 H   0  0  0  0  0
    1.8811  -11.3108   22.8082 H   0  0  0  0  0
   -0.8619  -11.5295   21.9227 H   0  0  0  0  0
    0.6608   -9.1244   22.9827 H   0  0  0  0  0
   -1.2943   -8.3977   21.6905 H   0  0  0  0  0
   -2.3337   -9.5157   22.6073 H   0  0  0  0  0
   -1.5654   -8.1364   23.4309 H   0  0  0  0  0
   -1.2662  -11.0569   24.3299 H   0  0  0  0  0
    0.4937  -10.9751   24.5887 H   0  0  0  0  0
   -0.5442   -9.6183   25.0915 H   0  0  0  0  0
    2.0274   -9.7057   20.8765 H   0  0  0  0  0
    0.8008   -8.1272   18.8646 H   0  0  0  0  0
    3.5929   -9.2737   18.8911 H   0  0  0  0  0
    3.0382   -7.7155   19.6647 H   0  0  0  0  0
    2.5319   -5.7644   18.2422 H   0  0  0  0  0
    1.2951   -6.7279   17.3668 H   0  0  0  0  0
    2.9923   -8.3396   16.7110 H   0  0  0  0  0
    4.2528   -7.3627   17.5613 H   0  0  0  0  0
    2.3441   -6.2747   15.2593 H   0  0  0  0  0
    3.7499   -5.5334   16.0502 H   0  0  0  0  0
    2.5314   -3.6142   16.4604 H   0  0  0  0  0
   -1.0125   -4.8722   14.9494 H   0  0  0  0  0
    0.2554   -6.0862   15.1494 H   0  0  0  0  0
    0.9691   -2.2820   16.1988 H   0  0  0  0  0
    2.3407  -11.3841   18.5162 H   0  0  0  0  0
    1.3443  -11.4896   15.8197 H   0  0  0  0  0
    2.2105  -13.7973   15.6749 H   0  0  0  0  0
    1.3516  -14.5401   17.8576 H   0  0  0  0  0
    2.7701  -13.6995   18.6275 H   0  0  0  0  0
    3.8340  -11.9908   15.4963 H   0  0  0  0  0
    4.0634  -11.9951   17.2622 H   0  0  0  0  0
    4.5615  -13.4057   16.2962 H   0  0  0  0  0
    2.8835  -15.9626   16.6344 H   0  0  0  0  0
    4.2716  -15.1400   17.3878 H   0  0  0  0  0
    3.1516  -16.0953   18.3898 H   0  0  0  0  0
   -0.5197  -11.6849   18.4687 H   0  0  0  0  0
   -2.6323  -12.8886   16.8803 H   0  0  0  0  0
   -2.7523  -12.1419   18.5666 H   0  0  0  0  0
   -0.7910  -13.9398   19.6648 H   0  0  0  0  0
   -2.2406  -16.5387   19.5782 H   0  0  0  0  0
    0.2297  -15.6885   21.0624 H   0  0  0  0  0
    0.1365  -16.5954   19.4202 H   0  0  0  0  0
   -0.6688  -17.6685   22.0948 H   0  0  0  0  0
   -1.8358  -18.6831   20.2354 H   0  0  0  0  0
   -0.2911  -18.9859   19.4029 H   0  0  0  0  0
   -0.6558  -19.8192   20.9338 H   0  0  0  0  0
    1.8669  -18.0967   20.4668 H   0  0  0  0  0
    1.7528  -17.2530   22.0308 H   0  0  0  0  0
    1.4186  -18.9994   21.9348 H   0  0  0  0  0
   -1.6129  -13.7631   21.6671 H   0  0  0  0  0
   -2.1254  -13.2324   23.7977 H   0  0  0  0  0
   -0.3470  -14.2236   24.5557 H   0  0  0  0  0
   -4.2287  -14.5524   24.7606 H   0  0  0  0  0
   -4.4694  -14.7067   22.9173 H   0  0  0  0  0
   -4.3907  -12.2774   22.8154 H   0  0  0  0  0
   -6.5371  -13.4856   22.8470 H   0  0  0  0  0
   -6.5439  -13.4517   24.6274 H   0  0  0  0  0
   -6.6901  -11.9341   23.7074 H   0  0  0  0  0
   -4.5470  -12.3893   25.8398 H   0  0  0  0  0
   -3.1949  -11.7593   24.8672 H   0  0  0  0  0
   -4.7721  -10.9331   24.8398 H   0  0  0  0  0
  1  2  2  0  0  0
  1  3  1  0  0  0
  1  4  1  0  0  0
  4  5  1  0  0  0
  5  6  1  0  0  0
  5  8  1  0  0  0
  6  7  2  0  0  0
  6 18  1  0  0  0
  8  9  1  0  0  0
  9 10  4  0  0  0
  9 11  4  0  0  0
 10 12  4  0  0  0
 11 13  4  0  0  0
 11 14  4  0  0  0
 12 13  4  0  0  0
 13 15  4  0  0  0
 14 16  4  0  0  0
 15 17  4  0  0  0
 16 17  4  0  0  0
 18 19  1  0  0  0
 19 20  1  0  0  0
 19 22  1  0  0  0
 20 21  2  0  0  0
 20 26  1  0  0  0
 22 23  1  0  0  0
 23 24  2  0  0  0
 23 25  1  0  0  0
 26 27  1  0  0  0
 27 28  1  0  0  0
 27 30  1  0  0  0
 28 29  2  0  0  0
 28 34  1  0  0  0
 30 31  1  0  0  0
 31 32  1  0  0  0
 31 33  1  0  0  0
 34 35  1  0  0  0
 35 36  1  0  0  0
 35 38  1  0  0  0
 36 37  2  0  0  0
 36 41  1  0  0  0
 38 39  1  0  0  0
 38 40  1  0  0  0
 41 42  1  0  0  0
 42 43  1  0  0  0
 42 51  1  0  0  0
 43 45  1  0  0  0
 45 44  1  0  0  0
 44 46  1  0  0  0
 46 47  1  0  0  0
 47 48  1  0  0  0
 48 49  1  0  0  0
 48 50  2  0  0  0
 51 52  2  0  0  0
 51 53  1  0  0  0
 53 54  1  0  0  0
 54 55  1  0  0  0
 54 57  1  0  0  0
 55 56  2  0  0  0
 55 61  1  0  0  0
 57 58  1  0  0  0
 57 59  1  0  0  0
 58 60  1  0  0  0
 61 62  1  0  0  0
 62 63  1  0  0  0
 63 64  2  0  0  0
 63 65  1  0  0  0
 65 66  1  0  0  0
 66 67  1  0  0  0
 66 69  1  0  0  0
 67 68  2  0  0  0
 67 73  1  0  0  0
 69 70  1  0  0  0
 70 71  1  0  0  0
 70 72  1  0  0  0
 73 74  1  0  0  0
 74 75  1  0  0  0
 74 77  1  0  0  0
 75 76  1  0  0  0
 75 81  2  0  0  0
 77 78  1  0  0  0
 78 79  1  0  0  0
 78 80  1  0  0  0
  3 82  1  0  0  0
  3 83  1  0  0  0
  3 84  1  0  0  0
  4 85  1  0  0  0
  5 86  1  0  0  0
  8 87  1  0  0  0
  8 88  1  0  0  0
 10 89  1  0  0  0
 14 90  1  0  0  0
 15 91  1  0  0  0
 16 92  1  0  0  0
 17 93  1  0  0  0
 18 94  1  0  0  0
 19 95  1  0  0  0
 22 96  1  0  0  0
 22 97  1  0  0  0
 25 98  1  0  0  0
 25 99  1  0  0  0
 26100  1  0  0  0
 27101  1  0  0  0
 30102  1  0  0  0
 30103  1  0  0  0
 31104  1  0  0  0
 32105  1  0  0  0
 32106  1  0  0  0
 32107  1  0  0  0
 33108  1  0  0  0
 33109  1  0  0  0
 33110  1  0  0  0
 34111  1  0  0  0
 35112  1  0  0  0
 38113  1  0  0  0
 39114  1  0  0  0
 39115  1  0  0  0
 39116  1  0  0  0
 40117  1  0  0  0
 40118  1  0  0  0
 40119  1  0  0  0
 41120  1  0  0  0
 42121  1  0  0  0
 43122  1  0  0  0
 43123  1  0  0  0
 44124  1  0  0  0
 44125  1  0  0  0
 45126  1  0  0  0
 45127  1  0  0  0
 46128  1  0  0  0
 46129  1  0  0  0
 47130  1  0  0  0
 49131  1  0  0  0
 49132  1  0  0  0
 50133  1  0  0  0
 53134  1  0  0  0
 54135  1  0  0  0
 57136  1  0  0  0
 58137  1  0  0  0
 58138  1  0  0  0
 59139  1  0  0  0
 59140  1  0  0  0
 59141  1  0  0  0
 60142  1  0  0  0
 60143  1  0  0  0
 60144  1  0  0  0
 61145  1  0  0  0
 62146  1  0  0  0
 62147  1  0  0  0
 65148  1  0  0  0
 66149  1  0  0  0
 69150  1  0  0  0
 69151  1  0  0  0
 70152  1  0  0  0
 71153  1  0  0  0
 71154  1  0  0  0
 71155  1  0  0  0
 72156  1  0  0  0
 72157  1  0  0  0
 72158  1  0  0  0
 73159  1  0  0  0
 74160  1  0  0  0
 76161  1  0  0  0
 77162  1  0  0  0
 77163  1  0  0  0
 78164  1  0  0  0
 79165  1  0  0  0
 79166  1  0  0  0
 79167  1  0  0  0
 80168  1  0  0  0
 80169  1  0  0  0
 80170  1  0  0  0
M  END
$$$$
