### 
### Created by X-TOOL on Mon Sep 10 21:13:10 2018
### 

@<TRIPOS>MOLECULE
3rwe_ligand
  167   172     1     0     0
SMALL
GAST_HUCK


@<TRIPOS>ATOM
      1 N          12.3150   12.6920   18.3810 N.4       1 PHE         0.2394
      2 CA         11.3020   12.3640   19.3770 C.3       1 PHE         0.0744
      3 C          10.7880   10.9480   19.1390 C.2       1 PHE         0.2288
      4 O          11.1030   10.3380   18.1230 O.2       1 PHE        -0.3905
      5 CB         10.1550   13.3810   19.3350 C.3       1 PHE         0.0416
      6 CG          9.4520   13.5660   20.6540 C.ar      1 PHE        -0.0353
      7 CD1         9.9610   14.4300   21.6120 C.ar      1 PHE        -0.0600
      8 CD2         8.2720   12.8930   20.9290 C.ar      1 PHE        -0.0600
      9 CE1         9.3120   14.6070   22.8250 C.ar      1 PHE        -0.0686
     10 CE2         7.6210   13.0690   22.1400 C.ar      1 PHE        -0.0686
     11 CZ          8.1420   13.9270   23.0870 C.ar      1 PHE        -0.0687
     12 N           9.9900   10.4400   20.0740 N.am      1 GLN        -0.2607
     13 CA          9.5220    9.0610   20.0440 C.3       1 GLN         0.1332
     14 C           8.1780    8.9490   19.3620 C.2       1 GLN         0.2041
     15 O           7.4050    9.9070   19.3150 O.2       1 GLN        -0.3944
     16 CB          9.3950    8.5300   21.4680 C.3       1 GLN         0.0045
     17 CG         10.0840    7.2050   21.7210 C.3       1 GLN         0.0412
     18 CD         10.2930    6.9410   23.2050 C.2       1 GLN         0.1737
     19 OE1        10.6280    7.8490   23.9680 O.2       1 GLN        -0.3973
     20 NE2        10.0850    5.6960   23.6220 N.am      1 GLN        -0.3009
     21 N           7.8950    7.7560   18.8600 N.am      1 TRP        -0.2627
     22 CA          6.6550    7.5110   18.1510 C.3       1 TRP         0.1352
     23 C           5.5300    7.1190   19.1050 C.2       1 TRP         0.2052
     24 O           5.7350    6.3560   20.0500 O.2       1 TRP        -0.3942
     25 CB          6.8690    6.4580   17.0610 C.3       1 TRP         0.0042
     26 CG          5.6190    5.7690   16.6320 C.2       1 TRP        -0.0418
     27 CD1         5.2920    4.4660   16.8560 C.2       1 TRP         0.0167
     28 CD2         4.5210    6.3410   15.9070 C.ar      1 TRP        -0.0214
     29 NE1         4.0610    4.1870   16.3170 N.pl3     1 TRP        -0.2890
     30 CE2         3.5670    5.3190   15.7300 C.ar      1 TRP         0.0603
     31 CE3         4.2520    7.6130   15.3940 C.ar      1 TRP        -0.0747
     32 CZ2         2.3630    5.5320   15.0590 C.ar      1 TRP        -0.0443
     33 CZ3         3.0540    7.8210   14.7270 C.ar      1 TRP        -0.0792
     34 CH2         2.1260    6.7860   14.5660 C.ar      1 TRP        -0.0768
     35 N           4.3450    7.6690   18.8490 N.am      1 MET        -0.2636
     36 CA          3.1780    7.3610   19.6670 C.3       1 MET         0.1317
     37 C           2.1150    6.6290   18.8640 C.2       1 MET         0.2037
     38 O           1.8180    6.9740   17.7170 O.2       1 MET        -0.3944
     39 CB          2.5860    8.6200   20.3120 C.3       1 MET        -0.0034
     40 CG          1.9230    9.5800   19.3330 C.3       1 MET        -0.0024
     41 SD          0.7400   10.7000   20.1170 S.3       1 MET        -0.1639
     42 CE         -0.7220    9.6640   20.1960 C.3       1 MET        -0.0181
     43 N           1.5560    5.5900   19.4760 N.am      1 GLY        -0.2664
     44 CA          0.5200    4.8040   18.8340 C.3       1 GLY         0.1201
     45 C           0.4610    3.3670   19.3130 C.2       1 GLY         0.2009
     46 O           1.4140    2.8540   19.9000 O.2       1 GLY        -0.3947
     47 N          -0.6660    2.7140   19.0540 N.am      1 TYR        -0.2624
     48 CA         -0.8650    1.3360   19.4780 C.3       1 TYR         0.1390
     49 C          -0.2400    0.3700   18.4820 C.2       1 TYR         0.2057
     50 O          -0.5570    0.3980   17.2940 O.2       1 TYR        -0.3942
     51 CB         -2.3550    1.0360   19.6390 C.3       1 TYR         0.0163
     52 CG         -3.0270    1.8350   20.7310 C.ar      1 TYR        -0.0493
     53 CD1        -2.8390    1.5120   22.0680 C.ar      1 TYR        -0.0685
     54 CD2        -3.8570    2.9060   20.4270 C.ar      1 TYR        -0.0685
     55 CE1        -3.4530    2.2360   23.0720 C.ar      1 TYR        -0.0398
     56 CE2        -4.4770    3.6360   21.4240 C.ar      1 TYR        -0.0398
     57 CZ         -4.2710    3.2970   22.7440 C.ar      1 TYR         0.0805
     58 OH         -4.8870    4.0210   23.7380 O.3       1 TYR        -0.3376
     59 N           0.6510   -0.4830   18.9750 N.am      1 GLU        -0.2635
     60 CA          1.3420   -1.4470   18.1310 C.3       1 GLU         0.1325
     61 C           1.2830   -2.8370   18.7570 C.2       1 GLU         0.2040
     62 O           2.2650   -3.3150   19.3250 O.2       1 GLU        -0.3944
     63 CB          2.7950   -1.0160   17.9210 C.3       1 GLU        -0.0008
     64 CG          3.6110   -1.9550   17.0550 C.3       1 GLU         0.0044
     65 CD          5.0620   -1.5320   16.9470 C.2       1 GLU         0.0350
     66 OE1         5.3370   -0.3170   17.0380 O.co2     1 GLU        -0.5690
     67 OE2         5.9270   -2.4150   16.7790 O.co2     1 GLU        -0.5690
     68 N           0.1240   -3.4780   18.6550 N.am      1 LEU        -0.2637
     69 CA         -0.0780   -4.7950   19.2510 C.3       1 LEU         0.1312
     70 C           0.2170   -5.9190   18.2630 C.2       1 LEU         0.2034
     71 O          -0.2010   -5.8680   17.1070 O.2       1 LEU        -0.3944
     72 CB         -1.5080   -4.9290   19.7800 C.3       1 LEU        -0.0101
     73 CG         -1.9390   -3.9240   20.8490 C.3       1 LEU        -0.0425
     74 CD1        -3.4110   -4.1030   21.1930 C.3       1 LEU        -0.0625
     75 CD2        -1.0730   -4.0570   22.0920 C.3       1 LEU        -0.0625
     76 N           0.9400   -6.9340   18.7270 N.am      1 TRP        -0.2684
     77 CA          1.2390   -8.1000   17.9020 C.3       1 TRP         0.0986
     78 C           0.0040   -8.9760   17.7270 C.2       1 TRP         0.0613
     79 O          -0.0930   -9.7540   16.7780 O.co2     1 TRP        -0.5665
     80 CB          2.3790   -8.9200   18.5110 C.3       1 TRP        -0.0013
     81 CG          3.7270   -8.2810   18.3720 C.2       1 TRP        -0.0424
     82 CD1         3.9960   -7.0270   17.9070 C.2       1 TRP         0.0166
     83 CD2         4.9940   -8.8720   18.6930 C.ar      1 TRP        -0.0214
     84 NE1         5.3510   -6.7980   17.9230 N.pl3     1 TRP        -0.2891
     85 CE2         5.9840   -7.9120   18.3990 C.ar      1 TRP         0.0603
     86 CE3         5.3830  -10.1140   19.2000 C.ar      1 TRP        -0.0747
     87 CZ2         7.3420   -8.1610   18.5990 C.ar      1 TRP        -0.0443
     88 CZ3         6.7310  -10.3570   19.3960 C.ar      1 TRP        -0.0792
     89 CH2         7.6940   -9.3850   19.0960 C.ar      1 TRP        -0.0768
     90 OXT        -0.9260   -8.9270   18.5320 O.co2     1 TRP        -0.5665
     91 H          13.0679   12.0053   18.4247 H         1 PHE         0.2017
     92 H          11.8939   12.6780   17.4521 H         1 PHE         0.2017
     93 H          12.6894   13.6214   18.5719 H         1 PHE         0.2017
     94 H          11.7491   12.4102   20.3700 H         1 PHE         0.1122
     95 H           9.4173   13.0073   18.6250 H         1 PHE         0.0507
     96 H          10.5863   14.3437   19.0606 H         1 PHE         0.0507
     97 H          10.8821   14.9765   21.4093 H         1 PHE         0.0557
     98 H           7.8510   12.2175   20.1843 H         1 PHE         0.0557
     99 H           9.7274   15.2841   23.5714 H         1 PHE         0.0599
    100 H           6.6965   12.5291   22.3445 H         1 PHE         0.0599
    101 H           7.6300   14.0665   24.0391 H         1 PHE         0.0559
    102 H           9.6937   11.0406   20.8434 H         1 GLN         0.1885
    103 H          10.2495    8.4752   19.4821 H         1 GLN         0.0801
    104 H           8.3322    8.3721   21.6513 H         1 GLN         0.0337
    105 H           9.8712    9.2619   22.1204 H         1 GLN         0.0337
    106 H          11.0618    7.2336   21.2403 H         1 GLN         0.0504
    107 H           9.4523    6.4120   21.3208 H         1 GLN         0.0504
    108 H          10.2018    5.4622   24.6079 H         1 GLN         0.1814
    109 H           9.8086    4.9746   22.9560 H         1 GLN         0.1814
    110 H           8.5636    6.9943   18.9749 H         1 TRP         0.1884
    111 H           6.3460    8.4390   17.6699 H         1 TRP         0.0815
    112 H           7.5335    5.6976   17.4713 H         1 TRP         0.0397
    113 H           7.2711    6.9724   16.1882 H         1 TRP         0.0397
    114 H           5.9176    3.7483   17.3867 H         1 TRP         0.0795
    115 H           3.5910    3.2823   16.3491 H         1 TRP         0.2216
    116 H           4.9691    8.4248   15.5157 H         1 TRP         0.0540
    117 H           1.6373    4.7287   14.9320 H         1 TRP         0.0541
    118 H           2.8314    8.8078   14.3211 H         1 TRP         0.0510
    119 H           1.1940    6.9832   14.0363 H         1 TRP         0.0530
    120 H           4.2518    8.3172   18.0670 H         1 MET         0.1883
    121 H           3.5186    6.7028   20.4663 H         1 MET         0.0800
    122 H           3.4120    9.1586   20.7766 H         1 MET         0.0320
    123 H           1.8138    8.2893   21.0065 H         1 MET         0.0320
    124 H           1.3760    8.9813   18.6047 H         1 MET         0.0378
    125 H           2.7087   10.1905   18.8880 H         1 MET         0.0378
    126 H          -1.0095    9.3660   19.1877 H         1 MET         0.0340
    127 H          -0.5052    8.7766   20.7906 H         1 MET         0.0340
    128 H          -1.5367   10.2220   20.6575 H         1 MET         0.0340
    129 H           1.8619    5.3403   20.4165 H         1 GLY         0.1881
    130 H           0.7407    4.7832   17.7668 H         1 GLY         0.0763
    131 H          -0.4369    5.2674   19.0743 H         1 GLY         0.0763
    132 H          -1.4108    3.1901   18.5452 H         1 TYR         0.1885
    133 H          -0.3746    1.2032   20.4423 H         1 TYR         0.0821
    134 H          -2.4463   -0.0170   19.9054 H         1 TYR         0.0453
    135 H          -2.8415    1.2986   18.6996 H         1 TYR         0.0453
    136 H          -2.1955    0.6723   22.3304 H         1 TYR         0.0530
    137 H          -4.0226    3.1759   19.3840 H         1 TYR         0.0530
    138 H          -3.2919    1.9703   24.1168 H         1 TYR         0.0525
    139 H          -5.1247    4.4744   21.1678 H         1 TYR         0.0525
    140 H          -4.6425    3.6604   24.5934 H         1 TYR         0.2458
    141 H           0.8569   -0.4619   19.9738 H         1 GLU         0.1883
    142 H           0.8459   -1.4843   17.1612 H         1 GLU         0.0801
    143 H           3.2670   -0.9972   18.9033 H         1 GLU         0.0330
    144 H           2.7713   -0.0525   17.4118 H         1 GLU         0.0330
    145 H           3.1826   -1.9455   16.0527 H         1 GLU         0.0433
    146 H           3.5824   -2.9441   17.5122 H         1 GLU         0.0433
    147 H          -0.6441   -3.0388   18.1474 H         1 LEU         0.1883
    148 H           0.6245   -4.8858   20.0794 H         1 LEU         0.0800
    149 H          -1.5646   -5.9110   20.2496 H         1 LEU         0.0315
    150 H          -2.1625   -4.7587   18.9252 H         1 LEU         0.0315
    151 H          -1.8042   -2.9195   20.4479 H         1 LEU         0.0298
    152 H          -4.0135   -3.9468   20.2982 H         1 LEU         0.0232
    153 H          -3.5744   -5.1122   21.5709 H         1 LEU         0.0232
    154 H          -3.6955   -3.3777   21.9553 H         1 LEU         0.0232
    155 H          -1.1708   -5.0649   22.4953 H         1 LEU         0.0232
    156 H          -0.0319   -3.8686   21.8298 H         1 LEU         0.0232
    157 H          -1.3978   -3.3324   22.8387 H         1 LEU         0.0232
    158 H           1.2942   -6.8967   19.6828 H         1 TRP         0.1876
    159 H           1.5514   -7.7401   16.9217 H         1 TRP         0.0741
    160 H           2.4144   -9.8710   17.9796 H         1 TRP         0.0390
    161 H           2.1747   -9.0178   19.5772 H         1 TRP         0.0390
    162 H           3.2456   -6.3111   17.5717 H         1 TRP         0.0795
    163 H           5.8099   -5.9363   17.6275 H         1 TRP         0.2216
    164 H           4.6402  -10.8759   19.4363 H         1 TRP         0.0540
    165 H           8.0947   -7.4074   18.3675 H         1 TRP         0.0541
    166 H           7.0492  -11.3219   19.7908 H         1 TRP         0.0510
    167 H           8.7475   -9.6095   19.2625 H         1 TRP         0.0530
@<TRIPOS>BOND
     1    1    2 1  
     2    2    3 1  
     3    2    5 1  
     4    3    4 2  
     5    3   12 am 
     6    5    6 1  
     7    6    7 ar 
     8    6    8 ar 
     9    7    9 ar 
    10    8   10 ar 
    11    9   11 ar 
    12   10   11 ar 
    13   12   13 1  
    14   13   14 1  
    15   13   16 1  
    16   14   15 2  
    17   14   21 am 
    18   16   17 1  
    19   17   18 1  
    20   18   19 2  
    21   18   20 am 
    22   21   22 1  
    23   22   23 1  
    24   22   25 1  
    25   23   24 2  
    26   23   35 am 
    27   25   26 1  
    28   26   27 2  
    29   26   28 1  
    30   27   29 1  
    31   28   30 ar 
    32   28   31 ar 
    33   29   30 1  
    34   30   32 ar 
    35   31   33 ar 
    36   32   34 ar 
    37   33   34 ar 
    38   35   36 1  
    39   36   37 1  
    40   36   39 1  
    41   37   38 2  
    42   37   43 am 
    43   39   40 1  
    44   40   41 1  
    45   41   42 1  
    46   43   44 1  
    47   44   45 1  
    48   45   46 2  
    49   45   47 am 
    50   47   48 1  
    51   48   49 1  
    52   48   51 1  
    53   49   50 2  
    54   49   59 am 
    55   51   52 1  
    56   52   53 ar 
    57   52   54 ar 
    58   53   55 ar 
    59   54   56 ar 
    60   55   57 ar 
    61   56   57 ar 
    62   57   58 1  
    63   59   60 1  
    64   60   61 1  
    65   60   63 1  
    66   61   62 2  
    67   61   68 am 
    68   63   64 1  
    69   64   65 1  
    70   65   66 ar 
    71   65   67 ar 
    72   68   69 1  
    73   69   70 1  
    74   69   72 1  
    75   70   71 2  
    76   70   76 am 
    77   72   73 1  
    78   73   74 1  
    79   73   75 1  
    80   76   77 1  
    81   77   78 1  
    82   77   80 1  
    83   78   79 ar 
    84   78   90 ar 
    85   80   81 1  
    86   81   82 2  
    87   81   83 1  
    88   82   84 1  
    89   83   85 ar 
    90   83   86 ar 
    91   84   85 1  
    92   85   87 ar 
    93   86   88 ar 
    94   87   89 ar 
    95   88   89 ar 
    96    1   91 1  
    97    1   92 1  
    98    1   93 1  
    99    2   94 1  
   100    5   95 1  
   101    5   96 1  
   102    7   97 1  
   103    8   98 1  
   104    9   99 1  
   105   10  100 1  
   106   11  101 1  
   107   12  102 1  
   108   13  103 1  
   109   16  104 1  
   110   16  105 1  
   111   17  106 1  
   112   17  107 1  
   113   20  108 1  
   114   20  109 1  
   115   21  110 1  
   116   22  111 1  
   117   25  112 1  
   118   25  113 1  
   119   27  114 1  
   120   29  115 1  
   121   31  116 1  
   122   32  117 1  
   123   33  118 1  
   124   34  119 1  
   125   35  120 1  
   126   36  121 1  
   127   39  122 1  
   128   39  123 1  
   129   40  124 1  
   130   40  125 1  
   131   42  126 1  
   132   42  127 1  
   133   42  128 1  
   134   43  129 1  
   135   44  130 1  
   136   44  131 1  
   137   47  132 1  
   138   48  133 1  
   139   51  134 1  
   140   51  135 1  
   141   53  136 1  
   142   54  137 1  
   143   55  138 1  
   144   56  139 1  
   145   58  140 1  
   146   59  141 1  
   147   60  142 1  
   148   63  143 1  
   149   63  144 1  
   150   64  145 1  
   151   64  146 1  
   152   68  147 1  
   153   69  148 1  
   154   72  149 1  
   155   72  150 1  
   156   73  151 1  
   157   74  152 1  
   158   74  153 1  
   159   74  154 1  
   160   75  155 1  
   161   75  156 1  
   162   75  157 1  
   163   76  158 1  
   164   77  159 1  
   165   80  160 1  
   166   80  161 1  
   167   82  162 1  
   168   84  163 1  
   169   86  164 1  
   170   87  165 1  
   171   88  166 1  
   172   89  167 1  
@<TRIPOS>SUBSTRUCTURE
     1 PHE         1

