3rwe_ligand
  -I-interpret- 

167172  0  0  0  0  0  0  0  0999 V2000
   12.3150   12.6920   18.3810 N   0  3  0  0  0
   11.3020   12.3640   19.3770 C   0  0  0  0  0
   10.7880   10.9480   19.1390 C   0  0  0  0  0
   11.1030   10.3380   18.1230 O   0  0  0  0  0
   10.1550   13.3810   19.3350 C   0  0  0  0  0
    9.4520   13.5660   20.6540 C   0  0  0  0  0
    9.9610   14.4300   21.6120 C   0  0  0  0  0
    8.2720   12.8930   20.9290 C   0  0  0  0  0
    9.3120   14.6070   22.8250 C   0  0  0  0  0
    7.6210   13.0690   22.1400 C   0  0  0  0  0
    8.1420   13.9270   23.0870 C   0  0  0  0  0
    9.9900   10.4400   20.0740 N   0  0  0  0  0
    9.5220    9.0610   20.0440 C   0  0  0  0  0
    8.1780    8.9490   19.3620 C   0  0  0  0  0
    7.4050    9.9070   19.3150 O   0  0  0  0  0
    9.3950    8.5300   21.4680 C   0  0  0  0  0
   10.0840    7.2050   21.7210 C   0  0  0  0  0
   10.2930    6.9410   23.2050 C   0  0  0  0  0
   10.6280    7.8490   23.9680 O   0  0  0  0  0
   10.0850    5.6960   23.6220 N   0  0  0  0  0
    7.8950    7.7560   18.8600 N   0  0  0  0  0
    6.6550    7.5110   18.1510 C   0  0  0  0  0
    5.5300    7.1190   19.1050 C   0  0  0  0  0
    5.7350    6.3560   20.0500 O   0  0  0  0  0
    6.8690    6.4580   17.0610 C   0  0  0  0  0
    5.6190    5.7690   16.6320 C   0  0  0  0  0
    5.2920    4.4660   16.8560 C   0  0  0  0  0
    4.5210    6.3410   15.9070 C   0  0  0  0  0
    4.0610    4.1870   16.3170 N   0  0  0  0  0
    3.5670    5.3190   15.7300 C   0  0  0  0  0
    4.2520    7.6130   15.3940 C   0  0  0  0  0
    2.3630    5.5320   15.0590 C   0  0  0  0  0
    3.0540    7.8210   14.7270 C   0  0  0  0  0
    2.1260    6.7860   14.5660 C   0  0  0  0  0
    4.3450    7.6690   18.8490 N   0  0  0  0  0
    3.1780    7.3610   19.6670 C   0  0  0  0  0
    2.1150    6.6290   18.8640 C   0  0  0  0  0
    1.8180    6.9740   17.7170 O   0  0  0  0  0
    2.5860    8.6200   20.3120 C   0  0  0  0  0
    1.9230    9.5800   19.3330 C   0  0  0  0  0
    0.7400   10.7000   20.1170 S   0  0  0  0  0
   -0.7220    9.6640   20.1960 C   0  0  0  0  0
    1.5560    5.5900   19.4760 N   0  0  0  0  0
    0.5200    4.8040   18.8340 C   0  0  0  0  0
    0.4610    3.3670   19.3130 C   0  0  0  0  0
    1.4140    2.8540   19.9000 O   0  0  0  0  0
   -0.6660    2.7140   19.0540 N   0  0  0  0  0
   -0.8650    1.3360   19.4780 C   0  0  0  0  0
   -0.2400    0.3700   18.4820 C   0  0  0  0  0
   -0.5570    0.3980   17.2940 O   0  0  0  0  0
   -2.3550    1.0360   19.6390 C   0  0  0  0  0
   -3.0270    1.8350   20.7310 C   0  0  0  0  0
   -2.8390    1.5120   22.0680 C   0  0  0  0  0
   -3.8570    2.9060   20.4270 C   0  0  0  0  0
   -3.4530    2.2360   23.0720 C   0  0  0  0  0
   -4.4770    3.6360   21.4240 C   0  0  0  0  0
   -4.2710    3.2970   22.7440 C   0  0  0  0  0
   -4.8870    4.0210   23.7380 O   0  0  0  0  0
    0.6510   -0.4830   18.9750 N   0  0  0  0  0
    1.3420   -1.4470   18.1310 C   0  0  0  0  0
    1.2830   -2.8370   18.7570 C   0  0  0  0  0
    2.2650   -3.3150   19.3250 O   0  0  0  0  0
    2.7950   -1.0160   17.9210 C   0  0  0  0  0
    3.6110   -1.9550   17.0550 C   0  0  0  0  0
    5.0620   -1.5320   16.9470 C   0  0  0  0  0
    5.3370   -0.3170   17.0380 O   0  0  0  0  0
    5.9270   -2.4150   16.7790 O   0  0  0  0  0
    0.1240   -3.4780   18.6550 N   0  0  0  0  0
   -0.0780   -4.7950   19.2510 C   0  0  0  0  0
    0.2170   -5.9190   18.2630 C   0  0  0  0  0
   -0.2010   -5.8680   17.1070 O   0  0  0  0  0
   -1.5080   -4.9290   19.7800 C   0  0  0  0  0
   -1.9390   -3.9240   20.8490 C   0  0  0  0  0
   -3.4110   -4.1030   21.1930 C   0  0  0  0  0
   -1.0730   -4.0570   22.0920 C   0  0  0  0  0
    0.9400   -6.9340   18.7270 N   0  0  0  0  0
    1.2390   -8.1000   17.9020 C   0  0  0  0  0
    0.0040   -8.9760   17.7270 C   0  0  0  0  0
   -0.0930   -9.7540   16.7780 O   0  0  0  0  0
    2.3790   -8.9200   18.5110 C   0  0  0  0  0
    3.7270   -8.2810   18.3720 C   0  0  0  0  0
    3.9960   -7.0270   17.9070 C   0  0  0  0  0
    4.9940   -8.8720   18.6930 C   0  0  0  0  0
    5.3510   -6.7980   17.9230 N   0  0  0  0  0
    5.9840   -7.9120   18.3990 C   0  0  0  0  0
    5.3830  -10.1140   19.2000 C   0  0  0  0  0
    7.3420   -8.1610   18.5990 C   0  0  0  0  0
    6.7310  -10.3570   19.3960 C   0  0  0  0  0
    7.6940   -9.3850   19.0960 C   0  0  0  0  0
   -0.9260   -8.9270   18.5320 O   0  0  0  0  0
   13.0679   12.0053   18.4247 H   0  0  0  0  0
   11.8939   12.6780   17.4521 H   0  0  0  0  0
   12.6894   13.6214   18.5719 H   0  0  0  0  0
   11.7491   12.4102   20.3700 H   0  0  0  0  0
    9.4173   13.0073   18.6250 H   0  0  0  0  0
   10.5863   14.3437   19.0606 H   0  0  0  0  0
   10.8821   14.9765   21.4093 H   0  0  0  0  0
    7.8510   12.2175   20.1843 H   0  0  0  0  0
    9.7274   15.2841   23.5714 H   0  0  0  0  0
    6.6965   12.5291   22.3445 H   0  0  0  0  0
    7.6300   14.0665   24.0391 H   0  0  0  0  0
    9.6937   11.0406   20.8434 H   0  0  0  0  0
   10.2495    8.4752   19.4821 H   0  0  0  0  0
    8.3322    8.3721   21.6513 H   0  0  0  0  0
    9.8712    9.2619   22.1204 H   0  0  0  0  0
   11.0618    7.2336   21.2403 H   0  0  0  0  0
    9.4523    6.4120   21.3208 H   0  0  0  0  0
   10.2018    5.4622   24.6079 H   0  0  0  0  0
    9.8086    4.9746   22.9560 H   0  0  0  0  0
    8.5636    6.9943   18.9749 H   0  0  0  0  0
    6.3460    8.4390   17.6699 H   0  0  0  0  0
    7.5335    5.6976   17.4713 H   0  0  0  0  0
    7.2711    6.9724   16.1882 H   0  0  0  0  0
    5.9176    3.7483   17.3867 H   0  0  0  0  0
    4.9691    8.4248   15.5157 H   0  0  0  0  0
    1.6373    4.7287   14.9320 H   0  0  0  0  0
    2.8314    8.8078   14.3211 H   0  0  0  0  0
    1.1940    6.9832   14.0363 H   0  0  0  0  0
    4.2518    8.3172   18.0670 H   0  0  0  0  0
    3.5186    6.7028   20.4663 H   0  0  0  0  0
    3.4120    9.1586   20.7766 H   0  0  0  0  0
    1.8138    8.2893   21.0065 H   0  0  0  0  0
    1.3760    8.9813   18.6047 H   0  0  0  0  0
    2.7087   10.1905   18.8880 H   0  0  0  0  0
   -1.0095    9.3660   19.1877 H   0  0  0  0  0
   -0.5052    8.7766   20.7906 H   0  0  0  0  0
   -1.5367   10.2220   20.6575 H   0  0  0  0  0
    1.8619    5.3403   20.4165 H   0  0  0  0  0
    0.7407    4.7832   17.7668 H   0  0  0  0  0
   -0.4369    5.2674   19.0743 H   0  0  0  0  0
   -1.4108    3.1901   18.5452 H   0  0  0  0  0
   -0.3746    1.2032   20.4423 H   0  0  0  0  0
   -2.4463   -0.0170   19.9054 H   0  0  0  0  0
   -2.8415    1.2986   18.6996 H   0  0  0  0  0
   -2.1955    0.6723   22.3304 H   0  0  0  0  0
   -4.0226    3.1759   19.3840 H   0  0  0  0  0
   -3.2919    1.9703   24.1168 H   0  0  0  0  0
   -5.1247    4.4744   21.1678 H   0  0  0  0  0
   -5.4160    4.7182   23.3435 H   0  0  0  0  0
    0.8569   -0.4619   19.9738 H   0  0  0  0  0
    0.8459   -1.4843   17.1612 H   0  0  0  0  0
    3.2670   -0.9972   18.9033 H   0  0  0  0  0
    2.7713   -0.0525   17.4118 H   0  0  0  0  0
    3.1826   -1.9455   16.0527 H   0  0  0  0  0
    3.5824   -2.9441   17.5122 H   0  0  0  0  0
    4.5281    0.1845   17.1638 H   0  0  0  0  0
   -0.6441   -3.0388   18.1474 H   0  0  0  0  0
    0.6245   -4.8858   20.0794 H   0  0  0  0  0
   -1.5646   -5.9110   20.2496 H   0  0  0  0  0
   -2.1625   -4.7587   18.9252 H   0  0  0  0  0
   -1.8042   -2.9195   20.4479 H   0  0  0  0  0
   -4.0135   -3.9468   20.2982 H   0  0  0  0  0
   -3.5744   -5.1122   21.5709 H   0  0  0  0  0
   -3.6955   -3.3777   21.9553 H   0  0  0  0  0
   -1.1708   -5.0649   22.4953 H   0  0  0  0  0
   -0.0319   -3.8686   21.8298 H   0  0  0  0  0
   -1.3978   -3.3324   22.8387 H   0  0  0  0  0
    1.2942   -6.8967   19.6828 H   0  0  0  0  0
    1.5514   -7.7401   16.9217 H   0  0  0  0  0
    2.4144   -9.8710   17.9796 H   0  0  0  0  0
    2.1747   -9.0178   19.5772 H   0  0  0  0  0
    3.2456   -6.3111   17.5717 H   0  0  0  0  0
    4.6402  -10.8759   19.4363 H   0  0  0  0  0
    8.0947   -7.4074   18.3675 H   0  0  0  0  0
    7.0492  -11.3219   19.7908 H   0  0  0  0  0
    8.7475   -9.6095   19.2625 H   0  0  0  0  0
   -0.7220   -8.2852   19.2162 H   0  0  0  0  0
  1  2  1  0  0  0
  2  3  1  0  0  0
  2  5  1  0  0  0
  3  4  2  0  0  0
  3 12  1  0  0  0
  5  6  1  0  0  0
  6  7  4  0  0  0
  6  8  4  0  0  0
  7  9  4  0  0  0
  8 10  4  0  0  0
  9 11  4  0  0  0
 10 11  4  0  0  0
 12 13  1  0  0  0
 13 14  1  0  0  0
 13 16  1  0  0  0
 14 15  2  0  0  0
 14 21  1  0  0  0
 16 17  1  0  0  0
 17 18  1  0  0  0
 18 19  2  0  0  0
 18 20  1  0  0  0
 21 22  1  0  0  0
 22 23  1  0  0  0
 22 25  1  0  0  0
 23 24  2  0  0  0
 23 35  1  0  0  0
 25 26  1  0  0  0
 26 27  4  0  0  0
 26 28  4  0  0  0
 27 29  4  0  0  0
 28 30  4  0  0  0
 28 31  4  0  0  0
 29 30  4  0  0  0
 30 32  4  0  0  0
 31 33  4  0  0  0
 32 34  4  0  0  0
 33 34  4  0  0  0
 35 36  1  0  0  0
 36 37  1  0  0  0
 36 39  1  0  0  0
 37 38  2  0  0  0
 37 43  1  0  0  0
 39 40  1  0  0  0
 40 41  1  0  0  0
 41 42  1  0  0  0
 43 44  1  0  0  0
 44 45  1  0  0  0
 45 46  2  0  0  0
 45 47  1  0  0  0
 47 48  1  0  0  0
 48 49  1  0  0  0
 48 51  1  0  0  0
 49 50  2  0  0  0
 49 59  1  0  0  0
 51 52  1  0  0  0
 52 53  4  0  0  0
 52 54  4  0  0  0
 53 55  4  0  0  0
 54 56  4  0  0  0
 55 57  4  0  0  0
 56 57  4  0  0  0
 57 58  1  0  0  0
 59 60  1  0  0  0
 60 61  1  0  0  0
 60 63  1  0  0  0
 61 62  2  0  0  0
 61 68  1  0  0  0
 63 64  1  0  0  0
 64 65  1  0  0  0
 65 66  1  0  0  0
 65 67  2  0  0  0
 68 69  1  0  0  0
 69 70  1  0  0  0
 69 72  1  0  0  0
 70 71  2  0  0  0
 70 76  1  0  0  0
 72 73  1  0  0  0
 73 74  1  0  0  0
 73 75  1  0  0  0
 76 77  1  0  0  0
 77 78  1  0  0  0
 77 80  1  0  0  0
 78 79  2  0  0  0
 78 90  1  0  0  0
 80 81  1  0  0  0
 81 82  4  0  0  0
 81 83  4  0  0  0
 82 84  4  0  0  0
 83 85  4  0  0  0
 83 86  4  0  0  0
 84 85  4  0  0  0
 85 87  4  0  0  0
 86 88  4  0  0  0
 87 89  4  0  0  0
 88 89  4  0  0  0
  1 91  1  0  0  0
  1 92  1  0  0  0
  1 93  1  0  0  0
  2 94  1  0  0  0
  5 95  1  0  0  0
  5 96  1  0  0  0
  7 97  1  0  0  0
  8 98  1  0  0  0
  9 99  1  0  0  0
 10100  1  0  0  0
 11101  1  0  0  0
 12102  1  0  0  0
 13103  1  0  0  0
 16104  1  0  0  0
 16105  1  0  0  0
 17106  1  0  0  0
 17107  1  0  0  0
 20108  1  0  0  0
 20109  1  0  0  0
 21110  1  0  0  0
 22111  1  0  0  0
 25112  1  0  0  0
 25113  1  0  0  0
 27114  1  0  0  0
 31115  1  0  0  0
 32116  1  0  0  0
 33117  1  0  0  0
 34118  1  0  0  0
 35119  1  0  0  0
 36120  1  0  0  0
 39121  1  0  0  0
 39122  1  0  0  0
 40123  1  0  0  0
 40124  1  0  0  0
 42125  1  0  0  0
 42126  1  0  0  0
 42127  1  0  0  0
 43128  1  0  0  0
 44129  1  0  0  0
 44130  1  0  0  0
 47131  1  0  0  0
 48132  1  0  0  0
 51133  1  0  0  0
 51134  1  0  0  0
 53135  1  0  0  0
 54136  1  0  0  0
 55137  1  0  0  0
 56138  1  0  0  0
 58139  1  0  0  0
 59140  1  0  0  0
 60141  1  0  0  0
 63142  1  0  0  0
 63143  1  0  0  0
 64144  1  0  0  0
 64145  1  0  0  0
 66146  1  0  0  0
 68147  1  0  0  0
 69148  1  0  0  0
 72149  1  0  0  0
 72150  1  0  0  0
 73151  1  0  0  0
 74152  1  0  0  0
 74153  1  0  0  0
 74154  1  0  0  0
 75155  1  0  0  0
 75156  1  0  0  0
 75157  1  0  0  0
 76158  1  0  0  0
 77159  1  0  0  0
 80160  1  0  0  0
 80161  1  0  0  0
 82162  1  0  0  0
 86163  1  0  0  0
 87164  1  0  0  0
 88165  1  0  0  0
 89166  1  0  0  0
 90167  1  0  0  0
M  END
$$$$
