3fc1_ligand
  -I-interpret- 

 39 42  0  0  0  0  0  0  0  0999 V2000
   36.8510   32.5670   31.2450 F   0  0  0  0  0
   38.0210   31.9520   31.0380 C   0  0  0  0  0
   38.4750   31.0110   31.9500 C   0  0  0  0  0
   39.6910   30.3890   31.7150 C   0  0  0  0  0
   40.4310   30.7200   30.5800 C   0  0  0  0  0
   41.9650   29.9150   30.2870 S   0  0  0  0  0
   43.2720   31.0880   30.5140 C   0  0  0  0  0
   44.5630   30.7640   30.0280 C   0  0  0  0  0
   45.6000   31.6340   30.1920 C   0  0  0  0  0
   45.3680   32.8640   30.8560 C   0  0  0  0  0
   46.3990   33.8150   31.0630 C   0  0  0  0  0
   47.8010   33.5940   30.6130 C   0  0  0  0  0
   48.6950   32.8010   31.3550 C   0  0  0  0  0
   48.2150   32.0250   32.8300 Cl  0  0  0  0  0
   49.9980   32.6100   30.9090 C   0  0  0  0  0
   50.4300   33.2100   29.7390 C   0  0  0  0  0
   49.5640   34.0030   29.0030 C   0  0  0  0  0
   48.2620   34.1940   29.4350 C   0  0  0  0  0
   47.1870   35.1850   28.4960 Cl  0  0  0  0  0
   46.0390   35.0120   31.7480 C   0  0  0  0  0
   46.8820   35.8740   31.9620 O   0  0  0  0  0
   44.7770   35.2060   32.1650 N   0  0  0  0  0
   43.8430   34.3200   31.9640 C   0  0  0  0  0
   44.0970   33.1500   31.3200 N   0  0  0  0  0
   43.0560   32.2300   31.1330 N   0  0  0  0  0
   39.9570   31.6640   29.6690 C   0  0  0  0  0
   40.6670   31.9750   28.5680 F   0  0  0  0  0
   38.7490   32.2850   29.9030 C   0  0  0  0  0
   37.8870   30.7654   32.8343 H   0  0  0  0  0
   40.0679   29.6434   32.4151 H   0  0  0  0  0
   44.7281   29.8138   29.5201 H   0  0  0  0  0
   46.5934   31.3868   29.8176 H   0  0  0  0  0
   47.1674   33.3996   30.4110 H   0  0  0  0  0
   50.6821   31.9851   31.4832 H   0  0  0  0  0
   51.4534   33.0585   29.3958 H   0  0  0  0  0
   49.9078   34.4767   28.0835 H   0  0  0  0  0
   42.8331   34.5219   32.3210 H   0  0  0  0  0
   42.1218   32.4474   31.4799 H   0  0  0  0  0
   38.3687   33.0301   29.2042 H   0  0  0  0  0
  1  2  1  0  0  0
  2  3  4  0  0  0
  2 28  4  0  0  0
  3  4  4  0  0  0
  4  5  4  0  0  0
  5  6  1  0  0  0
  5 26  4  0  0  0
  6  7  1  0  0  0
  7  8  2  0  0  0
  7 25  1  0  0  0
  8  9  1  0  0  0
  9 10  2  0  0  0
 10 11  1  0  0  0
 10 24  1  0  0  0
 11 12  1  0  0  0
 11 20  1  0  0  0
 12 13  4  0  0  0
 12 18  4  0  0  0
 13 14  1  0  0  0
 13 15  4  0  0  0
 15 16  4  0  0  0
 16 17  4  0  0  0
 17 18  4  0  0  0
 18 19  1  0  0  0
 20 21  2  0  0  0
 20 22  1  0  0  0
 22 23  2  0  0  0
 23 24  1  0  0  0
 24 25  1  0  0  0
 26 27  1  0  0  0
 26 28  4  0  0  0
  3 29  1  0  0  0
  4 30  1  0  0  0
  8 31  1  0  0  0
  9 32  1  0  0  0
 11 33  1  0  0  0
 15 34  1  0  0  0
 16 35  1  0  0  0
 17 36  1  0  0  0
 23 37  1  0  0  0
 25 38  1  0  0  0
 28 39  1  0  0  0
M  END
$$$$
