1c1r_ligand
  -I-interpret- 

 34 37  0  0  0  0  0  0  0  0999 V2000
   45.3210   19.4680   52.8680 C   0  0  0  0  0
   44.6780   19.0610   51.6400 C   0  0  0  0  0
   44.2480   20.0000   50.6810 C   0  0  0  0  0
   44.4900   21.3220   50.9910 C   0  0  0  0  0
   45.0860   21.7150   52.1250 C   0  0  0  0  0
   45.5140   20.8510   53.0820 C   0  0  0  0  0
   45.7430   18.5670   53.8490 C   0  0  0  0  0
   44.6170   23.4360   51.0080 C   0  0  0  0  0
   44.4420   24.9350   50.5720 C   0  0  0  0  0
   46.5960   18.9460   54.7570 N   0  0  0  0  0
   45.2890   17.3480   53.8450 N   0  0  0  0  0
   44.2090   22.4040   50.3170 N   0  0  0  0  0
   45.1560   23.0190   52.1120 N   0  0  0  0  0
   45.0370   25.3510   44.6310 C   0  0  0  0  0
   45.7720   26.5360   44.9400 C   0  0  0  0  0
   45.9600   26.9660   46.2830 C   0  0  0  0  0
   45.3900   26.1690   47.2600 C   0  0  0  0  0
   44.6910   25.0430   46.9460 C   0  0  0  0  0
   44.4740   24.5750   45.6580 C   0  0  0  0  0
   44.7250   25.2740   49.0560 C   0  0  0  0  0
   45.3960   26.2880   48.5740 N   0  0  0  0  0
   44.3040   24.5340   48.0680 N   0  0  0  0  0
   44.5212   17.9992   51.4501 H   0  0  0  0  0
   43.7565   19.7011   49.7552 H   0  0  0  0  0
   45.9935   21.2151   53.9906 H   0  0  0  0  0
   45.1749   25.5011   51.1468 H   0  0  0  0  0
   43.3923   25.1750   50.7411 H   0  0  0  0  0
   46.9105   18.2862   55.4684 H   0  0  0  0  0
   46.9497   19.9027   54.7568 H   0  0  0  0  0
   45.6011   16.6852   54.5548 H   0  0  0  0  0
   44.9121   25.0468   43.5918 H   0  0  0  0  0
   46.1988   27.1246   44.1279 H   0  0  0  0  0
   46.5194   27.8690   46.5276 H   0  0  0  0  0
   43.9054   23.6671   45.4566 H   0  0  0  0  0
  7  1  1  0  0  0
  1  6  4  0  0  0
  1  2  4  0  0  0
  2  3  4  0  0  0
  3  4  4  0  0  0
  4 12  4  0  0  0
  4  5  4  0  0  0
  5 13  4  0  0  0
  6  5  4  0  0  0
 13  8  4  0  0  0
 12  8  4  0  0  0
  8  9  1  0  0  0
  9 20  1  0  0  0
 20 22  4  0  0  0
 20 21  4  0  0  0
 21 17  4  0  0  0
 17 18  4  0  0  0
 17 16  4  0  0  0
 16 15  4  0  0  0
 15 14  4  0  0  0
 14 19  4  0  0  0
 18 19  4  0  0  0
 22 18  4  0  0  0
  7 11  2  0  0  0
  7 10  1  0  0  0
  2 23  1  0  0  0
  3 24  1  0  0  0
  6 25  1  0  0  0
  9 26  1  0  0  0
  9 27  1  0  0  0
 10 28  1  0  0  0
 10 29  1  0  0  0
 11 30  1  0  0  0
 14 31  1  0  0  0
 15 32  1  0  0  0
 16 33  1  0  0  0
 19 34  1  0  0  0
M  END
$$$$
