5gn7_ligand
  -I-interpret- 

 51 54  0  0  0  0  0  0  0  0999 V2000
   -8.1720   19.8690   31.3140 C   0  0  0  0  0
   -6.7290   19.9100   31.2940 O   0  0  0  0  0
   -6.0770   20.8950   31.9930 C   0  0  0  0  0
   -4.8640   21.4380   31.5260 C   0  0  0  0  0
   -4.1820   22.4480   32.2380 C   0  0  0  0  0
   -6.5860   21.3620   33.2000 C   0  0  0  0  0
   -5.9030   22.3590   33.8910 C   0  0  0  0  0
   -4.6940   22.9260   33.4570 C   0  0  0  0  0
   -4.1120   23.9030   34.2280 N   0  0  0  0  0
   -4.1270   23.8440   35.7430 C   0  0  0  0  0
   -2.8680   24.3220   36.4860 C   0  0  0  0  0
   -3.6020   25.1340   33.6470 C   0  0  0  0  0
   -2.5270   25.7400   34.5940 C   0  0  0  0  0
   -1.8670   24.7410   35.4850 N   0  3  0  0  0
   -0.6530   25.3830   35.9990 C   0  0  0  0  0
    0.1470   24.6310   36.9300 C   0  0  0  0  0
    0.0350   25.0280   38.2560 C   0  0  0  0  0
    0.8040   24.4260   39.2380 C   0  0  0  0  0
    0.5760   24.8650   40.3560 O   0  0  0  0  0
    1.6800   23.3700   38.9720 O   0  0  0  0  0
    1.8660   22.9650   37.6480 C   0  0  0  0  0
    1.0990   23.6020   36.6200 C   0  0  0  0  0
    1.3440   23.1590   35.2970 C   0  0  0  0  0
    2.2690   22.1430   34.9750 C   0  0  0  0  0
    3.0080   21.5210   35.9950 C   0  0  0  0  0
    3.9270   20.5410   35.7290 O   0  0  0  0  0
    2.8120   21.9240   37.3370 C   0  0  0  0  0
    3.5540   21.2950   38.3160 O   0  0  0  0  0
   -8.5165   19.7472   32.3409 H   0  0  0  0  0
   -8.5663   20.7992   30.9050 H   0  0  0  0  0
   -8.5187   19.0297   30.7111 H   0  0  0  0  0
   -4.4415   21.0690   30.5914 H   0  0  0  0  0
   -3.2540   22.8593   31.8409 H   0  0  0  0  0
   -7.5121   20.9508   33.6017 H   0  0  0  0  0
   -6.3325   22.7212   34.8250 H   0  0  0  0  0
   -4.2323   22.7885   35.9940 H   0  0  0  0  0
   -4.9247   24.5183   36.0545 H   0  0  0  0  0
   -2.4673   23.5144   37.0987 H   0  0  0  0  0
   -3.1155   25.1590   37.1389 H   0  0  0  0  0
   -4.4191   25.8441   33.5194 H   0  0  0  0  0
   -3.1558   24.9223   32.6753 H   0  0  0  0  0
   -3.0327   26.4608   35.2365 H   0  0  0  0  0
   -1.7500   26.1735   33.9643 H   0  0  0  0  0
   -1.5610   23.8792   35.0333 H   0  0  0  0  0
   -0.9928   26.2630   36.5451 H   0  0  0  0  0
   -0.0165   25.5497   35.1300 H   0  0  0  0  0
   -0.6637   25.8198   38.5261 H   0  0  0  0  0
    0.7886   23.6277   34.4846 H   0  0  0  0  0
    2.4097   21.8415   33.9370 H   0  0  0  0  0
    4.3236   20.2441   36.5513 H   0  0  0  0  0
    4.1226   20.6359   37.9111 H   0  0  0  0  0
  1  2  1  0  0  0
  2  3  1  0  0  0
  3  4  4  0  0  0
  3  6  4  0  0  0
  4  5  4  0  0  0
  5  8  4  0  0  0
  6  7  4  0  0  0
  7  8  4  0  0  0
  8  9  1  0  0  0
  9 10  1  0  0  0
  9 12  1  0  0  0
 10 11  1  0  0  0
 11 14  1  0  0  0
 12 13  1  0  0  0
 13 14  1  0  0  0
 14 15  1  0  0  0
 15 16  1  0  0  0
 16 17  2  0  0  0
 16 22  1  0  0  0
 17 18  1  0  0  0
 18 19  2  0  0  0
 18 20  1  0  0  0
 20 21  1  0  0  0
 21 22  4  0  0  0
 21 27  4  0  0  0
 22 23  4  0  0  0
 23 24  4  0  0  0
 24 25  4  0  0  0
 25 26  1  0  0  0
 25 27  4  0  0  0
 27 28  1  0  0  0
  1 29  1  0  0  0
  1 30  1  0  0  0
  1 31  1  0  0  0
  4 32  1  0  0  0
  5 33  1  0  0  0
  6 34  1  0  0  0
  7 35  1  0  0  0
 10 36  1  0  0  0
 10 37  1  0  0  0
 11 38  1  0  0  0
 11 39  1  0  0  0
 12 40  1  0  0  0
 12 41  1  0  0  0
 13 42  1  0  0  0
 13 43  1  0  0  0
 14 44  1  0  0  0
 15 45  1  0  0  0
 15 46  1  0  0  0
 17 47  1  0  0  0
 23 48  1  0  0  0
 24 49  1  0  0  0
 26 50  1  0  0  0
 28 51  1  0  0  0
M  END
$$$$
