4l7u_ligand
  -I-interpret- 

 49 51  0  0  0  0  0  0  0  0999 V2000
   23.3970   -1.0180   14.7250 C   0  0  0  0  0
   23.6120    0.2280   14.1500 C   0  0  0  0  0
   23.3220    0.4170   12.8190 C   0  0  0  0  0
   22.8210   -0.6440   12.0580 C   0  0  0  0  0
   22.6420   -1.8890   12.6280 C   0  0  0  0  0
   22.9230   -2.0470   13.9690 C   0  0  0  0  0
   22.7410   -3.1680   14.5960 C   0  0  0  0  0
   21.2540   -3.2400   15.0240 C   0  0  0  0  0
   20.1860   -2.2620   15.6520 C   0  0  0  0  0
   19.2640   -2.7710   16.3690 O   0  0  0  0  0
   20.2670   -0.9120   15.4300 O   0  0  0  0  0
   20.6260   -0.2930   16.6780 C   0  0  0  0  0
   20.5650   -3.9680   14.0080 N   0  0  0  0  0
   19.8550   -3.4980   12.9920 C   0  0  0  0  0
   19.6070   -2.3560   12.6400 O   0  0  0  0  0
   19.3000   -4.5220   12.1800 C   0  0  0  0  0
   18.4240   -5.2360   13.1260 C   0  0  0  0  0
   17.6960   -5.9990   12.4000 C   0  0  0  0  0
   18.2310   -7.2050   12.1620 N   0  0  0  0  0
   17.4850   -8.0310   11.4640 C   0  0  0  0  0
   18.0150   -9.2790   11.2530 C   0  0  0  0  0
   17.2530  -10.1930   10.5400 C   0  0  0  0  0
   15.9860   -9.8730   10.0560 C   0  0  0  0  0
   15.4960   -8.6050   10.2600 C   0  0  0  0  0
   16.1970   -7.6740   10.9620 C   0  0  0  0  0
   15.6490   -6.3840   11.1900 C   0  0  0  0  0
   14.5580   -5.9910   10.7610 O   0  0  0  0  0
   16.4180   -5.5260   11.9470 N   0  0  0  0  0
   23.6080   -1.1726   15.7832 H   0  0  0  0  0
   24.0071    1.0488   14.7485 H   0  0  0  0  0
   23.4823    1.3917   12.3582 H   0  0  0  0  0
   22.5703   -0.4873   11.0088 H   0  0  0  0  0
   22.2863   -2.7287   12.0310 H   0  0  0  0  0
   23.3882   -3.2195   15.4716 H   0  0  0  0  0
   22.9873   -4.0077   13.9461 H   0  0  0  0  0
   21.5924   -3.5047   16.0257 H   0  0  0  0  0
   19.8625   -0.5131   17.4241 H   0  0  0  0  0
   21.5867   -0.6841   17.0130 H   0  0  0  0  0
   20.6999    0.7856   16.5391 H   0  0  0  0  0
   20.6271   -4.9841   14.0721 H   0  0  0  0  0
   20.0545   -5.1649   11.7266 H   0  0  0  0  0
   18.7673   -4.1372   11.3104 H   0  0  0  0  0
   17.8200   -4.5451   13.7142 H   0  0  0  0  0
   18.9999   -5.8054   13.8555 H   0  0  0  0  0
   19.0018   -9.5434   11.6330 H   0  0  0  0  0
   17.6562  -11.1883   10.3533 H   0  0  0  0  0
   15.3927  -10.6166    9.5239 H   0  0  0  0  0
   14.5220   -8.3389    9.8493 H   0  0  0  0  0
   16.0906   -4.5878   12.1773 H   0  0  0  0  0
  1  2  4  0  0  0
  1  6  4  0  0  0
  2  3  4  0  0  0
  3  4  4  0  0  0
  4  5  4  0  0  0
  5  6  4  0  0  0
  6  7  1  0  0  0
  7  8  1  0  0  0
  8  9  1  0  0  0
  8 13  1  0  0  0
  9 10  2  0  0  0
  9 11  1  0  0  0
 11 12  1  0  0  0
 13 14  1  0  0  0
 14 15  2  0  0  0
 14 16  1  0  0  0
 16 17  1  0  0  0
 17 18  1  0  0  0
 18 19  2  0  0  0
 18 28  1  0  0  0
 19 20  1  0  0  0
 20 21  4  0  0  0
 20 25  4  0  0  0
 21 22  4  0  0  0
 22 23  4  0  0  0
 23 24  4  0  0  0
 24 25  4  0  0  0
 25 26  1  0  0  0
 26 27  2  0  0  0
 26 28  1  0  0  0
  1 29  1  0  0  0
  2 30  1  0  0  0
  3 31  1  0  0  0
  4 32  1  0  0  0
  5 33  1  0  0  0
  7 34  1  0  0  0
  7 35  1  0  0  0
  8 36  1  0  0  0
 12 37  1  0  0  0
 12 38  1  0  0  0
 12 39  1  0  0  0
 13 40  1  0  0  0
 16 41  1  0  0  0
 16 42  1  0  0  0
 17 43  1  0  0  0
 17 44  1  0  0  0
 21 45  1  0  0  0
 22 46  1  0  0  0
 23 47  1  0  0  0
 24 48  1  0  0  0
 28 49  1  0  0  0
M  END
$$$$
