2ckm_ligand
  -I-interpret- 

 77 82  0  0  0  0  0  0  0  0999 V2000
   -4.1200   59.7430   73.3690 C   0  0  0  0  0
   -2.7560   60.1980   73.3810 C   0  0  0  0  0
   -2.0160   60.1710   74.6800 C   0  0  0  0  0
   -2.6690   59.3340   75.7820 C   0  0  0  0  0
   -4.1650   59.6980   75.8760 C   0  0  0  0  0
   -4.8510   59.2810   74.6030 C   0  0  0  0  0
   -4.8150   59.6920   72.1800 N   0  0  0  0  0
   -4.3260   60.0380   70.9490 C   0  0  0  0  0
   -2.9400   60.5460   70.8440 C   0  0  0  0  0
   -2.1180   60.6640   72.1480 C   0  0  0  0  0
   -0.7920   61.2130   72.1250 N   0  0  0  0  0
   -2.5320   60.8500   69.4760 C   0  0  0  0  0
   -3.4010   60.6870   68.3810 C   0  0  0  0  0
   -4.7570   60.2030   68.5380 C   0  0  0  0  0
   -5.2120   59.8800   69.8290 C   0  0  0  0  0
    1.5520   67.3390   66.8250 C   0  0  0  0  0
    0.7870   67.3480   68.1480 C   0  0  0  0  0
    1.3070   66.3420   69.1670 C   0  0  0  0  0
    0.1980   65.5890   69.9180 C   0  0  0  0  0
    0.6590   64.1730   70.2500 C   0  0  0  0  0
   -0.3570   63.4150   71.0780 C   0  0  0  0  0
    0.0100   61.9360   71.1170 C   0  0  0  0  0
    5.0670   68.8090   64.0340 C   0  0  0  0  0
    3.7450   68.4860   64.5130 C   0  0  0  0  0
    2.7670   67.8580   63.4940 C   0  0  0  0  0
    3.4100   67.2720   62.2050 C   0  0  0  0  0
    4.3340   68.3110   61.5880 C   0  0  0  0  0
    5.5110   68.5970   62.5720 C   0  0  0  0  0
    5.9820   69.3210   64.9250 N   0  0  0  0  0
    5.7480   69.5490   66.2690 C   0  0  0  0  0
    4.4520   69.2550   66.8080 C   0  0  0  0  0
    3.4190   68.7400   65.9170 C   0  0  0  0  0
    2.2320   68.6350   66.5770 N   0  0  0  0  0
    4.2800   69.5260   68.2230 C   0  0  0  0  0
    5.3150   70.0550   68.9930 C   0  0  0  0  0
    6.5820   70.3360   68.4020 C   0  0  0  0  0
    6.7910   70.0790   67.0490 C   0  0  0  0  0
   -1.9832   61.1980   75.0438 H   0  0  0  0  0
   -1.0442   59.7206   74.4781 H   0  0  0  0  0
   -2.1818   59.5399   76.7351 H   0  0  0  0  0
   -2.5642   58.2747   75.5475 H   0  0  0  0  0
   -4.2737   60.7733   76.0172 H   0  0  0  0  0
   -4.6166   59.1819   76.7232 H   0  0  0  0  0
   -4.8853   58.1917   74.5831 H   0  0  0  0  0
   -5.8423   59.7341   74.5936 H   0  0  0  0  0
   -0.2907   61.0722   73.0021 H   0  0  0  0  0
   -1.5209   61.2153   69.2965 H   0  0  0  0  0
   -3.0416   60.9331   67.3818 H   0  0  0  0  0
   -5.4114   60.0914   67.6735 H   0  0  0  0  0
   -6.2275   59.5132   69.9785 H   0  0  0  0  0
    0.8410   67.1635   66.0177 H   0  0  0  0  0
    2.3093   66.5564   66.8708 H   0  0  0  0  0
   -0.2466   67.0817   67.9272 H   0  0  0  0  0
    0.9030   68.3405   68.5833 H   0  0  0  0  0
    1.8814   66.8978   69.9081 H   0  0  0  0  0
    1.8914   65.6005   68.6222 H   0  0  0  0  0
   -0.6900   65.5379   69.2880 H   0  0  0  0  0
   -0.0301   66.1175   70.8436 H   0  0  0  0  0
    1.5798   64.2449   70.8288 H   0  0  0  0  0
    0.7989   63.6351   69.3123 H   0  0  0  0  0
   -1.3445   63.5299   70.6311 H   0  0  0  0  0
   -0.3634   63.8119   72.0931 H   0  0  0  0  0
   -0.1895   61.5021   70.1372 H   0  0  0  0  0
    1.0637   61.8459   71.3809 H   0  0  0  0  0
    2.1060   68.6613   63.1686 H   0  0  0  0  0
    2.2876   67.0226   64.0043 H   0  0  0  0  0
    2.6273   67.0105   61.4929 H   0  0  0  0  0
    3.9813   66.3782   62.4558 H   0  0  0  0  0
    3.7793   69.2309   61.4029 H   0  0  0  0  0
    4.7287   67.9359   60.6437 H   0  0  0  0  0
    6.1659   67.7259   62.5555 H   0  0  0  0  0
    5.9919   69.5181   62.2427 H   0  0  0  0  0
    1.7889   69.4884   66.9173 H   0  0  0  0  0
    3.3209   69.3114   68.6942 H   0  0  0  0  0
    5.1548   70.2549   70.0525 H   0  0  0  0  0
    7.3865   70.7517   69.0087 H   0  0  0  0  0
    7.7602   70.2881   66.5962 H   0  0  0  0  0
  2  1  4  0  0  0
  1  6  1  0  0  0
  1  7  4  0  0  0
  2  3  1  0  0  0
 10  2  4  0  0  0
  3  4  1  0  0  0
  4  5  1  0  0  0
  6  5  1  0  0  0
  8  7  4  0  0  0
  9  8  4  0  0  0
  8 15  4  0  0  0
 10  9  4  0  0  0
  9 12  4  0  0  0
 11 10  1  0  0  0
 22 11  1  0  0  0
 12 13  4  0  0  0
 13 14  4  0  0  0
 15 14  4  0  0  0
 16 17  1  0  0  0
 33 16  1  0  0  0
 17 18  1  0  0  0
 18 19  1  0  0  0
 19 20  1  0  0  0
 20 21  1  0  0  0
 21 22  1  0  0  0
 24 23  4  0  0  0
 23 28  1  0  0  0
 23 29  4  0  0  0
 24 25  1  0  0  0
 32 24  4  0  0  0
 25 26  1  0  0  0
 26 27  1  0  0  0
 28 27  1  0  0  0
 30 29  4  0  0  0
 31 30  4  0  0  0
 30 37  4  0  0  0
 32 31  4  0  0  0
 31 34  4  0  0  0
 32 33  1  0  0  0
 34 35  4  0  0  0
 35 36  4  0  0  0
 36 37  4  0  0  0
  3 38  1  0  0  0
  3 39  1  0  0  0
  4 40  1  0  0  0
  4 41  1  0  0  0
  5 42  1  0  0  0
  5 43  1  0  0  0
  6 44  1  0  0  0
  6 45  1  0  0  0
 11 46  1  0  0  0
 12 47  1  0  0  0
 13 48  1  0  0  0
 14 49  1  0  0  0
 15 50  1  0  0  0
 16 51  1  0  0  0
 16 52  1  0  0  0
 17 53  1  0  0  0
 17 54  1  0  0  0
 18 55  1  0  0  0
 18 56  1  0  0  0
 19 57  1  0  0  0
 19 58  1  0  0  0
 20 59  1  0  0  0
 20 60  1  0  0  0
 21 61  1  0  0  0
 21 62  1  0  0  0
 22 63  1  0  0  0
 22 64  1  0  0  0
 25 65  1  0  0  0
 25 66  1  0  0  0
 26 67  1  0  0  0
 26 68  1  0  0  0
 27 69  1  0  0  0
 27 70  1  0  0  0
 28 71  1  0  0  0
 28 72  1  0  0  0
 33 73  1  0  0  0
 34 74  1  0  0  0
 35 75  1  0  0  0
 36 76  1  0  0  0
 37 77  1  0  0  0
M  END
$$$$
