5knx_ligand
  -I-interpret- 

 44 45  0  0  0  0  0  0  0  0999 V2000
   21.5170   54.5160   15.2170 C   0  0  0  0  0
   21.1510   55.2990   16.3020 C   0  0  0  0  0
   21.8340   55.1710   17.4880 C   0  0  0  0  0
   19.8290   55.7800   14.5350 C   0  0  0  0  0
   22.8710   54.2790   17.6030 N   0  0  0  0  0
   22.5270   53.6400   15.3150 N   0  0  0  0  0
   22.7530   48.5580   11.7390 O   0  0  0  0  0
   21.8420   48.9970   10.6050 P   0  0  0  0  0
   21.3560   47.7790    9.8370 O   0  0  0  0  0
   22.6070   49.9300    9.6810 O   0  0  0  0  0
   20.3920   49.8970   11.2920 C   0  0  0  0  0
   20.7950   51.2450   11.5890 O   0  0  0  0  0
   20.3020   51.7380   12.8250 C   0  0  0  0  0
   19.7660   53.1670   12.5590 C   0  0  0  0  0
   18.3380   53.3470   13.1170 C   0  0  0  0  0
   17.4150   53.0590   12.0420 O   0  0  0  0  0
   16.6230   54.1650   11.6340 C   0  0  0  0  0
   14.9050   53.5570   11.4070 P   0  0  0  0  0
   13.9300   54.5510   11.9900 O   0  0  0  0  0
   14.7270   52.2220   12.1070 O   0  0  0  0  0
   14.6190   53.3760    9.9270 O   0  0  0  0  0
   20.7780   54.2430   12.9000 C   0  0  0  0  0
   20.6920   54.8440   14.2330 N   0  0  0  0  0
   23.2440   53.4840   16.4960 C   0  0  0  0  0
   21.4620   55.9730   18.5960 O   0  0  0  0  0
   20.0520   56.1100   15.8510 N   0  0  0  0  0
   19.0797   56.2135   13.8727 H   0  0  0  0  0
   23.3720   54.1901   18.4870 H   0  0  0  0  0
   20.7811   48.0614    9.1219 H   0  0  0  0  0
   22.0335   50.2089    8.9634 H   0  0  0  0  0
   20.0416   49.4037   12.1986 H   0  0  0  0  0
   19.5778   49.9017   10.5673 H   0  0  0  0  0
   21.0913   51.7551   13.5766 H   0  0  0  0  0
   19.5112   51.0942   13.2099 H   0  0  0  0  0
   19.6406   53.3031   11.4848 H   0  0  0  0  0
   18.1953   54.3644   13.4811 H   0  0  0  0  0
   18.1682   52.6738   13.9573 H   0  0  0  0  0
   17.0051   54.5859   10.7040 H   0  0  0  0  0
   16.6527   54.9538   12.3856 H   0  0  0  0  0
   15.3446   51.5850   11.7406 H   0  0  0  0  0
   15.2396   52.7437    9.5573 H   0  0  0  0  0
   20.5949   55.0553   12.1966 H   0  0  0  0  0
   21.7528   53.7571   12.8566 H   0  0  0  0  0
   24.0665   52.7721   16.5656 H   0  0  0  0  0
  1  2  4  0  0  0
  1  6  1  0  0  0
 23  1  4  0  0  0
  2  3  1  0  0  0
 26  2  4  0  0  0
  3  5  1  0  0  0
  3 25  2  0  0  0
 23  4  4  0  0  0
  4 26  4  0  0  0
 24  5  1  0  0  0
  6 24  2  0  0  0
  8  7  2  0  0  0
  8  9  1  0  0  0
  8 10  1  0  0  0
 11  8  1  0  0  0
 12 11  1  0  0  0
 13 12  1  0  0  0
 14 13  1  0  0  0
 14 15  1  0  0  0
 22 14  1  0  0  0
 15 16  1  0  0  0
 16 17  1  0  0  0
 17 18  1  0  0  0
 18 19  2  0  0  0
 18 20  1  0  0  0
 18 21  1  0  0  0
 22 23  1  0  0  0
  4 27  1  0  0  0
  5 28  1  0  0  0
  9 29  1  0  0  0
 10 30  1  0  0  0
 11 31  1  0  0  0
 11 32  1  0  0  0
 13 33  1  0  0  0
 13 34  1  0  0  0
 14 35  1  0  0  0
 15 36  1  0  0  0
 15 37  1  0  0  0
 17 38  1  0  0  0
 17 39  1  0  0  0
 20 40  1  0  0  0
 21 41  1  0  0  0
 22 42  1  0  0  0
 22 43  1  0  0  0
 24 44  1  0  0  0
M  END
$$$$
