### 
### Created by X-TOOL on Mon Sep 10 21:13:32 2018
### 

@<TRIPOS>MOLECULE
5knx_ligand
   40    41     1     0     0
SMALL
GAST_HUCK


@<TRIPOS>ATOM
      1 C4         21.5170   54.5160   15.2170 C.2       1 6WC         0.1333
      2 C5         21.1510   55.2990   16.3020 C.2       1 6WC         0.1043
      3 C6         21.8340   55.1710   17.4880 C.2       1 6WC         0.2200
      4 C8         19.8290   55.7800   14.5350 C.2       1 6WC         0.0979
      5 N1         22.8710   54.2790   17.6030 N.am      1 6WC        -0.2042
      6 N3         22.5270   53.6400   15.3150 N.2       1 6WC        -0.2684
      7 OAD        22.7530   48.5580   11.7390 O.co2     1 6WC        -0.5607
      8 PAY        21.8420   48.9970   10.6050 P.3       1 6WC         0.0846
      9 OAE        21.3560   47.7790    9.8370 O.co2     1 6WC        -0.5607
     10 OAB        22.6070   49.9300    9.6810 O.co2     1 6WC        -0.5607
     11 CAL        20.3920   49.8970   11.2920 C.3       1 6WC         0.1176
     12 OAR        20.7950   51.2450   11.5890 O.3       1 6WC        -0.3621
     13 CAJ        20.3020   51.7380   12.8250 C.3       1 6WC         0.0570
     14 CAW        19.7660   53.1670   12.5590 C.3       1 6WC         0.0338
     15 CAK        18.3380   53.3470   13.1170 C.3       1 6WC         0.0570
     16 OAS        17.4150   53.0590   12.0420 O.3       1 6WC        -0.3621
     17 CAM        16.6230   54.1650   11.6340 C.3       1 6WC         0.1176
     18 PAZ        14.9050   53.5570   11.4070 P.3       1 6WC         0.0846
     19 OAF        13.9300   54.5510   11.9900 O.co2     1 6WC        -0.5607
     20 OAG        14.7270   52.2220   12.1070 O.co2     1 6WC        -0.5607
     21 OAC        14.6190   53.3760    9.9270 O.co2     1 6WC        -0.5607
     22 CAN        20.7780   54.2430   12.9000 C.3       1 6WC         0.0666
     23 N9         20.6920   54.8440   14.2330 N.pl3     1 6WC        -0.2334
     24 C2         23.2440   53.4840   16.4960 C.2       1 6WC         0.1273
     25 O6         21.4620   55.9730   18.5960 O.2       1 6WC        -0.4066
     26 N7         20.0520   56.1100   15.8510 N.2       1 6WC        -0.3156
     27 H1         19.0803   56.2131   13.8733 H         1 6WC         0.1212
     28 H2         23.3622   54.1919   18.4697 H         1 6WC         0.2557
     29 H3         20.0480   49.4008   12.2115 H         1 6WC         0.0752
     30 H4         19.5767   49.9070   10.5536 H         1 6WC         0.0752
     31 H5         21.1115   51.7703   13.5691 H         1 6WC         0.0565
     32 H6         19.4910   51.0925   13.1931 H         1 6WC         0.0565
     33 H7         19.6487   53.2381   11.4676 H         1 6WC         0.0373
     34 H8         18.1981   54.3807   13.4660 H         1 6WC         0.0565
     35 H9         18.1704   52.6519   13.9529 H         1 6WC         0.0565
     36 H10        17.0058   54.5723   10.6866 H         1 6WC         0.0752
     37 H11        16.6455   54.9485   12.4057 H         1 6WC         0.0752
     38 H12        20.6615   55.0522   12.1640 H         1 6WC         0.0622
     39 H13        21.7794   53.7988   12.8012 H         1 6WC         0.0622
     40 H14        24.0657   52.7728   16.5655 H         1 6WC         0.1493
@<TRIPOS>BOND
     1    1    2 2  
     2    1    6 1  
     3   23    1 1  
     4    2    3 1  
     5   26    2 1  
     6    3    5 am 
     7    3   25 2  
     8   23    4 1  
     9    4   26 2  
    10   24    5 am 
    11    6   24 2  
    12    8    7 ar 
    13    8    9 ar 
    14    8   10 ar 
    15   11    8 1  
    16   12   11 1  
    17   13   12 1  
    18   14   13 1  
    19   14   15 1  
    20   22   14 1  
    21   15   16 1  
    22   16   17 1  
    23   17   18 1  
    24   18   19 ar 
    25   18   20 ar 
    26   18   21 ar 
    27   22   23 1  
    28    4   27 1  
    29    5   28 1  
    30   11   29 1  
    31   11   30 1  
    32   13   31 1  
    33   13   32 1  
    34   14   33 1  
    35   15   34 1  
    36   15   35 1  
    37   17   36 1  
    38   17   37 1  
    39   22   38 1  
    40   22   39 1  
    41   24   40 1  
@<TRIPOS>SUBSTRUCTURE
     1 6WC         1

