4qxo_ligand
  -I-interpret- 

 35 37  0  0  0  0  0  0  0  0999 V2000
  -16.9130   52.0850   -3.6440 O   0  0  0  0  0
  -18.0870   52.1730   -3.2070 C   0  0  0  0  0
  -19.1560   52.0690   -4.0810 C   0  0  0  0  0
  -18.9680   51.8800   -5.4490 C   0  0  0  0  0
  -20.0890   51.7570   -6.3040 C   0  0  0  0  0
  -21.3950   51.8290   -5.7990 C   0  0  0  0  0
  -22.5200   51.7110   -6.6530 C   0  0  0  0  0
  -21.5920   52.0360   -4.4270 C   0  0  0  0  0
  -22.8660   52.1160   -3.7940 C   0  0  0  0  0
  -20.4650   52.1770   -3.6200 C   0  0  0  0  0
  -20.7060   52.3390   -2.3250 O   0  0  0  0  0
  -19.6920   52.3880   -1.4370 C   0  0  0  0  0
  -18.3530   52.3190   -1.8570 C   0  0  0  0  0
  -17.3340   52.3720   -0.8790 C   0  0  0  0  0
  -17.7120   52.5190    0.4600 C   0  0  0  0  0
  -19.0540   52.6180    0.8410 C   0  0  0  0  0
  -20.0660   52.5480   -0.1150 C   0  0  0  0  0
  -21.4330   52.6390    0.2310 C   0  0  0  0  0
  -22.3680   51.4130   -0.0840 C   0  0  0  0  0
  -23.6000   51.6050    0.1400 O   0  0  0  0  0
  -21.8570   50.3260   -0.4720 O   0  0  0  0  0
  -17.9596   51.8270   -5.8595 H   0  0  0  0  0
  -19.9346   51.6039   -7.3721 H   0  0  0  0  0
  -22.4937   52.5059   -7.3984 H   0  0  0  0  0
  -22.4957   50.7423   -7.1521 H   0  0  0  0  0
  -23.4327   51.7944   -6.0630 H   0  0  0  0  0
  -23.4314   52.9441   -4.2215 H   0  0  0  0  0
  -23.4083   51.1839   -3.9527 H   0  0  0  0  0
  -22.7295   52.2810   -2.7252 H   0  0  0  0  0
  -16.2833   52.3004   -1.1600 H   0  0  0  0  0
  -16.9391   52.5574    1.2276 H   0  0  0  0  0
  -19.3102   52.7507    1.8921 H   0  0  0  0  0
  -21.8257   53.4596   -0.3693 H   0  0  0  0  0
  -21.4471   52.7377    1.3164 H   0  0  0  0  0
  -23.7349   52.5120    0.4241 H   0  0  0  0  0
  1  2  2  0  0  0
  2  3  1  0  0  0
  2 13  1  0  0  0
  3  4  4  0  0  0
  3 10  4  0  0  0
  4  5  4  0  0  0
  5  6  4  0  0  0
  6  7  1  0  0  0
  6  8  4  0  0  0
  8  9  1  0  0  0
  8 10  4  0  0  0
 10 11  1  0  0  0
 11 12  1  0  0  0
 12 13  4  0  0  0
 12 17  4  0  0  0
 13 14  4  0  0  0
 14 15  4  0  0  0
 15 16  4  0  0  0
 16 17  4  0  0  0
 17 18  1  0  0  0
 18 19  1  0  0  0
 19 20  1  0  0  0
 19 21  2  0  0  0
  4 22  1  0  0  0
  5 23  1  0  0  0
  7 24  1  0  0  0
  7 25  1  0  0  0
  7 26  1  0  0  0
  9 27  1  0  0  0
  9 28  1  0  0  0
  9 29  1  0  0  0
 14 30  1  0  0  0
 15 31  1  0  0  0
 16 32  1  0  0  0
 18 33  1  0  0  0
 18 34  1  0  0  0
 20 35  1  0  0  0
M  END
$$$$
