### 
### Created by X-TOOL on Mon Sep 10 21:13:21 2018
### 

@<TRIPOS>MOLECULE
4p44_ligand
   62    62     1     0     0
SMALL
GAST_HUCK


@<TRIPOS>ATOM
      1 OE1        13.0140   46.9490   39.5930 O.co2     1 2F7        -0.5690
      2 CD         13.8250   47.5910   40.3140 C.2       1 2F7         0.0350
      3 OE2        13.7790   48.8150   40.5060 O.co2     1 2F7        -0.5690
      4 CG         15.0110   46.8430   40.9840 C.3       1 2F7         0.0034
      5 CB         14.7270   45.3140   41.0270 C.3       1 2F7        -0.0099
      6 CA         16.0000   44.5500   41.5270 C.3       1 2F7         0.0893
      7 C          17.0980   44.6940   40.4660 C.2       1 2F7         0.0564
      8 OXT        16.9630   43.9040   39.4840 O.co2     1 2F7        -0.5670
      9 O          17.9970   45.5410   40.6190 O.co2     1 2F7        -0.5670
     10 N          16.4760   45.0240   42.8800 N.am      1 2F7        -0.2605
     11 PBK        17.6570   44.1320   43.7070 P.3       1 2F7         0.2034
     12 OAL        18.1930   43.0000   42.7010 O.co2     1 2F7        -0.6076
     13 OAH        17.0420   43.5550   44.8630 O.co2     1 2F7        -0.6076
     14 OAY        18.8260   45.0970   44.2050 O.3       1 2F7        -0.2572
     15 CAU        19.1770   46.1340   43.3690 C.3       1 2F7         0.1185
     16 CBI        20.1410   47.0980   44.0560 C.3       1 2F7         0.1228
     17 CBB        19.9100   47.3190   45.5490 C.2       1 2F7         0.0628
     18 OAK        20.3010   46.4680   46.3720 O.co2     1 2F7        -0.5665
     19 OAE        19.3790   48.3650   45.8420 O.co2     1 2F7        -0.5665
     20 NAW        21.3460   46.3920   43.8040 N.am      1 2F7        -0.2668
     21 CBD        22.2870   46.1150   44.6510 C.2       1 2F7         0.2036
     22 OAG        22.3210   46.3540   45.8620 O.2       1 2F7        -0.3944
     23 CBJ        23.2290   45.2920   43.8630 C.3       1 2F7         0.1329
     24 CBG        23.8640   44.0470   44.5290 C.3       1 2F7        -0.0037
     25 CAB        24.1690   44.2150   46.0430 C.3       1 2F7        -0.0582
     26 CAR        25.0880   43.5870   43.7200 C.3       1 2F7        -0.0491
     27 CAA        24.7320   43.5000   42.2390 C.3       1 2F7        -0.0648
     28 NAV        23.9240   46.1440   42.8520 N.am      1 2F7        -0.2652
     29 CBC        24.5150   47.3540   42.8330 C.2       1 2F7         0.2041
     30 OAF        24.9320   48.0260   43.7870 O.2       1 2F7        -0.3864
     31 CBF        24.7430   47.6820   41.4840 C.ar      1 2F7         0.0458
     32 CAP        24.4630   46.6390   40.5850 C.ar      1 2F7        -0.0437
     33 CAN        24.6040   46.7770   39.2140 C.ar      1 2F7        -0.0223
     34 CBE        25.0210   48.0150   38.7400 C.ar      1 2F7         0.1375
     35 FAM        25.1320   48.1290   37.4650 F         1 2F7        -0.1794
     36 CAO        25.2930   49.0860   39.6130 C.ar      1 2F7        -0.0223
     37 CAQ        25.1440   48.9360   41.0040 C.ar      1 2F7        -0.0437
     38 H1         15.1432   47.2169   42.0100 H         1 2F7         0.0432
     39 H2         15.9289   47.0258   40.4060 H         1 2F7         0.0432
     40 H3         14.4637   44.9632   40.0182 H         1 2F7         0.0319
     41 H4         13.8904   45.1174   41.7136 H         1 2F7         0.0319
     42 H5         15.7446   43.4842   41.6204 H         1 2F7         0.0681
     43 H6         16.0978   45.8567   43.2844 H         1 2F7         0.1677
     44 H7         18.2691   46.6823   43.0774 H         1 2F7         0.0666
     45 H8         19.6611   45.7224   42.4711 H         1 2F7         0.0666
     46 H9         20.1337   48.0790   43.5585 H         1 2F7         0.0753
     47 H10        21.4847   46.0720   42.8668 H         1 2F7         0.1876
     48 H11        22.5271   44.7642   43.2007 H         1 2F7         0.0802
     49 H12        23.1176   43.2419   44.4599 H         1 2F7         0.0345
     50 H13        24.6157   43.2881   46.4321 H         1 2F7         0.0235
     51 H14        23.2349   44.4270   46.5839 H         1 2F7         0.0235
     52 H15        24.8723   45.0487   46.1851 H         1 2F7         0.0235
     53 H16        25.4090   42.5970   44.0762 H         1 2F7         0.0267
     54 H17        25.9068   44.3089   43.8560 H         1 2F7         0.0267
     55 H18        25.6131   43.1704   41.6689 H         1 2F7         0.0230
     56 H19        24.4121   44.4893   41.8800 H         1 2F7         0.0230
     57 H20        23.9143   42.7775   42.1003 H         1 2F7         0.0230
     58 H21        23.9598   45.7007   41.9564 H         1 2F7         0.1875
     59 H22        24.1231   45.6885   40.9802 H         1 2F7         0.0659
     60 H23        24.3978   45.9540   38.5393 H         1 2F7         0.0616
     61 H24        25.6209   50.0368   39.2087 H         1 2F7         0.0616
     62 H25        25.3328   49.7615   41.6807 H         1 2F7         0.0659
@<TRIPOS>BOND
     1    1    2 ar 
     2    2    3 ar 
     3    2    4 1  
     4    4    5 1  
     5    5    6 1  
     6    6    7 1  
     7    6   10 1  
     8    7    8 ar 
     9    7    9 ar 
    10   10   11 am 
    11   11   12 ar 
    12   11   13 ar 
    13   11   14 1  
    14   14   15 1  
    15   15   16 1  
    16   16   17 1  
    17   16   20 1  
    18   17   18 ar 
    19   17   19 ar 
    20   20   21 am 
    21   21   22 2  
    22   21   23 1  
    23   23   24 1  
    24   23   28 1  
    25   24   25 1  
    26   24   26 1  
    27   26   27 1  
    28   28   29 am 
    29   29   30 2  
    30   29   31 1  
    31   31   32 ar 
    32   31   37 ar 
    33   32   33 ar 
    34   33   34 ar 
    35   34   35 1  
    36   34   36 ar 
    37   36   37 ar 
    38    4   38 1  
    39    4   39 1  
    40    5   40 1  
    41    5   41 1  
    42    6   42 1  
    43   10   43 1  
    44   15   44 1  
    45   15   45 1  
    46   16   46 1  
    47   20   47 1  
    48   23   48 1  
    49   24   49 1  
    50   25   50 1  
    51   25   51 1  
    52   25   52 1  
    53   26   53 1  
    54   26   54 1  
    55   27   55 1  
    56   27   56 1  
    57   27   57 1  
    58   28   58 1  
    59   32   59 1  
    60   33   60 1  
    61   36   61 1  
    62   37   62 1  
@<TRIPOS>SUBSTRUCTURE
     1 2F7         1

