4p44_ligand
  -I-interpret- 

 66 66  0  0  0  0  0  0  0  0999 V2000
   13.0140   46.9490   39.5930 O   0  0  0  0  0
   13.8250   47.5910   40.3140 C   0  0  0  0  0
   13.7790   48.8150   40.5060 O   0  0  0  0  0
   15.0110   46.8430   40.9840 C   0  0  0  0  0
   14.7270   45.3140   41.0270 C   0  0  0  0  0
   16.0000   44.5500   41.5270 C   0  0  0  0  0
   17.0980   44.6940   40.4660 C   0  0  0  0  0
   16.9630   43.9040   39.4840 O   0  0  0  0  0
   17.9970   45.5410   40.6190 O   0  0  0  0  0
   16.4760   45.0240   42.8800 N   0  0  0  0  0
   17.6570   44.1320   43.7070 P   0  0  0  0  0
   18.1930   43.0000   42.7010 O   0  0  0  0  0
   17.0420   43.5550   44.8630 O   0  0  0  0  0
   18.8260   45.0970   44.2050 O   0  0  0  0  0
   19.1770   46.1340   43.3690 C   0  0  0  0  0
   20.1410   47.0980   44.0560 C   0  0  0  0  0
   19.9100   47.3190   45.5490 C   0  0  0  0  0
   20.3010   46.4680   46.3720 O   0  0  0  0  0
   19.3790   48.3650   45.8420 O   0  0  0  0  0
   21.3460   46.3920   43.8040 N   0  0  0  0  0
   22.2870   46.1150   44.6510 C   0  0  0  0  0
   22.3210   46.3540   45.8620 O   0  0  0  0  0
   23.2290   45.2920   43.8630 C   0  0  0  0  0
   23.8640   44.0470   44.5290 C   0  0  0  0  0
   24.1690   44.2150   46.0430 C   0  0  0  0  0
   25.0880   43.5870   43.7200 C   0  0  0  0  0
   24.7320   43.5000   42.2390 C   0  0  0  0  0
   23.9240   46.1440   42.8520 N   0  0  0  0  0
   24.5150   47.3540   42.8330 C   0  0  0  0  0
   24.9320   48.0260   43.7870 O   0  0  0  0  0
   24.7430   47.6820   41.4840 C   0  0  0  0  0
   24.4630   46.6390   40.5850 C   0  0  0  0  0
   24.6040   46.7770   39.2140 C   0  0  0  0  0
   25.0210   48.0150   38.7400 C   0  0  0  0  0
   25.1320   48.1290   37.4650 F   0  0  0  0  0
   25.2930   49.0860   39.6130 C   0  0  0  0  0
   25.1440   48.9360   41.0040 C   0  0  0  0  0
   13.2510   46.0187   39.5971 H   0  0  0  0  0
   15.1354   47.2114   42.0023 H   0  0  0  0  0
   15.9175   47.0212   40.4055 H   0  0  0  0  0
   14.4694   44.9676   40.0261 H   0  0  0  0  0
   13.8999   45.1207   41.7101 H   0  0  0  0  0
   15.7436   43.4993   41.6623 H   0  0  0  0  0
   16.1859   43.3568   39.6194 H   0  0  0  0  0
   16.0902   45.8734   43.2925 H   0  0  0  0  0
   18.5989   43.4178   41.9379 H   0  0  0  0  0
   18.2744   46.6810   43.0967 H   0  0  0  0  0
   19.6691   45.7193   42.4893 H   0  0  0  0  0
   20.0719   48.1228   43.6913 H   0  0  0  0  0
   20.6882   45.7252   45.9030 H   0  0  0  0  0
   21.4875   46.0656   42.8480 H   0  0  0  0  0
   22.7022   44.5780   43.2299 H   0  0  0  0  0
   23.1136   43.2567   44.5055 H   0  0  0  0  0
   24.8659   45.0414   46.1824 H   0  0  0  0  0
   23.2427   44.4250   46.5778 H   0  0  0  0  0
   24.6116   43.2960   46.4273 H   0  0  0  0  0
   25.4016   42.6041   44.0718 H   0  0  0  0  0
   25.8964   44.3059   43.8528 H   0  0  0  0  0
   23.9216   42.7838   42.1029 H   0  0  0  0  0
   24.4151   44.4809   41.8846 H   0  0  0  0  0
   25.6058   43.1734   41.6752 H   0  0  0  0  0
   23.9605   45.6918   41.9384 H   0  0  0  0  0
   24.1212   45.6833   40.9823 H   0  0  0  0  0
   24.3966   45.9495   38.5355 H   0  0  0  0  0
   25.6227   50.0421   39.2065 H   0  0  0  0  0
   25.3338   49.7661   41.6844 H   0  0  0  0  0
  1  2  1  0  0  0
  2  3  2  0  0  0
  2  4  1  0  0  0
  4  5  1  0  0  0
  5  6  1  0  0  0
  6  7  1  0  0  0
  6 10  1  0  0  0
  7  8  1  0  0  0
  7  9  2  0  0  0
 10 11  1  0  0  0
 11 12  1  0  0  0
 11 13  2  0  0  0
 11 14  1  0  0  0
 14 15  1  0  0  0
 15 16  1  0  0  0
 16 17  1  0  0  0
 16 20  1  0  0  0
 17 18  1  0  0  0
 17 19  2  0  0  0
 20 21  1  0  0  0
 21 22  2  0  0  0
 21 23  1  0  0  0
 23 24  1  0  0  0
 23 28  1  0  0  0
 24 25  1  0  0  0
 24 26  1  0  0  0
 26 27  1  0  0  0
 28 29  1  0  0  0
 29 30  2  0  0  0
 29 31  1  0  0  0
 31 32  4  0  0  0
 31 37  4  0  0  0
 32 33  4  0  0  0
 33 34  4  0  0  0
 34 35  1  0  0  0
 34 36  4  0  0  0
 36 37  4  0  0  0
  1 38  1  0  0  0
  4 39  1  0  0  0
  4 40  1  0  0  0
  5 41  1  0  0  0
  5 42  1  0  0  0
  6 43  1  0  0  0
  8 44  1  0  0  0
 10 45  1  0  0  0
 12 46  1  0  0  0
 15 47  1  0  0  0
 15 48  1  0  0  0
 16 49  1  0  0  0
 18 50  1  0  0  0
 20 51  1  0  0  0
 23 52  1  0  0  0
 24 53  1  0  0  0
 25 54  1  0  0  0
 25 55  1  0  0  0
 25 56  1  0  0  0
 26 57  1  0  0  0
 26 58  1  0  0  0
 27 59  1  0  0  0
 27 60  1  0  0  0
 27 61  1  0  0  0
 28 62  1  0  0  0
 32 63  1  0  0  0
 33 64  1  0  0  0
 36 65  1  0  0  0
 37 66  1  0  0  0
M  END
$$$$
