4i3z_ligand
  -I-interpret- 

 42 44  0  0  0  0  0  0  0  0999 V2000
    1.0620  -36.9150   -4.3740 P   0  0  0  0  0
   -0.2910  -37.0850   -5.0210 O   0  0  0  0  0
    2.1550  -36.6300   -5.3750 O   0  0  0  0  0
    1.0620  -36.0060   -3.1680 O   0  0  0  0  0
    2.1970  -38.7120   -2.4200 P   0  0  0  0  0
    2.5170  -37.4610   -1.6480 O   0  0  0  0  0
    3.3130  -39.6840   -2.7100 O   0  0  0  0  0
    1.4160  -38.3860   -3.8010 O   0  0  0  0  0
    1.0410  -39.4860   -1.6130 O   0  0  0  0  0
   -0.1510  -38.7980   -1.2260 C   0  0  0  0  0
   -0.5580  -39.1960    0.1880 C   0  0  0  0  0
   -0.7010  -40.6170    0.2850 O   0  0  0  0  0
    0.4960  -38.8130    1.2120 C   0  0  0  0  0
    0.2670  -37.5160    1.7750 O   0  0  0  0  0
    0.3930  -39.8990    2.2620 C   0  0  0  0  0
   -0.5400  -39.5220    3.2840 O   0  0  0  0  0
   -0.1450  -41.0970    1.5080 C   0  0  0  0  0
    1.0210  -41.9610    1.2170 N   0  0  0  0  0
    1.8180  -41.8730    0.1330 C   0  0  0  0  0
    2.8010  -42.8080    0.1750 N   0  0  0  0  0
    2.6380  -43.5080    1.3130 C   0  0  0  0  0
    3.3290  -44.6370    1.9770 C   0  0  0  0  0
    4.4170  -45.1950    1.4000 N   0  0  0  0  0
    2.8440  -45.0780    3.1640 N   0  0  0  0  0
    1.7600  -44.5110    3.7270 C   0  0  0  0  0
    1.0830  -43.4800    3.1840 N   0  0  0  0  0
    1.4650  -42.9470    1.9990 C   0  0  0  0  0
   -0.9479  -37.2636   -4.3442 H   0  0  0  0  0
    0.3409  -36.2514   -2.5837 H   0  0  0  0  0
    2.9659  -40.4294   -3.2055 H   0  0  0  0  0
   -0.9535  -39.0627   -1.9145 H   0  0  0  0  0
    0.0337  -37.7241   -1.2536 H   0  0  0  0  0
   -1.4939  -38.6750    0.3897 H   0  0  0  0  0
    1.4891  -38.7441    0.7680 H   0  0  0  0  0
    0.9561  -37.3195    2.4138 H   0  0  0  0  0
    1.3485  -40.0916    2.7499 H   0  0  0  0  0
   -0.5932  -40.2204    3.9406 H   0  0  0  0  0
   -0.9034  -41.6445    2.0677 H   0  0  0  0  0
    1.6899  -41.1474   -0.6703 H   0  0  0  0  0
    4.7609  -44.8383    0.5084 H   0  0  0  0  0
    4.8939  -45.9727    1.8563 H   0  0  0  0  0
    1.4092  -44.9098    4.6788 H   0  0  0  0  0
  1  2  1  0  0  0
  1  3  2  0  0  0
  1  4  1  0  0  0
  8  1  1  0  0  0
  5  6  2  0  0  0
  5  7  1  0  0  0
  5  8  1  0  0  0
  5  9  1  0  0  0
  9 10  1  0  0  0
 10 11  1  0  0  0
 11 12  1  0  0  0
 11 13  1  0  0  0
 12 17  1  0  0  0
 13 14  1  0  0  0
 13 15  1  0  0  0
 15 16  1  0  0  0
 15 17  1  0  0  0
 17 18  1  0  0  0
 18 19  4  0  0  0
 18 27  4  0  0  0
 19 20  4  0  0  0
 20 21  4  0  0  0
 21 22  4  0  0  0
 21 27  4  0  0  0
 22 23  1  0  0  0
 22 24  4  0  0  0
 24 25  4  0  0  0
 25 26  4  0  0  0
 26 27  4  0  0  0
  2 28  1  0  0  0
  4 29  1  0  0  0
  7 30  1  0  0  0
 10 31  1  0  0  0
 10 32  1  0  0  0
 11 33  1  0  0  0
 13 34  1  0  0  0
 14 35  1  0  0  0
 15 36  1  0  0  0
 16 37  1  0  0  0
 17 38  1  0  0  0
 19 39  1  0  0  0
 23 40  1  0  0  0
 23 41  1  0  0  0
 25 42  1  0  0  0
M  END
$$$$
