2n0u_ligand
  -I-interpret- 

 67 71  0  0  0  0  0  0  0  0999 V2000
   -0.5120   13.8430  -12.4300 N   0  0  0  0  0
    2.6790   14.2820  -11.2990 C   0  0  0  0  0
    0.7630   11.9730  -11.3370 C   0  0  0  0  0
   -0.6270   15.6620  -14.0050 C   0  0  0  0  0
    3.2290   14.6100  -12.5450 C   0  0  0  0  0
    3.4740   13.6150  -10.3610 C   0  0  0  0  0
    0.2670   10.9770  -10.4900 C   0  0  0  0  0
    1.7190   11.6170  -12.2940 C   0  0  0  0  0
   -1.7270   15.0910  -14.6620 C   0  0  0  0  0
    0.0180   16.7520  -14.6170 C   0  0  0  0  0
    4.5310   14.2280  -12.8660 C   0  0  0  0  0
    4.7740   13.2350  -10.6850 C   0  0  0  0  0
    0.7360    9.6660  -10.5780 C   0  0  0  0  0
    2.2360   10.3270  -12.3410 C   0  0  0  0  0
   -2.2270   15.6320  -15.8410 C   0  0  0  0  0
   -0.4940   17.2960  -15.8010 C   0  0  0  0  0
    5.2970   13.5330  -11.9360 C   0  0  0  0  0
    1.7320    9.3410  -11.4970 C   0  0  0  0  0
   -1.6250   16.7500  -16.4020 C   0  0  0  0  0
    6.8990   13.0220  -12.3240 Cl  0  0  0  0  0
    3.5520    9.9800  -13.4090 Cl  0  0  0  0  0
   -2.1850   17.3300  -17.5970 C   0  0  0  0  0
    2.9180   16.9830  -15.8070 C   0  0  0  0  0
    3.2300   18.4660  -13.7800 C   0  0  0  0  0
   -2.6510   17.7770  -18.5400 N   0  0  0  0  0
   -1.0820   20.2800  -11.0640 C   0  0  0  0  0
   -2.2840   19.7700  -10.7610 N   0  0  0  0  0
   -0.9530   21.4890  -11.0310 O   0  0  0  0  0
   -2.5960   18.3380  -10.7710 C   0  0  0  0  0
   -0.2330   17.8580  -11.4850 N   0  0  0  0  0
   -1.6630   17.5380  -11.6990 C   0  0  0  0  0
    0.6290   15.6780  -11.7410 N   0  0  0  0  0
    0.0590   19.3240  -11.4090 C   0  0  0  0  0
    0.7640   16.9480  -11.2900 C   0  0  0  0  0
    1.7590   17.2750  -10.6720 O   0  0  0  0  0
   -0.2310   15.0620  -12.6900 C   0  0  0  0  0
    1.1960   17.2430  -14.0850 O   0  0  0  0  0
    0.2150   13.4010  -11.2190 C   0  0  0  0  0
    1.2150   14.5760  -10.9580 C   0  0  0  0  0
    2.2280   17.9450  -14.8190 C   0  0  0  0  0
    2.6348   15.1679  -13.2688 H   0  0  0  0  0
    3.0741   13.3917   -9.3719 H   0  0  0  0  0
   -0.4951   11.2279   -9.7522 H   0  0  0  0  0
    2.0633   12.3608  -13.0126 H   0  0  0  0  0
   -2.1997   14.2045  -14.2392 H   0  0  0  0  0
    4.9474   14.4733  -13.8430 H   0  0  0  0  0
    5.3826   12.7021   -9.9544 H   0  0  0  0  0
    0.3230    8.8952   -9.9273 H   0  0  0  0  0
   -3.0919   15.1782  -16.3250 H   0  0  0  0  0
   -0.0024   18.1554  -16.2568 H   0  0  0  0  0
    2.1139    8.3217  -11.5547 H   0  0  0  0  0
    3.7207   17.5091  -16.3237 H   0  0  0  0  0
    3.3307   16.1359  -15.2591 H   0  0  0  0  0
    2.1886   16.6263  -16.5342 H   0  0  0  0  0
    3.6441   17.6255  -13.2231 H   0  0  0  0  0
    4.0341   18.9986  -14.2878 H   0  0  0  0  0
    2.7210   19.1427  -13.0937 H   0  0  0  0  0
   -3.0285   20.4195  -10.5075 H   0  0  0  0  0
   -3.6163   18.2185  -11.1355 H   0  0  0  0  0
   -2.4681   17.9587   -9.7571 H   0  0  0  0  0
   -1.9133   17.7954  -12.7282 H   0  0  0  0  0
   -1.8049   16.4788  -11.4842 H   0  0  0  0  0
    0.7744   19.4293  -10.5934 H   0  0  0  0  0
    0.3701   19.6043  -12.4153 H   0  0  0  0  0
   -0.4006   13.2564  -10.3312 H   0  0  0  0  0
    1.3084   14.8009   -9.8955 H   0  0  0  0  0
    1.8130   18.7683  -15.4005 H   0  0  0  0  0
 36  1  2  0  0  0
  1 38  1  0  0  0
  2  5  4  0  0  0
  2  6  4  0  0  0
 39  2  1  0  0  0
  3  7  4  0  0  0
  3  8  4  0  0  0
 38  3  1  0  0  0
  4  9  4  0  0  0
 10  4  4  0  0  0
  4 36  1  0  0  0
  5 11  4  0  0  0
  6 12  4  0  0  0
  7 13  4  0  0  0
  8 14  4  0  0  0
  9 15  4  0  0  0
 10 16  4  0  0  0
 37 10  1  0  0  0
 11 17  4  0  0  0
 12 17  4  0  0  0
 13 18  4  0  0  0
 14 18  4  0  0  0
 14 21  1  0  0  0
 19 15  4  0  0  0
 16 19  4  0  0  0
 17 20  1  0  0  0
 19 22  1  0  0  0
 22 25  3  0  0  0
 40 23  1  0  0  0
 40 24  1  0  0  0
 26 27  1  0  0  0
 26 28  2  0  0  0
 33 26  1  0  0  0
 29 27  1  0  0  0
 31 29  1  0  0  0
 30 31  1  0  0  0
 30 33  1  0  0  0
 34 30  1  0  0  0
 32 34  1  0  0  0
 36 32  1  0  0  0
 32 39  1  0  0  0
 34 35  2  0  0  0
 37 40  1  0  0  0
 38 39  1  0  0  0
  5 41  1  0  0  0
  6 42  1  0  0  0
  7 43  1  0  0  0
  8 44  1  0  0  0
  9 45  1  0  0  0
 11 46  1  0  0  0
 12 47  1  0  0  0
 13 48  1  0  0  0
 15 49  1  0  0  0
 16 50  1  0  0  0
 18 51  1  0  0  0
 23 52  1  0  0  0
 23 53  1  0  0  0
 23 54  1  0  0  0
 24 55  1  0  0  0
 24 56  1  0  0  0
 24 57  1  0  0  0
 27 58  1  0  0  0
 29 59  1  0  0  0
 29 60  1  0  0  0
 31 61  1  0  0  0
 31 62  1  0  0  0
 33 63  1  0  0  0
 33 64  1  0  0  0
 38 65  1  0  0  0
 39 66  1  0  0  0
 40 67  1  0  0  0
M  END
$$$$
