6oht_ligand
  -I-interpret- 

 72 75  0  0  0  0  0  0  0  0999 V2000
  -20.6810    8.9470   24.3860 N   0  3  0  0  0
  -15.4870   10.1070   27.0470 C   0  0  0  0  0
  -11.9630   10.7500   25.2790 C   0  0  0  0  0
   -9.7140   10.4630   24.0880 C   0  0  0  0  0
   -8.9690   10.8190   25.4080 C   0  0  0  0  0
   -9.7300   11.6840   26.2580 C   0  0  0  0  0
  -11.2100   11.0450   26.5590 C   0  0  0  0  0
   -8.6030    9.6390   23.2020 C   0  0  0  0  0
   -7.2990   10.4940   23.3020 C   0  0  0  0  0
   -7.3970   11.2120   24.9010 C   0  0  0  0  0
  -12.9900    8.5270   26.0940 C   0  0  0  0  0
   -8.7980    9.4990   26.2090 C   0  0  0  0  0
  -16.2860   10.0490   25.8350 C   0  0  0  0  0
  -18.2740    8.9850   24.9710 C   0  0  0  0  0
  -19.5500    9.8510   24.7390 C   0  0  0  0  0
  -21.7820    9.7420   23.7950 C   0  0  0  0  0
  -22.9840    8.8470   23.4130 C   0  0  0  0  0
  -21.1260    8.2490   25.6160 C   0  0  0  0  0
  -20.9430    6.7230   25.4730 C   0  0  0  0  0
  -15.5920    9.2090   24.7410 C   0  0  0  0  0
  -14.2070    9.8310   24.3560 C   0  0  0  0  0
  -13.3710    9.9580   25.6200 C   0  0  0  0  0
  -14.0990   10.6630   26.7820 C   0  0  0  0  0
  -13.4200    9.4630   22.9160 C   0  0  0  0  0
  -11.9170    9.7790   22.8130 C   0  0  0  0  0
  -11.1340    9.9210   24.2880 C   0  0  0  0  0
  -17.5820    9.4550   26.1370 O   0  0  0  0  0
   -6.5580   11.8220   25.4830 O   0  0  0  0  0
  -20.3876    8.2536   23.6979 H   0  0  0  0  0
  -15.3816    9.0944   27.4364 H   0  0  0  0  0
  -15.9892   10.7640   27.7571 H   0  0  0  0  0
  -12.1775   11.7087   24.8067 H   0  0  0  0  0
  -10.0261   11.3184   23.4888 H   0  0  0  0  0
   -9.8558   12.6456   25.7605 H   0  0  0  0  0
   -9.1998   11.8056   27.2026 H   0  0  0  0  0
  -11.0763   10.1096   27.1024 H   0  0  0  0  0
  -11.7853   11.7681   27.1372 H   0  0  0  0  0
   -8.9242    9.5081   22.1686 H   0  0  0  0  0
   -8.4543    8.6267   23.5777 H   0  0  0  0  0
   -7.2300   11.2425   22.5127 H   0  0  0  0  0
   -6.3975    9.8961   23.1683 H   0  0  0  0  0
  -13.8979    7.9599   26.2993 H   0  0  0  0  0
  -12.4169    8.0275   25.3129 H   0  0  0  0  0
  -12.3891    8.5940   27.0009 H   0  0  0  0  0
   -8.3758    8.7330   25.5586 H   0  0  0  0  0
   -8.1287    9.6711   27.0519 H   0  0  0  0  0
   -9.7700    9.1700   26.5765 H   0  0  0  0  0
  -16.4089   11.0663   25.4635 H   0  0  0  0  0
  -17.6189    9.0638   24.1034 H   0  0  0  0  0
  -18.5629    7.9439   25.1151 H   0  0  0  0  0
  -19.7895   10.4087   25.6444 H   0  0  0  0  0
  -19.3751   10.5598   23.9296 H   0  0  0  0  0
  -21.4118   10.2275   22.8921 H   0  0  0  0  0
  -22.1154   10.4724   24.5322 H   0  0  0  0  0
  -22.6640    8.1031   22.6834 H   0  0  0  0  0
  -23.3596    8.3451   24.3047 H   0  0  0  0  0
  -23.7726    9.4642   22.9826 H   0  0  0  0  0
  -22.1819    8.4636   25.7808 H   0  0  0  0  0
  -20.5265    8.5988   26.4564 H   0  0  0  0  0
  -21.5342    6.3649   24.6302 H   0  0  0  0  0
  -19.8902    6.4991   25.3012 H   0  0  0  0  0
  -21.2759    6.2312   26.3870 H   0  0  0  0  0
  -16.2275    9.1915   23.8556 H   0  0  0  0  0
  -15.4304    8.2006   25.1220 H   0  0  0  0  0
  -14.4529   10.8120   23.9493 H   0  0  0  0  0
  -13.5055   10.5105   27.6834 H   0  0  0  0  0
  -14.2109   11.7130   26.5118 H   0  0  0  0  0
  -13.8986   10.0833   22.1581 H   0  0  0  0  0
  -13.4957    8.3805   22.8135 H   0  0  0  0  0
  -11.8272   10.7419   22.3102 H   0  0  0  0  0
  -11.4518    8.9475   22.2836 H   0  0  0  0  0
  -11.0350    8.9316   24.7345 H   0  0  0  0  0
 15  1  1  0  0  0
  1 16  1  0  0  0
  1 18  1  0  0  0
 13  2  1  0  0  0
  2 23  1  0  0  0
  3  7  1  0  0  0
 22  3  1  0  0  0
  3 26  1  0  0  0
  4  5  1  0  0  0
  4  8  1  0  0  0
 26  4  1  0  0  0
  6  5  1  0  0  0
  5 10  1  0  0  0
  5 12  1  0  0  0
  7  6  1  0  0  0
  8  9  1  0  0  0
  9 10  1  0  0  0
 10 28  2  0  0  0
 22 11  1  0  0  0
 20 13  1  0  0  0
 13 27  1  0  0  0
 14 15  1  0  0  0
 27 14  1  0  0  0
 16 17  1  0  0  0
 18 19  1  0  0  0
 21 20  1  0  0  0
 21 22  1  0  0  0
 21 24  1  0  0  0
 22 23  1  0  0  0
 24 25  1  0  0  0
 25 26  1  0  0  0
  1 29  1  0  0  0
  2 30  1  0  0  0
  2 31  1  0  0  0
  3 32  1  0  0  0
  4 33  1  0  0  0
  6 34  1  0  0  0
  6 35  1  0  0  0
  7 36  1  0  0  0
  7 37  1  0  0  0
  8 38  1  0  0  0
  8 39  1  0  0  0
  9 40  1  0  0  0
  9 41  1  0  0  0
 11 42  1  0  0  0
 11 43  1  0  0  0
 11 44  1  0  0  0
 12 45  1  0  0  0
 12 46  1  0  0  0
 12 47  1  0  0  0
 13 48  1  0  0  0
 14 49  1  0  0  0
 14 50  1  0  0  0
 15 51  1  0  0  0
 15 52  1  0  0  0
 16 53  1  0  0  0
 16 54  1  0  0  0
 17 55  1  0  0  0
 17 56  1  0  0  0
 17 57  1  0  0  0
 18 58  1  0  0  0
 18 59  1  0  0  0
 19 60  1  0  0  0
 19 61  1  0  0  0
 19 62  1  0  0  0
 20 63  1  0  0  0
 20 64  1  0  0  0
 21 65  1  0  0  0
 23 66  1  0  0  0
 23 67  1  0  0  0
 24 68  1  0  0  0
 24 69  1  0  0  0
 25 70  1  0  0  0
 25 71  1  0  0  0
 26 72  1  0  0  0
M  END
$$$$
