4ad6_ligand
  -I-interpret- 

 23 24  0  0  0  0  0  0  0  0999 V2000
    1.8940    2.1560   12.4740 O   0  0  0  0  0
    1.2690    1.0340   11.8920 C   0  0  0  0  0
    0.4050    0.3810   12.9620 C   0  0  0  0  0
    1.3000   -0.5860   13.6790 N   0  0  0  0  0
    1.7310   -1.7150   13.0950 C   0  0  0  0  0
    1.5560   -2.3020   11.8240 C   0  0  0  0  0
    0.8490   -1.8090   10.9160 O   0  0  0  0  0
    2.1540   -3.5330   11.5800 N   0  0  0  0  0
    2.9290   -4.1040   12.6240 C   0  0  0  0  0
    3.4840   -5.2730   12.4900 N   0  0  0  0  0
    3.0560   -3.5200   13.8020 N   0  0  0  0  0
    2.4840   -2.3530   14.0680 C   0  0  0  0  0
    2.4620   -1.5880   15.1750 N   0  0  0  0  0
    1.7350   -0.5350   14.9270 C   0  0  0  0  0
    1.4910    0.7360   16.1740 S   0  0  0  0  0
    2.4470    2.5884   11.8192 H   0  0  0  0  0
    2.0163    0.3303   11.5254 H   0  0  0  0  0
    0.6571    1.3379   11.0427 H   0  0  0  0  0
   -0.4538   -0.1260   12.5222 H   0  0  0  0  0
   -0.0051    1.1232   13.6469 H   0  0  0  0  0
    3.3663   -5.7971   11.6229 H   0  0  0  0  0
    3.6086   -3.9786   14.5264 H   0  0  0  0  0
    2.1073    0.3775   17.2967 H   0  0  0  0  0
  1  2  1  0  0  0
  2  3  1  0  0  0
  3  4  1  0  0  0
  4  5  4  0  0  0
  4 14  4  0  0  0
  5  6  1  0  0  0
  5 12  4  0  0  0
  6  7  2  0  0  0
  6  8  1  0  0  0
  8  9  4  0  0  0
  9 10  2  0  0  0
  9 11  1  0  0  0
 11 12  1  0  0  0
 12 13  4  0  0  0
 13 14  4  0  0  0
 14 15  1  0  0  0
  1 16  1  0  0  0
  2 17  1  0  0  0
  2 18  1  0  0  0
  3 19  1  0  0  0
  3 20  1  0  0  0
 10 21  1  0  0  0
 11 22  1  0  0  0
 15 23  1  0  0  0
M  END
$$$$
