5a7y_ligand
  -I-interpret- 

 47 49  0  0  0  0  0  0  0  0999 V2000
   46.4430   11.3920   36.8500 N   0  3  0  0  0
   45.8320   11.6030   38.1440 C   0  0  0  0  0
   44.5770   12.4640   38.0020 C   0  0  0  0  0
   44.3540   13.3590   39.2180 C   0  0  0  0  0
   44.7930   15.0380   38.9700 S   0  0  0  0  0
   45.5490   10.2120   38.5710 C   0  0  0  0  0
   45.6990    9.3470   37.6860 O   0  0  0  0  0
   45.2260    9.9710   39.7500 O   0  0  0  0  0
   43.3150   15.7560   38.3740 C   0  0  0  0  0
   43.3380   15.9460   36.8730 C   0  0  0  0  0
   44.0700   17.1090   36.5760 O   0  0  0  0  0
   44.0190   14.8390   36.1420 C   0  0  0  0  0
   43.1870   13.7350   35.8380 O   0  0  0  0  0
   44.5060   15.5590   34.9310 C   0  0  0  0  0
   43.4360   15.7260   34.0510 O   0  0  0  0  0
   44.7850   16.9520   35.3700 C   0  0  0  0  0
   46.2330   17.1680   35.6140 N   0  0  0  0  0
   46.7400   17.4380   36.8070 C   0  0  0  0  0
   48.0530   17.6170   36.7670 N   0  0  0  0  0
   48.4410   17.4670   35.5250 C   0  0  0  0  0
   49.7260   17.5220   34.8180 C   0  0  0  0  0
   50.8650   17.7920   35.4500 N   0  0  0  0  0
   49.7190   17.3140   33.5080 N   0  0  0  0  0
   48.5900   17.0560   32.8550 C   0  0  0  0  0
   47.4010   16.9840   33.4400 N   0  0  0  0  0
   47.2440   17.1780   34.7530 C   0  0  0  0  0
   46.6901   12.2932   36.4410 H   0  0  0  0  0
   47.2840   10.8255   36.9607 H   0  0  0  0  0
   45.7843   10.9091   36.2390 H   0  0  0  0  0
   46.4424   12.1424   38.8682 H   0  0  0  0  0
   43.7180   11.7998   37.9067 H   0  0  0  0  0
   44.7003   13.1030   37.1276 H   0  0  0  0  0
   44.9885   12.9768   40.0177 H   0  0  0  0  0
   43.2873   13.3364   39.4410 H   0  0  0  0  0
   45.9474    9.7732   36.8624 H   0  0  0  0  0
   43.2020   16.7355   38.8386 H   0  0  0  0  0
   42.4898   15.0873   38.6190 H   0  0  0  0  0
   42.2954   15.9901   36.5582 H   0  0  0  0  0
   44.8006   14.3540   36.7267 H   0  0  0  0  0
   43.6977   13.0701   35.3703 H   0  0  0  0  0
   45.3474   15.0263   34.4879 H   0  0  0  0  0
   43.7379   16.1892   33.2662 H   0  0  0  0  0
   44.4881   17.6700   34.6055 H   0  0  0  0  0
   46.1456   17.5054   37.7182 H   0  0  0  0  0
   50.8614   17.9681   36.4547 H   0  0  0  0  0
   51.7419   17.8229   34.9299 H   0  0  0  0  0
   48.6440   16.8945   31.7784 H   0  0  0  0  0
  1  2  1  0  0  0
  2  3  1  0  0  0
  2  6  1  0  0  0
  3  4  1  0  0  0
  4  5  1  0  0  0
  5  9  1  0  0  0
  6  7  1  0  0  0
  6  8  2  0  0  0
  9 10  1  0  0  0
 10 11  1  0  0  0
 10 12  1  0  0  0
 11 16  1  0  0  0
 12 13  1  0  0  0
 12 14  1  0  0  0
 14 15  1  0  0  0
 14 16  1  0  0  0
 16 17  1  0  0  0
 17 18  4  0  0  0
 17 26  4  0  0  0
 18 19  4  0  0  0
 19 20  4  0  0  0
 20 21  4  0  0  0
 20 26  4  0  0  0
 21 22  1  0  0  0
 21 23  4  0  0  0
 23 24  4  0  0  0
 24 25  4  0  0  0
 25 26  4  0  0  0
  1 27  1  0  0  0
  1 28  1  0  0  0
  1 29  1  0  0  0
  2 30  1  0  0  0
  3 31  1  0  0  0
  3 32  1  0  0  0
  4 33  1  0  0  0
  4 34  1  0  0  0
  7 35  1  0  0  0
  9 36  1  0  0  0
  9 37  1  0  0  0
 10 38  1  0  0  0
 12 39  1  0  0  0
 13 40  1  0  0  0
 14 41  1  0  0  0
 15 42  1  0  0  0
 16 43  1  0  0  0
 18 44  1  0  0  0
 22 45  1  0  0  0
 22 46  1  0  0  0
 24 47  1  0  0  0
M  END
$$$$
