1ind_ligand
  -I-interpret- 

 64 64  0  0  0  0  0  0  0  0999 V2000
   61.6180    1.3390   37.4210 C   0  0  0  0  0
   60.9970    2.4350   38.0310 C   0  0  0  0  0
   59.9180    2.2660   38.8940 C   0  0  0  0  0
   59.4470    0.9830   39.1620 C   0  0  0  0  0
   60.0610   -0.1080   38.5600 C   0  0  0  0  0
   61.1320    0.0680   37.6960 C   0  0  0  0  0
   62.6520    1.4380   36.5750 N   0  0  0  0  0
   63.8050    2.0520   36.8620 C   0  0  0  0  0
   64.1550    2.6720   38.3770 S   0  0  0  0  0
   64.6880    2.1430   35.8780 N   0  0  0  0  0
   65.9650    2.8440   36.0550 C   0  0  0  0  0
   66.3530    3.5290   34.7390 C   0  0  0  0  0
   67.6080    4.1680   34.9190 O   0  0  0  0  0
   58.3030    0.7790   40.0730 C   0  0  0  0  0
   56.9020    1.0440   39.4940 C   0  0  0  0  0
   56.4870   -0.1220   38.5490 C   0  0  0  0  0
   55.8850    1.1730   40.5680 N   0  3  0  0  0
   55.9110    2.4720   41.2660 C   0  0  0  0  0
   55.4600    3.6140   40.3650 C   0  0  0  0  0
   54.5060    3.2880   39.4710 O   0  0  0  0  0
   55.9870    4.7200   40.4260 O   0  0  0  0  0
   55.9170    0.0200   41.4600 C   0  0  0  0  0
   54.6780    0.0350   42.3430 C   0  0  0  0  0
   53.6000    0.6140   41.7730 O   0  0  0  0  0
   54.7110   -0.3880   43.4970 O   0  0  0  0  0
   55.1520    0.0110   37.9400 N   0  3  0  0  0
   54.6750   -1.3530   37.6030 C   0  0  0  0  0
   53.3180   -1.7070   38.2250 C   0  0  0  0  0
   52.9780   -1.0160   39.3240 O   0  0  0  0  0
   52.6100   -2.5970   37.7540 O   0  0  0  0  0
   55.1460    0.8730   36.7330 C   0  0  0  0  0
   53.7340    1.3060   36.3600 C   0  0  0  0  0
   52.8470    1.2220   37.3740 O   0  0  0  0  0
   53.4350    1.6620   35.2190 O   0  0  0  0  0
   61.3654    3.4402   37.8263 H   0  0  0  0  0
   59.4449    3.1320   39.3569 H   0  0  0  0  0
   59.6971   -1.1140   38.7689 H   0  0  0  0  0
   61.5965   -0.8002   37.2285 H   0  0  0  0  0
   62.5534    1.0174   35.6510 H   0  0  0  0  0
   64.4750    1.7158   34.9766 H   0  0  0  0  0
   66.7381    2.1290   36.3362 H   0  0  0  0  0
   65.8646    3.5928   36.8407 H   0  0  0  0  0
   65.5965    4.2639   34.4640 H   0  0  0  0  0
   66.4218    2.7904   33.9404 H   0  0  0  0  0
   67.8648    4.6021   34.1022 H   0  0  0  0  0
   58.4333    1.4961   40.8835 H   0  0  0  0  0
   58.3205   -0.2764   40.3451 H   0  0  0  0  0
   56.9482    1.9816   38.9401 H   0  0  0  0  0
   56.4654   -1.0261   39.1574 H   0  0  0  0  0
   57.2058   -0.1324   37.7296 H   0  0  0  0  0
   54.9724    1.1691   40.1125 H   0  0  0  0  0
   56.9361    2.6698   41.5791 H   0  0  0  0  0
   55.2279    2.4168   42.1136 H   0  0  0  0  0
   54.2405    2.3754   39.6064 H   0  0  0  0  0
   56.8103    0.0645   42.0829 H   0  0  0  0  0
   55.9352   -0.8972   40.8713 H   0  0  0  0  0
   53.8115    0.8623   40.8701 H   0  0  0  0  0
   54.5327    0.4679   38.6094 H   0  0  0  0  0
   55.4064   -2.0590   37.9962 H   0  0  0  0  0
   54.5573   -1.3975   36.5203 H   0  0  0  0  0
   53.6631   -0.3731   39.5211 H   0  0  0  0  0
   55.5627    0.3043   35.9017 H   0  0  0  0  0
   55.7353    1.7653   36.9442 H   0  0  0  0  0
   53.2976    0.9254   38.1681 H   0  0  0  0  0
  1  2  4  0  0  0
  1  6  4  0  0  0
  1  7  1  0  0  0
  2  3  4  0  0  0
  3  4  4  0  0  0
  4  5  4  0  0  0
  4 14  1  0  0  0
  5  6  4  0  0  0
  7  8  1  0  0  0
  8  9  2  0  0  0
  8 10  1  0  0  0
 10 11  1  0  0  0
 11 12  1  0  0  0
 12 13  1  0  0  0
 14 15  1  0  0  0
 15 16  1  0  0  0
 15 17  1  0  0  0
 16 26  1  0  0  0
 17 18  1  0  0  0
 17 22  1  0  0  0
 18 19  1  0  0  0
 19 20  1  0  0  0
 19 21  2  0  0  0
 22 23  1  0  0  0
 23 24  1  0  0  0
 23 25  2  0  0  0
 26 27  1  0  0  0
 26 31  1  0  0  0
 27 28  1  0  0  0
 28 29  1  0  0  0
 28 30  2  0  0  0
 31 32  1  0  0  0
 32 33  1  0  0  0
 32 34  2  0  0  0
  2 35  1  0  0  0
  3 36  1  0  0  0
  5 37  1  0  0  0
  6 38  1  0  0  0
  7 39  1  0  0  0
 10 40  1  0  0  0
 11 41  1  0  0  0
 11 42  1  0  0  0
 12 43  1  0  0  0
 12 44  1  0  0  0
 13 45  1  0  0  0
 14 46  1  0  0  0
 14 47  1  0  0  0
 15 48  1  0  0  0
 16 49  1  0  0  0
 16 50  1  0  0  0
 17 51  1  0  0  0
 18 52  1  0  0  0
 18 53  1  0  0  0
 20 54  1  0  0  0
 22 55  1  0  0  0
 22 56  1  0  0  0
 24 57  1  0  0  0
 26 58  1  0  0  0
 27 59  1  0  0  0
 27 60  1  0  0  0
 29 61  1  0  0  0
 31 62  1  0  0  0
 31 63  1  0  0  0
 33 64  1  0  0  0
M  END
$$$$
