4mnx_ligand
  -I-interpret- 

209210  0  0  0  0  0  0  0  0999 V2000
   35.4820   18.9400  -11.2980 N   0  3  0  0  0
   35.7960   17.4760  -11.2570 C   0  0  0  0  0
   34.6780   16.7200  -10.5370 C   0  0  0  0  0
   34.6480   16.6670   -9.3010 O   0  0  0  0  0
   37.1530   17.2380  -10.5710 C   0  0  0  0  0
   37.7710   15.8270  -10.5450 C   0  0  0  0  0
   37.3110   15.0080   -9.3460 C   0  0  0  0  0
   37.5330   15.0640  -11.8460 C   0  0  0  0  0
   33.7530   16.1640  -11.3140 N   0  0  0  0  0
   32.6310   15.3970  -10.7850 C   0  0  0  0  0
   32.6690   13.9560  -11.2910 C   0  0  0  0  0
   33.1330   13.6940  -12.3920 O   0  0  0  0  0
   31.3040   16.0290  -11.2100 C   0  0  0  0  0
   31.0670   17.7640  -10.7300 S   0  0  0  0  0
   32.1750   13.0260  -10.4760 N   0  0  0  0  0
   32.0650   11.6120  -10.8650 C   0  0  0  0  0
   30.8800   11.4700  -11.8240 C   0  0  0  0  0
   29.7670   11.8950  -11.4960 O   0  0  0  0  0
   31.8550   10.7370   -9.6100 C   0  0  0  0  0
   31.5430    9.3860   -9.9350 O   0  0  0  0  0
   31.1050   10.8860  -13.0000 N   0  0  0  0  0
   30.0090   10.6790  -13.9720 C   0  0  0  0  0
   28.8750    9.8800  -13.3120 C   0  0  0  0  0
   27.6710   10.2130  -13.4310 O   0  0  0  0  0
   30.5130    9.9430  -15.2260 C   0  0  0  0  0
   31.7070   10.6390  -15.8770 C   0  0  0  0  0
   32.7610   10.7340  -15.2110 O   0  0  0  0  0
   31.5900   11.0850  -17.0500 O   0  0  0  0  0
   29.2840    8.8270  -12.6140 N   0  0  0  0  0
   28.4120    8.1190  -11.7000 C   0  0  0  0  0
   28.2330    9.0120  -10.4700 C   0  0  0  0  0
   29.1270    9.1210   -9.6190 O   0  0  0  0  0
   29.0140    6.7700  -11.3340 C   0  0  0  0  0
   29.0320    5.7870  -12.4900 C   0  0  0  0  0
   29.9690    4.6250  -12.2290 C   0  0  0  0  0
   31.3500    4.9460  -12.5960 N   0  0  0  0  0
   32.3310    4.0500  -12.7480 C   0  0  0  0  0
   32.1160    2.7580  -12.5230 N   0  0  0  0  0
   33.5450    4.4470  -13.1090 N   0  0  0  0  0
   27.0580    9.6360  -10.4000 N   0  0  0  0  0
   26.8320   10.8130   -9.5440 C   0  0  0  0  0
   26.0190   11.8710  -10.2690 C   0  0  0  0  0
   25.2920   12.6520   -9.6370 O   0  0  0  0  0
   26.0910   11.8580  -11.6050 N   0  0  0  0  0
   25.5130   12.9220  -12.4120 C   0  0  0  0  0
   24.0920   12.6140  -12.9160 C   0  0  0  0  0
   23.5550   13.3490  -13.7440 O   0  0  0  0  0
   26.4440   13.2470  -13.5780 C   0  0  0  0  0
   26.3260   14.9660  -14.0930 S   0  0  0  0  0
   23.4780   11.5570  -12.3830 N   0  0  0  0  0
   22.1260   11.1620  -12.7740 C   0  0  0  0  0
   21.0770   12.0150  -12.0680 C   0  0  0  0  0
   21.1010   12.1500  -10.8480 O   0  0  0  0  0
   21.8750    9.6770  -12.4770 C   0  0  0  0  0
   22.8370    8.6980  -13.1700 C   0  0  0  0  0
   24.1000    8.3800  -12.3820 C   0  0  0  0  0
   24.8400    7.4380  -12.8020 O   0  0  0  0  0
   24.3590    9.0430  -11.3420 O   0  0  0  0  0
   20.1660   12.5950  -12.8520 N   0  0  0  0  0
   18.9460   13.2090  -12.3170 C   0  0  0  0  0
   19.2610   14.2960  -11.2620 C   0  0  0  0  0
   18.6850   14.3100  -10.1640 O   0  0  0  0  0
   18.0430   12.0990  -11.7400 C   0  0  0  0  0
   16.7180   12.6280  -11.2180 C   0  0  0  0  0
   16.0350   13.3850  -11.9070 O   0  0  0  0  0
   16.3560   12.2410   -9.9830 N   0  0  0  0  0
   20.1970   15.1850  -11.5990 N   0  0  0  0  0
   20.6740   16.1950  -10.6760 C   0  0  0  0  0
   20.2210   17.5740  -11.0850 C   0  0  0  0  0
   20.0040   17.8650  -12.2730 O   0  0  0  0  0
   22.2040   16.1960  -10.5820 C   0  0  0  0  0
   22.8440   14.8480  -10.3080 C   0  0  0  0  0
   22.3480   14.1940   -9.0330 C   0  0  0  0  0
   22.5780   15.0500   -7.8770 N   0  0  0  0  0
   23.6730   15.0540   -7.1200 C   0  0  0  0  0
   24.6730   14.1950   -7.3340 N   0  0  0  0  0
   23.7600   15.9160   -6.1090 N   0  0  0  0  0
   20.1090   18.4340  -10.0810 N   0  0  0  0  0
   19.7220   19.8150  -10.3060 C   0  0  0  0  0
   20.9340   20.6710  -10.6650 C   0  0  0  0  0
   22.0450   20.4480  -10.1630 O   0  0  0  0  0
   19.0180   20.3810   -9.0650 C   0  0  0  0  0
   18.5240   21.7760   -9.3010 C   0  0  0  0  0
   17.3230   22.1470   -9.8550 C   0  0  0  0  0
   19.2390   22.9790   -9.0360 C   0  0  0  0  0
   17.2480   23.5190   -9.9300 N   0  0  0  0  0
   18.4140   24.0540   -9.4370 C   0  0  0  0  0
   20.5010   23.2570   -8.4950 C   0  0  0  0  0
   18.8120   25.3880   -9.3070 C   0  0  0  0  0
   20.8910   24.5800   -8.3650 C   0  0  0  0  0
   20.0490   25.6270   -8.7690 C   0  0  0  0  0
   20.7010   21.6580  -11.5340 N   0  0  0  0  0
   21.7240   22.6190  -11.9100 C   0  0  0  0  0
   21.1350   23.9900  -12.3030 C   0  0  0  0  0
   20.1320   24.0650  -13.0000 O   0  0  0  0  0
   22.5540   22.0760  -13.0610 C   0  0  0  0  0
   24.1420   22.9210  -13.2640 S   0  0  0  0  0
   21.7920   25.0420  -11.8100 N   0  0  0  0  0
   21.5000   26.4630  -12.0730 C   0  0  0  0  0
   21.2870   26.7760  -13.5520 C   0  0  0  0  0
   20.4250   27.5790  -13.9210 O   0  0  0  0  0
   22.7070   27.2700  -11.5790 C   0  0  0  0  0
   22.4810   28.7490  -11.3810 C   0  0  0  0  0
   23.3960   29.3090  -10.2910 C   0  0  0  0  0
   24.7470   29.7600  -10.8250 C   0  0  0  0  0
   24.6090   30.9980  -11.6500 N   0  3  0  0  0
   22.1020   26.1600  -14.3900 N   0  0  0  0  0
   34.5810   19.0806  -11.7549 H   0  0  0  0  0
   35.4425   19.3048  -10.3463 H   0  0  0  0  0
   36.2094   19.4280  -11.8206 H   0  0  0  0  0
   35.8635   17.0989  -12.2775 H   0  0  0  0  0
   36.9715   17.4737   -9.5224 H   0  0  0  0  0
   37.8583   17.8320  -11.1522 H   0  0  0  0  0
   38.8455   15.9790  -10.4428 H   0  0  0  0  0
   36.2460   14.7955   -9.4398 H   0  0  0  0  0
   37.8680   14.0717   -9.3120 H   0  0  0  0  0
   37.4910   15.5728   -8.4313 H   0  0  0  0  0
   38.0911   14.1279  -11.8240 H   0  0  0  0  0
   36.4691   14.8518  -11.9519 H   0  0  0  0  0
   37.8695   15.6695  -12.6876 H   0  0  0  0  0
   33.8317   16.2790  -12.3244 H   0  0  0  0  0
   32.7128   15.4018   -9.6981 H   0  0  0  0  0
   30.5185   15.4612  -10.7113 H   0  0  0  0  0
   31.2864   16.0055  -12.2996 H   0  0  0  0  0
   29.8803   18.1832  -11.1601 H   0  0  0  0  0
   31.8609   13.3050   -9.5465 H   0  0  0  0  0
   32.9790   11.2814  -11.3584 H   0  0  0  0  0
   31.0178   11.1502   -9.0475 H   0  0  0  0  0
   32.7828   10.7402   -9.0379 H   0  0  0  0  0
   31.4219    8.8833   -9.1262 H   0  0  0  0  0
   32.0483   10.5765  -13.2341 H   0  0  0  0  0
   29.6338   11.6547  -14.2809 H   0  0  0  0  0
   29.7002    9.9229  -15.9520 H   0  0  0  0  0
   30.8308    8.9452  -14.9237 H   0  0  0  0  0
   30.7035   10.9062  -17.3722 H   0  0  0  0  0
   30.2456    8.5057  -12.7255 H   0  0  0  0  0
   27.4427    7.9143  -12.1545 H   0  0  0  0  0
   28.3992    6.3384  -10.5442 H   0  0  0  0  0
   30.0470    6.9415  -11.0314 H   0  0  0  0  0
   29.3785    6.3123  -13.3800 H   0  0  0  0  0
   28.0244    5.3915  -12.6181 H   0  0  0  0  0
   29.6419    3.7790  -12.8335 H   0  0  0  0  0
   29.9422    4.3963  -11.1636 H   0  0  0  0  0
   31.5812    5.9279  -12.7472 H   0  0  0  0  0
   32.8780    2.0882  -12.6284 H   0  0  0  0  0
   31.1889    2.4361  -12.2449 H   0  0  0  0  0
   33.7308    5.4368  -13.2709 H   0  0  0  0  0
   26.2831    9.2842  -10.9623 H   0  0  0  0  0
   27.7987   11.2396   -9.2766 H   0  0  0  0  0
   26.2816   10.4980   -8.6575 H   0  0  0  0  0
   26.5631   11.0824  -12.0697 H   0  0  0  0  0
   25.4120   13.7916  -11.7627 H   0  0  0  0  0
   26.1562   12.6217  -14.4232 H   0  0  0  0  0
   27.4679   13.0624  -13.2530 H   0  0  0  0  0
   27.1587   15.1814  -15.1075 H   0  0  0  0  0
   23.9683   11.0056  -11.6788 H   0  0  0  0  0
   22.0403   11.3224  -13.8487 H   0  0  0  0  0
   20.8758    9.4486  -12.8478 H   0  0  0  0  0
   22.0140    9.5450  -11.4040 H   0  0  0  0  0
   23.1542    9.1703  -14.0997 H   0  0  0  0  0
   22.2974    7.7593  -13.2958 H   0  0  0  0  0
   24.4623    7.0690  -13.6037 H   0  0  0  0  0
   20.3238   12.6120  -13.8596 H   0  0  0  0  0
   18.4200   13.7179  -13.1247 H   0  0  0  0  0
   18.5713   11.6404  -10.9042 H   0  0  0  0  0
   17.8274   11.3939  -12.5427 H   0  0  0  0  0
   15.4816   12.5767   -9.5791 H   0  0  0  0  0
   16.9557   11.6116   -9.4495 H   0  0  0  0  0
   20.5906   15.1525  -12.5394 H   0  0  0  0  0
   20.2507   15.9445   -9.7033 H   0  0  0  0  0
   22.4623   16.8384   -9.7402 H   0  0  0  0  0
   22.5739   16.5228  -11.5539 H   0  0  0  0  0
   23.9164   15.0095  -10.1987 H   0  0  0  0  0
   22.5879   14.1881  -11.1369 H   0  0  0  0  0
   22.8908   13.2601   -8.8875 H   0  0  0  0  0
   21.2765   14.0173   -9.1270 H   0  0  0  0  0
   21.8357   15.7029   -7.6258 H   0  0  0  0  0
   25.4920   14.2040   -6.7261 H   0  0  0  0  0
   24.6177   13.5299   -8.1054 H   0  0  0  0  0
   22.9934   16.5625   -5.9226 H   0  0  0  0  0
   20.2990   18.1179   -9.1300 H   0  0  0  0  0
   19.0279   19.8402  -11.1460 H   0  0  0  0  0
   19.7331   20.4028   -8.2427 H   0  0  0  0  0
   18.1623   19.7464   -8.8344 H   0  0  0  0  0
   16.5459   21.4579  -10.1856 H   0  0  0  0  0
   21.1625   22.4489   -8.1827 H   0  0  0  0  0
   18.1635   26.2057   -9.6214 H   0  0  0  0  0
   21.8684   24.8114   -7.9417 H   0  0  0  0  0
   20.3876   26.6564   -8.6519 H   0  0  0  0  0
   19.7725   21.7401  -11.9482 H   0  0  0  0  0
   22.3524   22.7707  -11.0324 H   0  0  0  0  0
   21.9828   22.2258  -13.9772 H   0  0  0  0  0
   22.7645   21.0279  -12.8483 H   0  0  0  0  0
   24.7998   22.3851  -14.2882 H   0  0  0  0  0
   22.5756   24.8426  -11.1882 H   0  0  0  0  0
   20.5729   26.7180  -11.5596 H   0  0  0  0  0
   23.4716   27.1787  -12.3505 H   0  0  0  0  0
   22.9635   26.8667  -10.5994 H   0  0  0  0  0
   21.4453   28.9047  -11.0789 H   0  0  0  0  0
   22.7013   29.2624  -12.3170 H   0  0  0  0  0
   23.5733   28.5152   -9.5654 H   0  0  0  0  0
   22.9027   30.1788   -9.8571 H   0  0  0  0  0
   25.1591   28.9673  -11.4494 H   0  0  0  0  0
   25.4037   29.9728   -9.9814 H   0  0  0  0  0
   25.5267   31.2790  -11.9954 H   0  0  0  0  0
   23.9898   30.8121  -12.4389 H   0  0  0  0  0
   24.2167   31.7450  -11.0769 H   0  0  0  0  0
   22.0348   26.3400  -15.3918 H   0  0  0  0  0
   22.7983   25.5045  -14.0351 H   0  0  0  0  0
  1  2  1  0  0  0
  2  3  1  0  0  0
  2  5  1  0  0  0
  3  4  2  0  0  0
  3  9  1  0  0  0
  5  6  1  0  0  0
  6  7  1  0  0  0
  6  8  1  0  0  0
  9 10  1  0  0  0
 10 11  1  0  0  0
 10 13  1  0  0  0
 11 12  2  0  0  0
 11 15  1  0  0  0
 13 14  1  0  0  0
 15 16  1  0  0  0
 16 17  1  0  0  0
 16 19  1  0  0  0
 17 18  2  0  0  0
 17 21  1  0  0  0
 19 20  1  0  0  0
 21 22  1  0  0  0
 22 23  1  0  0  0
 22 25  1  0  0  0
 23 24  2  0  0  0
 23 29  1  0  0  0
 25 26  1  0  0  0
 26 27  2  0  0  0
 26 28  1  0  0  0
 29 30  1  0  0  0
 30 31  1  0  0  0
 30 33  1  0  0  0
 31 32  2  0  0  0
 31 40  1  0  0  0
 33 34  1  0  0  0
 34 35  1  0  0  0
 35 36  1  0  0  0
 36 37  1  0  0  0
 37 38  1  0  0  0
 37 39  2  0  0  0
 40 41  1  0  0  0
 41 42  1  0  0  0
 42 43  2  0  0  0
 42 44  1  0  0  0
 44 45  1  0  0  0
 45 46  1  0  0  0
 45 48  1  0  0  0
 46 47  2  0  0  0
 46 50  1  0  0  0
 48 49  1  0  0  0
 50 51  1  0  0  0
 51 52  1  0  0  0
 51 54  1  0  0  0
 52 53  2  0  0  0
 52 59  1  0  0  0
 54 55  1  0  0  0
 55 56  1  0  0  0
 56 57  1  0  0  0
 56 58  2  0  0  0
 59 60  1  0  0  0
 60 61  1  0  0  0
 60 63  1  0  0  0
 61 62  2  0  0  0
 61 67  1  0  0  0
 63 64  1  0  0  0
 64 65  2  0  0  0
 64 66  1  0  0  0
 67 68  1  0  0  0
 68 69  1  0  0  0
 68 71  1  0  0  0
 69 70  2  0  0  0
 69 78  1  0  0  0
 71 72  1  0  0  0
 72 73  1  0  0  0
 73 74  1  0  0  0
 74 75  1  0  0  0
 75 76  1  0  0  0
 75 77  2  0  0  0
 78 79  1  0  0  0
 79 80  1  0  0  0
 79 82  1  0  0  0
 80 81  2  0  0  0
 80 92  1  0  0  0
 82 83  1  0  0  0
 83 84  4  0  0  0
 83 85  4  0  0  0
 84 86  4  0  0  0
 85 87  4  0  0  0
 85 88  4  0  0  0
 86 87  4  0  0  0
 87 89  4  0  0  0
 88 90  4  0  0  0
 89 91  4  0  0  0
 90 91  4  0  0  0
 92 93  1  0  0  0
 93 94  1  0  0  0
 93 96  1  0  0  0
 94 95  2  0  0  0
 94 98  1  0  0  0
 96 97  1  0  0  0
 98 99  1  0  0  0
 99100  1  0  0  0
 99102  1  0  0  0
100101  2  0  0  0
100107  1  0  0  0
102103  1  0  0  0
103104  1  0  0  0
104105  1  0  0  0
105106  1  0  0  0
  1108  1  0  0  0
  1109  1  0  0  0
  1110  1  0  0  0
  2111  1  0  0  0
  5112  1  0  0  0
  5113  1  0  0  0
  6114  1  0  0  0
  7115  1  0  0  0
  7116  1  0  0  0
  7117  1  0  0  0
  8118  1  0  0  0
  8119  1  0  0  0
  8120  1  0  0  0
  9121  1  0  0  0
 10122  1  0  0  0
 13123  1  0  0  0
 13124  1  0  0  0
 14125  1  0  0  0
 15126  1  0  0  0
 16127  1  0  0  0
 19128  1  0  0  0
 19129  1  0  0  0
 20130  1  0  0  0
 21131  1  0  0  0
 22132  1  0  0  0
 25133  1  0  0  0
 25134  1  0  0  0
 28135  1  0  0  0
 29136  1  0  0  0
 30137  1  0  0  0
 33138  1  0  0  0
 33139  1  0  0  0
 34140  1  0  0  0
 34141  1  0  0  0
 35142  1  0  0  0
 35143  1  0  0  0
 36144  1  0  0  0
 38145  1  0  0  0
 38146  1  0  0  0
 39147  1  0  0  0
 40148  1  0  0  0
 41149  1  0  0  0
 41150  1  0  0  0
 44151  1  0  0  0
 45152  1  0  0  0
 48153  1  0  0  0
 48154  1  0  0  0
 49155  1  0  0  0
 50156  1  0  0  0
 51157  1  0  0  0
 54158  1  0  0  0
 54159  1  0  0  0
 55160  1  0  0  0
 55161  1  0  0  0
 57162  1  0  0  0
 59163  1  0  0  0
 60164  1  0  0  0
 63165  1  0  0  0
 63166  1  0  0  0
 66167  1  0  0  0
 66168  1  0  0  0
 67169  1  0  0  0
 68170  1  0  0  0
 71171  1  0  0  0
 71172  1  0  0  0
 72173  1  0  0  0
 72174  1  0  0  0
 73175  1  0  0  0
 73176  1  0  0  0
 74177  1  0  0  0
 76178  1  0  0  0
 76179  1  0  0  0
 77180  1  0  0  0
 78181  1  0  0  0
 79182  1  0  0  0
 82183  1  0  0  0
 82184  1  0  0  0
 84185  1  0  0  0
 88186  1  0  0  0
 89187  1  0  0  0
 90188  1  0  0  0
 91189  1  0  0  0
 92190  1  0  0  0
 93191  1  0  0  0
 96192  1  0  0  0
 96193  1  0  0  0
 97194  1  0  0  0
 98195  1  0  0  0
 99196  1  0  0  0
102197  1  0  0  0
102198  1  0  0  0
103199  1  0  0  0
103200  1  0  0  0
104201  1  0  0  0
104202  1  0  0  0
105203  1  0  0  0
105204  1  0  0  0
106205  1  0  0  0
106206  1  0  0  0
106207  1  0  0  0
107208  1  0  0  0
107209  1  0  0  0
M  END
$$$$
