### 
### Created by X-TOOL on Mon Sep 10 21:13:18 2018
### 

@<TRIPOS>MOLECULE
4mnx_ligand
  210   211     1     0     0
SMALL
GAST_HUCK


@<TRIPOS>ATOM
      1 N          35.4820   18.9400  -11.2980 N.4       1 LEU         0.2379
      2 CA         35.7960   17.4760  -11.2570 C.3       1 LEU         0.0652
      3 C          34.6780   16.7200  -10.5370 C.2       1 LEU         0.2267
      4 O          34.6480   16.6670   -9.3010 O.2       1 LEU        -0.3907
      5 CB         37.1530   17.2380  -10.5710 C.3       1 LEU         0.0102
      6 CG         37.7710   15.8270  -10.5450 C.3       1 LEU        -0.0394
      7 CD1        37.3110   15.0080   -9.3460 C.3       1 LEU        -0.0623
      8 CD2        37.5330   15.0640  -11.8460 C.3       1 LEU        -0.0623
      9 N          33.7530   16.1640  -11.3140 N.am      1 CYS        -0.2602
     10 CA         32.6310   15.3970  -10.7850 C.3       1 CYS         0.1397
     11 C          32.6690   13.9560  -11.2910 C.2       1 CYS         0.2048
     12 O          33.1330   13.6940  -12.3920 O.2       1 CYS        -0.3944
     13 CB         31.3040   16.0290  -11.2100 C.3       1 CYS         0.0311
     14 SG         31.0670   17.7640  -10.7300 S.3       1 CYS        -0.1735
     15 N          32.1750   13.0260  -10.4760 N.am      1 SER        -0.2615
     16 CA         32.0650   11.6120  -10.8650 C.3       1 SER         0.1539
     17 C          30.8800   11.4700  -11.8240 C.2       1 SER         0.2063
     18 O          29.7670   11.8950  -11.4960 O.2       1 SER        -0.3943
     19 CB         31.8550   10.7370   -9.6100 C.3       1 SER         0.0843
     20 OG         31.5430    9.3860   -9.9350 O.3       1 SER        -0.3903
     21 N          31.1050   10.8860  -13.0000 N.am      1 ASP        -0.2621
     22 CA         30.0090   10.6790  -13.9720 C.3       1 ASP         0.1423
     23 C          28.8750    9.8800  -13.3120 C.2       1 ASP         0.2056
     24 O          27.6710   10.2130  -13.4310 O.2       1 ASP        -0.3943
     25 CB         30.5130    9.9430  -15.2260 C.3       1 ASP         0.0406
     26 CG         31.7070   10.6390  -15.8770 C.2       1 ASP         0.0393
     27 OD1        32.7610   10.7340  -15.2110 O.co2     1 ASP        -0.5688
     28 OD2        31.5900   11.0850  -17.0500 O.co2     1 ASP        -0.5688
     29 N          29.2840    8.8270  -12.6140 N.am      1 ARG        -0.2636
     30 CA         28.4120    8.1190  -11.7000 C.3       1 ARG         0.1311
     31 C          28.2330    9.0120  -10.4700 C.2       1 ARG         0.2037
     32 O          29.1270    9.1210   -9.6190 O.2       1 ARG        -0.3944
     33 CB         29.0140    6.7700  -11.3340 C.3       1 ARG        -0.0092
     34 CG         29.0320    5.7870  -12.4900 C.3       1 ARG        -0.0156
     35 CD         29.9690    4.6250  -12.2290 C.3       1 ARG         0.0627
     36 NE         31.3500    4.9460  -12.5960 N.pl3     1 ARG        -0.2723
     37 CZ         32.3310    4.0500  -12.7480 C.cat     1 ARG         0.2882
     38 NH1        32.1160    2.7580  -12.5230 N.pl3     1 ARG        -0.2849
     39 NH2        33.5450    4.4470  -13.1090 N.pl3     1 ARG        -0.2849
     40 N          27.0580    9.6360  -10.4000 N.am      1 GLY        -0.2664
     41 CA         26.8320   10.8130   -9.5440 C.3       1 GLY         0.1201
     42 C          26.0190   11.8710  -10.2690 C.2       1 GLY         0.2008
     43 O          25.2920   12.6520   -9.6370 O.2       1 GLY        -0.3947
     44 N          26.0910   11.8580  -11.6050 N.am      1 CYS        -0.2632
     45 CA         25.5130   12.9220  -12.4120 C.3       1 CYS         0.1396
     46 C          24.0920   12.6140  -12.9160 C.2       1 CYS         0.2047
     47 O          23.5550   13.3490  -13.7440 O.2       1 CYS        -0.3944
     48 CB         26.4440   13.2470  -13.5780 C.3       1 CYS         0.0311
     49 SG         26.3260   14.9660  -14.0930 S.3       1 CYS        -0.1735
     50 N          23.4780   11.5570  -12.3830 N.am      1 GLU        -0.2636
     51 CA         22.1260   11.1620  -12.7740 C.3       1 GLU         0.1325
     52 C          21.0770   12.0150  -12.0680 C.2       1 GLU         0.2041
     53 O          21.1010   12.1500  -10.8480 O.2       1 GLU        -0.3944
     54 CB         21.8750    9.6770  -12.4770 C.3       1 GLU        -0.0008
     55 CG         22.8370    8.6980  -13.1700 C.3       1 GLU         0.0044
     56 CD         24.1000    8.3800  -12.3820 C.2       1 GLU         0.0350
     57 OE1        24.8400    7.4380  -12.8020 O.co2     1 GLU        -0.5690
     58 OE2        24.3590    9.0430  -11.3420 O.co2     1 GLU        -0.5690
     59 N          20.1660   12.5950  -12.8520 N.am      1 ASN        -0.2616
     60 CA         18.9460   13.2090  -12.3170 C.3       1 ASN         0.1476
     61 C          19.2610   14.2960  -11.2620 C.2       1 ASN         0.2063
     62 O          18.6850   14.3100  -10.1640 O.2       1 ASN        -0.3942
     63 CB         18.0430   12.0990  -11.7400 C.3       1 ASN         0.0773
     64 CG         16.7180   12.6280  -11.2180 C.2       1 ASN         0.1780
     65 OD1        16.0350   13.3850  -11.9070 O.2       1 ASN        -0.3970
     66 ND2        16.3560   12.2410   -9.9830 N.am      1 ASN        -0.3007
     67 N          20.1970   15.1850  -11.5990 N.am      1 ARG        -0.2636
     68 CA         20.6740   16.1950  -10.6760 C.3       1 ARG         0.1311
     69 C          20.2210   17.5740  -11.0850 C.2       1 ARG         0.2040
     70 O          20.0040   17.8650  -12.2730 O.2       1 ARG        -0.3944
     71 CB         22.2040   16.1960  -10.5820 C.3       1 ARG        -0.0092
     72 CG         22.8440   14.8480  -10.3080 C.3       1 ARG        -0.0156
     73 CD         22.3480   14.1940   -9.0330 C.3       1 ARG         0.0627
     74 NE         22.5780   15.0500   -7.8770 N.pl3     1 ARG        -0.2723
     75 CZ         23.6730   15.0540   -7.1200 C.cat     1 ARG         0.2882
     76 NH1        24.6730   14.1950   -7.3340 N.pl3     1 ARG        -0.2849
     77 NH2        23.7600   15.9160   -6.1090 N.pl3     1 ARG        -0.2849
     78 N          20.1090   18.4340  -10.0810 N.am      1 TRP        -0.2627
     79 CA         19.7220   19.8150  -10.3060 C.3       1 TRP         0.1352
     80 C          20.9340   20.6710  -10.6650 C.2       1 TRP         0.2052
     81 O          22.0450   20.4480  -10.1630 O.2       1 TRP        -0.3942
     82 CB         19.0180   20.3810   -9.0650 C.3       1 TRP         0.0042
     83 CG         18.5240   21.7760   -9.3010 C.2       1 TRP        -0.0418
     84 CD1        17.3230   22.1470   -9.8550 C.2       1 TRP         0.0167
     85 CD2        19.2390   22.9790   -9.0360 C.ar      1 TRP        -0.0214
     86 NE1        17.2480   23.5190   -9.9300 N.pl3     1 TRP        -0.2890
     87 CE2        18.4140   24.0540   -9.4370 C.ar      1 TRP         0.0603
     88 CE3        20.5010   23.2570   -8.4950 C.ar      1 TRP        -0.0747
     89 CZ2        18.8120   25.3880   -9.3070 C.ar      1 TRP        -0.0443
     90 CZ3        20.8910   24.5800   -8.3650 C.ar      1 TRP        -0.0792
     91 CH2        20.0490   25.6270   -8.7690 C.ar      1 TRP        -0.0768
     92 N          20.7010   21.6580  -11.5340 N.am      1 CYS        -0.2628
     93 CA         21.7240   22.6190  -11.9100 C.3       1 CYS         0.1396
     94 C          21.1350   23.9900  -12.3030 C.2       1 CYS         0.2047
     95 O          20.1320   24.0650  -13.0000 O.2       1 CYS        -0.3944
     96 CB         22.5540   22.0760  -13.0610 C.3       1 CYS         0.0311
     97 SG         24.1420   22.9210  -13.2640 S.3       1 CYS        -0.1735
     98 N          21.7920   25.0420  -11.8100 N.am      1 LYS        -0.2637
     99 CA         21.5000   26.4630  -12.0730 C.3       1 LYS         0.1306
    100 C          21.2870   26.7760  -13.5520 C.2       1 LYS         0.1992
    101 O          20.4250   27.5790  -13.9210 O.2       1 LYS        -0.3947
    102 CB         22.7070   27.2700  -11.5790 C.3       1 LYS        -0.0122
    103 CG         22.4810   28.7490  -11.3810 C.3       1 LYS        -0.0440
    104 CD         23.3960   29.3090  -10.2910 C.3       1 LYS        -0.0124
    105 CE         24.7470   29.7600  -10.8250 C.3       1 LYS        -0.0354
    106 NZ         24.6090   30.9980  -11.6500 N.4       1 LYS         0.2185
    107 N          22.1020   26.1600  -14.3900 N.am      1 NH2        -0.2990
    108 H          36.2236   19.4295  -11.7739 H         1 LEU         0.2015
    109 H          35.3968   19.2919  -10.3573 H         1 LEU         0.2015
    110 H          34.6144   19.0839  -11.7905 H         1 LEU         0.2015
    111 H          35.8595   17.1025  -12.2897 H         1 LEU         0.1098
    112 H          37.0376   17.5525   -9.5232 H         1 LEU         0.0348
    113 H          37.8806   17.8931  -11.0725 H         1 LEU         0.0348
    114 H          38.8582   15.9607  -10.4445 H         1 LEU         0.0299
    115 H          37.7815   14.0142   -9.3786 H         1 LEU         0.0232
    116 H          36.2170   14.8969   -9.3758 H         1 LEU         0.0232
    117 H          37.6023   15.5213   -8.4178 H         1 LEU         0.0232
    118 H          37.8723   15.6741  -12.6961 H         1 LEU         0.0232
    119 H          36.4596   14.8493  -11.9541 H         1 LEU         0.0232
    120 H          38.0957   14.1191  -11.8251 H         1 LEU         0.0232
    121 H          33.8301   16.2768  -12.3046 H         1 CYS         0.1885
    122 H          32.6932   15.3935   -9.6868 H         1 CYS         0.0808
    123 H          30.4904   15.4403  -10.7611 H         1 CYS         0.0422
    124 H          31.2376   15.9699  -12.3064 H         1 CYS         0.0422
    125 H          30.1676   18.0817  -11.0560 H         1 CYS         0.1019
    126 H          31.8671   13.2995   -9.5647 H         1 SER         0.1884
    127 H          32.9878   11.2966  -11.3738 H         1 SER         0.0823
    128 H          31.0276   11.1583   -9.0202 H         1 SER         0.0606
    129 H          32.7773   10.7520   -9.0107 H         1 SER         0.0606
    130 H          32.2551    9.0102  -10.4391 H         1 SER         0.2097
    131 H          32.0298   10.5826  -13.2295 H         1 ASP         0.1884
    132 H          29.6197   11.6617  -14.2763 H         1 ASP         0.0819
    133 H          29.6933    9.8922  -15.9577 H         1 ASP         0.0478
    134 H          30.8127    8.9241  -14.9396 H         1 ASP         0.0478
    135 H          30.2268    8.5120  -12.7233 H         1 ARG         0.1883
    136 H          27.4342    7.9521  -12.1754 H         1 ARG         0.0800
    137 H          28.4230    6.3346  -10.5148 H         1 ARG         0.0313
    138 H          30.0483    6.9296  -10.9954 H         1 ARG         0.0313
    139 H          29.3615    6.3124  -13.3985 H         1 ARG         0.0301
    140 H          28.0147    5.3966  -12.6407 H         1 ARG         0.0301
    141 H          29.6357    3.7593  -12.8201 H         1 ARG         0.0689
    142 H          29.9345    4.3734  -11.1587 H         1 ARG         0.0689
    143 H          31.5835    5.9375  -12.7487 H         1 ARG         0.2642
    144 H          32.8816    2.0797  -12.6443 H         1 ARG         0.2615
    145 H          31.1838    2.4349  -12.2273 H         1 ARG         0.2615
    146 H          33.7288    5.4447  -13.2873 H         1 ARG         0.2615
    147 H          34.3033    3.7574  -13.2109 H         1 ARG         0.2615
    148 H          26.2983    9.2911  -10.9513 H         1 GLY         0.1881
    149 H          27.8042   11.2409   -9.2582 H         1 GLY         0.0763
    150 H          26.2890   10.5003   -8.6399 H         1 GLY         0.0763
    151 H          26.5539   11.0976  -12.0606 H         1 CYS         0.1884
    152 H          25.4439   13.8160  -11.7749 H         1 CYS         0.0808
    153 H          26.1797   12.6042  -14.4306 H         1 CYS         0.0422
    154 H          27.4799   13.0409  -13.2707 H         1 CYS         0.0422
    155 H          26.9571   15.1293  -14.8619 H         1 CYS         0.1019
    156 H          23.9587   11.0164  -11.6926 H         1 GLU         0.1883
    157 H          22.0257   11.3189  -13.8581 H         1 GLU         0.0801
    158 H          20.8518    9.4339  -12.7994 H         1 GLU         0.0330
    159 H          21.9623    9.5279  -11.3907 H         1 GLU         0.0330
    160 H          23.1360    9.1362  -14.1336 H         1 GLU         0.0433
    161 H          22.2977    7.7558  -13.3472 H         1 GLU         0.0433
    162 H          20.3207   12.6116  -13.8398 H         1 ASN         0.1885
    163 H          18.4110   13.6934  -13.1471 H         1 ASN         0.0826
    164 H          18.5756   11.6078  -10.9123 H         1 ASN         0.0551
    165 H          17.8398   11.3640  -12.5328 H         1 ASN         0.0551
    166 H          15.4930   12.5606   -9.5917 H         1 ASN         0.1814
    167 H          16.9496   11.6334   -9.4553 H         1 ASN         0.1814
    168 H          20.5829   15.1532  -12.5210 H         1 ARG         0.1883
    169 H          20.2612   15.9696   -9.6816 H         1 ARG         0.0800
    170 H          22.4929   16.8793   -9.7698 H         1 ARG         0.0313
    171 H          22.6016   16.5718  -11.5363 H         1 ARG         0.0313
    172 H          23.9320   14.9885  -10.2273 H         1 ARG         0.0301
    173 H          22.6223   14.1786  -11.1523 H         1 ARG         0.0301
    174 H          22.8812   13.2430   -8.8868 H         1 ARG         0.0689
    175 H          21.2694   13.9991   -9.1260 H         1 ARG         0.0689
    176 H          21.8284   15.7093   -7.6234 H         1 ARG         0.2642
    177 H          25.5097   14.2188   -6.7338 H         1 ARG         0.2615
    178 H          24.6075   13.5087   -8.0993 H         1 ARG         0.2615
    179 H          22.9952   16.5833   -5.9339 H         1 ARG         0.2615
    180 H          24.5921   15.9155   -5.5020 H         1 ARG         0.2615
    181 H          20.2953   18.1241   -9.1487 H         1 TRP         0.1884
    182 H          19.0166   19.8433  -11.1495 H         1 TRP         0.0815
    183 H          19.7279   20.3908   -8.2248 H         1 TRP         0.0397
    184 H          18.1624   19.7366   -8.8146 H         1 TRP         0.0397
    185 H          16.5466   21.4585  -10.1853 H         1 TRP         0.0795
    186 H          16.4492   24.0567  -10.2956 H         1 TRP         0.2216
    187 H          21.1589   22.4534   -8.1845 H         1 TRP         0.0540
    188 H          18.1671   26.2012   -9.6197 H         1 TRP         0.0541
    189 H          21.8631   24.8101   -7.9441 H         1 TRP         0.0510
    190 H          20.3857   26.6508   -8.6525 H         1 TRP         0.0530
    191 H          19.7907   21.7385  -11.9401 H         1 CYS         0.1884
    192 H          22.3838   22.7676  -11.0425 H         1 CYS         0.0808
    193 H          21.9773   22.1897  -13.9908 H         1 CYS         0.0422
    194 H          22.7479   21.0088  -12.8779 H         1 CYS         0.0422
    195 H          24.6406   22.5148  -14.0403 H         1 CYS         0.1019
    196 H          22.5602   24.8465  -11.2004 H         1 LYS         0.1883
    197 H          20.5974   26.7533  -11.5153 H         1 LYS         0.0800
    198 H          23.5158   27.1492  -12.3146 H         1 LYS         0.0312
    199 H          23.0225   26.8462  -10.6142 H         1 LYS         0.0312
    200 H          21.4334   28.9158  -11.0902 H         1 LYS         0.0269
    201 H          22.6871   29.2728  -12.3260 H         1 LYS         0.0269
    202 H          23.5609   28.5269   -9.5353 H         1 LYS         0.0317
    203 H          22.8979   30.1713   -9.8237 H         1 LYS         0.0317
    204 H          25.1740   28.9591  -11.4464 H         1 LYS         0.0813
    205 H          25.4186   29.9648   -9.9783 H         1 LYS         0.0813
    206 H          25.5154   31.2767  -11.9919 H         1 LYS         0.1994
    207 H          24.2214   31.7371  -11.0847 H         1 LYS         0.1994
    208 H          23.9972   30.8155  -12.4301 H         1 LYS         0.1994
    209 H          22.0199   26.3177  -15.3741 H         1 NH2         0.1815
    210 H          22.8009   25.5361  -14.0401 H         1 NH2         0.1815
@<TRIPOS>BOND
     1    1    2 1  
     2    2    3 1  
     3    2    5 1  
     4    3    4 2  
     5    3    9 am 
     6    5    6 1  
     7    6    7 1  
     8    6    8 1  
     9    9   10 1  
    10   10   11 1  
    11   10   13 1  
    12   11   12 2  
    13   11   15 am 
    14   13   14 1  
    15   15   16 1  
    16   16   17 1  
    17   16   19 1  
    18   17   18 2  
    19   17   21 am 
    20   19   20 1  
    21   21   22 1  
    22   22   23 1  
    23   22   25 1  
    24   23   24 2  
    25   23   29 am 
    26   25   26 1  
    27   26   27 ar 
    28   26   28 ar 
    29   29   30 1  
    30   30   31 1  
    31   30   33 1  
    32   31   32 2  
    33   31   40 am 
    34   33   34 1  
    35   34   35 1  
    36   35   36 1  
    37   36   37 ar 
    38   37   38 ar 
    39   37   39 ar 
    40   40   41 1  
    41   41   42 1  
    42   42   43 2  
    43   42   44 am 
    44   44   45 1  
    45   45   46 1  
    46   45   48 1  
    47   46   47 2  
    48   46   50 am 
    49   48   49 1  
    50   50   51 1  
    51   51   52 1  
    52   51   54 1  
    53   52   53 2  
    54   52   59 am 
    55   54   55 1  
    56   55   56 1  
    57   56   57 ar 
    58   56   58 ar 
    59   59   60 1  
    60   60   61 1  
    61   60   63 1  
    62   61   62 2  
    63   61   67 am 
    64   63   64 1  
    65   64   65 2  
    66   64   66 am 
    67   67   68 1  
    68   68   69 1  
    69   68   71 1  
    70   69   70 2  
    71   69   78 am 
    72   71   72 1  
    73   72   73 1  
    74   73   74 1  
    75   74   75 ar 
    76   75   76 ar 
    77   75   77 ar 
    78   78   79 1  
    79   79   80 1  
    80   79   82 1  
    81   80   81 2  
    82   80   92 am 
    83   82   83 1  
    84   83   84 2  
    85   83   85 1  
    86   84   86 1  
    87   85   87 ar 
    88   85   88 ar 
    89   86   87 1  
    90   87   89 ar 
    91   88   90 ar 
    92   89   91 ar 
    93   90   91 ar 
    94   92   93 1  
    95   93   94 1  
    96   93   96 1  
    97   94   95 2  
    98   94   98 am 
    99   96   97 1  
   100   98   99 1  
   101   99  100 1  
   102   99  102 1  
   103  100  101 2  
   104  100  107 am 
   105  102  103 1  
   106  103  104 1  
   107  104  105 1  
   108  105  106 1  
   109    1  108 1  
   110    1  109 1  
   111    1  110 1  
   112    2  111 1  
   113    5  112 1  
   114    5  113 1  
   115    6  114 1  
   116    7  115 1  
   117    7  116 1  
   118    7  117 1  
   119    8  118 1  
   120    8  119 1  
   121    8  120 1  
   122    9  121 1  
   123   10  122 1  
   124   13  123 1  
   125   13  124 1  
   126   14  125 1  
   127   15  126 1  
   128   16  127 1  
   129   19  128 1  
   130   19  129 1  
   131   20  130 1  
   132   21  131 1  
   133   22  132 1  
   134   25  133 1  
   135   25  134 1  
   136   29  135 1  
   137   30  136 1  
   138   33  137 1  
   139   33  138 1  
   140   34  139 1  
   141   34  140 1  
   142   35  141 1  
   143   35  142 1  
   144   36  143 1  
   145   38  144 1  
   146   38  145 1  
   147   39  146 1  
   148   39  147 1  
   149   40  148 1  
   150   41  149 1  
   151   41  150 1  
   152   44  151 1  
   153   45  152 1  
   154   48  153 1  
   155   48  154 1  
   156   49  155 1  
   157   50  156 1  
   158   51  157 1  
   159   54  158 1  
   160   54  159 1  
   161   55  160 1  
   162   55  161 1  
   163   59  162 1  
   164   60  163 1  
   165   63  164 1  
   166   63  165 1  
   167   66  166 1  
   168   66  167 1  
   169   67  168 1  
   170   68  169 1  
   171   71  170 1  
   172   71  171 1  
   173   72  172 1  
   174   72  173 1  
   175   73  174 1  
   176   73  175 1  
   177   74  176 1  
   178   76  177 1  
   179   76  178 1  
   180   77  179 1  
   181   77  180 1  
   182   78  181 1  
   183   79  182 1  
   184   82  183 1  
   185   82  184 1  
   186   84  185 1  
   187   86  186 1  
   188   88  187 1  
   189   89  188 1  
   190   90  189 1  
   191   91  190 1  
   192   92  191 1  
   193   93  192 1  
   194   96  193 1  
   195   96  194 1  
   196   97  195 1  
   197   98  196 1  
   198   99  197 1  
   199  102  198 1  
   200  102  199 1  
   201  103  200 1  
   202  103  201 1  
   203  104  202 1  
   204  104  203 1  
   205  105  204 1  
   206  105  205 1  
   207  106  206 1  
   208  106  207 1  
   209  106  208 1  
   210  107  209 1  
   211  107  210 1  
@<TRIPOS>SUBSTRUCTURE
     1 LEU         1

