1pxj_ligand
  -I-interpret- 

 24 25  0  0  0  0  0  0  0  0999 V2000
   14.4000   43.3310   29.0850 C   0  0  0  0  0
   13.9480   43.7450   27.6850 C   0  0  0  0  0
   13.4540   45.2330   27.1460 S   0  0  0  0  0
   13.8950   42.9200   26.7630 N   0  0  0  0  0
   13.4850   43.3560   25.5740 C   0  0  0  0  0
   13.4950   42.3130   24.6240 C   0  0  0  0  0
   13.2010   44.6390   25.5290 C   0  0  0  0  0
   12.7490   45.4560   24.4000 C   0  0  0  0  0
   13.2620   45.2730   23.1870 N   0  0  0  0  0
   11.8000   46.4490   24.6390 C   0  0  0  0  0
   11.4150   47.1810   23.5420 C   0  0  0  0  0
   11.9380   46.9580   22.3100 N   0  0  0  0  0
   12.8270   45.9970   22.2500 C   0  0  0  0  0
   13.3040   45.7030   21.0790 N   0  0  0  0  0
   15.2739   43.9163   29.3712 H   0  0  0  0  0
   13.5922   43.5112   29.7943 H   0  0  0  0  0
   14.6551   42.2713   29.0845 H   0  0  0  0  0
   14.5082   41.9235   24.5246 H   0  0  0  0  0
   12.8288   41.5160   24.9543 H   0  0  0  0  0
   13.1558   42.6965   23.6617 H   0  0  0  0  0
   11.3900   46.6327   25.6321 H   0  0  0  0  0
   10.6671   47.9643   23.6650 H   0  0  0  0  0
   13.9732   44.9399   20.9778 H   0  0  0  0  0
   13.0095   46.2351   20.2601 H   0  0  0  0  0
  1  2  1  0  0  0
  2  3  4  0  0  0
  2  4  4  0  0  0
  3  7  4  0  0  0
  4  5  4  0  0  0
  5  6  1  0  0  0
  5  7  4  0  0  0
  7  8  1  0  0  0
  8  9  4  0  0  0
  8 10  4  0  0  0
  9 13  4  0  0  0
 10 11  4  0  0  0
 11 12  4  0  0  0
 12 13  4  0  0  0
 13 14  1  0  0  0
  1 15  1  0  0  0
  1 16  1  0  0  0
  1 17  1  0  0  0
  6 18  1  0  0  0
  6 19  1  0  0  0
  6 20  1  0  0  0
 10 21  1  0  0  0
 11 22  1  0  0  0
 14 23  1  0  0  0
 14 24  1  0  0  0
M  END
$$$$
