3rsv_ligand
  -I-interpret- 

 65 68  0  0  0  0  0  0  0  0999 V2000
   13.3440  -40.0090   11.6280 C   0  0  0  0  0
   13.3210  -39.0620   12.8280 C   0  0  0  0  0
   12.7680  -39.7660   14.0870 C   0  0  0  0  0
   14.7450  -38.5810   13.0740 C   0  0  0  0  0
   12.5320  -37.8720   12.5010 O   0  0  0  0  0
   11.1650  -38.1240   12.0340 C   0  0  0  0  0
   11.1870  -39.0210   10.7910 C   0  0  0  0  0
   11.9500  -40.3160   11.0670 C   0  0  0  0  0
   12.1620  -41.0320    9.8010 N   0  0  0  0  0
   12.4110  -42.3390    9.7410 C   0  0  0  0  0
   12.4580  -43.0730   10.7230 O   0  0  0  0  0
   12.6630  -42.9000    8.3350 C   0  0  0  0  0
   11.7340  -44.0980    8.1050 C   0  0  0  0  0
   14.1780  -43.2350    8.1380 C   0  0  0  0  0
   15.0050  -41.9540    8.4020 C   0  0  0  0  0
   14.9760  -40.8110    7.5820 C   0  0  0  0  0
   15.6950  -39.7150    7.8810 N   0  0  0  0  0
   14.2470  -40.7750    6.4780 N   0  0  0  0  0
   15.8160  -41.9030    9.5450 C   0  0  0  0  0
   16.5660  -40.7510    9.8340 C   0  0  0  0  0
   17.3910  -40.6690   10.9700 C   0  0  0  0  0
   16.4760  -39.6540    8.9680 C   0  0  0  0  0
   17.2000  -38.4880    9.2190 C   0  0  0  0  0
   18.0200  -38.4130   10.3420 C   0  0  0  0  0
   18.1270  -39.5000   11.2190 C   0  0  0  0  0
   18.9710  -39.3650   12.3280 C   0  0  0  0  0
   18.6330  -38.4410   13.3210 C   0  0  0  0  0
   19.4540  -38.2690   14.4290 C   0  0  0  0  0
   20.6250  -39.0170   14.5500 C   0  0  0  0  0
   20.9830  -39.9380   13.5700 C   0  0  0  0  0
   20.1630  -40.1090   12.4540 C   0  0  0  0  0
   20.6200  -41.1470   11.4130 C   0  0  0  0  0
   13.7786  -40.9513   11.9616 H   0  0  0  0  0
   13.9165  -39.5237   10.8376 H   0  0  0  0  0
   12.8055  -39.0786   14.9321 H   0  0  0  0  0
   11.7362  -40.0688   13.9087 H   0  0  0  0  0
   13.3735  -40.6456   14.3054 H   0  0  0  0  0
   15.1239  -38.0963   12.1742 H   0  0  0  0  0
   14.7494  -37.8703   13.9004 H   0  0  0  0  0
   15.3772  -39.4334   13.3228 H   0  0  0  0  0
   10.6939  -37.1744   11.7804 H   0  0  0  0  0
   10.6043  -38.6232   12.8243 H   0  0  0  0  0
   11.6844  -38.4866    9.9817 H   0  0  0  0  0
   10.1610  -39.2695   10.5197 H   0  0  0  0  0
   11.3685  -40.9044   11.7768 H   0  0  0  0  0
   12.1164  -40.5043    8.9293 H   0  0  0  0  0
   12.4277  -42.1536    7.5763 H   0  0  0  0  0
   11.9409  -44.8651    8.8512 H   0  0  0  0  0
   10.6970  -43.7741    8.1929 H   0  0  0  0  0
   11.9061  -44.5034    7.1079 H   0  0  0  0  0
   14.3514  -43.5857    7.1206 H   0  0  0  0  0
   14.4779  -44.0201    8.8321 H   0  0  0  0  0
   13.6915  -41.5864    6.2070 H   0  0  0  0  0
   14.2407  -39.9359    5.8982 H   0  0  0  0  0
   15.8647  -42.7627   10.2133 H   0  0  0  0  0
   17.4588  -41.5128   11.6567 H   0  0  0  0  0
   17.1241  -37.6395    8.5390 H   0  0  0  0  0
   18.5832  -37.5010   10.5402 H   0  0  0  0  0
   17.7206  -37.8523   13.2257 H   0  0  0  0  0
   19.1831  -37.5504   15.2025 H   0  0  0  0  0
   21.2660  -38.8789   15.4207 H   0  0  0  0  0
   21.8977  -40.5218   13.6735 H   0  0  0  0  0
   19.8655  -41.9288   11.3259 H   0  0  0  0  0
   20.7515  -40.6580   10.4477 H   0  0  0  0  0
   21.5655  -41.5865   11.7309 H   0  0  0  0  0
  1  2  1  0  0  0
  1  8  1  0  0  0
  2  3  1  0  0  0
  2  4  1  0  0  0
  2  5  1  0  0  0
  5  6  1  0  0  0
  6  7  1  0  0  0
  7  8  1  0  0  0
  8  9  1  0  0  0
  9 10  1  0  0  0
 10 11  2  0  0  0
 10 12  1  0  0  0
 12 13  1  0  0  0
 12 14  1  0  0  0
 14 15  1  0  0  0
 15 16  4  0  0  0
 15 19  4  0  0  0
 16 17  4  0  0  0
 16 18  1  0  0  0
 17 22  4  0  0  0
 19 20  4  0  0  0
 20 21  4  0  0  0
 20 22  4  0  0  0
 21 25  4  0  0  0
 22 23  4  0  0  0
 23 24  4  0  0  0
 24 25  4  0  0  0
 25 26  1  0  0  0
 26 27  4  0  0  0
 26 31  4  0  0  0
 27 28  4  0  0  0
 28 29  4  0  0  0
 29 30  4  0  0  0
 30 31  4  0  0  0
 31 32  1  0  0  0
  1 33  1  0  0  0
  1 34  1  0  0  0
  3 35  1  0  0  0
  3 36  1  0  0  0
  3 37  1  0  0  0
  4 38  1  0  0  0
  4 39  1  0  0  0
  4 40  1  0  0  0
  6 41  1  0  0  0
  6 42  1  0  0  0
  7 43  1  0  0  0
  7 44  1  0  0  0
  8 45  1  0  0  0
  9 46  1  0  0  0
 12 47  1  0  0  0
 13 48  1  0  0  0
 13 49  1  0  0  0
 13 50  1  0  0  0
 14 51  1  0  0  0
 14 52  1  0  0  0
 18 53  1  0  0  0
 18 54  1  0  0  0
 19 55  1  0  0  0
 21 56  1  0  0  0
 23 57  1  0  0  0
 24 58  1  0  0  0
 27 59  1  0  0  0
 28 60  1  0  0  0
 29 61  1  0  0  0
 30 62  1  0  0  0
 32 63  1  0  0  0
 32 64  1  0  0  0
 32 65  1  0  0  0
M  END
$$$$
