6erw_ligand
  -I-interpret- 

276277  0  0  0  0  0  0  0  0999 V2000
  -18.4330  -33.0610  -26.4550 N   0  3  0  0  0
  -17.7790  -32.5140  -25.2680 C   0  0  0  0  0
  -16.8730  -31.3350  -25.6030 C   0  0  0  0  0
  -16.5420  -31.1070  -26.7720 O   0  0  0  0  0
  -16.9310  -33.5720  -24.5450 C   0  0  0  0  0
  -15.8040  -33.9080  -25.3550 O   0  0  0  0  0
  -17.7440  -34.8260  -24.3020 C   0  0  0  0  0
  -16.4740  -30.5850  -24.5690 N   0  0  0  0  0
  -15.5660  -29.4650  -24.7910 C   0  0  0  0  0
  -14.2420  -29.9370  -25.3770 C   0  0  0  0  0
  -13.6930  -29.2960  -26.2810 O   0  0  0  0  0
  -15.3180  -28.7060  -23.4900 C   0  0  0  0  0
  -16.5680  -28.2900  -22.9370 O   0  0  0  0  0
  -14.4410  -27.4800  -23.7660 C   0  0  0  0  0
  -13.7170  -31.0600  -24.8780 N   0  0  0  0  0
  -12.4660  -31.5960  -25.4030 C   0  0  0  0  0
  -12.5850  -31.9270  -26.8840 C   0  0  0  0  0
  -11.7090  -31.5750  -27.6830 O   0  0  0  0  0
  -12.0550  -32.8350  -24.6090 C   0  0  0  0  0
  -10.7630  -33.4500  -25.0870 C   0  0  0  0  0
  -10.7470  -34.7080  -25.6960 C   0  0  0  0  0
   -9.5550  -32.7760  -24.9430 C   0  0  0  0  0
   -9.5530  -35.2760  -26.1340 C   0  0  0  0  0
   -8.3600  -33.3300  -25.3730 C   0  0  0  0  0
   -8.3680  -34.5820  -25.9720 C   0  0  0  0  0
   -7.1890  -35.1370  -26.4080 O   0  0  0  0  0
  -13.6610  -32.6240  -27.2690 N   0  0  0  0  0
  -13.8610  -32.9500  -28.6750 C   0  0  0  0  0
  -13.9160  -31.6920  -29.5340 C   0  0  0  0  0
  -13.3420  -31.6590  -30.6310 O   0  0  0  0  0
  -15.1360  -33.7730  -28.8430 C   0  0  0  0  0
  -14.6020  -30.6470  -29.0520 N   0  0  0  0  0
  -14.6010  -29.3670  -29.7590 C   0  0  0  0  0
  -13.1830  -28.8240  -29.9060 C   0  0  0  0  0
  -12.8240  -28.2750  -30.9560 O   0  0  0  0  0
  -15.4790  -28.3440  -29.0260 C   0  0  0  0  0
  -16.9570  -28.7210  -29.0130 C   0  0  0  0  0
  -17.4060  -29.4730  -29.9030 O   0  0  0  0  0
  -17.6720  -28.2450  -28.1040 O   0  0  0  0  0
  -12.3630  -28.9610  -28.8600 N   0  0  0  0  0
  -10.9640  -28.5320  -28.9480 C   0  0  0  0  0
  -10.2250  -29.2950  -30.0450 C   0  0  0  0  0
   -9.5450  -28.6960  -30.8890 O   0  0  0  0  0
  -10.2980  -28.7110  -27.5840 C   0  0  0  0  0
   -8.8210  -28.3990  -27.5470 C   0  0  0  0  0
   -8.3520  -27.1090  -27.7480 C   0  0  0  0  0
   -7.9080  -29.3930  -27.2230 C   0  0  0  0  0
   -6.9830  -26.8260  -27.6770 C   0  0  0  0  0
   -6.5400  -29.1180  -27.1520 C   0  0  0  0  0
   -6.0800  -27.8310  -27.3700 C   0  0  0  0  0
  -10.3650  -30.6190  -30.0650 N   0  0  0  0  0
   -9.7780  -31.4100  -31.1460 C   0  0  0  0  0
  -10.2790  -30.9110  -32.4960 C   0  0  0  0  0
   -9.4970  -30.7000  -33.4290 O   0  0  0  0  0
  -10.0820  -32.9050  -30.9480 C   0  0  0  0  0
   -9.6020  -33.3710  -29.5700 C   0  0  0  0  0
   -9.4430  -33.7200  -32.0450 C   0  0  0  0  0
   -8.1560  -33.0290  -29.2720 C   0  0  0  0  0
  -11.5910  -30.6830  -32.6080 N   0  0  0  0  0
  -12.1670  -30.2580  -33.8790 C   0  0  0  0  0
  -11.7360  -28.8540  -34.2810 C   0  0  0  0  0
  -11.8120  -28.5170  -35.4670 O   0  0  0  0  0
  -13.6930  -30.3300  -33.8200 C   0  0  0  0  0
  -11.2790  -28.0340  -33.3320 N   0  0  0  0  0
  -10.8940  -26.6640  -33.6490 C   0  0  0  0  0
   -9.6480  -26.5880  -34.5200 C   0  0  0  0  0
   -9.4030  -25.5470  -35.1340 O   0  0  0  0  0
  -10.6340  -25.8710  -32.3670 C   0  0  0  0  0
   -9.3230  -26.1330  -31.8850 O   0  0  0  0  0
   -8.8340  -27.6370  -34.5510 N   0  0  0  0  0
   -7.5700  -27.5720  -35.2500 C   0  0  0  0  0
   -6.4760  -26.7790  -34.5600 C   0  0  0  0  0
   -5.3880  -26.6420  -35.1250 O   0  0  0  0  0
   -6.7150  -26.2430  -33.3680 N   0  0  0  0  0
   -5.7040  -25.4580  -32.6620 C   0  0  0  0  0
   -5.1200  -26.2350  -31.4850 C   0  0  0  0  0
   -4.9230  -25.6980  -30.3880 O   0  0  0  0  0
   -6.2770  -24.1120  -32.2170 C   0  0  0  0  0
   -6.5940  -23.2130  -33.4230 C   0  0  0  0  0
   -7.0830  -21.8470  -33.0060 C   0  0  0  0  0
   -6.0570  -21.0270  -32.3570 N   0  0  0  0  0
   -5.1700  -20.2830  -33.0120 C   0  0  0  0  0
   -5.1580  -20.2760  -34.3480 N   0  0  0  0  0
   -4.2870  -19.5580  -32.3340 N   0  0  0  0  0
   -4.8230  -27.5090  -31.7240 N   0  0  0  0  0
   -4.2510  -28.4000  -30.7220 C   0  0  0  0  0
   -2.7220  -28.4650  -30.7680 C   0  0  0  0  0
   -2.1090  -28.9670  -29.8140 O   0  0  0  0  0
   -4.8330  -29.8070  -30.9070 C   0  0  0  0  0
   -4.6020  -30.2500  -32.2510 O   0  0  0  0  0
   -6.3280  -29.8000  -30.6520 C   0  0  0  0  0
   -2.1000  -27.9930  -31.8510 N   0  0  0  0  0
   -0.6560  -27.9460  -31.9670 C   0  0  0  0  0
   -0.0900  -26.6410  -31.4370 C   0  0  0  0  0
   -0.7620  -25.8700  -30.7500 O   0  0  0  0  0
    1.1770  -26.3880  -31.7720 N   0  0  0  0  0
    1.8340  -25.1860  -31.2690 C   0  0  0  0  0
    1.2070  -23.9470  -31.8790 C   0  0  0  0  0
    0.9200  -23.9010  -33.0780 O   0  0  0  0  0
    3.3330  -25.2150  -31.5720 C   0  0  0  0  0
    4.0730  -26.3500  -30.8760 C   0  0  0  0  0
    5.5740  -26.1180  -30.8350 C   0  0  0  0  0
    6.1890  -27.0050  -29.8610 N   0  0  0  0  0
    6.5160  -28.2680  -30.1050 C   0  0  0  0  0
    6.2920  -28.7890  -31.3030 N   0  0  0  0  0
    7.0640  -29.0100  -29.1500 N   0  0  0  0  0
    0.9910  -22.9350  -31.0490 N   0  0  0  0  0
    0.2500  -21.7540  -31.4620 C   0  0  0  0  0
    1.2070  -20.6010  -31.7100 C   0  0  0  0  0
    2.0780  -20.3230  -30.8820 O   0  0  0  0  0
   -0.7760  -21.3690  -30.4030 C   0  0  0  0  0
   -1.9100  -22.3420  -30.3050 C   0  0  0  0  0
   -2.5630  -22.2520  -28.9430 C   0  0  0  0  0
   -1.6730  -22.7740  -27.8980 N   0  0  0  0  0
   -2.0970  -23.2930  -26.7510 C   0  0  0  0  0
   -3.4020  -23.3650  -26.4970 N   0  0  0  0  0
   -1.2260  -23.7440  -25.8590 N   0  0  0  0  0
    1.0330  -19.9250  -32.8360 N   0  0  0  0  0
    1.8870  -18.7940  -33.1570 C   0  0  0  0  0
    1.3150  -17.5140  -32.5640 C   0  0  0  0  0
    0.0980  -17.3740  -32.3940 O   0  0  0  0  0
    2.0500  -18.6440  -34.6700 C   0  0  0  0  0
    2.9050  -19.7390  -35.2730 C   0  0  0  0  0
    2.6550  -20.1950  -36.3870 O   0  0  0  0  0
    3.9250  -20.1630  -34.5390 N   0  0  0  0  0
    2.2130  -16.5900  -32.2210 N   0  0  0  0  0
    1.7990  -15.2410  -31.8770 C   0  0  0  0  0
    1.1420  -14.5800  -33.0830 C   0  0  0  0  0
    1.3350  -14.9920  -34.2330 O   0  0  0  0  0
    2.9930  -14.4080  -31.4160 C   0  0  0  0  0
    0.3580  -13.5400  -32.8140 N   0  0  0  0  0
   -0.3600  -12.8330  -33.8770 C   0  0  0  0  0
    0.5740  -11.9170  -34.6460 C   0  0  0  0  0
    1.6570  -11.5930  -34.1620 O   0  0  0  0  0
   -1.5370  -12.0260  -33.3210 C   0  0  0  0  0
   -1.0310  -10.9610  -32.3470 C   0  0  0  0  0
   -2.5300  -12.9490  -32.6450 C   0  0  0  0  0
   -2.1380  -10.2100  -31.6320 C   0  0  0  0  0
    0.2590  -11.4780  -35.7560 O   0  0  0  0  0
  -18.9842  -32.3303  -26.9052 H   0  0  0  0  0
  -17.7249  -33.4033  -27.1045 H   0  0  0  0  0
  -19.0447  -33.8298  -26.1808 H   0  0  0  0  0
  -18.5876  -32.1793  -24.6183 H   0  0  0  0  0
  -16.6044  -33.1633  -23.5888 H   0  0  0  0  0
  -15.2805  -33.1195  -25.5158 H   0  0  0  0  0
  -18.0804  -35.2301  -25.2568 H   0  0  0  0  0
  -17.1264  -35.5645  -23.7908 H   0  0  0  0  0
  -18.6084  -34.5830  -23.6841 H   0  0  0  0  0
  -16.8042  -30.7961  -23.6273 H   0  0  0  0  0
  -16.0395  -28.7938  -25.5075 H   0  0  0  0  0
  -14.8074  -29.3582  -22.7814 H   0  0  0  0  0
  -16.4117  -27.8127  -22.1189 H   0  0  0  0  0
  -13.4875  -27.8035  -24.1836 H   0  0  0  0  0
  -14.9467  -26.8255  -24.4760 H   0  0  0  0  0
  -14.2672  -26.9420  -22.8341 H   0  0  0  0  0
  -14.1965  -31.5479  -24.1214 H   0  0  0  0  0
  -11.6957  -30.8324  -25.2951 H   0  0  0  0  0
  -12.8401  -33.5808  -24.7332 H   0  0  0  0  0
  -11.9101  -32.5288  -23.5730 H   0  0  0  0  0
  -11.6819  -35.2521  -25.8300 H   0  0  0  0  0
   -9.5482  -31.7888  -24.4810 H   0  0  0  0  0
   -9.5527  -36.2608  -26.6012 H   0  0  0  0  0
   -7.4233  -32.7882  -25.2422 H   0  0  0  0  0
   -6.4652  -34.5341  -26.2232 H   0  0  0  0  0
  -14.3439  -32.9282  -26.5751 H   0  0  0  0  0
  -13.0100  -33.5414  -29.0129 H   0  0  0  0  0
  -15.0498  -34.6954  -28.2687 H   0  0  0  0  0
  -15.9886  -33.1974  -28.4825 H   0  0  0  0  0
  -15.2766  -34.0116  -29.8972 H   0  0  0  0  0
  -15.1295  -30.7451  -28.1845 H   0  0  0  0  0
  -15.0115  -29.5365  -30.7544 H   0  0  0  0  0
  -15.3852  -27.3927  -29.5497 H   0  0  0  0  0
  -15.1403  -28.2993  -27.9909 H   0  0  0  0  0
  -17.1333  -27.6970  -27.5286 H   0  0  0  0  0
  -12.7135  -29.3676  -27.9927 H   0  0  0  0  0
  -10.9238  -27.4771  -29.2195 H   0  0  0  0  0
  -10.4034  -29.7630  -27.3187 H   0  0  0  0  0
  -10.7837  -28.0119  -26.9032 H   0  0  0  0  0
   -9.0576  -26.3067  -27.9637 H   0  0  0  0  0
   -8.2636  -30.4033  -27.0209 H   0  0  0  0  0
   -6.6266  -25.8129  -27.8636 H   0  0  0  0  0
   -5.8347  -29.9174  -26.9248 H   0  0  0  0  0
   -5.0150  -27.6096  -27.3007 H   0  0  0  0  0
  -10.8852  -31.0847  -29.3214 H   0  0  0  0  0
   -8.6949  -31.2892  -31.1250 H   0  0  0  0  0
  -11.1609  -33.0520  -30.9985 H   0  0  0  0  0
   -9.6881  -34.4574  -29.5483 H   0  0  0  0  0
  -10.2143  -32.8622  -28.8255 H   0  0  0  0  0
   -9.8376  -33.4011  -33.0097 H   0  0  0  0  0
   -8.3635  -33.5705  -32.0252 H   0  0  0  0  0
   -9.6678  -34.7752  -31.8899 H   0  0  0  0  0
   -7.5120  -33.5010  -30.0140 H   0  0  0  0  0
   -8.0244  -31.9476  -29.3102 H   0  0  0  0  0
   -7.8952  -33.3932  -28.2783 H   0  0  0  0  0
  -12.1960  -30.8075  -31.7963 H   0  0  0  0  0
  -11.7907  -30.9438  -34.6380 H   0  0  0  0  0
  -13.9994  -31.3557  -33.6149 H   0  0  0  0  0
  -14.0560  -29.6756  -33.0274 H   0  0  0  0  0
  -14.1078  -30.0098  -34.7758 H   0  0  0  0  0
  -11.1981  -28.3703  -32.3724 H   0  0  0  0  0
  -11.7281  -26.2365  -34.2054 H   0  0  0  0  0
  -11.3588  -26.1696  -31.6097 H   0  0  0  0  0
  -10.7294  -24.8064  -32.5805 H   0  0  0  0  0
   -9.1723  -25.6301  -31.0812 H   0  0  0  0  0
   -9.1037  -28.4985  -34.0762 H   0  0  0  0  0
   -7.7664  -27.0679  -36.1963 H   0  0  0  0  0
   -7.2067  -28.5968  -35.3264 H   0  0  0  0  0
   -7.6275  -26.3829  -32.9343 H   0  0  0  0  0
   -4.8861  -25.2597  -33.3547 H   0  0  0  0  0
   -5.5371  -23.6089  -31.5945 H   0  0  0  0  0
   -7.2006  -24.2930  -31.6672 H   0  0  0  0  0
   -7.3823  -23.6918  -34.0039 H   0  0  0  0  0
   -5.6774  -23.0831  -33.9983 H   0  0  0  0  0
   -7.8866  -21.9947  -32.2846 H   0  0  0  0  0
   -7.3958  -21.3231  -33.9092 H   0  0  0  0  0
   -6.0205  -21.0266  -31.3377 H   0  0  0  0  0
   -4.4702  -19.7135  -34.8489 H   0  0  0  0  0
   -5.8366  -20.8332  -34.8670 H   0  0  0  0  0
   -4.2905  -19.5729  -31.3141 H   0  0  0  0  0
   -5.0047  -27.8817  -32.6559 H   0  0  0  0  0
   -4.5153  -27.9939  -29.7456 H   0  0  0  0  0
   -4.3464  -30.4770  -30.1981 H   0  0  0  0  0
   -4.9673  -31.1306  -32.3637 H   0  0  0  0  0
   -6.5197  -29.4678  -29.6317 H   0  0  0  0  0
   -6.8118  -29.1205  -31.3537 H   0  0  0  0  0
   -6.7232  -30.8067  -30.7880 H   0  0  0  0  0
   -2.6643  -27.6513  -32.6289 H   0  0  0  0  0
   -0.3941  -28.0297  -33.0218 H   0  0  0  0  0
   -0.2384  -28.7640  -31.3800 H   0  0  0  0  0
    1.6845  -27.0329  -32.3778 H   0  0  0  0  0
    1.7008  -25.1565  -30.1876 H   0  0  0  0  0
    3.7578  -24.2781  -31.2117 H   0  0  0  0  0
    3.4469  -25.3604  -32.6462 H   0  0  0  0  0
    3.8872  -27.2678  -31.4339 H   0  0  0  0  0
    3.7115  -26.4108  -29.8495 H   0  0  0  0  0
    5.7690  -25.0839  -30.5510 H   0  0  0  0  0
    5.9948  -26.3207  -31.8199 H   0  0  0  0  0
    6.3814  -26.6330  -28.9309 H   0  0  0  0  0
    5.8689  -28.2195  -32.0358 H   0  0  0  0  0
    7.3127  -29.9812  -29.3382 H   0  0  0  0  0
    7.2363  -28.6089  -28.2281 H   0  0  0  0  0
    1.3538  -22.9866  -30.0971 H   0  0  0  0  0
   -0.2793  -21.9805  -32.3876 H   0  0  0  0  0
   -1.1926  -20.4009  -30.6811 H   0  0  0  0  0
   -0.2678  -21.3535  -29.4388 H   0  0  0  0  0
   -1.5259  -23.3518  -30.4495 H   0  0  0  0  0
   -2.6491  -22.1053  -31.0703 H   0  0  0  0  0
   -3.4769  -22.8459  -28.9531 H   0  0  0  0  0
   -2.7801  -21.2058  -28.7274 H   0  0  0  0  0
   -0.6672  -22.7357  -28.0631 H   0  0  0  0  0
   -3.7291  -23.7663  -25.6182 H   0  0  0  0  0
   -4.0746  -23.0189  -27.1812 H   0  0  0  0  0
   -0.2257  -23.6933  -26.0521 H   0  0  0  0  0
    0.2938  -20.2006  -33.4826 H   0  0  0  0  0
    2.8695  -18.9782  -32.7224 H   0  0  0  0  0
    2.5408  -17.6899  -34.8623 H   0  0  0  0  0
    1.0600  -18.7030  -35.1222 H   0  0  0  0  0
    4.5390  -20.8960  -34.8942 H   0  0  0  0  0
    4.0955  -19.7561  -33.6193 H   0  0  0  0  0
    3.2033  -16.8336  -32.1999 H   0  0  0  0  0
    1.0820  -15.2978  -31.0580 H   0  0  0  0  0
    3.4416  -14.8731  -30.5382 H   0  0  0  0  0
    3.7296  -14.3564  -32.2178 H   0  0  0  0  0
    2.6571  -13.4021  -31.1642 H   0  0  0  0  0
    0.2546  -13.2285  -31.8482 H   0  0  0  0  0
   -0.7536  -13.5891  -34.5563 H   0  0  0  0  0
   -2.0445  -11.5232  -34.1442 H   0  0  0  0  0
   -0.4658  -10.2318  -32.9275 H   0  0  0  0  0
   -0.4400  -11.4708  -31.5861 H   0  0  0  0  0
   -2.9030  -13.6727  -33.3697 H   0  0  0  0  0
   -2.0374  -13.4736  -31.8263 H   0  0  0  0  0
   -3.3615  -12.3625  -32.2543 H   0  0  0  0  0
   -2.7662   -9.7056  -32.3663 H   0  0  0  0  0
   -2.7410  -10.9138  -31.0583 H   0  0  0  0  0
   -1.6995   -9.4728  -30.9594 H   0  0  0  0  0
   -0.6061  -11.8160  -35.9988 H   0  0  0  0  0
  1  2  1  0  0  0
  2  3  1  0  0  0
  2  5  1  0  0  0
  3  4  2  0  0  0
  3  8  1  0  0  0
  5  6  1  0  0  0
  5  7  1  0  0  0
  8  9  1  0  0  0
  9 10  1  0  0  0
  9 12  1  0  0  0
 10 11  2  0  0  0
 10 15  1  0  0  0
 12 13  1  0  0  0
 12 14  1  0  0  0
 15 16  1  0  0  0
 16 17  1  0  0  0
 16 19  1  0  0  0
 17 18  2  0  0  0
 17 27  1  0  0  0
 19 20  1  0  0  0
 20 21  4  0  0  0
 20 22  4  0  0  0
 21 23  4  0  0  0
 22 24  4  0  0  0
 23 25  4  0  0  0
 24 25  4  0  0  0
 25 26  1  0  0  0
 27 28  1  0  0  0
 28 29  1  0  0  0
 28 31  1  0  0  0
 29 30  2  0  0  0
 29 32  1  0  0  0
 32 33  1  0  0  0
 33 34  1  0  0  0
 33 36  1  0  0  0
 34 35  2  0  0  0
 34 40  1  0  0  0
 36 37  1  0  0  0
 37 38  2  0  0  0
 37 39  1  0  0  0
 40 41  1  0  0  0
 41 42  1  0  0  0
 41 44  1  0  0  0
 42 43  2  0  0  0
 42 51  1  0  0  0
 44 45  1  0  0  0
 45 46  4  0  0  0
 45 47  4  0  0  0
 46 48  4  0  0  0
 47 49  4  0  0  0
 48 50  4  0  0  0
 49 50  4  0  0  0
 51 52  1  0  0  0
 52 53  1  0  0  0
 52 55  1  0  0  0
 53 54  2  0  0  0
 53 59  1  0  0  0
 55 56  1  0  0  0
 55 57  1  0  0  0
 56 58  1  0  0  0
 59 60  1  0  0  0
 60 61  1  0  0  0
 60 63  1  0  0  0
 61 62  2  0  0  0
 61 64  1  0  0  0
 64 65  1  0  0  0
 65 66  1  0  0  0
 65 68  1  0  0  0
 66 67  2  0  0  0
 66 70  1  0  0  0
 68 69  1  0  0  0
 70 71  1  0  0  0
 71 72  1  0  0  0
 72 73  2  0  0  0
 72 74  1  0  0  0
 74 75  1  0  0  0
 75 76  1  0  0  0
 75 78  1  0  0  0
 76 77  2  0  0  0
 76 85  1  0  0  0
 78 79  1  0  0  0
 79 80  1  0  0  0
 80 81  1  0  0  0
 81 82  1  0  0  0
 82 83  1  0  0  0
 82 84  2  0  0  0
 85 86  1  0  0  0
 86 87  1  0  0  0
 86 89  1  0  0  0
 87 88  2  0  0  0
 87 92  1  0  0  0
 89 90  1  0  0  0
 89 91  1  0  0  0
 92 93  1  0  0  0
 93 94  1  0  0  0
 94 95  2  0  0  0
 94 96  1  0  0  0
 96 97  1  0  0  0
 97 98  1  0  0  0
 97100  1  0  0  0
 98 99  2  0  0  0
 98107  1  0  0  0
100101  1  0  0  0
101102  1  0  0  0
102103  1  0  0  0
103104  1  0  0  0
104105  2  0  0  0
104106  1  0  0  0
107108  1  0  0  0
108109  1  0  0  0
108111  1  0  0  0
109110  2  0  0  0
109118  1  0  0  0
111112  1  0  0  0
112113  1  0  0  0
113114  1  0  0  0
114115  1  0  0  0
115116  1  0  0  0
115117  2  0  0  0
118119  1  0  0  0
119120  1  0  0  0
119122  1  0  0  0
120121  2  0  0  0
120126  1  0  0  0
122123  1  0  0  0
123124  2  0  0  0
123125  1  0  0  0
126127  1  0  0  0
127128  1  0  0  0
127130  1  0  0  0
128129  2  0  0  0
128131  1  0  0  0
131132  1  0  0  0
132133  1  0  0  0
132135  1  0  0  0
133134  2  0  0  0
133139  1  0  0  0
135136  1  0  0  0
135137  1  0  0  0
136138  1  0  0  0
  1140  1  0  0  0
  1141  1  0  0  0
  1142  1  0  0  0
  2143  1  0  0  0
  5144  1  0  0  0
  6145  1  0  0  0
  7146  1  0  0  0
  7147  1  0  0  0
  7148  1  0  0  0
  8149  1  0  0  0
  9150  1  0  0  0
 12151  1  0  0  0
 13152  1  0  0  0
 14153  1  0  0  0
 14154  1  0  0  0
 14155  1  0  0  0
 15156  1  0  0  0
 16157  1  0  0  0
 19158  1  0  0  0
 19159  1  0  0  0
 21160  1  0  0  0
 22161  1  0  0  0
 23162  1  0  0  0
 24163  1  0  0  0
 26164  1  0  0  0
 27165  1  0  0  0
 28166  1  0  0  0
 31167  1  0  0  0
 31168  1  0  0  0
 31169  1  0  0  0
 32170  1  0  0  0
 33171  1  0  0  0
 36172  1  0  0  0
 36173  1  0  0  0
 39174  1  0  0  0
 40175  1  0  0  0
 41176  1  0  0  0
 44177  1  0  0  0
 44178  1  0  0  0
 46179  1  0  0  0
 47180  1  0  0  0
 48181  1  0  0  0
 49182  1  0  0  0
 50183  1  0  0  0
 51184  1  0  0  0
 52185  1  0  0  0
 55186  1  0  0  0
 56187  1  0  0  0
 56188  1  0  0  0
 57189  1  0  0  0
 57190  1  0  0  0
 57191  1  0  0  0
 58192  1  0  0  0
 58193  1  0  0  0
 58194  1  0  0  0
 59195  1  0  0  0
 60196  1  0  0  0
 63197  1  0  0  0
 63198  1  0  0  0
 63199  1  0  0  0
 64200  1  0  0  0
 65201  1  0  0  0
 68202  1  0  0  0
 68203  1  0  0  0
 69204  1  0  0  0
 70205  1  0  0  0
 71206  1  0  0  0
 71207  1  0  0  0
 74208  1  0  0  0
 75209  1  0  0  0
 78210  1  0  0  0
 78211  1  0  0  0
 79212  1  0  0  0
 79213  1  0  0  0
 80214  1  0  0  0
 80215  1  0  0  0
 81216  1  0  0  0
 83217  1  0  0  0
 83218  1  0  0  0
 84219  1  0  0  0
 85220  1  0  0  0
 86221  1  0  0  0
 89222  1  0  0  0
 90223  1  0  0  0
 91224  1  0  0  0
 91225  1  0  0  0
 91226  1  0  0  0
 92227  1  0  0  0
 93228  1  0  0  0
 93229  1  0  0  0
 96230  1  0  0  0
 97231  1  0  0  0
100232  1  0  0  0
100233  1  0  0  0
101234  1  0  0  0
101235  1  0  0  0
102236  1  0  0  0
102237  1  0  0  0
103238  1  0  0  0
105239  1  0  0  0
106240  1  0  0  0
106241  1  0  0  0
107242  1  0  0  0
108243  1  0  0  0
111244  1  0  0  0
111245  1  0  0  0
112246  1  0  0  0
112247  1  0  0  0
113248  1  0  0  0
113249  1  0  0  0
114250  1  0  0  0
116251  1  0  0  0
116252  1  0  0  0
117253  1  0  0  0
118254  1  0  0  0
119255  1  0  0  0
122256  1  0  0  0
122257  1  0  0  0
125258  1  0  0  0
125259  1  0  0  0
126260  1  0  0  0
127261  1  0  0  0
130262  1  0  0  0
130263  1  0  0  0
130264  1  0  0  0
131265  1  0  0  0
132266  1  0  0  0
135267  1  0  0  0
136268  1  0  0  0
136269  1  0  0  0
137270  1  0  0  0
137271  1  0  0  0
137272  1  0  0  0
138273  1  0  0  0
138274  1  0  0  0
138275  1  0  0  0
139276  1  0  0  0
M  END
$$$$
