### 
### Created by X-TOOL on Mon Aug  2 16:10:42 2021
### 

@<TRIPOS>MOLECULE
6erw_ligand
  277   278     1     0     0
SMALL
GAST_HUCK


@<TRIPOS>ATOM
      1 N         -18.4330  -33.0610  -26.4550 N.4       1 THR         0.2398
      2 CA        -17.7790  -32.5140  -25.2680 C.3       1 THR         0.0910
      3 C         -16.8730  -31.3350  -25.6030 C.2       1 THR         0.2293
      4 O         -16.5420  -31.1070  -26.7720 O.2       1 THR        -0.3906
      5 CB        -16.9310  -33.5720  -24.5450 C.3       1 THR         0.1120
      6 OG1       -15.8040  -33.9080  -25.3550 O.3       1 THR        -0.3840
      7 CG2       -17.7440  -34.8260  -24.3020 C.3       1 THR        -0.0314
      8 N         -16.4740  -30.5850  -24.5690 N.am      1 THR        -0.2585
      9 CA        -15.5660  -29.4650  -24.7910 C.3       1 THR         0.1566
     10 C         -14.2420  -29.9370  -25.3770 C.2       1 THR         0.2066
     11 O         -13.6930  -29.2960  -26.2810 O.2       1 THR        -0.3943
     12 CB        -15.3180  -28.7060  -23.4900 C.3       1 THR         0.0924
     13 OG1       -16.5680  -28.2900  -22.9370 O.3       1 THR        -0.3874
     14 CG2       -14.4410  -27.4800  -23.7660 C.3       1 THR        -0.0346
     15 N         -13.7170  -31.0600  -24.8780 N.am      1 THR        -0.2621
     16 CA        -12.4660  -31.5960  -25.4030 C.3       1 THR         0.1390
     17 C         -12.5850  -31.9270  -26.8840 C.2       1 THR         0.2057
     18 O         -11.7090  -31.5750  -27.6830 O.2       1 THR        -0.3942
     19 CB        -12.0550  -32.8350  -24.6090 C.3       1 THR         0.0163
     20 CG        -10.7630  -33.4500  -25.0870 C.ar      1 THR        -0.0493
     21 CD1       -10.7470  -34.7080  -25.6960 C.ar      1 THR        -0.0685
     22 CD2        -9.5550  -32.7760  -24.9430 C.ar      1 THR        -0.0685
     23 CE1        -9.5530  -35.2760  -26.1340 C.ar      1 THR        -0.0398
     24 CE2        -8.3600  -33.3300  -25.3730 C.ar      1 THR        -0.0398
     25 CZ         -8.3680  -34.5820  -25.9720 C.ar      1 THR         0.0805
     26 OH         -7.1890  -35.1370  -26.4080 O.3       1 THR        -0.3376
     27 N         -13.6610  -32.6240  -27.2690 N.am      1 THR        -0.2639
     28 CA        -13.8610  -32.9500  -28.6750 C.3       1 THR         0.1282
     29 C         -13.9160  -31.6920  -29.5340 C.2       1 THR         0.2037
     30 O         -13.3420  -31.6590  -30.6310 O.2       1 THR        -0.3944
     31 CB        -15.1360  -33.7730  -28.8430 C.3       1 THR        -0.0244
     32 N         -14.6020  -30.6470  -29.0520 N.am      1 THR        -0.2622
     33 CA        -14.6010  -29.3670  -29.7590 C.3       1 THR         0.1423
     34 C         -13.1830  -28.8240  -29.9060 C.2       1 THR         0.2057
     35 O         -12.8240  -28.2750  -30.9560 O.2       1 THR        -0.3943
     36 CB        -15.4790  -28.3440  -29.0260 C.3       1 THR         0.0406
     37 CG        -16.9570  -28.7210  -29.0130 C.2       1 THR         0.0393
     38 OD1       -17.4060  -29.4730  -29.9030 O.co2     1 THR        -0.5688
     39 OD2       -17.6720  -28.2450  -28.1040 O.co2     1 THR        -0.5688
     40 N         -12.3630  -28.9610  -28.8600 N.am      1 THR        -0.2618
     41 CA        -10.9640  -28.5320  -28.9480 C.3       1 THR         0.1404
     42 C         -10.2250  -29.2950  -30.0450 C.2       1 THR         0.2060
     43 O          -9.5450  -28.6960  -30.8890 O.2       1 THR        -0.3942
     44 CB        -10.2980  -28.7110  -27.5840 C.3       1 THR         0.0214
     45 CG         -8.8210  -28.3990  -27.5470 C.ar      1 THR        -0.0386
     46 CD1        -8.3520  -27.1090  -27.7480 C.ar      1 THR        -0.0601
     47 CD2        -7.9080  -29.3930  -27.2230 C.ar      1 THR        -0.0601
     48 CE1        -6.9830  -26.8260  -27.6770 C.ar      1 THR        -0.0686
     49 CE2        -6.5400  -29.1180  -27.1520 C.ar      1 THR        -0.0686
     50 CZ         -6.0800  -27.8310  -27.3700 C.ar      1 THR        -0.0687
     51 N         -10.3650  -30.6190  -30.0650 N.am      1 THR        -0.2633
     52 CA         -9.7780  -31.4100  -31.1460 C.3       1 THR         0.1335
     53 C         -10.2790  -30.9110  -32.4960 C.2       1 THR         0.2041
     54 O          -9.4970  -30.7000  -33.4290 O.2       1 THR        -0.3944
     55 CB        -10.0820  -32.9050  -30.9480 C.3       1 THR        -0.0037
     56 CG1        -9.6020  -33.3710  -29.5700 C.3       1 THR        -0.0491
     57 CG2        -9.4430  -33.7200  -32.0450 C.3       1 THR        -0.0582
     58 CD1        -8.1560  -33.0290  -29.2720 C.3       1 THR        -0.0648
     59 N         -11.5910  -30.6830  -32.6080 N.am      1 THR        -0.2640
     60 CA        -12.1670  -30.2580  -33.8790 C.3       1 THR         0.1282
     61 C         -11.7360  -28.8540  -34.2810 C.2       1 THR         0.2037
     62 O         -11.8120  -28.5170  -35.4670 O.2       1 THR        -0.3944
     63 CB        -13.6930  -30.3300  -33.8200 C.3       1 THR        -0.0244
     64 N         -11.2790  -28.0340  -33.3320 N.am      1 THR        -0.2616
     65 CA        -10.8940  -26.6640  -33.6490 C.3       1 THR         0.1539
     66 C          -9.6480  -26.5880  -34.5200 C.2       1 THR         0.2060
     67 O          -9.4030  -25.5470  -35.1340 O.2       1 THR        -0.3943
     68 CB        -10.6340  -25.8710  -32.3670 C.3       1 THR         0.0843
     69 OG         -9.3230  -26.1330  -31.8850 O.3       1 THR        -0.3903
     70 N          -8.8340  -27.6370  -34.5510 N.am      1 THR        -0.2663
     71 CA         -7.5700  -27.5720  -35.2500 C.3       1 THR         0.1201
     72 C          -6.4760  -26.7790  -34.5600 C.2       1 THR         0.2007
     73 O          -5.3880  -26.6420  -35.1250 O.2       1 THR        -0.3947
     74 N          -6.7150  -26.2430  -33.3680 N.am      1 THR        -0.2640
     75 CA         -5.7040  -25.4580  -32.6620 C.3       1 THR         0.1311
     76 C          -5.1200  -26.2350  -31.4850 C.2       1 THR         0.2040
     77 O          -4.9230  -25.6980  -30.3880 O.2       1 THR        -0.3944
     78 CB         -6.2770  -24.1120  -32.2170 C.3       1 THR        -0.0092
     79 CG         -6.5940  -23.2130  -33.4230 C.3       1 THR        -0.0156
     80 CD         -7.0830  -21.8470  -33.0060 C.3       1 THR         0.0627
     81 NE         -6.0570  -21.0270  -32.3570 N.pl3     1 THR        -0.2723
     82 CZ         -5.1700  -20.2830  -33.0120 C.cat     1 THR         0.2882
     83 NH1        -5.1580  -20.2760  -34.3480 N.pl3     1 THR        -0.2849
     84 NH2        -4.2870  -19.5580  -32.3340 N.pl3     1 THR        -0.2849
     85 N          -4.8230  -27.5090  -31.7240 N.am      1 THR        -0.2613
     86 CA         -4.2510  -28.4000  -30.7220 C.3       1 THR         0.1565
     87 C          -2.7220  -28.4650  -30.7680 C.2       1 THR         0.2063
     88 O          -2.1090  -28.9670  -29.8140 O.2       1 THR        -0.3943
     89 CB         -4.8330  -29.8070  -30.9070 C.3       1 THR         0.0924
     90 OG1        -4.6020  -30.2500  -32.2510 O.3       1 THR        -0.3874
     91 CG2        -6.3280  -29.8000  -30.6520 C.3       1 THR        -0.0346
     92 N          -2.1000  -27.9930  -31.8510 N.am      1 THR        -0.2663
     93 CA         -0.6560  -27.9460  -31.9670 C.3       1 THR         0.1201
     94 C          -0.0900  -26.6410  -31.4370 C.2       1 THR         0.2007
     95 O          -0.7620  -25.8700  -30.7500 O.2       1 THR        -0.3947
     96 N           1.1770  -26.3880  -31.7720 N.am      1 THR        -0.2640
     97 CA          1.8340  -25.1860  -31.2690 C.3       1 THR         0.1311
     98 C           1.2070  -23.9470  -31.8790 C.2       1 THR         0.2039
     99 O           0.9200  -23.9010  -33.0780 O.2       1 THR        -0.3944
    100 CB          3.3330  -25.2150  -31.5720 C.3       1 THR        -0.0092
    101 CG          4.0730  -26.3500  -30.8760 C.3       1 THR        -0.0156
    102 CD          5.5740  -26.1180  -30.8350 C.3       1 THR         0.0627
    103 NE          6.1890  -27.0050  -29.8610 N.pl3     1 THR        -0.2723
    104 CZ          6.5160  -28.2680  -30.1050 C.cat     1 THR         0.2882
    105 NH1         6.2920  -28.7890  -31.3030 N.pl3     1 THR        -0.2849
    106 NH2         7.0640  -29.0100  -29.1500 N.pl3     1 THR        -0.2849
    107 N           0.9910  -22.9350  -31.0490 N.am      1 THR        -0.2637
    108 CA          0.2500  -21.7540  -31.4620 C.3       1 THR         0.1311
    109 C           1.2070  -20.6010  -31.7100 C.2       1 THR         0.2040
    110 O           2.0780  -20.3230  -30.8820 O.2       1 THR        -0.3944
    111 CB         -0.7760  -21.3690  -30.4030 C.3       1 THR        -0.0092
    112 CG         -1.9100  -22.3420  -30.3050 C.3       1 THR        -0.0156
    113 CD         -2.5630  -22.2520  -28.9430 C.3       1 THR         0.0627
    114 NE         -1.6730  -22.7740  -27.8980 N.pl3     1 THR        -0.2723
    115 CZ         -2.0970  -23.2930  -26.7510 C.cat     1 THR         0.2882
    116 NH1        -3.4020  -23.3650  -26.4970 N.pl3     1 THR        -0.2849
    117 NH2        -1.2260  -23.7440  -25.8590 N.pl3     1 THR        -0.2849
    118 N           1.0330  -19.9250  -32.8360 N.am      1 THR        -0.2616
    119 CA          1.8870  -18.7940  -33.1570 C.3       1 THR         0.1476
    120 C           1.3150  -17.5140  -32.5640 C.2       1 THR         0.2062
    121 O           0.0980  -17.3740  -32.3940 O.2       1 THR        -0.3942
    122 CB          2.0500  -18.6440  -34.6700 C.3       1 THR         0.0773
    123 CG          2.9050  -19.7390  -35.2730 C.2       1 THR         0.1780
    124 OD1         2.6550  -20.1950  -36.3870 O.2       1 THR        -0.3970
    125 ND2         3.9250  -20.1630  -34.5390 N.am      1 THR        -0.3007
    126 N           2.2130  -16.5900  -32.2210 N.am      1 THR        -0.2639
    127 CA          1.7990  -15.2410  -31.8770 C.3       1 THR         0.1282
    128 C           1.1420  -14.5800  -33.0830 C.2       1 THR         0.2031
    129 O           1.3350  -14.9920  -34.2330 O.2       1 THR        -0.3944
    130 CB          2.9930  -14.4080  -31.4160 C.3       1 THR        -0.0244
    131 N           0.3580  -13.5400  -32.8140 N.am      1 THR        -0.2692
    132 CA         -0.3600  -12.8330  -33.8770 C.3       1 THR         0.0969
    133 C           0.5740  -11.9170  -34.6460 C.2       1 THR         0.0604
    134 O           1.6570  -11.5930  -34.1620 O.co2     1 THR        -0.5666
    135 CB         -1.5370  -12.0260  -33.3210 C.3       1 THR        -0.0092
    136 CG1        -1.0310  -10.9610  -32.3470 C.3       1 THR        -0.0497
    137 CG2        -2.5300  -12.9490  -32.6450 C.3       1 THR        -0.0588
    138 CD1        -2.1380  -10.2100  -31.6320 C.3       1 THR        -0.0649
    139 OXT         0.2590  -11.4780  -35.7560 O.co2     1 THR        -0.5666
    140 H1        -18.9781  -32.3397  -26.9007 H         1 THR         0.2016
    141 H2        -19.0378  -33.8209  -26.1853 H         1 THR         0.2016
    142 H3        -17.7342  -33.3996  -27.0977 H         1 THR         0.2016
    143 H4        -18.5654  -32.1663  -24.5819 H         1 THR         0.1125
    144 H5        -16.5871  -33.1665  -23.5820 H         1 THR         0.0674
    145 H6        -15.2788  -34.5621  -24.9092 H         1 THR         0.2102
    146 H7        -17.1223  -35.5714  -23.7844 H         1 THR         0.0258
    147 H8        -18.0825  -35.2359  -25.2650 H         1 THR         0.0258
    148 H9        -18.6177  -34.5818  -23.6800 H         1 THR         0.0258
    149 H10       -16.7977  -30.7919  -23.6457 H         1 THR         0.1885
    150 H11       -16.0372  -28.7784  -25.5097 H         1 THR         0.0826
    151 H12       -14.8050  -29.3661  -22.7751 H         1 THR         0.0639
    152 H13       -17.1053  -29.0537  -22.7617 H         1 THR         0.2101
    153 H14       -14.2648  -26.9362  -22.8262 H         1 THR         0.0257
    154 H15       -14.9503  -26.8186  -24.4824 H         1 THR         0.0257
    155 H16       -13.4784  -27.8051  -24.1874 H         1 THR         0.0257
    156 H17       -14.1871  -31.5384  -24.1362 H         1 THR         0.1885
    157 H18       -11.6849  -30.8307  -25.2835 H         1 THR         0.0821
    158 H19       -12.8530  -33.5868  -24.6976 H         1 THR         0.0453
    159 H20       -11.9359  -32.5494  -23.5534 H         1 THR         0.0453
    160 H21       -11.6768  -35.2491  -25.8293 H         1 THR         0.0530
    161 H22        -9.5482  -31.7942  -24.4836 H         1 THR         0.0530
    162 H23        -9.5527  -36.2554  -26.5987 H         1 THR         0.0525
    163 H24        -7.4285  -32.7911  -25.2429 H         1 THR         0.0525
    164 H25        -7.3638  -35.9886  -26.7910 H         1 THR         0.2458
    165 H26       -14.3305  -32.9223  -26.5887 H         1 THR         0.1883
    166 H27       -13.0086  -33.5578  -29.0125 H         1 THR         0.0797
    167 H28       -15.2791  -34.0144  -29.9066 H         1 THR         0.0277
    168 H29       -15.9973  -33.1932  -28.4796 H         1 THR         0.0277
    169 H30       -15.0503  -34.7043  -28.2639 H         1 THR         0.0277
    170 H31       -15.1191  -30.7432  -28.2015 H         1 THR         0.1884
    171 H32       -15.0176  -29.5277  -30.7643 H         1 THR         0.0819
    172 H33       -15.3711  -27.3695  -29.5247 H         1 THR         0.0478
    173 H34       -15.1293  -28.2644  -27.9861 H         1 THR         0.0478
    174 H35       -12.7066  -29.3597  -28.0097 H         1 THR         0.1885
    175 H36       -10.9427  -27.4628  -29.2054 H         1 THR         0.0823
    176 H37       -10.4331  -29.7575  -27.2734 H         1 THR         0.0474
    177 H38       -10.8045  -28.0475  -26.8676 H         1 THR         0.0474
    178 H39        -9.0537  -26.3111  -27.9625 H         1 THR         0.0557
    179 H40        -8.2617  -30.3978  -27.0220 H         1 THR         0.0557
    180 H41        -6.6286  -25.8185  -27.8626 H         1 THR         0.0599
    181 H42        -5.8386  -29.9130  -26.9261 H         1 THR         0.0599
    182 H43        -5.0208  -27.6108  -27.3010 H         1 THR         0.0559
    183 H44       -10.8750  -31.0756  -29.3359 H         1 THR         0.1883
    184 H45        -8.6864  -31.2780  -31.1168 H         1 THR         0.0803
    185 H46       -11.1714  -33.0480  -31.0008 H         1 THR         0.0345
    186 H47        -9.7172  -34.4635  -29.5150 H         1 THR         0.0267
    187 H48       -10.2342  -32.8966  -28.8050 H         1 THR         0.0267
    188 H49        -9.8035  -33.3661  -33.0221 H         1 THR         0.0235
    189 H50        -9.7098  -34.7795  -31.9175 H         1 THR         0.0235
    190 H51        -8.3498  -33.6086  -31.9953 H         1 THR         0.0235
    191 H52        -7.8916  -33.3961  -28.2693 H         1 THR         0.0230
    192 H53        -8.0219  -31.9379  -29.3101 H         1 THR         0.0230
    193 H54        -7.5050  -33.5049  -30.0201 H         1 THR         0.0230
    194 H55       -12.1841  -30.8050  -31.8122 H         1 THR         0.1883
    195 H56       -11.8169  -30.9541  -34.6554 H         1 THR         0.0797
    196 H57       -14.1128  -30.0071  -34.7841 H         1 THR         0.0277
    197 H58       -14.0606  -29.6700  -33.0205 H         1 THR         0.0277
    198 H59       -14.0036  -31.3648  -33.6131 H         1 THR         0.0277
    199 H60       -11.1997  -28.3637  -32.3913 H         1 THR         0.1884
    200 H61       -11.7268  -26.1953  -34.1937 H         1 THR         0.0823
    201 H62       -11.3678  -26.1657  -31.6024 H         1 THR         0.0606
    202 H63       -10.7355  -24.7962  -32.5777 H         1 THR         0.0606
    203 H64        -9.2340  -27.0608  -31.7008 H         1 THR         0.2097
    204 H65        -9.0984  -28.4816  -34.0855 H         1 THR         0.1881
    205 H66        -7.7509  -27.1132  -36.2333 H         1 THR         0.0763
    206 H67        -7.2063  -28.6011  -35.3868 H         1 THR         0.0763
    207 H68        -7.6097  -26.3801  -32.9428 H         1 THR         0.1883
    208 H69        -4.8839  -25.2559  -33.3667 H         1 THR         0.0800
    209 H70        -5.5419  -23.6043  -31.5752 H         1 THR         0.0313
    210 H71        -7.2019  -24.2870  -31.6478 H         1 THR         0.0313
    211 H72        -7.3728  -23.6973  -34.0304 H         1 THR         0.0301
    212 H73        -5.6811  -23.0934  -34.0248 H         1 THR         0.0301
    213 H74        -7.9193  -21.9771  -32.3034 H         1 THR         0.0689
    214 H75        -7.4362  -21.3160  -33.9023 H         1 THR         0.0689
    215 H76        -6.0201  -21.0266  -31.3277 H         1 THR         0.2642
    216 H77        -4.4706  -19.6994  -34.8538 H         1 THR         0.2615
    217 H78        -5.8362  -20.8472  -34.8721 H         1 THR         0.2615
    218 H79        -4.2976  -19.5645  -31.3041 H         1 THR         0.2615
    219 H80        -3.5918  -18.9894  -32.8383 H         1 THR         0.2615
    220 H81        -5.0011  -27.8744  -32.6376 H         1 THR         0.1884
    221 H82        -4.5428  -28.0257  -29.7297 H         1 THR         0.0826
    222 H83        -4.3449  -30.4963  -30.2022 H         1 THR         0.0639
    223 H84        -4.9634  -31.1214  -32.3625 H         1 THR         0.2101
    224 H85        -6.7280  -30.8155  -30.7889 H         1 THR         0.0257
    225 H86        -6.8175  -29.1146  -31.3596 H         1 THR         0.0257
    226 H87        -6.5228  -29.4649  -29.6226 H         1 THR         0.0257
    227 H88        -2.6533  -27.6580  -32.6137 H         1 THR         0.1881
    228 H89        -0.3804  -28.0492  -33.0269 H         1 THR         0.0763
    229 H90        -0.2254  -28.7799  -31.3933 H         1 THR         0.0763
    230 H91         1.6745  -27.0203  -32.3659 H         1 THR         0.1883
    231 H92         1.6991  -25.1469  -30.1780 H         1 THR         0.0800
    232 H93         3.7726  -24.2611  -31.2452 H         1 THR         0.0313
    233 H94         3.4664  -25.3272  -32.6581 H         1 THR         0.0313
    234 H95         3.8743  -27.2867  -31.4173 H         1 THR         0.0301
    235 H96         3.6998  -26.4361  -29.8448 H         1 THR         0.0301
    236 H97         5.7734  -25.0736  -30.5531 H         1 THR         0.0689
    237 H98         6.0005  -26.3173  -31.8292 H         1 THR         0.0689
    238 H99         6.3833  -26.6294  -28.9218 H         1 THR         0.2642
    239 H100        6.5452  -29.7690  -31.4939 H         1 THR         0.2615
    240 H101        5.8647  -28.2139  -32.0430 H         1 THR         0.2615
    241 H102        7.2380  -28.6049  -28.2191 H         1 THR         0.2615
    242 H103        7.3151  -29.9907  -29.3400 H         1 THR         0.2615
    243 H104        1.3467  -22.9856  -30.1158 H         1 THR         0.1883
    244 H105       -0.2803  -21.9807  -32.3987 H         1 THR         0.0800
    245 H106       -1.1845  -20.3791  -30.6544 H         1 THR         0.0313
    246 H107       -0.2709  -21.3202  -29.4271 H         1 THR         0.0313
    247 H108       -1.5272  -23.3619  -30.4571 H         1 THR         0.0301
    248 H109       -2.6549  -22.1104  -31.0805 H         1 THR         0.0301
    249 H110       -3.4929  -22.8396  -28.9502 H         1 THR         0.0689
    250 H111       -2.7960  -21.1994  -28.7244 H         1 THR         0.0689
    251 H112       -0.6573  -22.7353  -28.0647 H         1 THR         0.2642
    252 H113       -3.7322  -23.7671  -25.6081 H         1 THR         0.2615
    253 H114       -4.0813  -23.0185  -27.1894 H         1 THR         0.2615
    254 H115       -0.2158  -23.6897  -26.0525 H         1 THR         0.2615
    255 H116       -1.5595  -24.1487  -24.9725 H         1 THR         0.2615
    256 H117        0.3083  -20.1952  -33.4699 H         1 THR         0.1885
    257 H118        2.8789  -18.9718  -32.7160 H         1 THR         0.0826
    258 H119        2.5218  -17.6726  -34.8793 H         1 THR         0.0551
    259 H120        1.0546  -18.6764  -35.1369 H         1 THR         0.0551
    260 H121        4.5245  -20.8845  -34.8855 H         1 THR         0.1814
    261 H122        4.0946  -19.7612  -33.6391 H         1 THR         0.1814
    262 H123        3.1838  -16.8288  -32.2003 H         1 THR         0.1883
    263 H124        1.0679  -15.2941  -31.0568 H         1 THR         0.0797
    264 H125        2.6552  -13.3925  -31.1615 H         1 THR         0.0277
    265 H126        3.7372  -14.3551  -32.2243 H         1 THR         0.0277
    266 H127        3.4466  -14.8763  -30.5300 H         1 THR         0.0277
    267 H128        0.2567  -13.2346  -31.8672 H         1 THR         0.1875
    268 H129       -0.7585  -13.5844  -34.5746 H         1 THR         0.0729
    269 H130       -2.0434  -11.5215  -34.1571 H         1 THR         0.0338
    270 H131       -0.4270  -10.2346  -32.9104 H         1 THR         0.0267
    271 H132       -0.4016  -11.4533  -31.5911 H         1 THR         0.0267
    272 H133       -2.8779  -13.7041  -33.3653 H         1 THR         0.0234
    273 H134       -3.3885  -12.3633  -32.2845 H         1 THR         0.0234
    274 H135       -2.0447  -13.4499  -31.7944 H         1 THR         0.0234
    275 H136       -1.6967   -9.4656  -30.9529 H         1 THR         0.0230
    276 H137       -2.7473  -10.9192  -31.0526 H         1 THR         0.0230
    277 H138       -2.7727   -9.7005  -32.3719 H         1 THR         0.0230
@<TRIPOS>BOND
     1    1    2 1  
     2    2    3 1  
     3    2    5 1  
     4    3    4 2  
     5    3    8 am 
     6    5    6 1  
     7    5    7 1  
     8    8    9 1  
     9    9   10 1  
    10    9   12 1  
    11   10   11 2  
    12   10   15 am 
    13   12   13 1  
    14   12   14 1  
    15   15   16 1  
    16   16   17 1  
    17   16   19 1  
    18   17   18 2  
    19   17   27 am 
    20   19   20 1  
    21   20   21 ar 
    22   20   22 ar 
    23   21   23 ar 
    24   22   24 ar 
    25   23   25 ar 
    26   24   25 ar 
    27   25   26 1  
    28   27   28 1  
    29   28   29 1  
    30   28   31 1  
    31   29   30 2  
    32   29   32 am 
    33   32   33 1  
    34   33   34 1  
    35   33   36 1  
    36   34   35 2  
    37   34   40 am 
    38   36   37 1  
    39   37   38 ar 
    40   37   39 ar 
    41   40   41 1  
    42   41   42 1  
    43   41   44 1  
    44   42   43 2  
    45   42   51 am 
    46   44   45 1  
    47   45   46 ar 
    48   45   47 ar 
    49   46   48 ar 
    50   47   49 ar 
    51   48   50 ar 
    52   49   50 ar 
    53   51   52 1  
    54   52   53 1  
    55   52   55 1  
    56   53   54 2  
    57   53   59 am 
    58   55   56 1  
    59   55   57 1  
    60   56   58 1  
    61   59   60 1  
    62   60   61 1  
    63   60   63 1  
    64   61   62 2  
    65   61   64 am 
    66   64   65 1  
    67   65   66 1  
    68   65   68 1  
    69   66   67 2  
    70   66   70 am 
    71   68   69 1  
    72   70   71 1  
    73   71   72 1  
    74   72   73 2  
    75   72   74 am 
    76   74   75 1  
    77   75   76 1  
    78   75   78 1  
    79   76   77 2  
    80   76   85 am 
    81   78   79 1  
    82   79   80 1  
    83   80   81 1  
    84   81   82 ar 
    85   82   83 ar 
    86   82   84 ar 
    87   85   86 1  
    88   86   87 1  
    89   86   89 1  
    90   87   88 2  
    91   87   92 am 
    92   89   90 1  
    93   89   91 1  
    94   92   93 1  
    95   93   94 1  
    96   94   95 2  
    97   94   96 am 
    98   96   97 1  
    99   97   98 1  
   100   97  100 1  
   101   98   99 2  
   102   98  107 am 
   103  100  101 1  
   104  101  102 1  
   105  102  103 1  
   106  103  104 ar 
   107  104  105 ar 
   108  104  106 ar 
   109  107  108 1  
   110  108  109 1  
   111  108  111 1  
   112  109  110 2  
   113  109  118 am 
   114  111  112 1  
   115  112  113 1  
   116  113  114 1  
   117  114  115 ar 
   118  115  116 ar 
   119  115  117 ar 
   120  118  119 1  
   121  119  120 1  
   122  119  122 1  
   123  120  121 2  
   124  120  126 am 
   125  122  123 1  
   126  123  124 2  
   127  123  125 am 
   128  126  127 1  
   129  127  128 1  
   130  127  130 1  
   131  128  129 2  
   132  128  131 am 
   133  131  132 1  
   134  132  133 1  
   135  132  135 1  
   136  133  134 ar 
   137  133  139 ar 
   138  135  136 1  
   139  135  137 1  
   140  136  138 1  
   141    1  140 1  
   142    1  141 1  
   143    1  142 1  
   144    2  143 1  
   145    5  144 1  
   146    6  145 1  
   147    7  146 1  
   148    7  147 1  
   149    7  148 1  
   150    8  149 1  
   151    9  150 1  
   152   12  151 1  
   153   13  152 1  
   154   14  153 1  
   155   14  154 1  
   156   14  155 1  
   157   15  156 1  
   158   16  157 1  
   159   19  158 1  
   160   19  159 1  
   161   21  160 1  
   162   22  161 1  
   163   23  162 1  
   164   24  163 1  
   165   26  164 1  
   166   27  165 1  
   167   28  166 1  
   168   31  167 1  
   169   31  168 1  
   170   31  169 1  
   171   32  170 1  
   172   33  171 1  
   173   36  172 1  
   174   36  173 1  
   175   40  174 1  
   176   41  175 1  
   177   44  176 1  
   178   44  177 1  
   179   46  178 1  
   180   47  179 1  
   181   48  180 1  
   182   49  181 1  
   183   50  182 1  
   184   51  183 1  
   185   52  184 1  
   186   55  185 1  
   187   56  186 1  
   188   56  187 1  
   189   57  188 1  
   190   57  189 1  
   191   57  190 1  
   192   58  191 1  
   193   58  192 1  
   194   58  193 1  
   195   59  194 1  
   196   60  195 1  
   197   63  196 1  
   198   63  197 1  
   199   63  198 1  
   200   64  199 1  
   201   65  200 1  
   202   68  201 1  
   203   68  202 1  
   204   69  203 1  
   205   70  204 1  
   206   71  205 1  
   207   71  206 1  
   208   74  207 1  
   209   75  208 1  
   210   78  209 1  
   211   78  210 1  
   212   79  211 1  
   213   79  212 1  
   214   80  213 1  
   215   80  214 1  
   216   81  215 1  
   217   83  216 1  
   218   83  217 1  
   219   84  218 1  
   220   84  219 1  
   221   85  220 1  
   222   86  221 1  
   223   89  222 1  
   224   90  223 1  
   225   91  224 1  
   226   91  225 1  
   227   91  226 1  
   228   92  227 1  
   229   93  228 1  
   230   93  229 1  
   231   96  230 1  
   232   97  231 1  
   233  100  232 1  
   234  100  233 1  
   235  101  234 1  
   236  101  235 1  
   237  102  236 1  
   238  102  237 1  
   239  103  238 1  
   240  105  239 1  
   241  105  240 1  
   242  106  241 1  
   243  106  242 1  
   244  107  243 1  
   245  108  244 1  
   246  111  245 1  
   247  111  246 1  
   248  112  247 1  
   249  112  248 1  
   250  113  249 1  
   251  113  250 1  
   252  114  251 1  
   253  116  252 1  
   254  116  253 1  
   255  117  254 1  
   256  117  255 1  
   257  118  256 1  
   258  119  257 1  
   259  122  258 1  
   260  122  259 1  
   261  125  260 1  
   262  125  261 1  
   263  126  262 1  
   264  127  263 1  
   265  130  264 1  
   266  130  265 1  
   267  130  266 1  
   268  131  267 1  
   269  132  268 1  
   270  135  269 1  
   271  136  270 1  
   272  136  271 1  
   273  137  272 1  
   274  137  273 1  
   275  137  274 1  
   276  138  275 1  
   277  138  276 1  
   278  138  277 1  
@<TRIPOS>SUBSTRUCTURE
     1 THR         1

