3ddg_ligand
  -I-interpret- 

 41 42  0  0  0  0  0  0  0  0999 V2000
   29.6920   67.7980   12.8080 C   0  0  0  0  0
   29.4710   69.1240   13.1240 C   0  0  0  0  0
   28.3520   69.8560   12.7390 C   0  0  0  0  0
   27.3650   69.1100   12.1150 C   0  0  0  0  0
   27.5310   67.7610   11.8030 C   0  0  0  0  0
   28.6780   67.0940   12.1730 C   0  0  0  0  0
   28.9400   65.6190   11.8880 C   0  0  0  0  0
   29.1110   65.0090   13.2830 C   0  0  0  0  0
   29.3020   63.6050   13.2270 O   0  0  0  0  0
   30.1600   65.4270   11.0820 N   0  3  0  0  0
   30.0820   66.1180    9.7690 C   0  0  0  0  0
   31.1780   65.7230    8.7590 C   0  0  0  0  0
   30.8750   66.3990    7.4810 N   0  0  0  0  0
   29.5470   66.2590    6.8520 C   0  0  0  0  0
   31.9150   66.9950    6.9030 C   0  0  0  0  0
   31.9090   67.5850    5.8290 O   0  0  0  0  0
   33.1550   66.7440    7.7530 C   0  0  0  0  0
   34.1150   66.0080    7.0120 O   0  0  0  0  0
   32.6050   66.1790    9.0620 C   0  0  0  0  0
   33.4320   65.2170    9.6690 O   0  0  0  0  0
   30.6390   67.3162   13.0511 H   0  0  0  0  0
   30.2286   69.6346   13.7185 H   0  0  0  0  0
   28.2595   70.9279   12.9139 H   0  0  0  0  0
   26.4236   69.5958   11.8584 H   0  0  0  0  0
   26.7473   67.2304   11.2623 H   0  0  0  0  0
   28.1371   65.1596   11.3114 H   0  0  0  0  0
   28.2054   65.2079   13.8561 H   0  0  0  0  0
   29.9914   65.4553   13.7454 H   0  0  0  0  0
   29.4048   63.2614   14.1175 H   0  0  0  0  0
   30.2707   64.4281   10.9081 H   0  0  0  0  0
   30.9466   65.8188   11.5998 H   0  0  0  0  0
   30.2045   67.1830    9.9660 H   0  0  0  0  0
   29.1274   65.8392    9.3228 H   0  0  0  0  0
   31.1589   64.6332    8.7718 H   0  0  0  0  0
   29.3565   65.2072    6.6386 H   0  0  0  0  0
   28.7830   66.6374    7.5311 H   0  0  0  0  0
   29.5243   66.8293    5.9234 H   0  0  0  0  0
   33.7527   67.6150    8.0218 H   0  0  0  0  0
   34.8905   65.8562    7.5571 H   0  0  0  0  0
   32.5871   66.9430    9.8392 H   0  0  0  0  0
   34.3022   65.5936    9.8191 H   0  0  0  0  0
  1  2  4  0  0  0
  1  6  4  0  0  0
  2  3  4  0  0  0
  3  4  4  0  0  0
  4  5  4  0  0  0
  5  6  4  0  0  0
  6  7  1  0  0  0
  7  8  1  0  0  0
  7 10  1  0  0  0
  8  9  1  0  0  0
 10 11  1  0  0  0
 11 12  1  0  0  0
 12 13  1  0  0  0
 12 19  1  0  0  0
 13 14  1  0  0  0
 13 15  1  0  0  0
 15 16  2  0  0  0
 15 17  1  0  0  0
 17 18  1  0  0  0
 17 19  1  0  0  0
 19 20  1  0  0  0
  1 21  1  0  0  0
  2 22  1  0  0  0
  3 23  1  0  0  0
  4 24  1  0  0  0
  5 25  1  0  0  0
  7 26  1  0  0  0
  8 27  1  0  0  0
  8 28  1  0  0  0
  9 29  1  0  0  0
 10 30  1  0  0  0
 10 31  1  0  0  0
 11 32  1  0  0  0
 11 33  1  0  0  0
 12 34  1  0  0  0
 14 35  1  0  0  0
 14 36  1  0  0  0
 14 37  1  0  0  0
 17 38  1  0  0  0
 18 39  1  0  0  0
 19 40  1  0  0  0
 20 41  1  0  0  0
M  END
$$$$
