5axq_ligand
  -I-interpret- 

 63 68  0  0  0  0  0  0  0  0999 V2000
   15.2680    1.7850   20.4900 C   0  0  0  0  0
   14.3470    0.7660   20.3710 C   0  0  0  0  0
   16.4340    1.7680   19.7540 C   0  0  0  0  0
   14.5870   -0.2780   19.5040 C   0  0  0  0  0
   16.6860    0.7280   18.8840 C   0  0  0  0  0
   15.5580   -0.5490   23.8850 C   0  0  0  0  0
   16.2270   -1.0320   22.7780 C   0  0  0  0  0
   16.9560   -3.0030   16.8560 C   0  0  0  0  0
   16.1000   -2.2770   15.9960 C   0  0  0  0  0
   15.9340   -2.6800   24.9520 C   0  0  0  0  0
   15.7550   -0.2800   18.7740 C   0  0  0  0  0
   15.4380   -1.4080   24.9530 C   0  0  0  0  0
   16.7490   -2.3120   22.7480 C   0  0  0  0  0
   16.5980   -3.1430   23.8440 C   0  0  0  0  0
   16.8790   -2.3630   18.0710 C   0  0  0  0  0
   18.6430   -3.3710   21.6840 C   0  0  0  0  0
   17.4940   -2.6790   19.3250 C   0  0  0  0  0
   19.3800   -3.7550   20.6390 C   0  0  0  0  0
   18.8080   -3.3990   19.3300 C   0  0  0  0  0
   14.9170   -2.2850   27.0070 C   0  0  0  0  0
   11.7770   -1.0060   26.8010 C   0  0  0  0  0
   11.5580    0.4750   26.6960 C   0  0  0  0  0
   12.6750   -0.1690   25.9300 C   0  0  0  0  0
   15.6530   -3.3680   26.2480 C   0  0  0  0  0
   16.9200   -3.7740   26.9800 C   0  0  0  0  0
   14.7400   -4.5610   26.0780 C   0  0  0  0  0
   20.8790   -4.8070   22.0070 C   0  0  0  0  0
   14.0650    0.0270   26.4170 C   0  0  0  0  0
   15.5110   -1.2570   16.6320 N   0  0  0  0  0
   16.8760   -2.3610   20.4190 N   0  0  0  0  0
   15.9970   -1.3330   17.8850 N   0  0  0  0  0
   17.4500   -2.7080   21.5990 N   0  0  0  0  0
   14.8230   -1.1760   26.1740 N   0  0  0  0  0
   19.3740   -3.6740   18.2810 O   0  0  0  0  0
   14.4890   -2.4070   28.1470 O   0  0  0  0  0
   20.5860   -4.4320   20.6600 O   0  0  0  0  0
   17.0950   -4.3860   23.8480 F   0  0  0  0  0
   15.0726    2.6121   21.1725 H   0  0  0  0  0
   13.4310    0.7861   20.9614 H   0  0  0  0  0
   17.1569    2.5769   19.8599 H   0  0  0  0  0
   13.8652   -1.0879   19.3978 H   0  0  0  0  0
   17.6033    0.7047   18.2957 H   0  0  0  0  0
   15.1465    0.4600   23.9114 H   0  0  0  0  0
   16.3466   -0.3885   21.9064 H   0  0  0  0  0
   17.5504   -3.8826   16.6087 H   0  0  0  0  0
   15.9396   -2.5181   14.9452 H   0  0  0  0  0
   19.0206   -3.6034   22.6797 H   0  0  0  0  0
   11.1967   -1.9262   26.7332 H   0  0  0  0  0
   11.8660   -1.7675   27.5758 H   0  0  0  0  0
   11.4090    1.3266   27.3598 H   0  0  0  0  0
   10.7361    1.1671   26.5127 H   0  0  0  0  0
   12.9751   -0.1729   24.8821 H   0  0  0  0  0
   17.4958   -4.4571   26.3556 H   0  0  0  0  0
   17.5150   -2.8861   27.1937 H   0  0  0  0  0
   16.6555   -4.2692   27.9143 H   0  0  0  0  0
   13.7900   -4.2327   25.6564 H   0  0  0  0  0
   15.2071   -5.2817   25.4068 H   0  0  0  0  0
   14.5670   -5.0257   27.0487 H   0  0  0  0  0
   20.9459   -3.9120   22.6256 H   0  0  0  0  0
   20.0855   -5.4523   22.3839 H   0  0  0  0  0
   21.8283   -5.3418   22.0356 H   0  0  0  0  0
   14.0526    0.2437   27.4852 H   0  0  0  0  0
   14.5243    0.8631   25.8897 H   0  0  0  0  0
  2  1  4  0  0  0
  3  1  4  0  0  0
  4  2  4  0  0  0
  5  3  4  0  0  0
 11  4  4  0  0  0
 11  5  4  0  0  0
  6  7  4  0  0  0
 12  6  4  0  0  0
  7 13  4  0  0  0
  8  9  4  0  0  0
 15  8  4  0  0  0
  9 29  4  0  0  0
 12 10  4  0  0  0
 10 14  4  0  0  0
 24 10  1  0  0  0
 31 11  1  0  0  0
 33 12  1  0  0  0
 14 13  4  0  0  0
 13 32  1  0  0  0
 14 37  1  0  0  0
 17 15  1  0  0  0
 15 31  4  0  0  0
 16 18  2  0  0  0
 32 16  1  0  0  0
 19 17  1  0  0  0
 17 30  2  0  0  0
 18 19  1  0  0  0
 18 36  1  0  0  0
 19 34  2  0  0  0
 20 24  1  0  0  0
 33 20  1  0  0  0
 20 35  2  0  0  0
 22 21  1  0  0  0
 23 21  1  0  0  0
 23 22  1  0  0  0
 28 23  1  0  0  0
 24 25  1  0  0  0
 24 26  1  0  0  0
 36 27  1  0  0  0
 28 33  1  0  0  0
 29 31  4  0  0  0
 30 32  1  0  0  0
  1 38  1  0  0  0
  2 39  1  0  0  0
  3 40  1  0  0  0
  4 41  1  0  0  0
  5 42  1  0  0  0
  6 43  1  0  0  0
  7 44  1  0  0  0
  8 45  1  0  0  0
  9 46  1  0  0  0
 16 47  1  0  0  0
 21 48  1  0  0  0
 21 49  1  0  0  0
 22 50  1  0  0  0
 22 51  1  0  0  0
 23 52  1  0  0  0
 25 53  1  0  0  0
 25 54  1  0  0  0
 25 55  1  0  0  0
 26 56  1  0  0  0
 26 57  1  0  0  0
 26 58  1  0  0  0
 27 59  1  0  0  0
 27 60  1  0  0  0
 27 61  1  0  0  0
 28 62  1  0  0  0
 28 63  1  0  0  0
M  END
$$$$
