5f67_ligand
  -I-interpret- 

263265  0  0  0  0  0  0  0  0999 V2000
   34.9610    0.8390    3.1320 N   0  3  0  0  0
   34.0880    0.7850    4.2910 C   0  0  0  0  0
   33.2240   -0.4580    4.2610 C   0  0  0  0  0
   33.1700   -1.1510    3.2430 O   0  0  0  0  0
   32.5500   -0.7570    5.3790 N   0  0  0  0  0
   31.6850   -1.9400    5.3810 C   0  0  0  0  0
   30.4640   -1.7120    4.5000 C   0  0  0  0  0
   30.0290   -0.5670    4.3450 O   0  0  0  0  0
   31.2790   -2.0840    6.8510 C   0  0  0  0  0
   31.4410   -0.7100    7.4380 C   0  0  0  0  0
   32.5710   -0.0660    6.6810 C   0  0  0  0  0
   29.9250   -2.7840    3.9260 N   0  0  0  0  0
   28.8000   -2.6630    3.0150 C   0  0  0  0  0
   27.5540   -2.1460    3.6980 C   0  0  0  0  0
   27.3600   -2.3700    4.8940 O   0  0  0  0  0
   26.6900   -1.4660    2.9460 N   0  0  0  0  0
   25.4890   -0.9050    3.5510 C   0  0  0  0  0
   24.5320   -2.0350    3.9170 C   0  0  0  0  0
   23.7670   -1.9320    4.8790 O   0  0  0  0  0
   24.8110    0.0920    2.6110 C   0  0  0  0  0
   24.1400   -0.5710    1.5500 O   0  0  0  0  0
   24.5820   -3.1210    3.1490 N   0  0  0  0  0
   23.7380   -4.2780    3.4480 C   0  0  0  0  0
   24.4000   -5.2430    4.4290 C   0  0  0  0  0
   25.5830   -5.5620    4.3060 O   0  0  0  0  0
   23.3380   -5.0010    2.1620 C   0  0  0  0  0
   22.3540   -4.2000    1.3380 C   0  0  0  0  0
   21.9160   -4.9330    0.0820 C   0  0  0  0  0
   23.0270   -5.1550   -0.8390 N   0  0  0  0  0
   23.6370   -4.1950   -1.5340 C   0  0  0  0  0
   23.2630   -2.9260   -1.4070 N   0  0  0  0  0
   24.6340   -4.5050   -2.3520 N   0  0  0  0  0
   23.6330   -5.6960    5.4130 N   0  0  0  0  0
   24.1470   -6.6140    6.4150 C   0  0  0  0  0
   23.0380   -7.5310    6.8840 C   0  0  0  0  0
   21.8620   -7.2790    6.6140 O   0  0  0  0  0
   23.4030   -8.5920    7.5930 N   0  0  0  0  0
   22.4330   -9.6170    7.9560 C   0  0  0  0  0
   21.6350   -9.2910    9.2200 C   0  0  0  0  0
   22.2010   -9.0350   10.2790 O   0  0  0  0  0
   23.1330  -10.9680    8.1000 C   0  0  0  0  0
   22.1800  -12.1430    8.2290 C   0  0  0  0  0
   22.8920  -13.4560    7.9570 C   0  0  0  0  0
   22.3390  -14.5470    8.8490 C   0  0  0  0  0
   22.3050  -14.0910   10.2740 N   0  3  0  0  0
   20.3120   -9.3160    9.0980 N   0  0  0  0  0
   19.4180   -9.0930   10.2240 C   0  0  0  0  0
   19.4330  -10.2770   11.1890 C   0  0  0  0  0
   19.2920  -11.4200   10.7620 O   0  0  0  0  0
   17.9890   -8.8960    9.7020 C   0  0  0  0  0
   17.0530   -8.9630   10.7610 O   0  0  0  0  0
   19.5950  -10.0130   12.4840 N   0  0  0  0  0
   19.5080  -11.0800   13.4780 C   0  0  0  0  0
   18.0610  -11.5110   13.7030 C   0  0  0  0  0
   17.7980  -12.6180   14.1800 O   0  0  0  0  0
   20.1780  -10.6880   14.8290 C   0  0  0  0  0
   19.7090   -9.4050   15.2530 O   0  0  0  0  0
   21.6840  -10.6360   14.6700 C   0  0  0  0  0
   17.1270  -10.6300   13.3580 N   0  0  0  0  0
   15.6990  -10.9340   13.4940 C   0  0  0  0  0
   15.1610  -11.7950   12.3500 C   0  0  0  0  0
   14.4600  -12.7820   12.5870 O   0  0  0  0  0
   14.8630   -9.6460   13.6370 C   0  0  0  0  0
   13.3580   -9.9530   13.5560 C   0  0  0  0  0
   15.2020   -8.9500   14.9510 C   0  0  0  0  0
   15.4960  -11.4360   11.1130 N   0  0  0  0  0
   14.9310  -12.1210    9.9510 C   0  0  0  0  0
   15.9140  -13.0390    9.2240 C   0  0  0  0  0
   15.5010  -13.9420    8.4920 O   0  0  0  0  0
   14.3860  -11.1150    8.9170 C   0  0  0  0  0
   15.4790  -10.4640    8.2580 O   0  0  0  0  0
   13.5140  -10.0740    9.5990 C   0  0  0  0  0
   17.2090  -12.7980    9.4030 N   0  0  0  0  0
   18.2240  -13.5410    8.6750 C   0  0  0  0  0
   18.4270  -12.9940    7.2690 C   0  0  0  0  0
   19.2620  -13.4920    6.5120 O   0  0  0  0  0
   17.6630  -11.9640    6.9160 N   0  0  0  0  0
   17.7470  -11.3740    5.5810 C   0  0  0  0  0
   18.8440  -10.3140    5.5070 C   0  0  0  0  0
   19.2070   -9.7060    6.5160 O   0  0  0  0  0
   16.4010  -10.7640    5.1740 C   0  0  0  0  0
   19.3690  -10.1040    4.3040 N   0  0  0  0  0
   20.3670   -9.0670    4.0570 C   0  0  0  0  0
   19.6350   -7.7730    3.7330 C   0  0  0  0  0
   18.9950   -7.6590    2.6880 O   0  0  0  0  0
   21.2600   -9.4640    2.8790 C   0  0  0  0  0
   22.0920  -10.7210    3.1260 C   0  0  0  0  0
   23.4010  -10.4330    4.3350 S   0  0  0  0  0
   24.1530   -8.9660    3.6220 C   0  0  0  0  0
   19.7200   -6.7980    4.6320 N   0  0  0  0  0
   18.9770   -5.5520    4.4790 C   0  0  0  0  0
   19.8890   -4.3400    4.6810 C   0  0  0  0  0
   20.9820   -4.4650    5.2330 O   0  0  0  0  0
   17.8130   -5.4800    5.4970 C   0  0  0  0  0
   18.3490   -5.4960    6.9270 C   0  0  0  0  0
   16.8210   -6.6340    5.2820 C   0  0  0  0  0
   17.2460   -5.5390    7.9940 C   0  0  0  0  0
   19.4380   -3.1680    4.2410 N   0  0  0  0  0
   20.1770   -1.9290    4.4840 C   0  0  0  0  0
   19.3920   -1.0830    5.4850 C   0  0  0  0  0
   18.4290   -1.5700    6.0900 O   0  0  0  0  0
   20.3950   -1.1650    3.1730 C   0  0  0  0  0
   19.1580   -0.7170    2.6350 O   0  0  0  0  0
   19.7900    0.1720    5.6710 N   0  0  0  0  0
   19.0710    1.0520    6.5820 C   0  0  0  0  0
   19.5620    0.9360    8.0110 C   0  0  0  0  0
   18.8450    1.2540    8.9680 O   0  0  0  0  0
   20.7960    0.4760    8.1660 N   0  0  0  0  0
   21.3800    0.3530    9.4960 C   0  0  0  0  0
   21.7980    1.6970   10.0620 C   0  0  0  0  0
   22.3540    2.5400    9.3510 O   0  0  0  0  0
   22.5810   -0.6040    9.4700 C   0  0  0  0  0
   22.1530   -2.0050    9.1420 C   0  0  0  0  0
   22.2790   -2.6560    7.9430 C   0  0  0  0  0
   21.4800   -2.9130   10.0230 C   0  0  0  0  0
   21.7320   -3.9190    8.0340 N   0  0  0  0  0
   21.2330   -4.1000    9.3010 C   0  0  0  0  0
   21.0620   -2.8320   11.3640 C   0  0  0  0  0
   20.5860   -5.2080    9.8710 C   0  0  0  0  0
   20.4180   -3.9300   11.9310 C   0  0  0  0  0
   20.1910   -5.1010   11.1860 C   0  0  0  0  0
   21.5250    1.8900   11.3490 N   0  0  0  0  0
   22.0380    3.0350   12.0860 C   0  0  0  0  0
   23.3490    2.6160   12.7330 C   0  0  0  0  0
   24.2940    3.4030   12.8930 O   0  0  0  0  0
   21.0290    3.4560   13.1550 C   0  0  0  0  0
   19.6830    3.8710   12.5730 C   0  0  0  0  0
   18.7080    4.2410   13.6750 C   0  0  0  0  0
   19.8860    5.0270   11.6290 C   0  0  0  0  0
   23.4890    1.4370   13.0840 O   0  0  0  0  0
   35.5310    1.6837    3.1762 H   0  0  0  0  0
   35.5669    0.0185    3.1257 H   0  0  0  0  0
   34.3962    0.8526    2.2828 H   0  0  0  0  0
   33.4404    1.6617    4.2825 H   0  0  0  0  0
   34.7023    0.7626    5.1911 H   0  0  0  0  0
   32.1768   -2.8304    4.9892 H   0  0  0  0  0
   31.8949   -2.8190    7.3692 H   0  0  0  0  0
   30.2567   -2.4480    6.9531 H   0  0  0  0  0
   31.6584   -0.7597    8.5049 H   0  0  0  0  0
   30.5227   -0.1303    7.3451 H   0  0  0  0  0
   32.4479    1.0127    6.5838 H   0  0  0  0  0
   33.5281   -0.1673    7.1926 H   0  0  0  0  0
   30.3083   -3.7072    4.1290 H   0  0  0  0  0
   28.5796   -3.6546    2.6196 H   0  0  0  0  0
   29.0744   -1.9533    2.2345 H   0  0  0  0  0
   26.8686   -1.3384    1.9499 H   0  0  0  0  0
   25.7709   -0.3636    4.4541 H   0  0  0  0  0
   25.5758    0.7414    2.1849 H   0  0  0  0  0
   24.0780    0.6625    3.1815 H   0  0  0  0  0
   23.7256    0.0798    0.9787 H   0  0  0  0  0
   25.2123   -3.1467    2.3475 H   0  0  0  0  0
   22.8378   -3.9004    3.9329 H   0  0  0  0  0
   22.8628   -5.9428    2.4364 H   0  0  0  0  0
   24.2369   -5.1519    1.5643 H   0  0  0  0  0
   22.8440   -3.2749    1.0342 H   0  0  0  0  0
   21.4694   -4.0219    1.9495 H   0  0  0  0  0
   21.1698   -4.3220   -0.4259 H   0  0  0  0  0
   21.5184   -5.9044    0.3760 H   0  0  0  0  0
   23.3597   -6.1117   -0.9590 H   0  0  0  0  0
   23.7419   -2.1977   -1.9368 H   0  0  0  0  0
   22.4971   -2.6804   -0.7798 H   0  0  0  0  0
   24.9320   -5.4758   -2.4479 H   0  0  0  0  0
   22.6606   -5.3927    5.4670 H   0  0  0  0  0
   24.5289   -6.0459    7.2632 H   0  0  0  0  0
   24.9494   -7.2104    5.9807 H   0  0  0  0  0
   24.3745   -8.6911    7.8874 H   0  0  0  0  0
   21.7057   -9.6563    7.1451 H   0  0  0  0  0
   23.7269  -10.9301    9.0132 H   0  0  0  0  0
   23.7225  -11.1259    7.1969 H   0  0  0  0  0
   21.3780  -12.0235    7.5005 H   0  0  0  0  0
   21.7867  -12.1633    9.2453 H   0  0  0  0  0
   23.9556  -13.3335    8.1616 H   0  0  0  0  0
   22.7378  -13.7356    6.9148 H   0  0  0  0  0
   22.9798  -15.4255    8.7732 H   0  0  0  0  0
   21.3248  -14.7862    8.5292 H   0  0  0  0  0
   21.9303  -14.8373   10.8597 H   0  0  0  0  0
   23.2508  -13.8604   10.5786 H   0  0  0  0  0
   21.7108  -13.2656   10.3515 H   0  0  0  0  0
   19.9076   -9.4986    8.1795 H   0  0  0  0  0
   19.7585   -8.2063   10.7587 H   0  0  0  0  0
   17.7650   -9.6856    8.9848 H   0  0  0  0  0
   17.9186   -7.9148    9.2326 H   0  0  0  0  0
   16.1674   -8.8374   10.4123 H   0  0  0  0  0
   19.7817   -9.0564   12.7849 H   0  0  0  0  0
   20.0627  -11.9267   13.0737 H   0  0  0  0  0
   19.9174  -11.4387   15.5751 H   0  0  0  0  0
   20.1267   -9.1719   16.0853 H   0  0  0  0  0
   22.0494  -11.6152   14.3605 H   0  0  0  0  0
   21.9429   -9.8946   13.9141 H   0  0  0  0  0
   22.1392  -10.3610   15.6214 H   0  0  0  0  0
   17.4103   -9.7217   12.9903 H   0  0  0  0  0
   15.6012  -11.5200   14.4079 H   0  0  0  0  0
   15.1099   -8.9789   12.8111 H   0  0  0  0  0
   13.1332  -10.4109   12.5927 H   0  0  0  0  0
   13.0846  -10.6385   14.3582 H   0  0  0  0  0
   12.7934   -9.0264   13.6599 H   0  0  0  0  0
   14.9789   -9.6182   15.7827 H   0  0  0  0  0
   16.2616   -8.6946   14.9626 H   0  0  0  0  0
   14.6069   -8.0415   15.0435 H   0  0  0  0  0
   16.1567  -10.6716   10.9733 H   0  0  0  0  0
   14.1324  -12.7358   10.3662 H   0  0  0  0  0
   13.7845  -11.6551    8.1859 H   0  0  0  0  0
   15.1368   -9.8385    7.6151 H   0  0  0  0  0
   12.6758  -10.5689   10.0895 H   0  0  0  0  0
   14.1048   -9.5365   10.3407 H   0  0  0  0  0
   13.1381   -9.3725    8.8543 H   0  0  0  0  0
   17.4962  -12.0769   10.0648 H   0  0  0  0  0
   17.8976  -14.5779    8.5950 H   0  0  0  0  0
   19.1663  -13.4530    9.2158 H   0  0  0  0  0
   17.0040  -11.5772    7.5916 H   0  0  0  0  0
   17.9995  -12.1739    4.8849 H   0  0  0  0  0
   15.6376  -11.5420    5.1691 H   0  0  0  0  0
   16.1252   -9.9870    5.8870 H   0  0  0  0  0
   16.4864  -10.3307    4.1775 H   0  0  0  0  0
   19.0638  -10.6881    3.5255 H   0  0  0  0  0
   20.9961   -8.9381    4.9377 H   0  0  0  0  0
   21.9569   -8.6430    2.7105 H   0  0  0  0  0
   20.6054   -9.6708    2.0324 H   0  0  0  0  0
   22.5548  -11.0157    2.1841 H   0  0  0  0  0
   21.4324  -11.4972    3.5140 H   0  0  0  0  0
   24.5144   -9.1952    2.6195 H   0  0  0  0  0
   23.4118   -8.1686    3.5689 H   0  0  0  0  0
   24.9875   -8.6470    4.2464 H   0  0  0  0  0
   20.3188   -6.9238    5.4481 H   0  0  0  0  0
   18.5765   -5.5343    3.4654 H   0  0  0  0  0
   17.2818   -4.5419    5.3358 H   0  0  0  0  0
   18.9130   -4.5752    7.0758 H   0  0  0  0  0
   18.9507   -6.3977    7.0413 H   0  0  0  0  0
   16.4092   -6.5745    4.2745 H   0  0  0  0  0
   17.3387   -7.5848    5.4087 H   0  0  0  0  0
   16.0140   -6.5583    6.0108 H   0  0  0  0  0
   16.6101   -4.6595    7.8930 H   0  0  0  0  0
   16.6469   -6.4396    7.8593 H   0  0  0  0  0
   17.7007   -5.5484    8.9846 H   0  0  0  0  0
   18.5595   -3.1327    3.7240 H   0  0  0  0  0
   21.1602   -2.1592    4.8945 H   0  0  0  0  0
   20.8690   -1.8323    2.4532 H   0  0  0  0  0
   21.0246   -0.2980    3.3732 H   0  0  0  0  0
   19.3195   -0.2425    1.8163 H   0  0  0  0  0
   20.6071    0.5220    5.1707 H   0  0  0  0  0
   18.0191    0.7671    6.5641 H   0  0  0  0  0
   19.2317    2.0789    6.2539 H   0  0  0  0  0
   21.3414    0.2059    7.3475 H   0  0  0  0  0
   20.6085   -0.0548   10.1492 H   0  0  0  0  0
   23.0464   -0.6045   10.4556 H   0  0  0  0  0
   23.2787   -0.2654    8.7041 H   0  0  0  0  0
   22.7428   -2.2378    7.0496 H   0  0  0  0  0
   21.2384   -1.9285   11.9477 H   0  0  0  0  0
   20.4037   -6.1160    9.2961 H   0  0  0  0  0
   20.0851   -3.8805   12.9677 H   0  0  0  0  0
   19.6902   -5.9446   11.6610 H   0  0  0  0  0
   20.9368    1.2134   11.8355 H   0  0  0  0  0
   22.2000    3.8828   11.4203 H   0  0  0  0  0
   24.0410    4.2735   12.5770 H   0  0  0  0  0
   21.4425    4.3162   13.6815 H   0  0  0  0  0
   20.8589    2.5991   13.8068 H   0  0  0  0  0
   19.2562    3.0306   12.0255 H   0  0  0  0  0
   18.5580    3.3821   14.3291 H   0  0  0  0  0
   19.1124    5.0725   14.2521 H   0  0  0  0  0
   17.7556    4.5333   13.2327 H   0  0  0  0  0
   20.3243    5.8647   12.1714 H   0  0  0  0  0
   20.5552    4.7237   10.8239 H   0  0  0  0  0
   18.9248    5.3262   11.2110 H   0  0  0  0  0
  1  2  1  0  0  0
  2  3  1  0  0  0
  3  4  2  0  0  0
  3  5  1  0  0  0
  5  6  1  0  0  0
  5 11  1  0  0  0
  6  7  1  0  0  0
  6  9  1  0  0  0
  7  8  2  0  0  0
  7 12  1  0  0  0
  9 10  1  0  0  0
 10 11  1  0  0  0
 12 13  1  0  0  0
 13 14  1  0  0  0
 14 15  2  0  0  0
 14 16  1  0  0  0
 16 17  1  0  0  0
 17 18  1  0  0  0
 17 20  1  0  0  0
 18 19  2  0  0  0
 18 22  1  0  0  0
 20 21  1  0  0  0
 22 23  1  0  0  0
 23 24  1  0  0  0
 23 26  1  0  0  0
 24 25  2  0  0  0
 24 33  1  0  0  0
 26 27  1  0  0  0
 27 28  1  0  0  0
 28 29  1  0  0  0
 29 30  1  0  0  0
 30 31  1  0  0  0
 30 32  2  0  0  0
 33 34  1  0  0  0
 34 35  1  0  0  0
 35 36  2  0  0  0
 35 37  1  0  0  0
 37 38  1  0  0  0
 38 39  1  0  0  0
 38 41  1  0  0  0
 39 40  2  0  0  0
 39 46  1  0  0  0
 41 42  1  0  0  0
 42 43  1  0  0  0
 43 44  1  0  0  0
 44 45  1  0  0  0
 46 47  1  0  0  0
 47 48  1  0  0  0
 47 50  1  0  0  0
 48 49  2  0  0  0
 48 52  1  0  0  0
 50 51  1  0  0  0
 52 53  1  0  0  0
 53 54  1  0  0  0
 53 56  1  0  0  0
 54 55  2  0  0  0
 54 59  1  0  0  0
 56 57  1  0  0  0
 56 58  1  0  0  0
 59 60  1  0  0  0
 60 61  1  0  0  0
 60 63  1  0  0  0
 61 62  2  0  0  0
 61 66  1  0  0  0
 63 64  1  0  0  0
 63 65  1  0  0  0
 66 67  1  0  0  0
 67 68  1  0  0  0
 67 70  1  0  0  0
 68 69  2  0  0  0
 68 73  1  0  0  0
 70 71  1  0  0  0
 70 72  1  0  0  0
 73 74  1  0  0  0
 74 75  1  0  0  0
 75 76  2  0  0  0
 75 77  1  0  0  0
 77 78  1  0  0  0
 78 79  1  0  0  0
 78 81  1  0  0  0
 79 80  2  0  0  0
 79 82  1  0  0  0
 82 83  1  0  0  0
 83 84  1  0  0  0
 83 86  1  0  0  0
 84 85  2  0  0  0
 84 90  1  0  0  0
 86 87  1  0  0  0
 87 88  1  0  0  0
 88 89  1  0  0  0
 90 91  1  0  0  0
 91 92  1  0  0  0
 91 94  1  0  0  0
 92 93  2  0  0  0
 92 98  1  0  0  0
 94 95  1  0  0  0
 94 96  1  0  0  0
 95 97  1  0  0  0
 98 99  1  0  0  0
 99100  1  0  0  0
 99102  1  0  0  0
100101  2  0  0  0
100104  1  0  0  0
102103  1  0  0  0
104105  1  0  0  0
105106  1  0  0  0
106107  2  0  0  0
106108  1  0  0  0
108109  1  0  0  0
109110  1  0  0  0
109112  1  0  0  0
110111  2  0  0  0
110122  1  0  0  0
112113  1  0  0  0
113114  4  0  0  0
113115  4  0  0  0
114116  4  0  0  0
115117  4  0  0  0
115118  4  0  0  0
116117  4  0  0  0
117119  4  0  0  0
118120  4  0  0  0
119121  4  0  0  0
120121  4  0  0  0
122123  1  0  0  0
123124  1  0  0  0
123126  1  0  0  0
124125  1  0  0  0
124130  2  0  0  0
126127  1  0  0  0
127128  1  0  0  0
127129  1  0  0  0
  1131  1  0  0  0
  1132  1  0  0  0
  1133  1  0  0  0
  2134  1  0  0  0
  2135  1  0  0  0
  6136  1  0  0  0
  9137  1  0  0  0
  9138  1  0  0  0
 10139  1  0  0  0
 10140  1  0  0  0
 11141  1  0  0  0
 11142  1  0  0  0
 12143  1  0  0  0
 13144  1  0  0  0
 13145  1  0  0  0
 16146  1  0  0  0
 17147  1  0  0  0
 20148  1  0  0  0
 20149  1  0  0  0
 21150  1  0  0  0
 22151  1  0  0  0
 23152  1  0  0  0
 26153  1  0  0  0
 26154  1  0  0  0
 27155  1  0  0  0
 27156  1  0  0  0
 28157  1  0  0  0
 28158  1  0  0  0
 29159  1  0  0  0
 31160  1  0  0  0
 31161  1  0  0  0
 32162  1  0  0  0
 33163  1  0  0  0
 34164  1  0  0  0
 34165  1  0  0  0
 37166  1  0  0  0
 38167  1  0  0  0
 41168  1  0  0  0
 41169  1  0  0  0
 42170  1  0  0  0
 42171  1  0  0  0
 43172  1  0  0  0
 43173  1  0  0  0
 44174  1  0  0  0
 44175  1  0  0  0
 45176  1  0  0  0
 45177  1  0  0  0
 45178  1  0  0  0
 46179  1  0  0  0
 47180  1  0  0  0
 50181  1  0  0  0
 50182  1  0  0  0
 51183  1  0  0  0
 52184  1  0  0  0
 53185  1  0  0  0
 56186  1  0  0  0
 57187  1  0  0  0
 58188  1  0  0  0
 58189  1  0  0  0
 58190  1  0  0  0
 59191  1  0  0  0
 60192  1  0  0  0
 63193  1  0  0  0
 64194  1  0  0  0
 64195  1  0  0  0
 64196  1  0  0  0
 65197  1  0  0  0
 65198  1  0  0  0
 65199  1  0  0  0
 66200  1  0  0  0
 67201  1  0  0  0
 70202  1  0  0  0
 71203  1  0  0  0
 72204  1  0  0  0
 72205  1  0  0  0
 72206  1  0  0  0
 73207  1  0  0  0
 74208  1  0  0  0
 74209  1  0  0  0
 77210  1  0  0  0
 78211  1  0  0  0
 81212  1  0  0  0
 81213  1  0  0  0
 81214  1  0  0  0
 82215  1  0  0  0
 83216  1  0  0  0
 86217  1  0  0  0
 86218  1  0  0  0
 87219  1  0  0  0
 87220  1  0  0  0
 89221  1  0  0  0
 89222  1  0  0  0
 89223  1  0  0  0
 90224  1  0  0  0
 91225  1  0  0  0
 94226  1  0  0  0
 95227  1  0  0  0
 95228  1  0  0  0
 96229  1  0  0  0
 96230  1  0  0  0
 96231  1  0  0  0
 97232  1  0  0  0
 97233  1  0  0  0
 97234  1  0  0  0
 98235  1  0  0  0
 99236  1  0  0  0
102237  1  0  0  0
102238  1  0  0  0
103239  1  0  0  0
104240  1  0  0  0
105241  1  0  0  0
105242  1  0  0  0
108243  1  0  0  0
109244  1  0  0  0
112245  1  0  0  0
112246  1  0  0  0
114247  1  0  0  0
118248  1  0  0  0
119249  1  0  0  0
120250  1  0  0  0
121251  1  0  0  0
122252  1  0  0  0
123253  1  0  0  0
125254  1  0  0  0
126255  1  0  0  0
126256  1  0  0  0
127257  1  0  0  0
128258  1  0  0  0
128259  1  0  0  0
128260  1  0  0  0
129261  1  0  0  0
129262  1  0  0  0
129263  1  0  0  0
M  END
$$$$
