### 
### Created by X-TOOL on Mon Sep 10 21:13:26 2018
### 

@<TRIPOS>MOLECULE
5f67_ligand
  264   266     1     0     0
SMALL
GAST_HUCK


@<TRIPOS>ATOM
      1 N          34.9610    0.8390    3.1320 N.4       1 GLY         0.2357
      2 CA         34.0880    0.7850    4.2910 C.3       1 GLY         0.0547
      3 C          33.2240   -0.4580    4.2610 C.2       1 GLY         0.2261
      4 O          33.1700   -1.1510    3.2430 O.2       1 GLY        -0.3908
      5 N          32.5500   -0.7570    5.3790 N.am      1 PRO        -0.2474
      6 CA         31.6850   -1.9400    5.3810 C.3       1 PRO         0.1339
      7 C          30.4640   -1.7120    4.5000 C.2       1 PRO         0.2039
      8 O          30.0290   -0.5670    4.3450 O.2       1 PRO        -0.3944
      9 CB         31.2790   -2.0840    6.8510 C.3       1 PRO        -0.0104
     10 CG         31.4410   -0.7100    7.4380 C.3       1 PRO        -0.0281
     11 CD         32.5710   -0.0660    6.6810 C.3       1 PRO         0.0370
     12 N          29.9250   -2.7840    3.9260 N.am      1 GLY        -0.2664
     13 CA         28.8000   -2.6630    3.0150 C.3       1 GLY         0.1201
     14 C          27.5540   -2.1460    3.6980 C.2       1 GLY         0.2008
     15 O          27.3600   -2.3700    4.8940 O.2       1 GLY        -0.3947
     16 N          26.6900   -1.4660    2.9460 N.am      1 SER        -0.2618
     17 CA         25.4890   -0.9050    3.5510 C.3       1 SER         0.1539
     18 C          24.5320   -2.0350    3.9170 C.2       1 SER         0.2062
     19 O          23.7670   -1.9320    4.8790 O.2       1 SER        -0.3943
     20 CB         24.8110    0.0920    2.6110 C.3       1 SER         0.0843
     21 OG         24.1400   -0.5710    1.5500 O.3       1 SER        -0.3903
     22 N          24.5820   -3.1210    3.1490 N.am      1 ARG        -0.2637
     23 CA         23.7380   -4.2780    3.4480 C.3       1 ARG         0.1311
     24 C          24.4000   -5.2430    4.4290 C.2       1 ARG         0.2037
     25 O          25.5830   -5.5620    4.3060 O.2       1 ARG        -0.3944
     26 CB         23.3380   -5.0010    2.1620 C.3       1 ARG        -0.0092
     27 CG         22.3540   -4.2000    1.3380 C.3       1 ARG        -0.0156
     28 CD         21.9160   -4.9330    0.0820 C.3       1 ARG         0.0627
     29 NE         23.0270   -5.1550   -0.8390 N.pl3     1 ARG        -0.2723
     30 CZ         23.6370   -4.1950   -1.5340 C.cat     1 ARG         0.2882
     31 NH1        23.2630   -2.9260   -1.4070 N.pl3     1 ARG        -0.2849
     32 NH2        24.6340   -4.5050   -2.3520 N.pl3     1 ARG        -0.2849
     33 N          23.6330   -5.6960    5.4130 N.am      1 GLY        -0.2664
     34 CA         24.1470   -6.6140    6.4150 C.3       1 GLY         0.1201
     35 C          23.0380   -7.5310    6.8840 C.2       1 GLY         0.2007
     36 O          21.8620   -7.2790    6.6140 O.2       1 GLY        -0.3947
     37 N          23.4030   -8.5920    7.5930 N.am      1 LYS        -0.2640
     38 CA         22.4330   -9.6170    7.9560 C.3       1 LYS         0.1310
     39 C          21.6350   -9.2910    9.2200 C.2       1 LYS         0.2040
     40 O          22.2010   -9.0350   10.2790 O.2       1 LYS        -0.3944
     41 CB         23.1330  -10.9680    8.1000 C.3       1 LYS        -0.0122
     42 CG         22.1800  -12.1430    8.2290 C.3       1 LYS        -0.0440
     43 CD         22.8920  -13.4560    7.9570 C.3       1 LYS        -0.0124
     44 CE         22.3390  -14.5470    8.8490 C.3       1 LYS        -0.0354
     45 NZ         22.3050  -14.0910   10.2740 N.4       1 LYS         0.2185
     46 N          20.3120   -9.3160    9.0980 N.am      1 SER        -0.2616
     47 CA         19.4180   -9.0930   10.2240 C.3       1 SER         0.1539
     48 C          19.4330  -10.2770   11.1890 C.2       1 SER         0.2063
     49 O          19.2920  -11.4200   10.7620 O.2       1 SER        -0.3943
     50 CB         17.9890   -8.8960    9.7020 C.3       1 SER         0.0843
     51 OG         17.0530   -8.9630   10.7610 O.3       1 SER        -0.3903
     52 N          19.5950  -10.0130   12.4840 N.am      1 THR        -0.2613
     53 CA         19.5080  -11.0800   13.4780 C.3       1 THR         0.1565
     54 C          18.0610  -11.5110   13.7030 C.2       1 THR         0.2065
     55 O          17.7980  -12.6180   14.1800 O.2       1 THR        -0.3943
     56 CB         20.1780  -10.6880   14.8290 C.3       1 THR         0.0924
     57 OG1        19.7090   -9.4050   15.2530 O.3       1 THR        -0.3874
     58 CG2        21.6840  -10.6360   14.6700 C.3       1 THR        -0.0346
     59 N          17.1270  -10.6300   13.3580 N.am      1 VAL        -0.2634
     60 CA         15.6990  -10.9340   13.4940 C.3       1 VAL         0.1333
     61 C          15.1610  -11.7950   12.3500 C.2       1 VAL         0.2042
     62 O          14.4600  -12.7820   12.5870 O.2       1 VAL        -0.3944
     63 CB         14.8630   -9.6460   13.6370 C.3       1 VAL        -0.0063
     64 CG1        13.3580   -9.9530   13.5560 C.3       1 VAL        -0.0584
     65 CG2        15.2020   -8.9500   14.9510 C.3       1 VAL        -0.0584
     66 N          15.4960  -11.4360   11.1130 N.am      1 THR        -0.2613
     67 CA         14.9310  -12.1210    9.9510 C.3       1 THR         0.1565
     68 C          15.9140  -13.0390    9.2240 C.2       1 THR         0.2063
     69 O          15.5010  -13.9420    8.4920 O.2       1 THR        -0.3943
     70 CB         14.3860  -11.1150    8.9170 C.3       1 THR         0.0924
     71 OG1        15.4790  -10.4640    8.2580 O.3       1 THR        -0.3874
     72 CG2        13.5140  -10.0740    9.5990 C.3       1 THR        -0.0346
     73 N          17.2090  -12.7980    9.4030 N.am      1 GLY        -0.2663
     74 CA         18.2240  -13.5410    8.6750 C.3       1 GLY         0.1201
     75 C          18.4270  -12.9940    7.2690 C.2       1 GLY         0.2007
     76 O          19.2620  -13.4920    6.5120 O.2       1 GLY        -0.3947
     77 N          17.6630  -11.9640    6.9160 N.am      1 ARG        -0.2642
     78 CA         17.7470  -11.3740    5.5810 C.3       1 ARG         0.1282
     79 C          18.8440  -10.3140    5.5070 C.2       1 ARG         0.2036
     80 O          19.2070   -9.7060    6.5160 O.2       1 ARG        -0.3944
     81 CB         16.4010  -10.7640    5.1740 C.3       1 ARG        -0.0244
     82 N          19.3690  -10.1040    4.3040 N.am      1 MET        -0.2637
     83 CA         20.3670   -9.0670    4.0570 C.3       1 MET         0.1317
     84 C          19.6350   -7.7730    3.7330 C.2       1 MET         0.2039
     85 O          18.9950   -7.6590    2.6880 O.2       1 MET        -0.3944
     86 CB         21.2600   -9.4640    2.8790 C.3       1 MET        -0.0034
     87 CG         22.0920  -10.7210    3.1260 C.3       1 MET        -0.0024
     88 SD         23.4010  -10.4330    4.3350 S.3       1 MET        -0.1639
     89 CE         24.1530   -8.9660    3.6220 C.3       1 MET        -0.0181
     90 N          19.7200   -6.7980    4.6320 N.am      1 ILE        -0.2635
     91 CA         18.9770   -5.5520    4.4790 C.3       1 ILE         0.1335
     92 C          19.8890   -4.3400    4.6810 C.2       1 ILE         0.2042
     93 O          20.9820   -4.4650    5.2330 O.2       1 ILE        -0.3944
     94 CB         17.8130   -5.4800    5.4970 C.3       1 ILE        -0.0037
     95 CG1        18.3490   -5.4960    6.9270 C.3       1 ILE        -0.0491
     96 CG2        16.8210   -6.6340    5.2820 C.3       1 ILE        -0.0582
     97 CD1        17.2460   -5.5390    7.9940 C.3       1 ILE        -0.0648
     98 N          19.4380   -3.1680    4.2410 N.am      1 SER        -0.2616
     99 CA         20.1770   -1.9290    4.4840 C.3       1 SER         0.1539
    100 C          19.3920   -1.0830    5.4850 C.2       1 SER         0.2060
    101 O          18.4290   -1.5700    6.0900 O.2       1 SER        -0.3943
    102 CB         20.3950   -1.1650    3.1730 C.3       1 SER         0.0843
    103 OG         19.1580   -0.7170    2.6350 O.3       1 SER        -0.3903
    104 N          19.7900    0.1720    5.6710 N.am      1 GLY        -0.2663
    105 CA         19.0710    1.0520    6.5820 C.3       1 GLY         0.1201
    106 C          19.5620    0.9360    8.0110 C.2       1 GLY         0.2008
    107 O          18.8450    1.2540    8.9680 O.2       1 GLY        -0.3947
    108 N          20.7960    0.4760    8.1660 N.am      1 TRP        -0.2629
    109 CA         21.3800    0.3530    9.4960 C.3       1 TRP         0.1351
    110 C          21.7980    1.6970   10.0620 C.2       1 TRP         0.2046
    111 O          22.3540    2.5400    9.3510 O.2       1 TRP        -0.3943
    112 CB         22.5810   -0.6040    9.4700 C.3       1 TRP         0.0042
    113 CG         22.1530   -2.0050    9.1420 C.2       1 TRP        -0.0418
    114 CD1        22.2790   -2.6560    7.9430 C.2       1 TRP         0.0167
    115 CD2        21.4800   -2.9130   10.0230 C.ar      1 TRP        -0.0214
    116 NE1        21.7320   -3.9190    8.0340 N.pl3     1 TRP        -0.2890
    117 CE2        21.2330   -4.1000    9.3010 C.ar      1 TRP         0.0603
    118 CE3        21.0620   -2.8320   11.3640 C.ar      1 TRP        -0.0747
    119 CZ2        20.5860   -5.2080    9.8710 C.ar      1 TRP        -0.0443
    120 CZ3        20.4180   -3.9300   11.9310 C.ar      1 TRP        -0.0792
    121 CH2        20.1910   -5.1010   11.1860 C.ar      1 TRP        -0.0768
    122 N          21.5250    1.8900   11.3490 N.am      1 LEU        -0.2694
    123 CA         22.0380    3.0350   12.0860 C.3       1 LEU         0.0946
    124 C          23.3490    2.6160   12.7330 C.2       1 LEU         0.0601
    125 O          24.2940    3.4030   12.8930 O.co2     1 LEU        -0.5666
    126 CB         21.0290    3.4560   13.1550 C.3       1 LEU        -0.0156
    127 CG         19.6830    3.8710   12.5730 C.3       1 LEU        -0.0431
    128 CD1        18.7080    4.2410   13.6750 C.3       1 LEU        -0.0625
    129 CD2        19.8860    5.0270   11.6290 C.3       1 LEU        -0.0625
    130 OXT        23.4890    1.4370   13.0840 O.co2     1 LEU        -0.5666
    131 H1         35.5248    1.6735    3.1747 H         1 GLY         0.2012
    132 H2         34.4039    0.8525    2.2920 H         1 GLY         0.2012
    133 H3         35.5604    0.0286    3.1247 H         1 GLY         0.2012
    134 H4         33.4398    1.6737    4.2951 H         1 GLY         0.1061
    135 H5         34.7018    0.7746    5.2037 H         1 GLY         0.1061
    136 H6         32.2304   -2.8297    5.0334 H         1 PRO         0.0802
    137 H7         31.9346   -2.8029    7.3641 H         1 PRO         0.0313
    138 H8         30.2341   -2.4179    6.9322 H         1 PRO         0.0313
    139 H9         31.6876   -0.7781    8.5078 H         1 PRO         0.0287
    140 H10        30.5158   -0.1287    7.3112 H         1 PRO         0.0287
    141 H11        32.3965    1.0129    6.5565 H         1 PRO         0.0524
    142 H12        33.5301   -0.2254    7.1954 H         1 PRO         0.0524
    143 H13        30.3008   -3.6891    4.1251 H         1 GLY         0.1881
    144 H14        28.5832   -3.6536    2.5888 H         1 GLY         0.0763
    145 H15        29.0734   -1.9681    2.2073 H         1 GLY         0.0763
    146 H16        26.8651   -1.3409    1.9694 H         1 SER         0.1884
    147 H17        25.7752   -0.3737    4.4707 H         1 SER         0.0823
    148 H18        25.5744    0.7618    2.1885 H         1 SER         0.0606
    149 H19        24.0804    0.6831    3.1827 H         1 SER         0.0606
    150 H20        23.7299    0.0730    0.9847 H         1 SER         0.2097
    151 H21        25.2000   -3.1462    2.3632 H         1 ARG         0.1883
    152 H22        22.8193   -3.9032    3.9228 H         1 ARG         0.0800
    153 H23        22.8773   -5.9644    2.4259 H         1 ARG         0.0313
    154 H24        24.2414   -5.1792    1.5602 H         1 ARG         0.0313
    155 H25        22.8282   -3.2515    1.0457 H         1 ARG         0.0301
    156 H26        21.4660   -3.9918    1.9529 H         1 ARG         0.0301
    157 H27        21.1465   -4.3348   -0.4279 H         1 ARG         0.0689
    158 H28        21.4929   -5.9070    0.3688 H         1 ARG         0.0689
    159 H29        23.3629   -6.1211   -0.9602 H         1 ARG         0.2642
    160 H30        23.7408   -2.1916   -1.9486 H         1 ARG         0.2615
    161 H31        22.4953   -2.6769   -0.7670 H         1 ARG         0.2615
    162 H32        24.9292   -5.4864   -2.4554 H         1 ARG         0.2615
    163 H33        25.1131   -3.7644   -2.8839 H         1 ARG         0.2615
    164 H34        22.6797   -5.3987    5.4659 H         1 GLY         0.1881
    165 H35        24.5345   -6.0417    7.2707 H         1 GLY         0.0763
    166 H36        24.9582   -7.2151    5.9783 H         1 GLY         0.0763
    167 H37        24.3555   -8.6892    7.8816 H         1 LYS         0.1883
    168 H38        21.7132   -9.6944    7.1278 H         1 LYS         0.0800
    169 H39        23.7669  -10.9358    8.9984 H         1 LYS         0.0312
    170 H40        23.7626  -11.1284    7.2124 H         1 LYS         0.0312
    171 H41        21.3604  -12.0221    7.5054 H         1 LYS         0.0269
    172 H42        21.7688  -12.1619    9.2491 H         1 LYS         0.0269
    173 H43        23.9669  -13.3342    8.1563 H         1 LYS         0.0317
    174 H44        22.7439  -13.7380    6.9041 H         1 LYS         0.0317
    175 H45        22.9782  -15.4386    8.7693 H         1 LYS         0.0813
    176 H46        21.3182  -14.7974    8.5245 H         1 LYS         0.0813
    177 H47        21.9349  -14.8278   10.8538 H         1 LYS         0.1994
    178 H48        21.7180  -13.2753   10.3519 H         1 LYS         0.1994
    179 H49        23.2392  -13.8629   10.5762 H         1 LYS         0.1994
    180 H50        19.9156   -9.4950    8.1975 H         1 SER         0.1884
    181 H51        19.7393   -8.1887   10.7615 H         1 SER         0.0823
    182 H52        17.7611   -9.6839    8.9690 H         1 SER         0.0606
    183 H53        17.9148   -7.9115    9.2171 H         1 SER         0.0606
    184 H54        17.2445   -8.2819   11.3950 H         1 SER         0.2097
    185 H55        19.7780   -9.0752   12.7790 H         1 THR         0.1884
    186 H56        20.0556  -11.9458   13.0774 H         1 THR         0.0826
    187 H57        19.9193  -11.4392   15.5897 H         1 THR         0.0639
    188 H58        19.9277   -8.7557   14.5948 H         1 THR         0.2101
    189 H59        22.1446  -10.3585   15.6296 H         1 THR         0.0257
    190 H60        21.9466   -9.8880   13.9074 H         1 THR         0.0257
    191 H61        22.0541  -11.6237   14.3577 H         1 THR         0.0257
    192 H62        17.4047   -9.7396   12.9975 H         1 VAL         0.1883
    193 H63        15.5789  -11.5125   14.4219 H         1 VAL         0.0802
    194 H64        15.1216   -8.9704   12.8083 H         1 VAL         0.0343
    195 H65        12.7871   -9.0186   13.6607 H         1 VAL         0.0234
    196 H66        13.0808  -10.6447   14.3651 H         1 VAL         0.0234
    197 H67        13.1298  -10.4151   12.5842 H         1 VAL         0.0234
    198 H68        16.2813   -8.7405   14.9871 H         1 VAL         0.0234
    199 H69        14.9267   -9.6021   15.7930 H         1 VAL         0.0234
    200 H70        14.6426   -8.0054   15.0206 H         1 VAL         0.0234
    201 H71        16.1438  -10.6866   10.9761 H         1 THR         0.1884
    202 H72        14.0951  -12.7381   10.3122 H         1 THR         0.0826
    203 H73        13.7840  -11.6562    8.1722 H         1 THR         0.0639
    204 H74        16.0056  -10.0032    8.9005 H         1 THR         0.2101
    205 H75        13.1340   -9.3654    8.8484 H         1 THR         0.0257
    206 H76        14.1091   -9.5308   10.3478 H         1 THR         0.0257
    207 H77        12.6676  -10.5722   10.0944 H         1 THR         0.0257
    208 H78        17.4905  -12.0910   10.0518 H         1 GLY         0.1881
    209 H79        17.9132  -14.5939    8.6057 H         1 GLY         0.0763
    210 H80        19.1753  -13.4748    9.2233 H         1 GLY         0.0763
    211 H81        17.0169  -11.5848    7.5784 H         1 ARG         0.1883
    212 H82        17.9942  -12.1749    4.8687 H         1 ARG         0.0797
    213 H83        16.4859  -10.3264    4.1684 H         1 ARG         0.0277
    214 H84        16.1215   -9.9796    5.8928 H         1 ARG         0.0277
    215 H85        15.6296  -11.5482    5.1686 H         1 ARG         0.0277
    216 H86        19.0698  -10.6767    3.5408 H         1 MET         0.1883
    217 H87        20.9876   -8.9287    4.9546 H         1 MET         0.0800
    218 H88        21.9465   -8.6306    2.6691 H         1 MET         0.0320
    219 H89        20.6187   -9.6404    2.0029 H         1 MET         0.0320
    220 H90        22.5480  -11.0382    2.1766 H         1 MET         0.0378
    221 H91        21.4315  -11.5173    3.4996 H         1 MET         0.0378
    222 H92        24.9954   -8.6431    4.2513 H         1 MET         0.0340
    223 H93        23.4060   -8.1604    3.5678 H         1 MET         0.0340
    224 H94        24.5183   -9.1960    2.6102 H         1 MET         0.0340
    225 H95        20.3070   -6.9214    5.4321 H         1 ILE         0.1883
    226 H96        18.5617   -5.5172    3.4610 H         1 ILE         0.0803
    227 H97        17.2772   -4.5323    5.3396 H         1 ILE         0.0345
    228 H98        18.9498   -4.5880    7.0838 H         1 ILE         0.0267
    229 H99        18.9869   -6.3836    7.0498 H         1 ILE         0.0267
    230 H100       16.4457   -6.6071    4.2484 H         1 ILE         0.0235
    231 H101       15.9782   -6.5281    5.9809 H         1 ILE         0.0235
    232 H102       17.3290   -7.5928    5.4627 H         1 ILE         0.0235
    233 H103       17.7036   -5.5485    8.9942 H         1 ILE         0.0230
    234 H104       16.6406   -6.4475    7.8592 H         1 ILE         0.0230
    235 H105       16.6035   -4.6519    7.8932 H         1 ILE         0.0230
    236 H106       18.5767   -3.1334    3.7341 H         1 SER         0.1884
    237 H107       21.1590   -2.1745    4.9146 H         1 SER         0.0823
    238 H108       20.8842   -1.8298    2.4459 H         1 SER         0.0606
    239 H109       21.0398   -0.2950    3.3661 H         1 SER         0.0606
    240 H110       18.5989   -1.4656    2.4634 H         1 SER         0.2097
    241 H111       20.5910    0.5151    5.1805 H         1 GLY         0.1881
    242 H112       18.0027    0.7916    6.5541 H         1 GLY         0.0763
    243 H113       19.2040    2.0912    6.2468 H         1 GLY         0.0763
    244 H114       21.3307    0.2112    7.3635 H         1 TRP         0.1884
    245 H115       20.6150   -0.0722   10.1623 H         1 TRP         0.0815
    246 H116       23.0651   -0.5989   10.4577 H         1 TRP         0.0397
    247 H117       23.2970   -0.2603    8.7089 H         1 TRP         0.0397
    248 H118       22.7423   -2.2382    7.0504 H         1 TRP         0.0795
    249 H119       21.7025   -4.6142    7.2745 H         1 TRP         0.2216
    250 H120       21.2374   -1.9335   11.9445 H         1 TRP         0.0540
    251 H121       20.4047   -6.1110    9.2993 H         1 TRP         0.0541
    252 H122       20.0870   -3.8808   12.9620 H         1 TRP         0.0510
    253 H123       19.6929   -5.9399   11.6584 H         1 TRP         0.0530
    254 H124       20.9484    1.2267   11.8259 H         1 LEU         0.1875
    255 H125       22.2134    3.8755   11.3984 H         1 LEU         0.0726
    256 H126       21.4458    4.3061   13.7150 H         1 LEU         0.0308
    257 H127       20.8691    2.6094   13.8389 H         1 LEU         0.0308
    258 H128       19.2655    3.0236   12.0095 H         1 LEU         0.0297
    259 H129       17.7464    4.5362   13.2299 H         1 LEU         0.0232
    260 H130       19.1150    5.0802   14.2582 H         1 LEU         0.0232
    261 H131       18.5557    3.3750   14.3359 H         1 LEU         0.0232
    262 H132       20.5952    4.7360   10.8401 H         1 LEU         0.0232
    263 H133       20.2879    5.8875   12.1840 H         1 LEU         0.0232
    264 H134       18.9233    5.3018   11.1734 H         1 LEU         0.0232
@<TRIPOS>BOND
     1    1    2 1  
     2    2    3 1  
     3    3    4 2  
     4    3    5 am 
     5    5    6 1  
     6    5   11 1  
     7    6    7 1  
     8    6    9 1  
     9    7    8 2  
    10    7   12 am 
    11    9   10 1  
    12   10   11 1  
    13   12   13 1  
    14   13   14 1  
    15   14   15 2  
    16   14   16 am 
    17   16   17 1  
    18   17   18 1  
    19   17   20 1  
    20   18   19 2  
    21   18   22 am 
    22   20   21 1  
    23   22   23 1  
    24   23   24 1  
    25   23   26 1  
    26   24   25 2  
    27   24   33 am 
    28   26   27 1  
    29   27   28 1  
    30   28   29 1  
    31   29   30 ar 
    32   30   31 ar 
    33   30   32 ar 
    34   33   34 1  
    35   34   35 1  
    36   35   36 2  
    37   35   37 am 
    38   37   38 1  
    39   38   39 1  
    40   38   41 1  
    41   39   40 2  
    42   39   46 am 
    43   41   42 1  
    44   42   43 1  
    45   43   44 1  
    46   44   45 1  
    47   46   47 1  
    48   47   48 1  
    49   47   50 1  
    50   48   49 2  
    51   48   52 am 
    52   50   51 1  
    53   52   53 1  
    54   53   54 1  
    55   53   56 1  
    56   54   55 2  
    57   54   59 am 
    58   56   57 1  
    59   56   58 1  
    60   59   60 1  
    61   60   61 1  
    62   60   63 1  
    63   61   62 2  
    64   61   66 am 
    65   63   64 1  
    66   63   65 1  
    67   66   67 1  
    68   67   68 1  
    69   67   70 1  
    70   68   69 2  
    71   68   73 am 
    72   70   71 1  
    73   70   72 1  
    74   73   74 1  
    75   74   75 1  
    76   75   76 2  
    77   75   77 am 
    78   77   78 1  
    79   78   79 1  
    80   78   81 1  
    81   79   80 2  
    82   79   82 am 
    83   82   83 1  
    84   83   84 1  
    85   83   86 1  
    86   84   85 2  
    87   84   90 am 
    88   86   87 1  
    89   87   88 1  
    90   88   89 1  
    91   90   91 1  
    92   91   92 1  
    93   91   94 1  
    94   92   93 2  
    95   92   98 am 
    96   94   95 1  
    97   94   96 1  
    98   95   97 1  
    99   98   99 1  
   100   99  100 1  
   101   99  102 1  
   102  100  101 2  
   103  100  104 am 
   104  102  103 1  
   105  104  105 1  
   106  105  106 1  
   107  106  107 2  
   108  106  108 am 
   109  108  109 1  
   110  109  110 1  
   111  109  112 1  
   112  110  111 2  
   113  110  122 am 
   114  112  113 1  
   115  113  114 2  
   116  113  115 1  
   117  114  116 1  
   118  115  117 ar 
   119  115  118 ar 
   120  116  117 1  
   121  117  119 ar 
   122  118  120 ar 
   123  119  121 ar 
   124  120  121 ar 
   125  122  123 1  
   126  123  124 1  
   127  123  126 1  
   128  124  125 ar 
   129  124  130 ar 
   130  126  127 1  
   131  127  128 1  
   132  127  129 1  
   133    1  131 1  
   134    1  132 1  
   135    1  133 1  
   136    2  134 1  
   137    2  135 1  
   138    6  136 1  
   139    9  137 1  
   140    9  138 1  
   141   10  139 1  
   142   10  140 1  
   143   11  141 1  
   144   11  142 1  
   145   12  143 1  
   146   13  144 1  
   147   13  145 1  
   148   16  146 1  
   149   17  147 1  
   150   20  148 1  
   151   20  149 1  
   152   21  150 1  
   153   22  151 1  
   154   23  152 1  
   155   26  153 1  
   156   26  154 1  
   157   27  155 1  
   158   27  156 1  
   159   28  157 1  
   160   28  158 1  
   161   29  159 1  
   162   31  160 1  
   163   31  161 1  
   164   32  162 1  
   165   32  163 1  
   166   33  164 1  
   167   34  165 1  
   168   34  166 1  
   169   37  167 1  
   170   38  168 1  
   171   41  169 1  
   172   41  170 1  
   173   42  171 1  
   174   42  172 1  
   175   43  173 1  
   176   43  174 1  
   177   44  175 1  
   178   44  176 1  
   179   45  177 1  
   180   45  178 1  
   181   45  179 1  
   182   46  180 1  
   183   47  181 1  
   184   50  182 1  
   185   50  183 1  
   186   51  184 1  
   187   52  185 1  
   188   53  186 1  
   189   56  187 1  
   190   57  188 1  
   191   58  189 1  
   192   58  190 1  
   193   58  191 1  
   194   59  192 1  
   195   60  193 1  
   196   63  194 1  
   197   64  195 1  
   198   64  196 1  
   199   64  197 1  
   200   65  198 1  
   201   65  199 1  
   202   65  200 1  
   203   66  201 1  
   204   67  202 1  
   205   70  203 1  
   206   71  204 1  
   207   72  205 1  
   208   72  206 1  
   209   72  207 1  
   210   73  208 1  
   211   74  209 1  
   212   74  210 1  
   213   77  211 1  
   214   78  212 1  
   215   81  213 1  
   216   81  214 1  
   217   81  215 1  
   218   82  216 1  
   219   83  217 1  
   220   86  218 1  
   221   86  219 1  
   222   87  220 1  
   223   87  221 1  
   224   89  222 1  
   225   89  223 1  
   226   89  224 1  
   227   90  225 1  
   228   91  226 1  
   229   94  227 1  
   230   95  228 1  
   231   95  229 1  
   232   96  230 1  
   233   96  231 1  
   234   96  232 1  
   235   97  233 1  
   236   97  234 1  
   237   97  235 1  
   238   98  236 1  
   239   99  237 1  
   240  102  238 1  
   241  102  239 1  
   242  103  240 1  
   243  104  241 1  
   244  105  242 1  
   245  105  243 1  
   246  108  244 1  
   247  109  245 1  
   248  112  246 1  
   249  112  247 1  
   250  114  248 1  
   251  116  249 1  
   252  118  250 1  
   253  119  251 1  
   254  120  252 1  
   255  121  253 1  
   256  122  254 1  
   257  123  255 1  
   258  126  256 1  
   259  126  257 1  
   260  127  258 1  
   261  128  259 1  
   262  128  260 1  
   263  128  261 1  
   264  129  262 1  
   265  129  263 1  
   266  129  264 1  
@<TRIPOS>SUBSTRUCTURE
     1 GLY         1

