### 
### Created by X-TOOL on Wed Jan  1 15:39:37 2020
### 

@<TRIPOS>MOLECULE
5wou_ligand
  125   126     1     0     0
SMALL
GAST_HUCK


@<TRIPOS>ATOM
      1 N           5.9910   37.4530   29.8630 N.4       1 LEU         0.2379
      2 CA          6.8740   36.8060   30.8190 C.3       1 LEU         0.0654
      3 C           8.2980   36.8800   30.3200 C.2       1 LEU         0.2292
      4 O           8.5300   36.8990   29.1100 O.2       1 LEU        -0.3905
      5 CB          6.4810   35.3460   31.0350 C.3       1 LEU         0.0102
      6 CG          5.1190   35.0930   31.6760 C.3       1 LEU        -0.0394
      7 CD1         4.8540   33.5960   31.7550 C.3       1 LEU        -0.0623
      8 CD2         5.0420   35.7230   33.0480 C.3       1 LEU        -0.0623
      9 N           9.2570   36.9130   31.2380 N.am      1 PRO        -0.2471
     10 CA         10.6570   36.8870   30.8180 C.3       1 PRO         0.1339
     11 C          10.9870   35.5560   30.1710 C.2       1 PRO         0.2042
     12 O          10.4220   34.5150   30.5150 O.2       1 PRO        -0.3944
     13 CB         11.4270   37.0810   32.1280 C.3       1 PRO        -0.0104
     14 CG         10.5270   36.4950   33.1590 C.3       1 PRO        -0.0281
     15 CD          9.1280   36.8290   32.7050 C.3       1 PRO         0.0371
     16 N          11.8990   35.6050   29.2110 N.am      1 SER        -0.2616
     17 CA         12.4570   34.4080   28.5940 C.3       1 SER         0.1539
     18 C          13.9540   34.4620   28.8640 C.2       1 SER         0.2063
     19 O          14.6930   35.1560   28.1610 O.2       1 SER        -0.3943
     20 CB         12.1460   34.3500   27.1030 C.3       1 SER         0.0843
     21 OG         12.4570   33.0720   26.5760 O.3       1 SER        -0.3903
     22 N          14.3910   33.7450   29.8940 N.am      1 PHE        -0.2619
     23 CA         15.7680   33.7960   30.3570 C.3       1 PHE         0.1404
     24 C          16.5280   32.5670   29.8830 C.2       1 PHE         0.2060
     25 O          15.9860   31.4580   29.8610 O.2       1 PHE        -0.3942
     26 CB         15.8300   33.8700   31.8850 C.3       1 PHE         0.0214
     27 CG         15.3770   35.1870   32.4580 C.ar      1 PHE        -0.0386
     28 CD1        15.8200   36.3850   31.9250 C.ar      1 PHE        -0.0601
     29 CD2        14.5080   35.2220   33.5360 C.ar      1 PHE        -0.0601
     30 CE1        15.4060   37.5940   32.4550 C.ar      1 PHE        -0.0686
     31 CE2        14.0910   36.4290   34.0720 C.ar      1 PHE        -0.0686
     32 CZ         14.5400   37.6150   33.5270 C.ar      1 PHE        -0.0687
     33 N          17.7820   32.7790   29.4950 N.am      1 GLU        -0.2635
     34 CA         18.7370   31.7030   29.2710 C.3       1 GLU         0.1325
     35 C          20.0940   32.2080   29.7240 C.2       1 GLU         0.2041
     36 O          20.5290   33.2820   29.2980 O.2       1 GLU        -0.3944
     37 CB         18.7870   31.2660   27.8010 C.3       1 GLU        -0.0008
     38 CG         19.7240   30.0950   27.5510 C.3       1 GLU         0.0044
     39 CD         19.5180   29.4540   26.1900 C.2       1 GLU         0.0350
     40 OE1        18.4910   29.7420   25.5400 O.co2     1 GLU        -0.5690
     41 OE2        20.3780   28.6550   25.7700 O.co2     1 GLU        -0.5690
     42 N          20.7520   31.4480   30.5940 N.am      1 THR        -0.2613
     43 CA         21.9920   31.8780   31.2260 C.3       1 THR         0.1565
     44 C          23.0460   30.8070   31.0160 C.2       1 THR         0.2065
     45 O          22.8440   29.6490   31.4040 O.2       1 THR        -0.3943
     46 CB         21.7830   32.1510   32.7180 C.3       1 THR         0.0924
     47 OG1        20.7550   33.1370   32.8840 O.3       1 THR        -0.3874
     48 CG2        23.0670   32.6550   33.3580 C.3       1 THR        -0.0346
     49 N          24.1600   31.1910   30.3980 N.am      1 ALA        -0.2639
     50 CA         25.3020   30.3110   30.2080 C.3       1 ALA         0.1282
     51 C          26.1720   30.3220   31.4550 C.2       1 ALA         0.2031
     52 O          26.4070   31.3780   32.0510 O.2       1 ALA        -0.3944
     53 CB         26.1230   30.7490   28.9960 C.3       1 ALA        -0.0244
     54 N          26.6590   29.1430   31.8350 N.am      1 LEU        -0.2695
     55 CA         27.3390   28.9630   33.1130 C.3       1 LEU         0.0946
     56 C          28.5670   28.0780   32.9650 C.2       1 LEU         0.0601
     57 O          29.3770   27.9690   33.8860 O.co2     1 LEU        -0.5666
     58 CB         26.3800   28.3560   34.1420 C.3       1 LEU        -0.0156
     59 CG         25.1540   29.2130   34.4620 C.3       1 LEU        -0.0431
     60 CD1        24.0990   28.4110   35.2140 C.3       1 LEU        -0.0625
     61 CD2        25.5620   30.4400   35.2600 C.3       1 LEU        -0.0625
     62 OXT        28.7710   27.4480   31.9280 O.co2     1 LEU        -0.5666
     63 H1          5.0410   37.4035   30.1962 H         1 LEU         0.2015
     64 H2          6.0595   36.9856   28.9726 H         1 LEU         0.2015
     65 H3          6.2600   38.4187   29.7572 H         1 LEU         0.2015
     66 H4          6.8027   37.3360   31.7802 H         1 LEU         0.1098
     67 H5          7.2442   34.8868   31.6805 H         1 LEU         0.0348
     68 H6          6.4849   34.8504   30.0530 H         1 LEU         0.0348
     69 H7          4.3455   35.5512   31.0422 H         1 LEU         0.0299
     70 H8          3.8714   33.4215   32.2177 H         1 LEU         0.0232
     71 H9          5.6357   33.1168   32.3627 H         1 LEU         0.0232
     72 H10         4.8633   33.1680   30.7417 H         1 LEU         0.0232
     73 H11         5.2363   36.8027   32.9671 H         1 LEU         0.0232
     74 H12         5.7946   35.2633   33.7054 H         1 LEU         0.0232
     75 H13         4.0390   35.5616   33.4698 H         1 LEU         0.0232
     76 H14        10.8739   37.7023   30.1122 H         1 PRO         0.0802
     77 H15        11.6043   38.1488   32.3239 H         1 PRO         0.0313
     78 H16        12.3892   36.5487   32.0996 H         1 PRO         0.0313
     79 H17        10.7286   36.9407   34.1442 H         1 PRO         0.0287
     80 H18        10.6637   35.4050   33.2147 H         1 PRO         0.0287
     81 H19         8.4208   36.0374   32.9935 H         1 PRO         0.0524
     82 H20         8.7958   37.7891   33.1268 H         1 PRO         0.0524
     83 H21        12.2174   36.4995   28.8970 H         1 SER         0.1884
     84 H22        12.0302   33.5138   29.0717 H         1 SER         0.0823
     85 H23        12.7430   35.1114   26.5797 H         1 SER         0.0606
     86 H24        11.0760   34.5534   26.9491 H         1 SER         0.0606
     87 H25        12.2565   33.0562   25.6476 H         1 SER         0.2097
     88 H26        13.7466   33.1463   30.3697 H         1 PHE         0.1885
     89 H27        16.2457   34.6944   29.9391 H         1 PHE         0.0823
     90 H28        16.8707   33.6979   32.1968 H         1 PHE         0.0474
     91 H29        15.1882   33.0764   32.2952 H         1 PHE         0.0474
     92 H30        16.5003   36.3759   31.0811 H         1 PHE         0.0557
     93 H31        14.1499   34.2933   33.9654 H         1 PHE         0.0557
     94 H32        15.7625   38.5241   32.0274 H         1 PHE         0.0599
     95 H33        13.4133   36.4423   34.9179 H         1 PHE         0.0599
     96 H34        14.2120   38.5614   33.9415 H         1 PHE         0.0559
     97 H35        18.0833   33.7215   29.3503 H         1 GLU         0.1883
     98 H36        18.4485   30.8343   29.8811 H         1 GLU         0.0801
     99 H37        19.1257   32.1191   27.1949 H         1 GLU         0.0330
    100 H38        17.7733   30.9741   27.4892 H         1 GLU         0.0330
    101 H39        19.5506   29.3348   28.3269 H         1 GLU         0.0433
    102 H40        20.7613   30.4553   27.6159 H         1 GLU         0.0433
    103 H41        20.3819   30.5477   30.8231 H         1 THR         0.1884
    104 H42        22.3303   32.8085   30.7466 H         1 THR         0.0826
    105 H43        21.4763   31.2182   33.2137 H         1 THR         0.0639
    106 H44        21.0146   33.9400   32.4479 H         1 THR         0.2101
    107 H45        22.8938   32.8441   34.4277 H         1 THR         0.0257
    108 H46        23.3799   33.5881   32.8667 H         1 THR         0.0257
    109 H47        23.8561   31.8974   33.2427 H         1 THR         0.0257
    110 H48        24.2143   32.1264   30.0486 H         1 ALA         0.1883
    111 H49        24.9365   29.2877   30.0367 H         1 ALA         0.0797
    112 H50        26.9805   30.0717   28.8699 H         1 ALA         0.0277
    113 H51        26.4863   31.7756   29.1508 H         1 ALA         0.0277
    114 H52        25.4932   30.7149   28.0948 H         1 ALA         0.0277
    115 H53        26.5556   28.3567   31.2259 H         1 LEU         0.1875
    116 H54        27.6635   29.9499   33.4746 H         1 LEU         0.0726
    117 H55        26.9380   28.1951   35.0762 H         1 LEU         0.0308
    118 H56        26.0290   27.3887   33.7533 H         1 LEU         0.0308
    119 H57        24.7140   29.5499   33.5118 H         1 LEU         0.0297
    120 H58        23.2330   29.0545   35.4282 H         1 LEU         0.0232
    121 H59        24.5238   28.0415   36.1590 H         1 LEU         0.0232
    122 H60        23.7785   27.5581   34.5977 H         1 LEU         0.0232
    123 H61        26.3229   31.0045   34.7011 H         1 LEU         0.0232
    124 H62        25.9769   30.1259   36.2291 H         1 LEU         0.0232
    125 H63        24.6817   31.0779   35.4274 H         1 LEU         0.0232
@<TRIPOS>BOND
     1    1    2 1  
     2    2    3 1  
     3    2    5 1  
     4    3    4 2  
     5    3    9 am 
     6    5    6 1  
     7    6    7 1  
     8    6    8 1  
     9    9   10 1  
    10    9   15 1  
    11   10   11 1  
    12   10   13 1  
    13   11   12 2  
    14   11   16 am 
    15   13   14 1  
    16   14   15 1  
    17   16   17 1  
    18   17   18 1  
    19   17   20 1  
    20   18   19 2  
    21   18   22 am 
    22   20   21 1  
    23   22   23 1  
    24   23   24 1  
    25   23   26 1  
    26   24   25 2  
    27   24   33 am 
    28   26   27 1  
    29   27   28 ar 
    30   27   29 ar 
    31   28   30 ar 
    32   29   31 ar 
    33   30   32 ar 
    34   31   32 ar 
    35   33   34 1  
    36   34   35 1  
    37   34   37 1  
    38   35   36 2  
    39   35   42 am 
    40   37   38 1  
    41   38   39 1  
    42   39   40 ar 
    43   39   41 ar 
    44   42   43 1  
    45   43   44 1  
    46   43   46 1  
    47   44   45 2  
    48   44   49 am 
    49   46   47 1  
    50   46   48 1  
    51   49   50 1  
    52   50   51 1  
    53   50   53 1  
    54   51   52 2  
    55   51   54 am 
    56   54   55 1  
    57   55   56 1  
    58   55   58 1  
    59   56   57 ar 
    60   56   62 ar 
    61   58   59 1  
    62   59   60 1  
    63   59   61 1  
    64    1   63 1  
    65    1   64 1  
    66    1   65 1  
    67    2   66 1  
    68    5   67 1  
    69    5   68 1  
    70    6   69 1  
    71    7   70 1  
    72    7   71 1  
    73    7   72 1  
    74    8   73 1  
    75    8   74 1  
    76    8   75 1  
    77   10   76 1  
    78   13   77 1  
    79   13   78 1  
    80   14   79 1  
    81   14   80 1  
    82   15   81 1  
    83   15   82 1  
    84   16   83 1  
    85   17   84 1  
    86   20   85 1  
    87   20   86 1  
    88   21   87 1  
    89   22   88 1  
    90   23   89 1  
    91   26   90 1  
    92   26   91 1  
    93   28   92 1  
    94   29   93 1  
    95   30   94 1  
    96   31   95 1  
    97   32   96 1  
    98   33   97 1  
    99   34   98 1  
   100   37   99 1  
   101   37  100 1  
   102   38  101 1  
   103   38  102 1  
   104   42  103 1  
   105   43  104 1  
   106   46  105 1  
   107   47  106 1  
   108   48  107 1  
   109   48  108 1  
   110   48  109 1  
   111   49  110 1  
   112   50  111 1  
   113   53  112 1  
   114   53  113 1  
   115   53  114 1  
   116   54  115 1  
   117   55  116 1  
   118   58  117 1  
   119   58  118 1  
   120   59  119 1  
   121   60  120 1  
   122   60  121 1  
   123   60  122 1  
   124   61  123 1  
   125   61  124 1  
   126   61  125 1  
@<TRIPOS>SUBSTRUCTURE
     1 LEU         1

