5wou_ligand
  -I-interpret- 

127128  0  0  0  0  0  0  0  0999 V2000
    5.9910   37.4530   29.8630 N   0  3  0  0  0
    6.8740   36.8060   30.8190 C   0  0  0  0  0
    8.2980   36.8800   30.3200 C   0  0  0  0  0
    8.5300   36.8990   29.1100 O   0  0  0  0  0
    6.4810   35.3460   31.0350 C   0  0  0  0  0
    5.1190   35.0930   31.6760 C   0  0  0  0  0
    4.8540   33.5960   31.7550 C   0  0  0  0  0
    5.0420   35.7230   33.0480 C   0  0  0  0  0
    9.2570   36.9130   31.2380 N   0  0  0  0  0
   10.6570   36.8870   30.8180 C   0  0  0  0  0
   10.9870   35.5560   30.1710 C   0  0  0  0  0
   10.4220   34.5150   30.5150 O   0  0  0  0  0
   11.4270   37.0810   32.1280 C   0  0  0  0  0
   10.5270   36.4950   33.1590 C   0  0  0  0  0
    9.1280   36.8290   32.7050 C   0  0  0  0  0
   11.8990   35.6050   29.2110 N   0  0  0  0  0
   12.4570   34.4080   28.5940 C   0  0  0  0  0
   13.9540   34.4620   28.8640 C   0  0  0  0  0
   14.6930   35.1560   28.1610 O   0  0  0  0  0
   12.1460   34.3500   27.1030 C   0  0  0  0  0
   12.4570   33.0720   26.5760 O   0  0  0  0  0
   14.3910   33.7450   29.8940 N   0  0  0  0  0
   15.7680   33.7960   30.3570 C   0  0  0  0  0
   16.5280   32.5670   29.8830 C   0  0  0  0  0
   15.9860   31.4580   29.8610 O   0  0  0  0  0
   15.8300   33.8700   31.8850 C   0  0  0  0  0
   15.3770   35.1870   32.4580 C   0  0  0  0  0
   15.8200   36.3850   31.9250 C   0  0  0  0  0
   14.5080   35.2220   33.5360 C   0  0  0  0  0
   15.4060   37.5940   32.4550 C   0  0  0  0  0
   14.0910   36.4290   34.0720 C   0  0  0  0  0
   14.5400   37.6150   33.5270 C   0  0  0  0  0
   17.7820   32.7790   29.4950 N   0  0  0  0  0
   18.7370   31.7030   29.2710 C   0  0  0  0  0
   20.0940   32.2080   29.7240 C   0  0  0  0  0
   20.5290   33.2820   29.2980 O   0  0  0  0  0
   18.7870   31.2660   27.8010 C   0  0  0  0  0
   19.7240   30.0950   27.5510 C   0  0  0  0  0
   19.5180   29.4540   26.1900 C   0  0  0  0  0
   18.4910   29.7420   25.5400 O   0  0  0  0  0
   20.3780   28.6550   25.7700 O   0  0  0  0  0
   20.7520   31.4480   30.5940 N   0  0  0  0  0
   21.9920   31.8780   31.2260 C   0  0  0  0  0
   23.0460   30.8070   31.0160 C   0  0  0  0  0
   22.8440   29.6490   31.4040 O   0  0  0  0  0
   21.7830   32.1510   32.7180 C   0  0  0  0  0
   20.7550   33.1370   32.8840 O   0  0  0  0  0
   23.0670   32.6550   33.3580 C   0  0  0  0  0
   24.1600   31.1910   30.3980 N   0  0  0  0  0
   25.3020   30.3110   30.2080 C   0  0  0  0  0
   26.1720   30.3220   31.4550 C   0  0  0  0  0
   26.4070   31.3780   32.0510 O   0  0  0  0  0
   26.1230   30.7490   28.9960 C   0  0  0  0  0
   26.6590   29.1430   31.8350 N   0  0  0  0  0
   27.3390   28.9630   33.1130 C   0  0  0  0  0
   28.5670   28.0780   32.9650 C   0  0  0  0  0
   29.3770   27.9690   33.8860 O   0  0  0  0  0
   26.3800   28.3560   34.1420 C   0  0  0  0  0
   25.1540   29.2130   34.4620 C   0  0  0  0  0
   24.0990   28.4110   35.2140 C   0  0  0  0  0
   25.5620   30.4400   35.2600 C   0  0  0  0  0
   28.7710   27.4480   31.9280 O   0  0  0  0  0
    6.2779   38.4241   29.7401 H   0  0  0  0  0
    6.0446   36.9656   28.9686 H   0  0  0  0  0
    5.0330   37.4218   30.2117 H   0  0  0  0  0
    6.7864   37.3262   31.7728 H   0  0  0  0  0
    7.2190   34.9342   31.7234 H   0  0  0  0  0
    6.4351   34.8966   30.0430 H   0  0  0  0  0
    4.3511   35.5543   31.0551 H   0  0  0  0  0
    5.5993   33.1299   32.3995 H   0  0  0  0  0
    3.8589   33.4257   32.1660 H   0  0  0  0  0
    4.9147   33.1644   30.7559 H   0  0  0  0  0
    4.0478   35.5624   33.4649 H   0  0  0  0  0
    5.7882   35.2666   33.6984 H   0  0  0  0  0
    5.2347   36.7927   32.9665 H   0  0  0  0  0
   10.9030   37.6469   30.0763 H   0  0  0  0  0
   11.6556   38.1286   32.3238 H   0  0  0  0  0
   12.4052   36.6005   32.1095 H   0  0  0  0  0
   10.7344   36.9009   34.1491 H   0  0  0  0  0
   10.6717   35.4186   33.2519 H   0  0  0  0  0
    8.3963   36.0848   33.0195 H   0  0  0  0  0
    8.7533   37.7525   33.1464 H   0  0  0  0  0
   12.2238   36.5173   28.8907 H   0  0  0  0  0
   12.0180   33.5020   29.0119 H   0  0  0  0  0
   12.7473   35.0993   26.5882 H   0  0  0  0  0
   11.0831   34.5423   26.9570 H   0  0  0  0  0
   12.2544   33.0561   25.6378 H   0  0  0  0  0
   13.7337   33.1343   30.3792 H   0  0  0  0  0
   16.2274   34.6931   29.9419 H   0  0  0  0  0
   16.8732   33.7364   32.1714 H   0  0  0  0  0
   15.1588   33.1031   32.2717 H   0  0  0  0  0
   16.5041   36.3758   31.0765 H   0  0  0  0  0
   14.1479   34.2882   33.9678 H   0  0  0  0  0
   15.7645   38.5293   32.0251 H   0  0  0  0  0
   13.4095   36.4424   34.9226 H   0  0  0  0  0
   14.2102   38.5667   33.9438 H   0  0  0  0  0
   18.0893   33.7403   29.3474 H   0  0  0  0  0
   18.4336   30.8222   29.8368 H   0  0  0  0  0
   19.1547   32.1112   27.2192 H   0  0  0  0  0
   17.7830   30.9499   27.5178 H   0  0  0  0  0
   19.5216   29.3387   28.3094 H   0  0  0  0  0
   20.7460   30.4719   27.5904 H   0  0  0  0  0
   17.9641   30.3710   26.0384 H   0  0  0  0  0
   20.3745   30.5297   30.8276 H   0  0  0  0  0
   22.3242   32.8107   30.7701 H   0  0  0  0  0
   21.4905   31.2197   33.2030 H   0  0  0  0  0
   20.6247   33.3074   33.8197 H   0  0  0  0  0
   23.8481   31.9034   33.2431 H   0  0  0  0  0
   23.3760   33.5795   32.8703 H   0  0  0  0  0
   22.8941   32.8420   34.4178 H   0  0  0  0  0
   24.2154   32.1451   30.0416 H   0  0  0  0  0
   24.9372   29.2993   30.0307 H   0  0  0  0  0
   25.4979   30.7148   28.1037 H   0  0  0  0  0
   26.4824   31.7664   29.1506 H   0  0  0  0  0
   26.9724   30.0772   28.8721 H   0  0  0  0  0
   26.5535   28.3410   31.2137 H   0  0  0  0  0
   27.6656   29.9436   33.4591 H   0  0  0  0  0
   29.0937   28.5114   34.6257 H   0  0  0  0  0
   26.9405   28.2471   35.0705 H   0  0  0  0  0
   26.0108   27.4224   33.7176 H   0  0  0  0  0
   24.7142   29.5380   33.5191 H   0  0  0  0  0
   23.7823   27.5662   34.6023 H   0  0  0  0  0
   24.5212   28.0454   36.1500 H   0  0  0  0  0
   23.2415   29.0497   35.4257 H   0  0  0  0  0
   26.0306   30.1260   36.1927 H   0  0  0  0  0
   26.2686   31.0318   34.6781 H   0  0  0  0  0
   24.6784   31.0393   35.4797 H   0  0  0  0  0
  1  2  1  0  0  0
  2  3  1  0  0  0
  2  5  1  0  0  0
  3  4  2  0  0  0
  3  9  1  0  0  0
  5  6  1  0  0  0
  6  7  1  0  0  0
  6  8  1  0  0  0
  9 10  1  0  0  0
  9 15  1  0  0  0
 10 11  1  0  0  0
 10 13  1  0  0  0
 11 12  2  0  0  0
 11 16  1  0  0  0
 13 14  1  0  0  0
 14 15  1  0  0  0
 16 17  1  0  0  0
 17 18  1  0  0  0
 17 20  1  0  0  0
 18 19  2  0  0  0
 18 22  1  0  0  0
 20 21  1  0  0  0
 22 23  1  0  0  0
 23 24  1  0  0  0
 23 26  1  0  0  0
 24 25  2  0  0  0
 24 33  1  0  0  0
 26 27  1  0  0  0
 27 28  4  0  0  0
 27 29  4  0  0  0
 28 30  4  0  0  0
 29 31  4  0  0  0
 30 32  4  0  0  0
 31 32  4  0  0  0
 33 34  1  0  0  0
 34 35  1  0  0  0
 34 37  1  0  0  0
 35 36  2  0  0  0
 35 42  1  0  0  0
 37 38  1  0  0  0
 38 39  1  0  0  0
 39 40  1  0  0  0
 39 41  2  0  0  0
 42 43  1  0  0  0
 43 44  1  0  0  0
 43 46  1  0  0  0
 44 45  2  0  0  0
 44 49  1  0  0  0
 46 47  1  0  0  0
 46 48  1  0  0  0
 49 50  1  0  0  0
 50 51  1  0  0  0
 50 53  1  0  0  0
 51 52  2  0  0  0
 51 54  1  0  0  0
 54 55  1  0  0  0
 55 56  1  0  0  0
 55 58  1  0  0  0
 56 57  1  0  0  0
 56 62  2  0  0  0
 58 59  1  0  0  0
 59 60  1  0  0  0
 59 61  1  0  0  0
  1 63  1  0  0  0
  1 64  1  0  0  0
  1 65  1  0  0  0
  2 66  1  0  0  0
  5 67  1  0  0  0
  5 68  1  0  0  0
  6 69  1  0  0  0
  7 70  1  0  0  0
  7 71  1  0  0  0
  7 72  1  0  0  0
  8 73  1  0  0  0
  8 74  1  0  0  0
  8 75  1  0  0  0
 10 76  1  0  0  0
 13 77  1  0  0  0
 13 78  1  0  0  0
 14 79  1  0  0  0
 14 80  1  0  0  0
 15 81  1  0  0  0
 15 82  1  0  0  0
 16 83  1  0  0  0
 17 84  1  0  0  0
 20 85  1  0  0  0
 20 86  1  0  0  0
 21 87  1  0  0  0
 22 88  1  0  0  0
 23 89  1  0  0  0
 26 90  1  0  0  0
 26 91  1  0  0  0
 28 92  1  0  0  0
 29 93  1  0  0  0
 30 94  1  0  0  0
 31 95  1  0  0  0
 32 96  1  0  0  0
 33 97  1  0  0  0
 34 98  1  0  0  0
 37 99  1  0  0  0
 37100  1  0  0  0
 38101  1  0  0  0
 38102  1  0  0  0
 40103  1  0  0  0
 42104  1  0  0  0
 43105  1  0  0  0
 46106  1  0  0  0
 47107  1  0  0  0
 48108  1  0  0  0
 48109  1  0  0  0
 48110  1  0  0  0
 49111  1  0  0  0
 50112  1  0  0  0
 53113  1  0  0  0
 53114  1  0  0  0
 53115  1  0  0  0
 54116  1  0  0  0
 55117  1  0  0  0
 57118  1  0  0  0
 58119  1  0  0  0
 58120  1  0  0  0
 59121  1  0  0  0
 60122  1  0  0  0
 60123  1  0  0  0
 60124  1  0  0  0
 61125  1  0  0  0
 61126  1  0  0  0
 61127  1  0  0  0
M  END
$$$$
