4ea1_ligand
  -I-interpret- 

 64 66  0  0  0  0  0  0  0  0999 V2000
    4.0360  -29.9110    8.4190 C   0  0  0  0  0
    2.5800  -28.7810    6.5860 C   0  0  0  0  0
   -1.1940  -25.9420    9.2920 C   0  0  0  0  0
    1.6670  -29.1260    8.7490 C   0  0  0  0  0
   -2.8760  -27.8610    9.1930 C   0  0  0  0  0
    0.5480  -28.5050    8.2640 C   0  0  0  0  0
   -4.0920  -27.2090    9.2230 C   0  0  0  0  0
   -6.3290  -27.8830    9.8950 C   0  0  0  0  0
   -6.9720  -29.2410   10.1490 C   0  0  0  0  0
   -0.5350  -28.5400    9.2800 C   0  0  0  0  0
  -12.5360  -28.1060   11.8350 C   0  0  0  0  0
  -10.7700  -29.2180   13.1560 C   0  0  0  0  0
  -11.2340  -29.9570   10.8890 C   0  0  0  0  0
  -10.4520  -26.9110   12.3410 C   0  0  0  0  0
  -10.8370  -27.7290   10.0390 C   0  0  0  0  0
   -4.9000  -27.9690   10.1810 N   0  3  0  0  0
   -8.4470  -29.1330   10.1390 N   0  3  0  0  0
    2.7440  -29.3020    7.9580 C   0  0  0  0  0
   -1.5590  -27.4170    9.2250 C   0  0  0  0  0
  -11.4560  -27.9050   12.8680 C   0  0  0  0  0
  -11.8970  -28.6600   10.5770 C   0  0  0  0  0
  -10.1110  -29.6920   11.8840 C   0  0  0  0  0
   -9.7970  -27.4450   11.0910 C   0  0  0  0  0
   -9.0790  -28.7010   11.3870 C   0  0  0  0  0
    4.4504  -29.3110    9.2292 H   0  0  0  0  0
    3.8520  -30.9251    8.7737 H   0  0  0  0  0
    4.7406  -29.9376    7.5878 H   0  0  0  0  0
    1.7430  -29.2865    6.1044 H   0  0  0  0  0
    2.3843  -27.7095    6.6266 H   0  0  0  0  0
    3.4921  -28.9638    6.0179 H   0  0  0  0  0
   -1.5974  -25.4292    8.4189 H   0  0  0  0  0
   -1.6148  -25.5057   10.1979 H   0  0  0  0  0
   -0.1091  -25.8378    9.3071 H   0  0  0  0  0
    1.6873  -29.4799    9.7797 H   0  0  0  0  0
   -2.9667  -28.9455    9.1317 H   0  0  0  0  0
    0.4638  -28.0511    7.2766 H   0  0  0  0  0
   -4.5576  -27.1725    8.2381 H   0  0  0  0  0
   -3.9860  -26.1654    9.5191 H   0  0  0  0  0
   -6.7874  -27.1341   10.5408 H   0  0  0  0  0
   -6.4776  -27.5963    8.8539 H   0  0  0  0  0
   -6.6525  -29.6043   11.1258 H   0  0  0  0  0
   -6.6643  -29.9287    9.3613 H   0  0  0  0  0
   -0.0419  -28.4498   10.2479 H   0  0  0  0  0
   -1.0889  -29.4608    9.0971 H   0  0  0  0  0
  -13.0259  -27.1568   11.6178 H   0  0  0  0  0
  -13.2862  -28.8021   12.2101 H   0  0  0  0  0
  -11.4969  -29.9541   13.4992 H   0  0  0  0  0
  -10.0236  -29.0878   13.9396 H   0  0  0  0  0
  -10.8304  -30.3995    9.9783 H   0  0  0  0  0
  -11.9559  -30.6531   11.3161 H   0  0  0  0  0
   -9.6877  -26.7398   13.0991 H   0  0  0  0  0
  -10.9637  -25.9780   12.1050 H   0  0  0  0  0
  -11.3074  -26.7907    9.7451 H   0  0  0  0  0
  -10.3540  -28.2008    9.1833 H   0  0  0  0  0
   -4.7398  -27.5780   11.1093 H   0  0  0  0  0
   -4.6241  -28.9490   10.1192 H   0  0  0  0  0
   -8.7977  -30.0731    9.9555 H   0  0  0  0  0
   -8.6732  -28.4194    9.4462 H   0  0  0  0  0
    3.2901  -30.1618    8.3462 H   0  0  0  0  0
  -11.8980  -27.5287   13.7906 H   0  0  0  0  0
  -12.6857  -28.7811    9.8345 H   0  0  0  0  0
   -9.5429  -30.6085   12.0434 H   0  0  0  0  0
   -9.0964  -26.6929   10.7282 H   0  0  0  0  0
   -8.3059  -28.5972   12.1483 H   0  0  0  0  0
 18  1  1  0  0  0
 18  2  1  0  0  0
 19  3  1  0  0  0
  6  4  2  0  0  0
  4 18  1  0  0  0
  7  5  1  0  0  0
  5 19  2  0  0  0
 10  6  1  0  0  0
 16  7  1  0  0  0
  9  8  1  0  0  0
  8 16  1  0  0  0
 17  9  1  0  0  0
 19 10  1  0  0  0
 20 11  1  0  0  0
 21 11  1  0  0  0
 12 20  1  0  0  0
 22 12  1  0  0  0
 13 21  1  0  0  0
 22 13  1  0  0  0
 20 14  1  0  0  0
 14 23  1  0  0  0
 21 15  1  0  0  0
 15 23  1  0  0  0
 24 17  1  0  0  0
 22 24  1  0  0  0
 23 24  1  0  0  0
  1 25  1  0  0  0
  1 26  1  0  0  0
  1 27  1  0  0  0
  2 28  1  0  0  0
  2 29  1  0  0  0
  2 30  1  0  0  0
  3 31  1  0  0  0
  3 32  1  0  0  0
  3 33  1  0  0  0
  4 34  1  0  0  0
  5 35  1  0  0  0
  6 36  1  0  0  0
  7 37  1  0  0  0
  7 38  1  0  0  0
  8 39  1  0  0  0
  8 40  1  0  0  0
  9 41  1  0  0  0
  9 42  1  0  0  0
 10 43  1  0  0  0
 10 44  1  0  0  0
 11 45  1  0  0  0
 11 46  1  0  0  0
 12 47  1  0  0  0
 12 48  1  0  0  0
 13 49  1  0  0  0
 13 50  1  0  0  0
 14 51  1  0  0  0
 14 52  1  0  0  0
 15 53  1  0  0  0
 15 54  1  0  0  0
 16 55  1  0  0  0
 16 56  1  0  0  0
 17 57  1  0  0  0
 17 58  1  0  0  0
 18 59  1  0  0  0
 20 60  1  0  0  0
 21 61  1  0  0  0
 22 62  1  0  0  0
 23 63  1  0  0  0
 24 64  1  0  0  0
M  END
$$$$
