3qxp_ligand
  -I-interpret- 

 41 43  0  0  0  0  0  0  0  0999 V2000
  -65.6110   82.3360   86.6820 N   0  0  0  0  0
  -64.3620   82.9200   84.8760 N   0  0  0  0  0
  -67.0930   81.4520   88.2430 N   0  0  0  0  0
  -61.5230   81.0200   79.0780 N   0  0  0  0  0
  -70.8140   79.7350   84.8620 N   0  0  0  0  0
  -67.1770   80.7140   86.0170 C   0  0  0  0  0
  -66.6550   81.4990   87.0370 C   0  0  0  0  0
  -65.3280   82.2110   85.4020 C   0  0  0  0  0
  -63.5890   82.6490   83.8470 C   0  0  0  0  0
  -68.2060   79.7820   86.1420 C   0  0  0  0  0
  -68.5410   78.9520   85.0580 C   0  0  0  0  0
  -69.8670   78.9620   84.4450 C   0  0  0  0  0
  -70.1340   78.0870   83.3390 C   0  0  0  0  0
  -69.1310   77.2180   82.8400 C   0  0  0  0  0
  -67.8350   77.2040   83.4390 C   0  0  0  0  0
  -67.5430   78.0570   84.5330 C   0  0  0  0  0
  -63.7050   81.4550   83.0520 C   0  0  0  0  0
  -62.8280   81.2250   81.9640 C   0  0  0  0  0
  -61.8290   82.1720   81.6510 C   0  0  0  0  0
  -61.7030   83.3650   82.4240 C   0  0  0  0  0
  -62.5780   83.5980   83.5110 C   0  0  0  0  0
  -68.7700   79.6170   87.2320 O   0  0  0  0  0
  -59.6680   81.0040   80.8160 O   0  0  0  0  0
  -60.1690   83.1090   79.7940 O   0  0  0  0  0
  -72.0370   79.2720   84.9330 O   0  0  0  0  0
  -70.5850   80.9830   85.1900 O   0  0  0  0  0
  -66.3220   81.0830   84.5530 S   0  0  0  0  0
  -60.7120   81.8530   80.2990 S   0  0  0  0  0
  -64.1820   83.8149   85.3312 H   0  0  0  0  0
  -66.6705   82.0390   88.9623 H   0  0  0  0  0
  -67.8634   80.8277   88.4818 H   0  0  0  0  0
  -61.2359   80.0735   78.8288 H   0  0  0  0  0
  -62.3008   81.4625   78.5885 H   0  0  0  0  0
  -71.1210   78.0906   82.8766 H   0  0  0  0  0
  -69.3494   76.5603   81.9987 H   0  0  0  0  0
  -67.0664   76.5342   83.0533 H   0  0  0  0  0
  -66.5502   78.0350   84.9824 H   0  0  0  0  0
  -64.4749   80.7209   83.2894 H   0  0  0  0  0
  -62.9244   80.3171   81.3685 H   0  0  0  0  0
  -60.9332   84.0961   82.1771 H   0  0  0  0  0
  -62.4788   84.5114   84.0975 H   0  0  0  0  0
  1  7  4  0  0  0
  8  1  4  0  0  0
  2  8  1  0  0  0
  9  2  1  0  0  0
  7  3  1  0  0  0
 28  4  1  0  0  0
 12  5  1  0  0  0
  5 25  2  0  0  0
  5 26  2  0  0  0
  6  7  4  0  0  0
  6 10  1  0  0  0
 27  6  4  0  0  0
  8 27  4  0  0  0
 17  9  4  0  0  0
  9 21  4  0  0  0
 10 11  1  0  0  0
 10 22  2  0  0  0
 11 12  4  0  0  0
 11 16  4  0  0  0
 12 13  4  0  0  0
 13 14  4  0  0  0
 15 14  4  0  0  0
 16 15  4  0  0  0
 18 17  4  0  0  0
 19 18  4  0  0  0
 19 20  4  0  0  0
 19 28  1  0  0  0
 20 21  4  0  0  0
 28 23  2  0  0  0
 28 24  2  0  0  0
  2 29  1  0  0  0
  3 30  1  0  0  0
  3 31  1  0  0  0
  4 32  1  0  0  0
  4 33  1  0  0  0
 13 34  1  0  0  0
 14 35  1  0  0  0
 15 36  1  0  0  0
 16 37  1  0  0  0
 17 38  1  0  0  0
 18 39  1  0  0  0
 20 40  1  0  0  0
 21 41  1  0  0  0
M  END
$$$$
