3d7f_ligand
  -I-interpret- 

 43 43  0  0  0  0  0  0  0  0999 V2000
   24.5760   49.5590   43.6540 I   0  0  0  0  0
   23.8790   47.5590   43.8950 C   0  0  0  0  0
   22.6010   47.2390   43.4270 C   0  0  0  0  0
   24.6430   46.5490   44.5110 C   0  0  0  0  0
   25.8970   46.8270   45.0130 O   0  0  0  0  0
   24.1490   45.2570   44.6440 C   0  0  0  0  0
   22.8670   44.9620   44.1470 C   0  0  0  0  0
   22.0970   45.9470   43.5620 C   0  0  0  0  0
   20.7040   45.6460   43.0500 C   0  0  0  0  0
   19.8060   44.9950   44.1330 C   0  0  0  0  0
   20.0030   45.6210   45.4870 C   0  0  0  0  0
   19.5510   46.7840   45.6430 O   0  0  0  0  0
   20.5090   44.9200   46.3870 O   0  0  0  0  0
   18.4710   45.3440   43.6440 N   0  0  0  0  0
   17.8270   44.5400   42.7970 C   0  0  0  0  0
   18.2340   43.4600   42.3330 O   0  0  0  0  0
   16.5800   44.9500   42.4410 N   0  0  0  0  0
   15.9050   44.2590   41.3530 C   0  0  0  0  0
   16.8580   44.4880   40.1630 C   0  0  0  0  0
   17.7830   45.3780   40.1410 O   0  0  0  0  0
   16.7740   43.7070   39.1590 O   0  0  0  0  0
   14.6180   45.0170   40.9100 C   0  0  0  0  0
   14.8230   46.5510   40.8400 C   0  0  0  0  0
   13.6940   47.3310   40.1690 C   0  0  0  0  0
   12.9140   46.7320   39.3920 O   0  0  0  0  0
   13.6530   48.5760   40.4120 O   0  0  0  0  0
   21.9925   48.0083   42.9515 H   0  0  0  0  0
   26.2717   46.0297   45.3945 H   0  0  0  0  0
   24.7465   44.4835   45.1265 H   0  0  0  0  0
   22.4780   43.9467   44.2244 H   0  0  0  0  0
   20.7933   44.9457   42.2195 H   0  0  0  0  0
   20.2434   46.5874   42.7504 H   0  0  0  0  0
   20.0057   43.9315   44.2644 H   0  0  0  0  0
   19.2166   47.1112   44.8047 H   0  0  0  0  0
   18.0295   46.2097   43.9538 H   0  0  0  0  0
   16.1279   45.7250   42.9262 H   0  0  0  0  0
   15.6686   43.2338   41.6379 H   0  0  0  0  0
   17.7431   45.8993   40.9461 H   0  0  0  0  0
   13.8405   44.8162   41.6471 H   0  0  0  0  0
   14.3508   44.6688   39.9122 H   0  0  0  0  0
   15.7176   46.7191   40.2403 H   0  0  0  0  0
   14.8783   46.9056   41.8692 H   0  0  0  0  0
   14.3472   48.8023   41.0353 H   0  0  0  0  0
  1  2  1  0  0  0
  2  3  4  0  0  0
  2  4  4  0  0  0
  3  8  4  0  0  0
  4  5  1  0  0  0
  4  6  4  0  0  0
  6  7  4  0  0  0
  7  8  4  0  0  0
  8  9  1  0  0  0
  9 10  1  0  0  0
 10 11  1  0  0  0
 10 14  1  0  0  0
 11 12  1  0  0  0
 11 13  2  0  0  0
 14 15  1  0  0  0
 15 16  2  0  0  0
 15 17  1  0  0  0
 17 18  1  0  0  0
 18 19  1  0  0  0
 18 22  1  0  0  0
 19 20  1  0  0  0
 19 21  2  0  0  0
 22 23  1  0  0  0
 23 24  1  0  0  0
 24 25  2  0  0  0
 24 26  1  0  0  0
  3 27  1  0  0  0
  5 28  1  0  0  0
  6 29  1  0  0  0
  7 30  1  0  0  0
  9 31  1  0  0  0
  9 32  1  0  0  0
 10 33  1  0  0  0
 12 34  1  0  0  0
 14 35  1  0  0  0
 17 36  1  0  0  0
 18 37  1  0  0  0
 20 38  1  0  0  0
 22 39  1  0  0  0
 22 40  1  0  0  0
 23 41  1  0  0  0
 23 42  1  0  0  0
 26 43  1  0  0  0
M  END
$$$$
