3lp7_ligand
  -I-interpret- 

 28 27  0  0  0  0  0  0  0  0999 V2000
   21.1510  -17.7340    5.3370 N   0  3  0  0  0
   21.0810  -17.6770    6.6990 C   0  0  0  0  0
   20.2330  -16.4650    7.0950 C   0  0  0  0  0
   20.1580  -16.4040    8.4140 O   0  0  0  0  0
   22.4620  -17.5820    7.2700 C   0  0  0  0  0
   23.3370  -16.3610    7.5430 C   0  0  0  0  0
   23.7150  -14.9760    7.1440 C   0  0  0  0  0
   24.6740  -14.5320    7.9950 N   0  0  0  0  0
   25.8200  -13.9850    7.6280 C   0  0  0  0  0
   26.1350  -13.8150    6.3450 N   0  0  0  0  0
   26.6760  -13.5970    8.5670 N   0  0  0  0  0
   27.3100  -13.2580    6.0980 O   0  0  0  0  0
   19.6630  -15.6190    6.2580 O   0  0  0  0  0
   20.2088  -17.7986    4.9517 H   0  0  0  0  0
   21.6063  -16.8916    4.9856 H   0  0  0  0  0
   21.6901  -18.5542    5.0595 H   0  0  0  0  0
   20.6154  -18.5790    7.0960 H   0  0  0  0  0
   20.6559  -17.1307    8.7956 H   0  0  0  0  0
   23.0334  -18.0529    6.4701 H   0  0  0  0  0
   22.2711  -17.9137    8.2906 H   0  0  0  0  0
   24.2459  -16.8158    7.1492 H   0  0  0  0  0
   22.7763  -16.0476    8.4236 H   0  0  0  0  0
   22.8433  -14.3232    7.1909 H   0  0  0  0  0
   24.0928  -14.9723    6.1216 H   0  0  0  0  0
   24.4970  -14.6277    8.9950 H   0  0  0  0  0
   25.5054  -14.0984    5.5942 H   0  0  0  0  0
   26.4440  -13.7232    9.5522 H   0  0  0  0  0
   27.4343  -13.1834    5.1490 H   0  0  0  0  0
  1  2  1  0  0  0
  2  3  1  0  0  0
  2  5  1  0  0  0
  3  4  1  0  0  0
  3 13  2  0  0  0
  5  6  1  0  0  0
  6  7  1  0  0  0
  7  8  1  0  0  0
  8  9  1  0  0  0
  9 10  1  0  0  0
  9 11  2  0  0  0
 10 12  1  0  0  0
  1 14  1  0  0  0
  1 15  1  0  0  0
  1 16  1  0  0  0
  2 17  1  0  0  0
  4 18  1  0  0  0
  5 19  1  0  0  0
  5 20  1  0  0  0
  6 21  1  0  0  0
  6 22  1  0  0  0
  7 23  1  0  0  0
  7 24  1  0  0  0
  8 25  1  0  0  0
 10 26  1  0  0  0
 11 27  1  0  0  0
 12 28  1  0  0  0
M  END
$$$$
