5fnf_ligand
  -I-interpret- 

 27 28  0  0  0  0  0  0  0  0999 V2000
    1.8710    8.3730   26.5620 C   0  0  0  0  0
    2.6400    7.2150   26.3450 C   0  0  0  0  0
    2.3980    6.3950   25.2420 C   0  0  0  0  0
    1.2960    6.7980   24.3680 N   0  0  0  0  0
    0.5460    7.9800   24.6180 C   0  0  0  0  0
    0.7940    8.7930   25.7360 C   0  0  0  0  0
    0.0230    9.9860   25.9650 C   0  0  0  0  0
   -0.6960   10.1380   27.0560 N   0  0  0  0  0
   -0.4710    9.1350   27.9570 O   0  0  0  0  0
   -0.0560   10.8910   24.8950 C   0  0  0  0  0
    1.1610   11.1740   24.2800 C   0  0  0  0  0
    1.1890   11.9740   23.1400 C   0  0  0  0  0
    0.0160   12.4700   22.6100 C   0  0  0  0  0
    0.0340   13.2260   21.5060 O   0  0  0  0  0
   -1.2000   12.2220   23.2170 C   0  0  0  0  0
   -1.2420   11.4360   24.3440 C   0  0  0  0  0
   -2.4290   11.2850   24.9530 O   0  0  0  0  0
    2.1190    8.9915   27.4246 H   0  0  0  0  0
    3.4334    6.9555   27.0460 H   0  0  0  0  0
    2.9956    5.5054   25.0431 H   0  0  0  0  0
   -0.2438    8.2631   23.9222 H   0  0  0  0  0
   -1.0114    9.2800   28.7371 H   0  0  0  0  0
    2.0876   10.7712   24.6889 H   0  0  0  0  0
    2.1415   12.2090   22.6649 H   0  0  0  0  0
   -0.8632   13.4821   21.2802 H   0  0  0  0  0
   -2.1167   12.6453   22.8065 H   0  0  0  0  0
   -3.1107   11.7191   24.4349 H   0  0  0  0  0
  1  2  4  0  0  0
  1  6  4  0  0  0
  2  3  4  0  0  0
  3  4  4  0  0  0
  4  5  4  0  0  0
  5  6  4  0  0  0
  6  7  1  0  0  0
  7  8  2  0  0  0
  7 10  1  0  0  0
  8  9  1  0  0  0
 10 11  4  0  0  0
 10 16  4  0  0  0
 11 12  4  0  0  0
 12 13  4  0  0  0
 13 14  1  0  0  0
 13 15  4  0  0  0
 15 16  4  0  0  0
 16 17  1  0  0  0
  1 18  1  0  0  0
  2 19  1  0  0  0
  3 20  1  0  0  0
  5 21  1  0  0  0
  9 22  1  0  0  0
 11 23  1  0  0  0
 12 24  1  0  0  0
 14 25  1  0  0  0
 15 26  1  0  0  0
 17 27  1  0  0  0
M  END
$$$$
