6j81_ligand
  -I-interpret- 

 57 60  0  0  0  0  0  0  0  0999 V2000
  -34.2900    3.8250   -6.3100 C   0  0  0  0  0
  -35.5490    3.3240   -6.6270 C   0  0  0  0  0
  -36.0300    3.4580   -7.9730 C   0  0  0  0  0
  -33.4720    4.4220   -7.3060 C   0  0  0  0  0
  -31.4180    5.8200   -7.7580 C   0  0  0  0  0
  -32.1400    4.9090   -6.9300 C   0  0  0  0  0
  -33.9710    4.5570   -8.6230 C   0  0  0  0  0
  -30.2890    4.8780   -5.3030 C   0  0  0  0  0
  -30.1290    6.2370   -7.3390 C   0  0  0  0  0
  -27.8990    6.0590   -4.1660 O   0  0  0  0  0
  -28.0230    6.3810   -5.5960 S   0  0  0  0  0
  -27.9460    7.6780   -6.2580 O   0  0  0  0  0
  -26.6560    5.3190   -6.2480 C   0  0  0  0  0
  -26.5110    5.5180   -7.7870 C   0  0  0  0  0
  -27.4160    4.5860   -8.4060 O   0  0  0  0  0
  -29.6300    5.8060   -6.1390 C   0  0  0  0  0
  -31.5640    4.4530   -5.7270 C   0  0  0  0  0
  -37.4150    2.8940   -8.2630 C   0  0  0  0  0
  -37.3180    1.6960   -9.2520 C   0  0  0  0  0
  -38.6630    1.0670   -9.6180 C   0  0  0  0  0
  -35.2570    4.0510   -8.9950 C   0  0  0  0  0
  -36.3950    2.6910   -5.5290 C   0  0  0  0  0
  -36.8750    1.2820   -5.6640 C   0  0  0  0  0
  -35.8540    1.6250   -4.5770 C   0  0  0  0  0
  -34.4300    1.1100   -4.7250 C   0  0  0  0  0
  -34.1540    0.5530   -5.9700 N   0  0  0  0  0
  -32.8770    0.1160   -6.2090 C   0  0  0  0  0
  -31.8400    0.1960   -5.2250 C   0  0  0  0  0
  -32.1180    0.7440   -3.9350 C   0  0  0  0  0
  -33.4280    1.2080   -3.6980 C   0  0  0  0  0
  -33.9270    3.7584   -5.2844 H   0  0  0  0  0
  -31.8472    6.1866   -8.6905 H   0  0  0  0  0
  -33.3604    5.0592   -9.3734 H   0  0  0  0  0
  -29.8369    4.5111   -4.3816 H   0  0  0  0  0
  -29.5368    6.8991   -7.9707 H   0  0  0  0  0
  -26.8860    4.2736   -6.0425 H   0  0  0  0  0
  -25.7219    5.5995   -5.7614 H   0  0  0  0  0
  -25.4852    5.3387   -8.1090 H   0  0  0  0  0
  -26.7499    6.5425   -8.0725 H   0  0  0  0  0
  -27.3603    4.6734   -9.3604 H   0  0  0  0  0
  -32.1211    3.7511   -5.1065 H   0  0  0  0  0
  -38.0293    3.6750   -8.7111 H   0  0  0  0  0
  -37.8597    2.5484   -7.3298 H   0  0  0  0  0
  -36.7270    0.9231   -8.7606 H   0  0  0  0  0
  -36.8824    2.0783  -10.1751 H   0  0  0  0  0
  -39.1467    0.6954   -8.7146 H   0  0  0  0  0
  -39.2976    1.8177  -10.0889 H   0  0  0  0  0
  -38.5000    0.2411  -10.3104 H   0  0  0  0  0
  -35.6227    4.1202  -10.0195 H   0  0  0  0  0
  -36.8623    3.6644   -5.3797 H   0  0  0  0  0
  -37.0036    0.5401   -6.4521 H   0  0  0  0  0
  -37.8237    0.7521   -5.7486 H   0  0  0  0  0
  -35.7894    1.5228   -3.4937 H   0  0  0  0  0
  -32.6421   -0.3085   -7.1851 H   0  0  0  0  0
  -30.8375   -0.1615   -5.4602 H   0  0  0  0  0
  -31.3483    0.8010   -3.1653 H   0  0  0  0  0
  -33.6827    1.6432   -2.7316 H   0  0  0  0  0
  1  2  4  0  0  0
  4  1  4  0  0  0
  2  3  4  0  0  0
  2 22  1  0  0  0
  3 18  1  0  0  0
 21  3  4  0  0  0
  6  4  1  0  0  0
  4  7  4  0  0  0
  5  6  4  0  0  0
  9  5  4  0  0  0
 17  6  4  0  0  0
  7 21  4  0  0  0
 16  8  4  0  0  0
  8 17  4  0  0  0
 16  9  4  0  0  0
 11 10  2  0  0  0
 11 12  2  0  0  0
 11 13  1  0  0  0
 11 16  1  0  0  0
 13 14  1  0  0  0
 14 15  1  0  0  0
 18 19  1  0  0  0
 19 20  1  0  0  0
 22 23  1  0  0  0
 22 24  1  0  0  0
 23 24  1  0  0  0
 24 25  1  0  0  0
 25 26  4  0  0  0
 25 30  4  0  0  0
 26 27  4  0  0  0
 27 28  4  0  0  0
 28 29  4  0  0  0
 29 30  4  0  0  0
  1 31  1  0  0  0
  5 32  1  0  0  0
  7 33  1  0  0  0
  8 34  1  0  0  0
  9 35  1  0  0  0
 13 36  1  0  0  0
 13 37  1  0  0  0
 14 38  1  0  0  0
 14 39  1  0  0  0
 15 40  1  0  0  0
 17 41  1  0  0  0
 18 42  1  0  0  0
 18 43  1  0  0  0
 19 44  1  0  0  0
 19 45  1  0  0  0
 20 46  1  0  0  0
 20 47  1  0  0  0
 20 48  1  0  0  0
 21 49  1  0  0  0
 22 50  1  0  0  0
 23 51  1  0  0  0
 23 52  1  0  0  0
 24 53  1  0  0  0
 27 54  1  0  0  0
 28 55  1  0  0  0
 29 56  1  0  0  0
 30 57  1  0  0  0
M  END
$$$$
