4z6i_ligand
  -I-interpret- 

 65 68  0  0  0  0  0  0  0  0999 V2000
   46.2290   -1.0530   35.9320 C   0  0  0  0  0
   47.3760   -1.2700   35.0180 C   0  0  0  0  0
   48.6680   -1.3120   35.4840 C   0  0  0  0  0
   49.7660   -1.5110   34.6210 C   0  0  0  0  0
   50.9110   -1.5390   35.1010 O   0  0  0  0  0
   49.5500   -1.7640   33.2760 N   0  0  0  0  0
   50.6970   -2.0320   32.3530 C   0  0  0  0  0
   48.2610   -1.7960   32.7800 C   0  0  0  0  0
   48.0100   -2.0580   31.4200 C   0  0  0  0  0
   47.1720   -1.4930   33.6300 C   0  0  0  0  0
   45.8740   -1.4870   33.0910 C   0  0  0  0  0
   45.6330   -1.7530   31.7360 C   0  0  0  0  0
   46.7140   -2.0340   30.9080 C   0  0  0  0  0
   46.4600   -2.3800   29.6140 N   0  0  0  0  0
   45.8220   -3.5920   29.4210 C   0  0  0  0  0
   45.4260   -4.2630   30.4160 O   0  0  0  0  0
   45.4300   -4.1090   28.1410 C   0  0  0  0  0
   46.2560   -3.4430   27.0170 C   0  0  0  0  0
   46.3230   -1.9800   27.1950 C   0  0  0  0  0
   47.1560   -1.5220   26.0890 N   0  0  0  0  0
   46.5760   -1.1660   24.9310 C   0  0  0  0  0
   45.3470   -1.0860   24.8360 O   0  0  0  0  0
   47.3810   -0.9260   23.8800 O   0  0  0  0  0
   46.8650   -0.9500   22.5120 C   0  0  0  0  0
   45.9860   -2.2060   22.2310 C   0  0  0  0  0
   48.1300   -0.9150   21.6310 C   0  0  0  0  0
   46.0550    0.3250   22.2560 C   0  0  0  0  0
   47.0410   -1.6080   28.5410 C   0  0  0  0  0
   46.9990   -0.2340   28.7740 C   0  0  0  0  0
   48.2090    0.4950   28.8580 C   0  0  0  0  0
   48.1910    1.9070   29.0810 C   0  0  0  0  0
   46.9700    2.5650   29.2070 C   0  0  0  0  0
   45.7830    1.8350   29.1150 C   0  0  0  0  0
   45.7710    0.4420   28.8970 C   0  0  0  0  0
   46.2005   -1.8518   36.6731 H   0  0  0  0  0
   46.3435   -0.0928   36.4350 H   0  0  0  0  0
   45.3027   -1.0554   35.3575 H   0  0  0  0  0
   48.8497   -1.1879   36.5516 H   0  0  0  0  0
   50.5946   -3.0308   31.9288 H   0  0  0  0  0
   50.6967   -1.2935   31.5513 H   0  0  0  0  0
   51.6322   -1.9662   32.9090 H   0  0  0  0  0
   48.8440   -2.2837   30.7555 H   0  0  0  0  0
   45.0302   -1.2692   33.7457 H   0  0  0  0  0
   44.6179   -1.7398   31.3392 H   0  0  0  0  0
   44.3733   -3.8959   27.9798 H   0  0  0  0  0
   45.6065   -5.1845   28.1226 H   0  0  0  0  0
   45.7754   -3.6544   26.0618 H   0  0  0  0  0
   47.2695   -3.8428   27.0481 H   0  0  0  0  0
   45.3286   -1.5342   27.2171 H   0  0  0  0  0
   48.1694   -1.4725   26.1938 H   0  0  0  0  0
   46.5817   -3.1061   22.3827 H   0  0  0  0  0
   45.1354   -2.2125   22.9126 H   0  0  0  0  0
   45.6283   -2.1747   21.2018 H   0  0  0  0  0
   48.6924   -0.0052   21.8410 H   0  0  0  0  0
   48.7486   -1.7850   21.8510 H   0  0  0  0  0
   47.8400   -0.9301   20.5804 H   0  0  0  0  0
   45.2242    0.3736   22.9599 H   0  0  0  0  0
   46.6976    1.1952   22.3898 H   0  0  0  0  0
   45.6689    0.3101   21.2368 H   0  0  0  0  0
   48.0990   -1.8624   28.4779 H   0  0  0  0  0
   49.1617   -0.0239   28.7519 H   0  0  0  0  0
   49.1252    2.4640   29.1518 H   0  0  0  0  0
   46.9411    3.6414   29.3761 H   0  0  0  0  0
   44.8331    2.3602   29.2152 H   0  0  0  0  0
   44.8285   -0.1008   28.8251 H   0  0  0  0  0
  1  2  1  0  0  0
  2  3  2  0  0  0
  2 10  1  0  0  0
  3  4  1  0  0  0
  4  5  2  0  0  0
  4  6  1  0  0  0
  6  7  1  0  0  0
  6  8  1  0  0  0
  8  9  4  0  0  0
  8 10  4  0  0  0
  9 13  4  0  0  0
 10 11  4  0  0  0
 11 12  4  0  0  0
 12 13  4  0  0  0
 13 14  1  0  0  0
 14 15  1  0  0  0
 14 28  1  0  0  0
 15 16  2  0  0  0
 15 17  1  0  0  0
 17 18  1  0  0  0
 18 19  1  0  0  0
 19 20  1  0  0  0
 19 28  1  0  0  0
 20 21  1  0  0  0
 21 22  2  0  0  0
 21 23  1  0  0  0
 23 24  1  0  0  0
 24 25  1  0  0  0
 24 26  1  0  0  0
 24 27  1  0  0  0
 28 29  1  0  0  0
 29 30  4  0  0  0
 29 34  4  0  0  0
 30 31  4  0  0  0
 31 32  4  0  0  0
 32 33  4  0  0  0
 33 34  4  0  0  0
  1 35  1  0  0  0
  1 36  1  0  0  0
  1 37  1  0  0  0
  3 38  1  0  0  0
  7 39  1  0  0  0
  7 40  1  0  0  0
  7 41  1  0  0  0
  9 42  1  0  0  0
 11 43  1  0  0  0
 12 44  1  0  0  0
 17 45  1  0  0  0
 17 46  1  0  0  0
 18 47  1  0  0  0
 18 48  1  0  0  0
 19 49  1  0  0  0
 20 50  1  0  0  0
 25 51  1  0  0  0
 25 52  1  0  0  0
 25 53  1  0  0  0
 26 54  1  0  0  0
 26 55  1  0  0  0
 26 56  1  0  0  0
 27 57  1  0  0  0
 27 58  1  0  0  0
 27 59  1  0  0  0
 28 60  1  0  0  0
 30 61  1  0  0  0
 31 62  1  0  0  0
 32 63  1  0  0  0
 33 64  1  0  0  0
 34 65  1  0  0  0
M  END
$$$$
