2g8n_ligand
  -I-interpret- 

 41 43  0  0  0  0  0  0  0  0999 V2000
   29.0990   44.7580   22.6830 O   0  0  0  0  0
   29.5500   45.4790   21.5340 C   0  0  0  0  0
   28.9030   44.8560   20.2970 C   0  0  0  0  0
   29.4180   43.4930   20.0970 N   0  3  0  0  0
   28.5950   42.7870   19.1030 C   0  0  0  0  0
   28.4720   43.6060   17.8120 C   0  0  0  0  0
   28.0420   42.9760   16.6550 C   0  0  0  0  0
   27.8460   43.7140   15.4880 C   0  0  0  0  0
   28.0770   45.0850   15.4840 C   0  0  0  0  0
   28.5160   45.7200   16.6450 C   0  0  0  0  0
   28.7180   44.9830   17.8050 C   0  0  0  0  0
   29.2450   45.6850   19.0580 C   0  0  0  0  0
   27.3310   42.9130   14.0240 S   0  0  0  0  0
   25.9100   42.7710   14.0030 O   0  0  0  0  0
   27.9720   41.5570   13.9310 O   0  0  0  0  0
   27.8390   43.8210   12.7710 N   0  0  0  0  0
   26.9100   44.6130   11.9490 C   0  0  0  0  0
   25.8530   45.3110   12.5270 C   0  0  0  0  0
   25.0270   46.0980   11.7300 C   0  0  0  0  0
   25.2620   46.1850   10.3560 C   0  0  0  0  0
   26.3130   45.4760    9.7820 C   0  0  0  0  0
   27.1380   44.6890   10.5800 C   0  0  0  0  0
   24.3110   47.2170    9.3510 Cl  0  0  0  0  0
   29.4953   45.1351   23.4719 H   0  0  0  0  0
   30.6359   45.4229   21.4581 H   0  0  0  0  0
   29.2693   46.5291   21.6158 H   0  0  0  0  0
   27.8234   44.8313   20.4452 H   0  0  0  0  0
   29.3836   42.9873   20.9822 H   0  0  0  0  0
   30.3803   43.5429   19.7624 H   0  0  0  0  0
   27.5985   42.6351   19.5177 H   0  0  0  0  0
   29.0691   41.8338   18.8692 H   0  0  0  0  0
   27.8567   41.9019   16.6571 H   0  0  0  0  0
   27.9150   45.6628   14.5741 H   0  0  0  0  0
   28.7006   46.7942   16.6424 H   0  0  0  0  0
   30.3271   45.7927   18.9832 H   0  0  0  0  0
   28.7821   46.6682   19.1425 H   0  0  0  0  0
   28.8342   43.8414   12.5485 H   0  0  0  0  0
   25.6731   45.2413   13.5998 H   0  0  0  0  0
   24.1977   46.6458   12.1775 H   0  0  0  0  0
   26.4899   45.5370    8.7082 H   0  0  0  0  0
   27.9617   44.1331   10.1321 H   0  0  0  0  0
  1  2  1  0  0  0
  2  3  1  0  0  0
  3  4  1  0  0  0
  3 12  1  0  0  0
  4  5  1  0  0  0
  5  6  1  0  0  0
  6  7  4  0  0  0
  6 11  4  0  0  0
  7  8  4  0  0  0
  8  9  4  0  0  0
  8 13  1  0  0  0
  9 10  4  0  0  0
 10 11  4  0  0  0
 11 12  1  0  0  0
 13 14  2  0  0  0
 13 15  2  0  0  0
 13 16  1  0  0  0
 16 17  1  0  0  0
 17 18  4  0  0  0
 17 22  4  0  0  0
 18 19  4  0  0  0
 19 20  4  0  0  0
 20 21  4  0  0  0
 20 23  1  0  0  0
 21 22  4  0  0  0
  1 24  1  0  0  0
  2 25  1  0  0  0
  2 26  1  0  0  0
  3 27  1  0  0  0
  4 28  1  0  0  0
  4 29  1  0  0  0
  5 30  1  0  0  0
  5 31  1  0  0  0
  7 32  1  0  0  0
  9 33  1  0  0  0
 10 34  1  0  0  0
 12 35  1  0  0  0
 12 36  1  0  0  0
 16 37  1  0  0  0
 18 38  1  0  0  0
 19 39  1  0  0  0
 21 40  1  0  0  0
 22 41  1  0  0  0
M  END
$$$$
