### 
### Created by X-TOOL on Mon Sep 10 21:12:54 2018
### 

@<TRIPOS>MOLECULE
2a4w_ligand
  182   187     1     0     0
SMALL
GAST_HUCK


@<TRIPOS>ATOM
      1 NA         32.5450   -9.3130    5.9490 N.am      1 BLM        -0.2961
      2 C2         32.6720  -10.4320    8.1770 C.3       1 BLM         0.1051
      3 C1         32.4850   -9.1840    7.3220 C.2       1 BLM         0.2273
      4 O1         32.2980   -8.0660    7.7560 O.2       1 BLM        -0.3909
      5 NC         33.9740   -9.1780    9.8490 N.4       1 BLM         0.2527
      6 C3         32.8860  -10.1320    9.6700 C.3       1 BLM         0.0301
      7 NB         33.8880  -11.2250    7.7610 N.4       1 BLM         0.2418
      8 ND         31.5990   -7.5060   13.0240 N.am      1 BLM        -0.3005
      9 C5         33.6230   -8.7490   12.3200 C.3       1 BLM         0.0942
     10 C4         32.7730   -7.5110   12.3580 C.2       1 BLM         0.1815
     11 O4         33.1220   -6.4290   11.7430 O.2       1 BLM        -0.3968
     12 C8         36.3840  -12.0170   12.7170 C.ar      1 BLM         0.1276
     13 C9         37.1560  -12.5150   11.4940 C.ar      1 BLM         0.0372
     14 C10        37.0040  -11.9090   10.3510 C.ar      1 BLM         0.1171
     15 NG         36.0880  -10.7430   10.3020 N.ar      1 BLM        -0.2694
     16 C7         35.4260  -10.3160   11.4130 C.ar      1 BLM         0.1334
     17 NE         35.5220  -10.8520   12.5010 N.ar      1 BLM        -0.2506
     18 C6         34.5960   -9.0500   11.1580 C.3       1 BLM         0.0566
     19 NF         36.4660  -12.6000   13.9210 N.pl3     1 BLM        -0.3176
     20 CA         38.1010  -13.6880   11.6770 C.3       1 BLM        -0.0229
     21 C12        37.5590  -12.1100    9.0450 C.2       1 BLM         0.2230
     22 O12        38.3840  -13.0130    8.8760 O.2       1 BLM        -0.3790
     23 NH         37.1330  -11.2360    8.0420 N.am      1 BLM        -0.2591
     24 C13        37.6380  -11.3470    6.6750 C.3       1 BLM         0.1683
     25 C30        39.0440  -10.7870    6.5280 C.2       1 BLM         0.2067
     26 O30        39.8300  -11.2610    5.7050 O.2       1 BLM        -0.3942
     27 C14        36.7160  -10.6810    5.6290 C.3       1 BLM         0.1562
     28 C27        36.3070   -9.2460    5.9430 C.2       1 BLM         0.0854
     29 OH1        35.5800  -11.5180    5.4750 O.3       1 BLM        -0.3260
     30 NJ         36.0960   -8.7810    7.1620 N.pl3     1 BLM        -0.2601
     31 C28        36.0380   -8.2760    5.0140 C.2       1 BLM        -0.0249
     32 C29        35.6950   -7.5340    6.9980 C.2       1 BLM         0.0876
     33 NI         35.6600   -7.2350    5.7100 N.2       1 BLM        -0.3436
     34 NK         39.3730   -9.7620    7.3260 N.am      1 BLM        -0.2794
     35 C34        39.4910   -6.9430    6.3380 C.3       1 BLM         0.0740
     36 C36        39.4100   -5.4550    6.6590 C.2       1 BLM         0.1837
     37 O36        39.8060   -4.5820    5.8770 O.2       1 BLM        -0.3965
     38 OH2        41.7900   -7.1050    6.8140 O.3       1 BLM        -0.3869
     39 C31        40.6840   -9.1310    7.2870 C.3       1 BLM         0.0675
     40 CB         41.4510   -9.5820    8.5200 C.3       1 BLM        -0.0394
     41 C33        40.5360   -7.5990    7.2730 C.3       1 BLM         0.0969
     42 CC         39.8250   -7.1250    4.8590 C.3       1 BLM        -0.0428
     43 NL         38.8590   -5.1430    7.8350 N.am      1 BLM        -0.2630
     44 C37        38.7560   -3.7660    8.2830 C.3       1 BLM         0.1563
     45 C40        39.6930   -3.5280    9.4580 C.2       1 BLM         0.2044
     46 O40        40.2960   -4.4550   10.0090 O.2       1 BLM        -0.3944
     47 C38        37.3210   -3.4150    8.7240 C.3       1 BLM         0.0924
     48 OH3        37.0690   -4.1440    9.9220 O.3       1 BLM        -0.3874
     49 CD         36.2820   -3.7400    7.6690 C.3       1 BLM        -0.0346
     50 NM         39.8120   -2.2700    9.8630 N.am      1 BLM        -0.2821
     51 C42        39.8040   -2.1140   12.2830 C.3       1 BLM         0.0392
     52 C49        31.4270   -0.8410   12.6430 C.2       1 BLM         0.2011
     53 O49        31.4570    0.2770   13.1440 O.2       1 BLM        -0.3919
     54 C43        38.4870   -1.3970   12.2840 C.2       1 BLM         0.0982
     55 C41        40.6190   -1.8910   11.0040 C.3       1 BLM         0.0475
     56 S43        38.3110    0.2500   12.7500 S.3       1 BLM         0.0091
     57 C44        36.6270    0.0950   12.7230 C.2       1 BLM         0.0297
     58 C45        36.2860   -1.2100   12.3520 C.2       1 BLM         0.0572
     59 NN         37.3810   -2.0250   12.0880 N.2       1 BLM        -0.3091
     60 C47        32.8390   -2.8510   11.9430 C.2       1 BLM         0.0342
     61 C48        32.7260   -1.5610   12.3740 C.2       1 BLM         0.0916
     62 NO         33.9200   -0.9090   12.5360 N.2       1 BLM        -0.3022
     63 C46        34.9380   -1.6430   12.2840 C.2       1 BLM         0.1098
     64 S46        34.5280   -3.2660   11.7740 S.3       1 BLM         0.0009
     65 NP         30.3350   -1.5630   12.4130 N.am      1 BLM        -0.2880
     66 C50        29.0170   -1.0160   12.6340 C.3       1 BLM         0.0343
     67 C51        28.6200    0.0520   11.6430 C.3       1 BLM         0.0123
     68 C52        27.5090    0.9370   12.2250 C.3       1 BLM         0.1111
     69 S53        27.0250    2.2690   11.1150 S.3       1 BLM        -0.0162
     70 C55        25.6890    3.1040   11.9220 C.3       1 BLM         0.0991
     71 C54        26.2410    1.5070    9.7220 C.3       1 BLM         0.0991
     72 O59        33.2480  -13.2630    1.9150 O.3       1 BLM        -0.3865
     73 O58        32.5240  -12.5510    5.3980 O.3       1 BLM        -0.3864
     74 C61        33.6750  -10.3330    1.7490 C.3       1 BLM         0.0730
     75 O61        34.2940   -9.0920    1.9310 O.3       1 BLM        -0.3924
     76 O56        34.7770  -13.9690    5.8960 O.3       1 BLM        -0.3377
     77 C60        33.7700  -11.1660    3.0310 C.3       1 BLM         0.1130
     78 O62        35.1430  -11.5050    3.2240 O.3       1 BLM        -0.3404
     79 C63        35.5220  -12.3440    4.3230 C.3       1 BLM         0.1912
     80 C57        34.5720  -13.5550    4.5550 C.3       1 BLM         0.1408
     81 C58        33.0730  -13.2420    4.2950 C.3       1 BLM         0.1144
     82 C59        32.8960  -12.4270    3.0040 C.3       1 BLM         0.1119
     83 C69        34.8150  -15.6830    7.5500 C.3       1 BLM         0.1387
     84 C68        36.0370  -15.7500    8.4810 C.3       1 BLM         0.1468
     85 C67        37.1220  -16.6640    7.8690 C.3       1 BLM         0.1164
     86 C65        37.5170  -16.2480    6.4280 C.3       1 BLM         0.1133
     87 O64        36.6490  -15.2520    5.8880 O.3       1 BLM        -0.3405
     88 C64        35.2360  -15.2850    6.1150 C.3       1 BLM         0.1889
     89 O68        35.8450  -16.1540    9.8250 O.3       1 BLM        -0.2553
     90 O67        38.2720  -16.5900    8.6840 O.3       1 BLM        -0.3861
     91 O69        34.1630  -16.9350    7.5020 O.3       1 BLM        -0.3837
     92 NQ         34.1130  -16.7750   11.1140 N.am      1 BLM        -0.2763
     93 C70        34.8630  -15.7340   10.6280 C.2       1 BLM         0.3173
     94 O70        34.5780  -14.6060   10.9340 O.2       1 BLM        -0.3777
     95 O66        38.7370  -18.1330    5.5880 O.3       1 BLM        -0.3924
     96 C66        37.5190  -17.4540    5.4760 C.3       1 BLM         0.0730
     97 H1         32.4255   -8.5096    5.3656 H         1 BLM         0.1816
     98 H2         32.7079  -10.2098    5.5377 H         1 BLM         0.1816
     99 H3         31.7725  -11.0545    8.0611 H         1 BLM         0.1153
    100 H4         33.6126   -8.2694    9.6044 H         1 BLM         0.2040
    101 H5         34.7017   -9.4358    9.2009 H         1 BLM         0.2040
    102 H6         33.1340  -11.0663   10.1949 H         1 BLM         0.0898
    103 H7         31.9615   -9.7095   10.0904 H         1 BLM         0.0898
    104 H8         33.8174  -11.4601    6.7834 H         1 BLM         0.2017
    105 H9         33.9406  -12.0707    8.3070 H         1 BLM         0.2017
    106 H10        34.7176  -10.6735    7.9149 H         1 BLM         0.2017
    107 H11        31.0392   -6.6776   13.0443 H         1 BLM         0.1814
    108 H12        31.2890   -8.3307   13.4971 H         1 BLM         0.1814
    109 H13        32.9269   -9.5996   12.3642 H         1 BLM         0.0588
    110 H14        34.2350   -8.7281   13.2338 H         1 BLM         0.0588
    111 H15        35.2900   -8.1981   11.1060 H         1 BLM         0.1104
    112 H16        35.9247  -12.2247   14.7129 H         1 BLM         0.1792
    113 H17        37.0703  -13.4233   14.0544 H         1 BLM         0.1792
    114 H18        38.0605  -14.0320   12.7210 H         1 BLM         0.0392
    115 H19        39.1268  -13.3739   11.4340 H         1 BLM         0.0392
    116 H20        37.8007  -14.5085   11.0088 H         1 BLM         0.0392
    117 H21        36.4700  -10.5209    8.2635 H         1 BLM         0.1882
    118 H22        37.6818  -12.4205    6.4391 H         1 BLM         0.0851
    119 H23        37.2607  -10.6553    4.6737 H         1 BLM         0.0828
    120 H24        36.2185   -9.2850    8.0519 H         1 BLM         0.2387
    121 H25        36.1209   -8.3545    3.9310 H         1 BLM         0.0325
    122 H26        35.4317   -6.8516    7.8048 H         1 BLM         0.1149
    123 H27        38.6922   -9.4177    7.9726 H         1 BLM         0.1855
    124 H28        38.5123   -7.4067    6.5308 H         1 BLM         0.0562
    125 H29        42.4869   -7.4692    7.3471 H         1 BLM         0.2101
    126 H30        41.2213   -9.4490    6.3814 H         1 BLM         0.0580
    127 H31        42.4496   -9.1206    8.5197 H         1 BLM         0.0253
    128 H32        41.5532  -10.6772    8.5081 H         1 BLM         0.0253
    129 H33        40.9053   -9.2744    9.4242 H         1 BLM         0.0253
    130 H34        40.3320   -7.2670    8.3017 H         1 BLM         0.0644
    131 H35        39.0509   -6.6403    4.2460 H         1 BLM         0.0257
    132 H36        39.8625   -8.1983    4.6209 H         1 BLM         0.0257
    133 H37        40.8021   -6.6675    4.6447 H         1 BLM         0.0257
    134 H38        38.5094   -5.8746    8.4202 H         1 BLM         0.1884
    135 H39        39.0437   -3.1055    7.4518 H         1 BLM         0.0826
    136 H40        37.2674   -2.3369    8.9357 H         1 BLM         0.0639
    137 H41        37.1511   -5.0744    9.7484 H         1 BLM         0.2101
    138 H42        35.2835   -3.4680    8.0418 H         1 BLM         0.0257
    139 H43        36.3095   -4.8169    7.4467 H         1 BLM         0.0257
    140 H44        36.4990   -3.1709    6.7531 H         1 BLM         0.0257
    141 H45        39.3252   -1.5555    9.3604 H         1 BLM         0.1854
    142 H46        39.6140   -3.1920   12.3915 H         1 BLM         0.0543
    143 H47        40.3953   -1.7579   13.1394 H         1 BLM         0.0543
    144 H48        40.8973   -0.8298   10.9236 H         1 BLM         0.0552
    145 H49        41.5294   -2.5076   11.0338 H         1 BLM         0.0552
    146 H50        35.9184    0.8878   12.9579 H         1 BLM         0.0822
    147 H51        32.0044   -3.5193   11.7361 H         1 BLM         0.0857
    148 H52        30.4278   -2.5017   12.0810 H         1 BLM         0.1839
    149 H53        28.9888   -0.5789   13.6430 H         1 BLM         0.0520
    150 H54        28.2869   -1.8362   12.5692 H         1 BLM         0.0520
    151 H55        28.2568   -0.4260   10.7213 H         1 BLM         0.0330
    152 H56        29.4962    0.6756   11.4120 H         1 BLM         0.0330
    153 H57        27.8676    1.3774   13.1670 H         1 BLM         0.0840
    154 H58        26.6283    0.3092   12.4256 H         1 BLM         0.0840
    155 H59        25.3429    3.9365   11.2918 H         1 BLM         0.0803
    156 H60        26.0331    3.4958   12.8905 H         1 BLM         0.0803
    157 H61        24.8608    2.3987   12.0851 H         1 BLM         0.0803
    158 H62        26.9897    0.9511    9.1386 H         1 BLM         0.0803
    159 H63        25.7845    2.2820    9.0888 H         1 BLM         0.0803
    160 H64        25.4619    0.8145   10.0732 H         1 BLM         0.0803
    161 H65        34.1579  -13.5231    1.9981 H         1 BLM         0.2100
    162 H66        32.6005  -13.0890    6.1773 H         1 BLM         0.2100
    163 H67        34.1734  -10.8706    0.9289 H         1 BLM         0.0584
    164 H68        32.6162  -10.1769    1.4951 H         1 BLM         0.0584
    165 H69        33.8637   -8.6254    2.6378 H         1 BLM         0.2095
    166 H70        33.4349  -10.5440    3.8741 H         1 BLM         0.0647
    167 H71        36.5261  -12.7449    4.1206 H         1 BLM         0.0939
    168 H72        34.8669  -14.3679    3.8752 H         1 BLM         0.0675
    169 H73        32.5352  -14.1944    4.1779 H         1 BLM         0.0648
    170 H74        31.8430  -12.1246    2.9054 H         1 BLM         0.0647
    171 H75        34.1161  -14.9285    7.9402 H         1 BLM         0.0675
    172 H76        36.4386  -14.7267    8.5216 H         1 BLM         0.0702
    173 H77        36.7462  -17.6976    7.8495 H         1 BLM         0.0650
    174 H78        38.5350  -15.8333    6.4677 H         1 BLM         0.0647
    175 H79        34.7727  -15.9824    5.4016 H         1 BLM         0.0938
    176 H80        38.0464  -16.8423    9.5717 H         1 BLM         0.2100
    177 H81        33.9005  -17.1880    8.3793 H         1 BLM         0.2101
    178 H82        33.3450  -16.5939   11.7283 H         1 BLM         0.1831
    179 H83        34.3344  -17.7149   10.8540 H         1 BLM         0.1831
    180 H84        38.7379  -18.8786    4.9992 H         1 BLM         0.2095
    181 H85        37.3874  -17.1048    4.4412 H         1 BLM         0.0584
    182 H86        36.6950  -18.1325    5.7416 H         1 BLM         0.0584
@<TRIPOS>BOND
     1    3    1 am 
     2    2    3 1  
     3    6    2 1  
     4    2    7 1  
     5    3    4 2  
     6    5    6 1  
     7   18    5 1  
     8   10    8 am 
     9    9   10 1  
    10   18    9 1  
    11   10   11 2  
    12   13   12 ar 
    13   12   17 ar 
    14   12   19 1  
    15   14   13 ar 
    16   13   20 1  
    17   14   15 ar 
    18   21   14 1  
    19   15   16 ar 
    20   16   17 ar 
    21   16   18 1  
    22   21   22 2  
    23   23   21 am 
    24   24   23 1  
    25   24   25 1  
    26   27   24 1  
    27   25   26 2  
    28   25   34 am 
    29   27   28 1  
    30   29   27 1  
    31   28   30 1  
    32   28   31 2  
    33   79   29 1  
    34   30   32 1  
    35   31   33 1  
    36   33   32 2  
    37   34   39 1  
    38   35   36 1  
    39   41   35 1  
    40   35   42 1  
    41   36   37 2  
    42   36   43 am 
    43   41   38 1  
    44   39   40 1  
    45   39   41 1  
    46   43   44 1  
    47   44   45 1  
    48   44   47 1  
    49   45   46 2  
    50   45   50 am 
    51   47   48 1  
    52   47   49 1  
    53   50   55 1  
    54   51   54 1  
    55   55   51 1  
    56   52   53 2  
    57   61   52 1  
    58   52   65 am 
    59   54   56 1  
    60   54   59 2  
    61   56   57 1  
    62   58   57 2  
    63   59   58 1  
    64   58   63 1  
    65   60   61 2  
    66   64   60 1  
    67   62   61 1  
    68   63   62 2  
    69   63   64 1  
    70   65   66 1  
    71   66   67 1  
    72   67   68 1  
    73   68   69 1  
    74   69   70 1  
    75   69   71 1  
    76   82   72 1  
    77   81   73 1  
    78   74   75 1  
    79   77   74 1  
    80   76   80 1  
    81   88   76 1  
    82   78   77 1  
    83   82   77 1  
    84   79   78 1  
    85   80   79 1  
    86   80   81 1  
    87   81   82 1  
    88   83   84 1  
    89   83   88 1  
    90   83   91 1  
    91   84   85 1  
    92   84   89 1  
    93   85   86 1  
    94   85   90 1  
    95   86   87 1  
    96   86   96 1  
    97   87   88 1  
    98   89   93 1  
    99   93   92 am 
   100   93   94 2  
   101   96   95 1  
   102    1   97 1  
   103    1   98 1  
   104    2   99 1  
   105    5  100 1  
   106    5  101 1  
   107    6  102 1  
   108    6  103 1  
   109    7  104 1  
   110    7  105 1  
   111    7  106 1  
   112    8  107 1  
   113    8  108 1  
   114    9  109 1  
   115    9  110 1  
   116   18  111 1  
   117   19  112 1  
   118   19  113 1  
   119   20  114 1  
   120   20  115 1  
   121   20  116 1  
   122   23  117 1  
   123   24  118 1  
   124   27  119 1  
   125   30  120 1  
   126   31  121 1  
   127   32  122 1  
   128   34  123 1  
   129   35  124 1  
   130   38  125 1  
   131   39  126 1  
   132   40  127 1  
   133   40  128 1  
   134   40  129 1  
   135   41  130 1  
   136   42  131 1  
   137   42  132 1  
   138   42  133 1  
   139   43  134 1  
   140   44  135 1  
   141   47  136 1  
   142   48  137 1  
   143   49  138 1  
   144   49  139 1  
   145   49  140 1  
   146   50  141 1  
   147   51  142 1  
   148   51  143 1  
   149   55  144 1  
   150   55  145 1  
   151   57  146 1  
   152   60  147 1  
   153   65  148 1  
   154   66  149 1  
   155   66  150 1  
   156   67  151 1  
   157   67  152 1  
   158   68  153 1  
   159   68  154 1  
   160   70  155 1  
   161   70  156 1  
   162   70  157 1  
   163   71  158 1  
   164   71  159 1  
   165   71  160 1  
   166   72  161 1  
   167   73  162 1  
   168   74  163 1  
   169   74  164 1  
   170   75  165 1  
   171   77  166 1  
   172   79  167 1  
   173   80  168 1  
   174   81  169 1  
   175   82  170 1  
   176   83  171 1  
   177   84  172 1  
   178   85  173 1  
   179   86  174 1  
   180   88  175 1  
   181   90  176 1  
   182   91  177 1  
   183   92  178 1  
   184   92  179 1  
   185   95  180 1  
   186   96  181 1  
   187   96  182 1  
@<TRIPOS>SUBSTRUCTURE
     1 BLM         1

