2a4w_ligand
  -I-interpret- 

181186  0  0  0  0  0  0  0  0999 V2000
   32.5450   -9.3130    5.9490 N   0  0  0  0  0
   32.6720  -10.4320    8.1770 C   0  0  0  0  0
   32.4850   -9.1840    7.3220 C   0  0  0  0  0
   32.2980   -8.0660    7.7560 O   0  0  0  0  0
   33.9740   -9.1780    9.8490 N   0  3  0  0  0
   32.8860  -10.1320    9.6700 C   0  0  0  0  0
   33.8880  -11.2250    7.7610 N   0  3  0  0  0
   31.5990   -7.5060   13.0240 N   0  0  0  0  0
   33.6230   -8.7490   12.3200 C   0  0  0  0  0
   32.7730   -7.5110   12.3580 C   0  0  0  0  0
   33.1220   -6.4290   11.7430 O   0  0  0  0  0
   36.3840  -12.0170   12.7170 C   0  0  0  0  0
   37.1560  -12.5150   11.4940 C   0  0  0  0  0
   37.0040  -11.9090   10.3510 C   0  0  0  0  0
   36.0880  -10.7430   10.3020 N   0  0  0  0  0
   35.4260  -10.3160   11.4130 C   0  0  0  0  0
   35.5220  -10.8520   12.5010 N   0  0  0  0  0
   34.5960   -9.0500   11.1580 C   0  0  0  0  0
   36.4660  -12.6000   13.9210 N   0  0  0  0  0
   38.1010  -13.6880   11.6770 C   0  0  0  0  0
   37.5590  -12.1100    9.0450 C   0  0  0  0  0
   38.3840  -13.0130    8.8760 O   0  0  0  0  0
   37.1330  -11.2360    8.0420 N   0  0  0  0  0
   37.6380  -11.3470    6.6750 C   0  0  0  0  0
   39.0440  -10.7870    6.5280 C   0  0  0  0  0
   39.8300  -11.2610    5.7050 O   0  0  0  0  0
   36.7160  -10.6810    5.6290 C   0  0  0  0  0
   36.3070   -9.2460    5.9430 C   0  0  0  0  0
   35.5800  -11.5180    5.4750 O   0  0  0  0  0
   36.0960   -8.7810    7.1620 N   0  0  0  0  0
   36.0380   -8.2760    5.0140 C   0  0  0  0  0
   35.6950   -7.5340    6.9980 C   0  0  0  0  0
   35.6600   -7.2350    5.7100 N   0  0  0  0  0
   39.3730   -9.7620    7.3260 N   0  0  0  0  0
   39.4910   -6.9430    6.3380 C   0  0  0  0  0
   39.4100   -5.4550    6.6590 C   0  0  0  0  0
   39.8060   -4.5820    5.8770 O   0  0  0  0  0
   41.7900   -7.1050    6.8140 O   0  0  0  0  0
   40.6840   -9.1310    7.2870 C   0  0  0  0  0
   41.4510   -9.5820    8.5200 C   0  0  0  0  0
   40.5360   -7.5990    7.2730 C   0  0  0  0  0
   39.8250   -7.1250    4.8590 C   0  0  0  0  0
   38.8590   -5.1430    7.8350 N   0  0  0  0  0
   38.7560   -3.7660    8.2830 C   0  0  0  0  0
   39.6930   -3.5280    9.4580 C   0  0  0  0  0
   40.2960   -4.4550   10.0090 O   0  0  0  0  0
   37.3210   -3.4150    8.7240 C   0  0  0  0  0
   37.0690   -4.1440    9.9220 O   0  0  0  0  0
   36.2820   -3.7400    7.6690 C   0  0  0  0  0
   39.8120   -2.2700    9.8630 N   0  0  0  0  0
   39.8040   -2.1140   12.2830 C   0  0  0  0  0
   31.4270   -0.8410   12.6430 C   0  0  0  0  0
   31.4570    0.2770   13.1440 O   0  0  0  0  0
   38.4870   -1.3970   12.2840 C   0  0  0  0  0
   40.6190   -1.8910   11.0040 C   0  0  0  0  0
   38.3110    0.2500   12.7500 S   0  0  0  0  0
   36.6270    0.0950   12.7230 C   0  0  0  0  0
   36.2860   -1.2100   12.3520 C   0  0  0  0  0
   37.3810   -2.0250   12.0880 N   0  0  0  0  0
   32.8390   -2.8510   11.9430 C   0  0  0  0  0
   32.7260   -1.5610   12.3740 C   0  0  0  0  0
   33.9200   -0.9090   12.5360 N   0  0  0  0  0
   34.9380   -1.6430   12.2840 C   0  0  0  0  0
   34.5280   -3.2660   11.7740 S   0  0  0  0  0
   30.3350   -1.5630   12.4130 N   0  0  0  0  0
   29.0170   -1.0160   12.6340 C   0  0  0  0  0
   28.6200    0.0520   11.6430 C   0  0  0  0  0
   27.5090    0.9370   12.2250 C   0  0  0  0  0
   27.0250    2.2690   11.1150 S   0  0  0  0  0
   25.6890    3.1040   11.9220 C   0  0  0  0  0
   26.2410    1.5070    9.7220 C   0  0  0  0  0
   33.2480  -13.2630    1.9150 O   0  0  0  0  0
   32.5240  -12.5510    5.3980 O   0  0  0  0  0
   33.6750  -10.3330    1.7490 C   0  0  0  0  0
   34.2940   -9.0920    1.9310 O   0  0  0  0  0
   34.7770  -13.9690    5.8960 O   0  0  0  0  0
   33.7700  -11.1660    3.0310 C   0  0  0  0  0
   35.1430  -11.5050    3.2240 O   0  0  0  0  0
   35.5220  -12.3440    4.3230 C   0  0  0  0  0
   34.5720  -13.5550    4.5550 C   0  0  0  0  0
   33.0730  -13.2420    4.2950 C   0  0  0  0  0
   32.8960  -12.4270    3.0040 C   0  0  0  0  0
   34.8150  -15.6830    7.5500 C   0  0  0  0  0
   36.0370  -15.7500    8.4810 C   0  0  0  0  0
   37.1220  -16.6640    7.8690 C   0  0  0  0  0
   37.5170  -16.2480    6.4280 C   0  0  0  0  0
   36.6490  -15.2520    5.8880 O   0  0  0  0  0
   35.2360  -15.2850    6.1150 C   0  0  0  0  0
   35.8450  -16.1540    9.8250 O   0  0  0  0  0
   38.2720  -16.5900    8.6840 O   0  0  0  0  0
   34.1630  -16.9350    7.5020 O   0  0  0  0  0
   34.1130  -16.7750   11.1140 N   0  0  0  0  0
   34.8630  -15.7340   10.6280 C   0  0  0  0  0
   34.5780  -14.6060   10.9340 O   0  0  0  0  0
   38.7370  -18.1330    5.5880 O   0  0  0  0  0
   37.5190  -17.4540    5.4760 C   0  0  0  0  0
   32.4342   -8.4918    5.3543 H   0  0  0  0  0
   32.7002  -10.2295    5.5292 H   0  0  0  0  0
   31.7443  -10.9837    8.0252 H   0  0  0  0  0
   33.5546   -8.2659    9.6683 H   0  0  0  0  0
   34.7185   -9.5124    9.2372 H   0  0  0  0  0
   33.1398  -11.0589   10.1844 H   0  0  0  0  0
   31.9705   -9.7057   10.0801 H   0  0  0  0  0
   33.8155  -11.4624    6.7717 H   0  0  0  0  0
   34.7268  -10.6660    7.9172 H   0  0  0  0  0
   33.9402  -12.0804    8.3142 H   0  0  0  0  0
   31.0198   -6.6664   13.0304 H   0  0  0  0  0
   31.2910   -8.3418   13.5209 H   0  0  0  0  0
   32.8926   -9.5554   12.2537 H   0  0  0  0  0
   34.2838   -8.6286   13.1785 H   0  0  0  0  0
   35.2325   -8.1654   11.1353 H   0  0  0  0  0
   37.0645  -13.4153   14.0531 H   0  0  0  0  0
   35.9299  -12.2284   14.7052 H   0  0  0  0  0
   38.8658  -13.4261   12.4082 H   0  0  0  0  0
   37.5400  -14.5532   12.0302 H   0  0  0  0  0
   38.5737  -13.9243   10.7237 H   0  0  0  0  0
   36.4567  -10.5066    8.2679 H   0  0  0  0  0
   37.6595  -12.4186    6.4770 H   0  0  0  0  0
   37.2810  -10.5857    4.7018 H   0  0  0  0  0
   36.1209   -8.3545    3.9300 H   0  0  0  0  0
   35.4314   -6.8510    7.8055 H   0  0  0  0  0
   38.6786   -9.4108    7.9855 H   0  0  0  0  0
   38.5347   -7.4358    6.5131 H   0  0  0  0  0
   42.4942   -7.4730    7.3527 H   0  0  0  0  0
   41.2209   -9.4201    6.3836 H   0  0  0  0  0
   40.9092   -9.2767    9.4152 H   0  0  0  0  0
   41.5515  -10.6673    8.5070 H   0  0  0  0  0
   42.4402   -9.1242    8.5186 H   0  0  0  0  0
   40.2041   -7.3520    8.2814 H   0  0  0  0  0
   39.0462   -6.6629    4.2524 H   0  0  0  0  0
   40.7834   -6.6527    4.6435 H   0  0  0  0  0
   39.8830   -8.1889    4.6292 H   0  0  0  0  0
   38.5024   -5.8893    8.4319 H   0  0  0  0  0
   39.0303   -3.1315    7.4403 H   0  0  0  0  0
   37.2437   -2.3395    8.8832 H   0  0  0  0  0
   36.1806   -3.9522   10.2311 H   0  0  0  0  0
   36.4982   -3.1755    6.7620 H   0  0  0  0  0
   36.3103   -4.8073    7.4496 H   0  0  0  0  0
   35.2931   -3.4700    8.0395 H   0  0  0  0  0
   39.3155   -1.5412    9.3504 H   0  0  0  0  0
   39.5965   -3.1814   12.3579 H   0  0  0  0  0
   40.3893   -1.7263   13.1168 H   0  0  0  0  0
   40.9005   -0.8410   10.9243 H   0  0  0  0  0
   41.5245   -2.4971   11.0331 H   0  0  0  0  0
   35.9177    0.8886   12.9581 H   0  0  0  0  0
   32.0037   -3.5199   11.7359 H   0  0  0  0  0
   30.4297   -2.5205   12.0744 H   0  0  0  0  0
   29.0201   -0.5550   13.6217 H   0  0  0  0  0
   28.3056   -1.8350   12.5284 H   0  0  0  0  0
   28.2535   -0.4258   10.7344 H   0  0  0  0  0
   29.4889    0.6723   11.4230 H   0  0  0  0  0
   27.8874    1.3878   13.1424 H   0  0  0  0  0
   26.6347    0.3081   12.3930 H   0  0  0  0  0
   24.8691    2.4040   12.0830 H   0  0  0  0  0
   26.0312    3.4917   12.8815 H   0  0  0  0  0
   25.3469    3.9286   11.2966 H   0  0  0  0  0
   26.9444    0.8312    9.2355 H   0  0  0  0  0
   25.3698    0.9455   10.0593 H   0  0  0  0  0
   25.9280    2.2769    9.0168 H   0  0  0  0  0
   32.6892  -14.0436    1.9187 H   0  0  0  0  0
   31.5983  -12.3625    5.2275 H   0  0  0  0  0
   34.1752  -10.8655    0.9401 H   0  0  0  0  0
   32.6248  -10.1748    1.5038 H   0  0  0  0  0
   34.2274   -8.5806    1.1213 H   0  0  0  0  0
   33.3888  -10.5712    3.8610 H   0  0  0  0  0
   36.4883  -12.7953    4.0976 H   0  0  0  0  0
   34.8118  -14.3395    3.8373 H   0  0  0  0  0
   32.5411  -14.1852    4.1702 H   0  0  0  0  0
   31.8621  -12.0964    2.9052 H   0  0  0  0  0
   34.1367  -14.9288    7.9489 H   0  0  0  0  0
   36.3241  -14.7006    8.5474 H   0  0  0  0  0
   36.7154  -17.6741    7.8198 H   0  0  0  0  0
   38.5219  -15.8336    6.5083 H   0  0  0  0  0
   34.8147  -16.0404    5.4517 H   0  0  0  0  0
   38.9585  -17.1528    8.3186 H   0  0  0  0  0
   33.4036  -16.8768    6.9176 H   0  0  0  0  0
   33.3211  -16.5893   11.7295 H   0  0  0  0  0
   34.3473  -17.7346   10.8598 H   0  0  0  0  0
   38.7379  -18.8864    4.9931 H   0  0  0  0  0
   37.3882  -17.1083    4.4506 H   0  0  0  0  0
   36.7022  -18.1263    5.7388 H   0  0  0  0  0
  3  1  1  0  0  0
  2  3  1  0  0  0
  6  2  1  0  0  0
  2  7  1  0  0  0
  3  4  2  0  0  0
  5  6  1  0  0  0
 18  5  1  0  0  0
 10  8  1  0  0  0
  9 10  1  0  0  0
 18  9  1  0  0  0
 10 11  2  0  0  0
 13 12  4  0  0  0
 12 17  4  0  0  0
 12 19  1  0  0  0
 14 13  4  0  0  0
 13 20  1  0  0  0
 14 15  4  0  0  0
 21 14  1  0  0  0
 15 16  4  0  0  0
 16 17  4  0  0  0
 16 18  1  0  0  0
 21 22  2  0  0  0
 23 21  1  0  0  0
 24 23  1  0  0  0
 24 25  1  0  0  0
 27 24  1  0  0  0
 25 26  2  0  0  0
 25 34  1  0  0  0
 27 28  1  0  0  0
 29 27  1  0  0  0
 28 30  4  0  0  0
 28 31  4  0  0  0
 79 29  1  0  0  0
 30 32  4  0  0  0
 31 33  4  0  0  0
 33 32  4  0  0  0
 34 39  1  0  0  0
 35 36  1  0  0  0
 41 35  1  0  0  0
 35 42  1  0  0  0
 36 37  2  0  0  0
 36 43  1  0  0  0
 41 38  1  0  0  0
 39 40  1  0  0  0
 39 41  1  0  0  0
 43 44  1  0  0  0
 44 45  1  0  0  0
 44 47  1  0  0  0
 45 46  2  0  0  0
 45 50  1  0  0  0
 47 48  1  0  0  0
 47 49  1  0  0  0
 50 55  1  0  0  0
 51 54  1  0  0  0
 55 51  1  0  0  0
 52 53  2  0  0  0
 61 52  1  0  0  0
 52 65  1  0  0  0
 54 56  4  0  0  0
 54 59  4  0  0  0
 56 57  4  0  0  0
 58 57  4  0  0  0
 59 58  4  0  0  0
 58 63  1  0  0  0
 60 61  4  0  0  0
 64 60  4  0  0  0
 62 61  4  0  0  0
 63 62  4  0  0  0
 63 64  4  0  0  0
 65 66  1  0  0  0
 66 67  1  0  0  0
 67 68  1  0  0  0
 68 69  1  0  0  0
 69 70  1  0  0  0
 69 71  1  0  0  0
 82 72  1  0  0  0
 81 73  1  0  0  0
 74 75  1  0  0  0
 77 74  1  0  0  0
 76 80  1  0  0  0
 88 76  1  0  0  0
 78 77  1  0  0  0
 82 77  1  0  0  0
 79 78  1  0  0  0
 80 79  1  0  0  0
 80 81  1  0  0  0
 81 82  1  0  0  0
 83 84  1  0  0  0
 83 88  1  0  0  0
 83 91  1  0  0  0
 84 85  1  0  0  0
 84 89  1  0  0  0
 85 86  1  0  0  0
 85 90  1  0  0  0
 86 87  1  0  0  0
 86 96  1  0  0  0
 87 88  1  0  0  0
 89 93  1  0  0  0
 93 92  1  0  0  0
 93 94  2  0  0  0
 96 95  1  0  0  0
  1 97  1  0  0  0
  1 98  1  0  0  0
  2 99  1  0  0  0
  5100  1  0  0  0
  5101  1  0  0  0
  6102  1  0  0  0
  6103  1  0  0  0
  7104  1  0  0  0
  7105  1  0  0  0
  7106  1  0  0  0
  8107  1  0  0  0
  8108  1  0  0  0
  9109  1  0  0  0
  9110  1  0  0  0
 18111  1  0  0  0
 19112  1  0  0  0
 19113  1  0  0  0
 20114  1  0  0  0
 20115  1  0  0  0
 20116  1  0  0  0
 23117  1  0  0  0
 24118  1  0  0  0
 27119  1  0  0  0
 31120  1  0  0  0
 32121  1  0  0  0
 34122  1  0  0  0
 35123  1  0  0  0
 38124  1  0  0  0
 39125  1  0  0  0
 40126  1  0  0  0
 40127  1  0  0  0
 40128  1  0  0  0
 41129  1  0  0  0
 42130  1  0  0  0
 42131  1  0  0  0
 42132  1  0  0  0
 43133  1  0  0  0
 44134  1  0  0  0
 47135  1  0  0  0
 48136  1  0  0  0
 49137  1  0  0  0
 49138  1  0  0  0
 49139  1  0  0  0
 50140  1  0  0  0
 51141  1  0  0  0
 51142  1  0  0  0
 55143  1  0  0  0
 55144  1  0  0  0
 57145  1  0  0  0
 60146  1  0  0  0
 65147  1  0  0  0
 66148  1  0  0  0
 66149  1  0  0  0
 67150  1  0  0  0
 67151  1  0  0  0
 68152  1  0  0  0
 68153  1  0  0  0
 70154  1  0  0  0
 70155  1  0  0  0
 70156  1  0  0  0
 71157  1  0  0  0
 71158  1  0  0  0
 71159  1  0  0  0
 72160  1  0  0  0
 73161  1  0  0  0
 74162  1  0  0  0
 74163  1  0  0  0
 75164  1  0  0  0
 77165  1  0  0  0
 79166  1  0  0  0
 80167  1  0  0  0
 81168  1  0  0  0
 82169  1  0  0  0
 83170  1  0  0  0
 84171  1  0  0  0
 85172  1  0  0  0
 86173  1  0  0  0
 88174  1  0  0  0
 90175  1  0  0  0
 91176  1  0  0  0
 92177  1  0  0  0
 92178  1  0  0  0
 95179  1  0  0  0
 96180  1  0  0  0
 96181  1  0  0  0
M  END
$$$$
