4isi_ligand
  -I-interpret- 

 64 67  0  0  0  0  0  0  0  0999 V2000
    9.6070   34.4960   28.7990 C   0  0  0  0  0
    8.8560   35.6890   28.9060 C   0  0  0  0  0
    8.6010   36.4810   27.7750 C   0  0  0  0  0
    9.0760   36.0710   26.5200 C   0  0  0  0  0
    0.0240   37.3310   24.7960 Cl  0  0  0  0  0
    9.8520   34.8940   26.4100 C   0  0  0  0  0
   10.1100   34.1090   27.5420 C   0  0  0  0  0
    9.9050   33.6890   29.9950 C   0  0  0  0  0
   10.3660   32.4320   29.9110 N   0  0  0  0  0
    9.7210   34.2630   31.2050 N   0  0  0  0  0
    8.7020   36.8290   25.2920 C   0  0  0  0  0
    7.3590   36.4550   24.8930 N   0  0  0  0  0
    6.3490   37.3370   25.0000 C   0  0  0  0  0
    6.4150   38.4810   25.4410 O   0  0  0  0  0
    5.0390   36.7960   24.5150 C   0  0  0  0  0
    4.4360   37.1520   23.1390 C   0  0  0  0  0
    2.8910   37.1380   23.2870 C   0  0  0  0  0
    2.6950   37.0070   24.7920 C   0  0  0  0  0
    3.8850   36.8120   25.4050 N   0  0  0  0  0
    2.3130   35.9380   22.5070 C   0  0  0  0  0
    2.2610   38.4250   22.6850 C   0  0  0  0  0
    2.8990   34.5620   22.8660 C   0  0  0  0  0
    2.6220   39.7360   23.3950 C   0  0  0  0  0
    1.5430   37.0610   25.5790 C   0  0  0  0  0
    1.5470   36.9250   26.9060 N   0  0  0  0  0
    2.7160   36.7250   27.5400 C   0  0  0  0  0
    3.9880   36.6570   26.7910 C   0  0  0  0  0
    5.0800   36.4750   27.3130 O   0  0  0  0  0
    2.8100   36.5060   28.8790 N   0  0  0  0  0
    1.7690   36.7310   29.8290 C   0  0  0  0  0
    1.4210   35.9510   31.1180 C   0  0  0  0  0
    1.5590   37.3140   31.8550 C   0  0  0  0  0
    1.3200   38.0510   30.5020 C   0  0  0  0  0
    8.4705   35.9975   29.8777 H   0  0  0  0  0
    8.0373   37.4089   27.8714 H   0  0  0  0  0
   10.2513   34.5960   25.4405 H   0  0  0  0  0
   10.7008   33.1977   27.4493 H   0  0  0  0  0
   10.5779   31.9087   30.7605 H   0  0  0  0  0
    9.9327   33.7403   32.0549 H   0  0  0  0  0
    9.3704   35.2188   31.2681 H   0  0  0  0  0
    9.4013   36.5944   24.4895 H   0  0  0  0  0
    8.7388   37.8990   25.4966 H   0  0  0  0  0
    7.1794   35.5190   24.5296 H   0  0  0  0  0
    5.5338   35.8273   24.4456 H   0  0  0  0  0
    4.7528   36.4300   22.3864 H   0  0  0  0  0
    4.7785   38.1352   22.8163 H   0  0  0  0  0
    2.5508   36.1097   21.4572 H   0  0  0  0  0
    1.2517   35.8941   22.7516 H   0  0  0  0  0
    1.1807   38.3118   22.7757 H   0  0  0  0  0
    2.6430   38.5093   21.6676 H   0  0  0  0  0
    3.9717   34.5637   22.6728 H   0  0  0  0  0
    2.7189   34.3559   23.9211 H   0  0  0  0  0
    2.4202   33.7947   22.2576 H   0  0  0  0  0
    2.2909   39.6890   24.4324 H   0  0  0  0  0
    3.7020   39.8795   23.3631 H   0  0  0  0  0
    2.1286   40.5678   22.8922 H   0  0  0  0  0
    3.6982   36.1515   29.2337 H   0  0  0  0  0
    1.4189   36.4199   28.8448 H   0  0  0  0  0
    1.9733   35.0638   31.4279 H   0  0  0  0  0
    0.5267   35.3333   31.2004 H   0  0  0  0  0
    2.4455   37.5306   32.4510 H   0  0  0  0  0
    0.9362   37.5372   32.7213 H   0  0  0  0  0
    0.3741   38.5361   30.2612 H   0  0  0  0  0
    1.7827   39.0104   30.2707 H   0  0  0  0  0
  2  1  4  0  0  0
  7  1  4  0  0  0
  1  8  1  0  0  0
  3  2  4  0  0  0
  4  3  4  0  0  0
  4  6  4  0  0  0
 11  4  1  0  0  0
 24  5  1  0  0  0
  6  7  4  0  0  0
  8  9  2  0  0  0
  8 10  1  0  0  0
 12 11  1  0  0  0
 13 12  1  0  0  0
 13 14  2  0  0  0
 15 13  1  0  0  0
 15 16  1  0  0  0
 19 15  1  0  0  0
 17 16  1  0  0  0
 18 17  1  0  0  0
 17 20  1  0  0  0
 17 21  1  0  0  0
 18 19  1  0  0  0
 18 24  2  0  0  0
 19 27  1  0  0  0
 20 22  1  0  0  0
 21 23  1  0  0  0
 24 25  1  0  0  0
 25 26  2  0  0  0
 26 27  1  0  0  0
 26 29  1  0  0  0
 27 28  2  0  0  0
 29 30  1  0  0  0
 30 31  1  0  0  0
 30 33  1  0  0  0
 31 32  1  0  0  0
 32 33  1  0  0  0
  2 34  1  0  0  0
  3 35  1  0  0  0
  6 36  1  0  0  0
  7 37  1  0  0  0
  9 38  1  0  0  0
 10 39  1  0  0  0
 10 40  1  0  0  0
 11 41  1  0  0  0
 11 42  1  0  0  0
 12 43  1  0  0  0
 15 44  1  0  0  0
 16 45  1  0  0  0
 16 46  1  0  0  0
 20 47  1  0  0  0
 20 48  1  0  0  0
 21 49  1  0  0  0
 21 50  1  0  0  0
 22 51  1  0  0  0
 22 52  1  0  0  0
 22 53  1  0  0  0
 23 54  1  0  0  0
 23 55  1  0  0  0
 23 56  1  0  0  0
 29 57  1  0  0  0
 30 58  1  0  0  0
 31 59  1  0  0  0
 31 60  1  0  0  0
 32 61  1  0  0  0
 32 62  1  0  0  0
 33 63  1  0  0  0
 33 64  1  0  0  0
M  END
$$$$
