4zbf_ligand
  -I-interpret- 

 55 59  0  0  0  0  0  0  0  0999 V2000
  -34.2580   26.4610   -0.6420 O   0  0  0  0  0
  -33.3250   27.2980   -0.7630 C   0  0  0  0  0
  -33.4800   28.2590   -1.5580 O   0  0  0  0  0
  -32.0320   27.1420   -0.0080 C   0  0  0  0  0
  -31.3710   28.1220    0.7120 N   0  0  0  0  0
  -30.2110   27.6150    1.2460 C   0  0  0  0  0
  -31.7930   29.5110    0.9200 C   0  0  0  0  0
  -30.8280   30.5100    0.3320 C   0  0  0  0  0
  -29.7920   31.0370    1.2850 C   0  0  0  0  0
  -29.3140   29.9140    2.5590 S   0  0  0  0  0
  -30.3310   30.0430    3.6430 O   0  0  0  0  0
  -29.2090   28.1800    2.0390 C   0  0  0  0  0
  -28.1000   27.4190    2.4550 C   0  0  0  0  0
  -28.0050   26.0600    2.0640 C   0  0  0  0  0
  -29.0040   25.4850    1.2640 C   0  0  0  0  0
  -30.0990   26.2540    0.8560 C   0  0  0  0  0
  -31.2610   25.9710    0.0540 C   0  0  0  0  0
  -31.6150   24.6500   -0.5820 C   0  0  0  0  0
  -32.6470   23.8710    0.2110 C   0  0  0  0  0
  -32.1860   23.3960    1.5560 C   0  0  0  0  0
  -31.0050   22.6920    1.4740 O   0  0  0  0  0
  -30.4380   22.0830    2.5770 C   0  0  0  0  0
  -29.4140   21.1490    2.3440 C   0  0  0  0  0
  -29.0280   20.8480    1.0040 C   0  0  0  0  0
  -28.0160   19.9270    0.7820 C   0  0  0  0  0
  -27.3920   19.3050    1.8630 C   0  0  0  0  0
  -27.7830   19.5890    3.1730 C   0  0  0  0  0
  -28.8010   20.5350    3.4100 C   0  0  0  0  0
  -29.1940   20.8480    4.7300 C   0  0  0  0  0
  -30.2140   21.7740    4.9540 C   0  0  0  0  0
  -30.8410   22.4020    3.8660 C   0  0  0  0  0
  -34.0024   25.7882   -0.0067 H   0  0  0  0  0
  -31.8422   29.6873    1.9945 H   0  0  0  0  0
  -32.7548   29.6451    0.4250 H   0  0  0  0  0
  -31.4212   31.3659    0.0102 H   0  0  0  0  0
  -30.2887   29.9938   -0.4622 H   0  0  0  0  0
  -30.2295   31.9052    1.7778 H   0  0  0  0  0
  -28.8985   31.2447    0.6962 H   0  0  0  0  0
  -30.1089   29.4460    4.3613 H   0  0  0  0  0
  -27.3225   27.8703    3.0714 H   0  0  0  0  0
  -27.1537   25.4600    2.3856 H   0  0  0  0  0
  -28.9270   24.4408    0.9609 H   0  0  0  0  0
  -30.7070   24.0487   -0.6280 H   0  0  0  0  0
  -32.0372   24.8565   -1.5655 H   0  0  0  0  0
  -32.8860   22.9815   -0.3719 H   0  0  0  0  0
  -33.4848   24.5461    0.3858 H   0  0  0  0  0
  -32.9502   22.7357    1.9660 H   0  0  0  0  0
  -32.0212   24.2681    2.1888 H   0  0  0  0  0
  -29.5230   21.3364    0.1646 H   0  0  0  0  0
  -27.7083   19.6893   -0.2363 H   0  0  0  0  0
  -26.5900   18.5891    1.6832 H   0  0  0  0  0
  -27.3028   19.0811    4.0094 H   0  0  0  0  0
  -28.7005   20.3662    5.5741 H   0  0  0  0  0
  -30.5234   22.0093    5.9723 H   0  0  0  0  0
  -31.6343   23.1309    4.0317 H   0  0  0  0  0
  1  2  1  0  0  0
  2  3  2  0  0  0
  2  4  1  0  0  0
  4  5  4  0  0  0
  4 17  4  0  0  0
  5  6  4  0  0  0
  5  7  1  0  0  0
  6 12  4  0  0  0
  6 16  4  0  0  0
  7  8  1  0  0  0
  8  9  1  0  0  0
  9 10  1  0  0  0
 10 11  1  0  0  0
 10 12  1  0  0  0
 12 13  4  0  0  0
 13 14  4  0  0  0
 14 15  4  0  0  0
 15 16  4  0  0  0
 16 17  4  0  0  0
 17 18  1  0  0  0
 18 19  1  0  0  0
 19 20  1  0  0  0
 20 21  1  0  0  0
 21 22  1  0  0  0
 22 23  4  0  0  0
 22 31  4  0  0  0
 23 24  4  0  0  0
 23 28  4  0  0  0
 24 25  4  0  0  0
 25 26  4  0  0  0
 26 27  4  0  0  0
 27 28  4  0  0  0
 28 29  4  0  0  0
 29 30  4  0  0  0
 30 31  4  0  0  0
  1 32  1  0  0  0
  7 33  1  0  0  0
  7 34  1  0  0  0
  8 35  1  0  0  0
  8 36  1  0  0  0
  9 37  1  0  0  0
  9 38  1  0  0  0
 11 39  1  0  0  0
 13 40  1  0  0  0
 14 41  1  0  0  0
 15 42  1  0  0  0
 18 43  1  0  0  0
 18 44  1  0  0  0
 19 45  1  0  0  0
 19 46  1  0  0  0
 20 47  1  0  0  0
 20 48  1  0  0  0
 24 49  1  0  0  0
 25 50  1  0  0  0
 26 51  1  0  0  0
 27 52  1  0  0  0
 29 53  1  0  0  0
 30 54  1  0  0  0
 31 55  1  0  0  0
M  END
$$$$
