4qz5_ligand
  -I-interpret- 

 87 89  0  0  0  0  0  0  0  0999 V2000
   60.3510 -134.5050   34.1770 C   0  0  0  0  0
   60.3580 -135.7250   34.3520 O   0  0  0  0  0
   59.3790 -133.8260   33.2010 C   0  0  0  0  0
   58.5440 -134.8510   32.5740 N   0  3  0  0  0
   56.0130 -135.3630   31.5240 O   0  0  0  0  0
   58.2220 -134.3930   31.1900 C   0  0  0  0  0
   57.3360 -135.0770   33.4080 C   0  0  0  0  0
   57.1350 -135.2460   30.6050 C   0  0  0  0  0
   56.4310 -136.0420   32.7360 C   0  0  0  0  0
   61.1810 -133.6410   34.7820 N   0  0  0  0  0
   62.1900 -134.0770   35.7610 C   0  0  0  0  0
   61.5510 -134.1880   37.1540 C   0  0  0  0  0
   60.5740 -133.5030   37.4750 O   0  0  0  0  0
   63.3380 -133.0630   35.8180 C   0  0  0  0  0
   62.1390 -135.0970   37.9490 N   0  0  0  0  0
   61.7000 -135.3560   39.3290 C   0  0  0  0  0
   61.0960 -136.7400   39.4490 C   0  0  0  0  0
   59.6930 -136.6500   39.3770 C   0  0  0  0  0
   59.0690 -136.1460   38.2330 C   0  0  0  0  0
   57.6820 -136.0700   38.1500 C   0  0  0  0  0
   56.8950 -136.5100   39.2110 C   0  0  0  0  0
   55.5330 -136.4380   39.1190 O   0  0  0  0  0
   55.0010 -135.3380   39.8680 C   0  0  0  0  0
   57.5080 -137.0260   40.3570 C   0  0  0  0  0
   58.8980 -137.1000   40.4400 C   0  0  0  0  0
   62.9600 -135.3170   40.1920 C   0  0  0  0  0
   64.0730 -135.5050   39.6900 O   0  0  0  0  0
   62.7380 -135.1000   41.5000 N   0  0  0  0  0
   63.8500 -135.0230   42.4600 C   0  0  0  0  0
   63.7430 -136.1230   43.5500 C   0  0  0  0  0
   62.3880 -136.1210   44.0700 O   0  0  0  0  0
   64.1520 -137.6260   43.1170 C   0  0  0  0  0
   65.2950 -137.6280   42.0260 C   0  0  0  0  0
   62.9270 -138.2710   42.4510 C   0  0  0  0  0
   63.2840 -139.6070   42.0360 O   0  0  0  0  0
   63.8170 -133.6600   43.1540 C   0  0  0  0  0
   64.4950 -132.6480   42.4250 C   0  0  0  0  0
   65.3550 -132.8780   41.3350 C   0  0  0  0  0
   65.9740 -131.8090   40.6830 C   0  0  0  0  0
   65.7570 -130.4970   41.1050 C   0  0  0  0  0
   64.9090 -130.2530   42.1860 C   0  0  0  0  0
   64.2880 -131.3230   42.8350 C   0  0  0  0  0
   59.9399 -133.2890   32.4361 H   0  0  0  0  0
   58.7502 -133.1175   33.7402 H   0  0  0  0  0
   59.0249 -135.7481   32.5079 H   0  0  0  0  0
   59.1143 -134.4747   30.5693 H   0  0  0  0  0
   57.8843 -133.3572   31.2252 H   0  0  0  0  0
   56.8131 -134.1308   33.5469 H   0  0  0  0  0
   57.6372 -135.4802   34.3748 H   0  0  0  0  0
   56.7849 -134.7826   29.6826 H   0  0  0  0  0
   57.5360 -136.2414   30.4140 H   0  0  0  0  0
   56.9277 -136.9888   32.5238 H   0  0  0  0  0
   55.5836 -136.3142   33.3652 H   0  0  0  0  0
   61.1102 -132.6489   34.5558 H   0  0  0  0  0
   62.5768 -135.0491   35.4551 H   0  0  0  0  0
   63.8017 -132.9855   34.8346 H   0  0  0  0  0
   62.9470 -132.0897   36.1145 H   0  0  0  0  0
   64.0788 -133.3953   36.5453 H   0  0  0  0  0
   62.9251 -135.6316   37.5794 H   0  0  0  0  0
   60.9533 -134.6220   39.6320 H   0  0  0  0  0
   61.3825 -137.1789   40.4047 H   0  0  0  0  0
   61.4612 -137.3667   38.6354 H   0  0  0  0  0
   59.6770 -135.8077   37.3940 H   0  0  0  0  0
   57.2114 -135.6658   37.2538 H   0  0  0  0  0
   55.2659 -135.4538   40.9190 H   0  0  0  0  0
   55.4180 -134.4055   39.4875 H   0  0  0  0  0
   53.9160 -135.3210   39.7652 H   0  0  0  0  0
   56.8960 -137.3722   41.1899 H   0  0  0  0  0
   59.3678 -137.5091   41.3344 H   0  0  0  0  0
   61.7806 -134.9866   41.8330 H   0  0  0  0  0
   64.7789 -135.1656   41.9077 H   0  0  0  0  0
   64.4900 -135.8548   44.2971 H   0  0  0  0  0
   62.3051 -136.7971   44.7465 H   0  0  0  0  0
   64.4921 -138.1549   44.0074 H   0  0  0  0  0
   64.9500 -137.0962   41.1392 H   0  0  0  0  0
   66.1793 -137.1328   42.4271 H   0  0  0  0  0
   65.5414 -138.6564   41.7617 H   0  0  0  0  0
   62.6190 -137.6820   41.5871 H   0  0  0  0  0
   62.0963 -138.3090   43.1557 H   0  0  0  0  0
   62.5273 -140.0237   41.6173 H   0  0  0  0  0
   64.3168 -133.7661   44.1168 H   0  0  0  0  0
   62.7732 -133.3598   43.2454 H   0  0  0  0  0
   65.5394 -133.8978   40.9971 H   0  0  0  0  0
   66.6329 -132.0017   39.8364 H   0  0  0  0  0
   66.2466 -129.6681   40.5937 H   0  0  0  0  0
   64.7318 -129.2316   42.5227 H   0  0  0  0  0
   63.6278 -131.1235   43.6790 H   0  0  0  0  0
  1  2  2  0  0  0
  3  1  1  0  0  0
  1 10  1  0  0  0
  4  3  1  0  0  0
  6  4  1  0  0  0
  4  7  1  0  0  0
  8  5  1  0  0  0
  5  9  1  0  0  0
  6  8  1  0  0  0
  7  9  1  0  0  0
 10 11  1  0  0  0
 11 12  1  0  0  0
 11 14  1  0  0  0
 12 13  2  0  0  0
 12 15  1  0  0  0
 15 16  1  0  0  0
 16 17  1  0  0  0
 16 26  1  0  0  0
 17 18  1  0  0  0
 18 19  4  0  0  0
 18 25  4  0  0  0
 19 20  4  0  0  0
 20 21  4  0  0  0
 21 22  1  0  0  0
 21 24  4  0  0  0
 22 23  1  0  0  0
 24 25  4  0  0  0
 26 27  2  0  0  0
 26 28  1  0  0  0
 28 29  1  0  0  0
 29 30  1  0  0  0
 29 36  1  0  0  0
 30 31  1  0  0  0
 30 32  1  0  0  0
 32 33  1  0  0  0
 32 34  1  0  0  0
 34 35  1  0  0  0
 36 37  1  0  0  0
 37 38  4  0  0  0
 37 42  4  0  0  0
 38 39  4  0  0  0
 39 40  4  0  0  0
 40 41  4  0  0  0
 41 42  4  0  0  0
  3 43  1  0  0  0
  3 44  1  0  0  0
  4 45  1  0  0  0
  6 46  1  0  0  0
  6 47  1  0  0  0
  7 48  1  0  0  0
  7 49  1  0  0  0
  8 50  1  0  0  0
  8 51  1  0  0  0
  9 52  1  0  0  0
  9 53  1  0  0  0
 10 54  1  0  0  0
 11 55  1  0  0  0
 14 56  1  0  0  0
 14 57  1  0  0  0
 14 58  1  0  0  0
 15 59  1  0  0  0
 16 60  1  0  0  0
 17 61  1  0  0  0
 17 62  1  0  0  0
 19 63  1  0  0  0
 20 64  1  0  0  0
 23 65  1  0  0  0
 23 66  1  0  0  0
 23 67  1  0  0  0
 24 68  1  0  0  0
 25 69  1  0  0  0
 28 70  1  0  0  0
 29 71  1  0  0  0
 30 72  1  0  0  0
 31 73  1  0  0  0
 32 74  1  0  0  0
 33 75  1  0  0  0
 33 76  1  0  0  0
 33 77  1  0  0  0
 34 78  1  0  0  0
 34 79  1  0  0  0
 35 80  1  0  0  0
 36 81  1  0  0  0
 36 82  1  0  0  0
 38 83  1  0  0  0
 39 84  1  0  0  0
 40 85  1  0  0  0
 41 86  1  0  0  0
 42 87  1  0  0  0
M  END
$$$$
