1qwe_ligand
  -I-interpret- 

205209  0  0  0  0  0  0  0  0999 V2000
   52.4770   12.0710   -9.0580 N   0  3  0  0  0
   53.1730   10.8700   -8.5160 C   0  0  0  0  0
   54.3380   10.4920   -9.4390 C   0  0  0  0  0
   54.2210   10.5740  -10.6450 O   0  0  0  0  0
   52.1890    9.7030   -8.4390 C   0  0  0  0  0
   55.4290   10.0850   -8.8390 N   0  0  0  0  0
   56.6390    9.6790   -9.5760 C   0  0  0  0  0
   56.4670    8.2680  -10.1470 C   0  0  0  0  0
   55.4900    7.6020   -9.8690 O   0  0  0  0  0
   57.7350    9.7100   -8.5070 C   0  0  0  0  0
   57.0200    9.5790   -7.1420 C   0  0  0  0  0
   55.5560    9.9900   -7.3710 C   0  0  0  0  0
   57.4290    7.8540  -10.9290 N   0  0  0  0  0
   57.4240    6.5210  -11.5580 C   0  0  0  0  0
   57.7760    5.4440  -10.5270 C   0  0  0  0  0
   58.6230    5.6380   -9.6780 O   0  0  0  0  0
   58.5050    6.6270  -12.6370 C   0  0  0  0  0
   59.4360    7.7850  -12.2070 C   0  0  0  0  0
   58.6130    8.6760  -11.2570 C   0  0  0  0  0
   57.1280    4.3120  -10.5910 N   0  0  0  0  0
   57.4240    3.2290   -9.6110 C   0  0  0  0  0
   58.9440    3.0320   -9.5140 C   0  0  0  0  0
   59.5950    2.7840  -10.5100 O   0  0  0  0  0
   56.7720    1.9260  -10.0780 C   0  0  0  0  0
   55.2640    1.9910   -9.8310 C   0  0  0  0  0
   54.6170    0.6780  -10.2760 C   0  0  0  0  0
   54.9960    2.2090   -8.3390 C   0  0  0  0  0
   59.4670    3.1500   -8.3170 N   0  0  0  0  0
   60.9090    2.9900   -8.0630 C   0  0  0  0  0
   61.2840    1.5040   -8.0140 C   0  0  0  0  0
   60.4220    0.6480   -8.0250 O   0  0  0  0  0
   61.1060    3.6450   -6.6940 C   0  0  0  0  0
   59.7250    3.6270   -5.9980 C   0  0  0  0  0
   58.6730    3.4520   -7.1090 C   0  0  0  0  0
   62.5650    1.2480   -7.9530 N   0  0  0  0  0
   63.1000   -0.1240   -7.8910 C   0  0  0  0  0
   62.9120   -0.6970   -6.4840 C   0  0  0  0  0
   63.3240   -0.1070   -5.5040 O   0  0  0  0  0
   64.5840    0.0520   -8.2220 C   0  0  0  0  0
   64.9290    1.5260   -7.9030 C   0  0  0  0  0
   63.5990    2.3030   -7.9370 C   0  0  0  0  0
   62.2840   -1.8350   -6.3730 N   0  0  0  0  0
   62.0630   -2.4320   -5.0270 C   0  0  0  0  0
   63.3850   -2.5080   -4.2660 C   0  0  0  0  0
   64.2810   -3.2410   -4.6340 O   0  0  0  0  0
   61.4820   -3.8350   -5.1690 C   0  0  0  0  0
   60.1200   -3.7590   -5.8630 C   0  0  0  0  0
   59.9890   -4.9120   -6.8610 C   0  0  0  0  0
   59.6150   -6.1570   -6.1330 N   0  0  0  0  0
   58.3890   -6.3330   -5.7190 C   0  0  0  0  0
   57.4830   -5.4190   -5.9420 N   0  0  0  0  0
   58.0690   -7.4250   -5.0810 N   0  0  0  0  0
   63.4910   -1.7560   -3.2000 N   0  0  0  0  0
   64.7350   -1.7490   -2.3650 C   0  0  0  0  0
   65.9640   -2.0770   -3.2180 C   0  0  0  0  0
   66.5790   -1.2070   -3.8010 O   0  0  0  0  0
   64.6020   -2.7840   -1.2460 C   0  0  0  0  0
   65.9390   -2.9170   -0.5130 C   0  0  0  0  0
   66.1940   -3.9130    0.1330 O   0  0  0  0  0
   66.8100   -1.9460   -0.5870 N   0  0  0  0  0
   66.3250   -3.3300   -3.2910 N   0  0  0  0  0
   67.5130   -3.7220   -4.0990 C   0  0  0  0  0
   67.0700   -4.6450   -5.2380 C   0  0  0  0  0
   65.9750   -5.1710   -5.2170 O   0  0  0  0  0
   68.5130   -4.4610   -3.2060 C   0  0  0  0  0
   67.7570   -5.2710   -2.1490 C   0  0  0  0  0
   68.5730   -6.5110   -1.7800 C   0  0  0  0  0
   67.6650   -7.5610   -1.2350 N   0  0  0  0  0
   68.0400   -8.8140   -1.2230 C   0  0  0  0  0
   69.2150   -9.1540   -1.6810 N   0  0  0  0  0
   67.2390   -9.7270   -0.7470 N   0  0  0  0  0
   67.9400   -4.8140   -6.2010 N   0  0  0  0  0
   67.6730   -5.6710   -7.3690 C   0  0  0  0  0
   67.8340   -7.1470   -6.9960 C   0  0  0  0  0
   68.9310   -7.6560   -6.9200 O   0  0  0  0  0
   68.7370   -5.2390   -8.3820 C   0  0  0  0  0
   69.8790   -4.5890   -7.5650 C   0  0  0  0  0
   69.2690   -4.1690   -6.2140 C   0  0  0  0  0
   66.7390   -7.8260   -6.7630 N   0  0  0  0  0
   66.7850   -9.2760   -6.3890 C   0  0  0  0  0
   67.9910   -9.5590   -5.4800 C   0  0  0  0  0
   67.8800   -9.5280   -4.2710 O   0  0  0  0  0
   66.8490  -10.1690   -7.6460 C   0  0  0  0  0
   66.6440   -9.3440   -8.9250 C   0  0  0  0  0
   68.0050   -8.9970   -9.5320 C   0  0  0  0  0
   68.7530  -10.2550   -9.8140 N   0  0  0  0  0
   70.0460  -10.2250   -9.9940 C   0  0  0  0  0
   70.6930   -9.0920   -9.9250 N   0  0  0  0  0
   70.6930  -11.3310  -10.2400 N   0  0  0  0  0
   69.1410   -9.8360   -6.0390 N   0  0  0  0  0
   70.3310  -10.1180   -5.1880 C   0  0  0  0  0
   71.3140   -8.9490   -5.2810 C   0  0  0  0  0
   71.4220   -8.2130   -4.3140 O   0  0  0  0  0
   71.0150  -11.3990   -5.6720 C   0  0  0  0  0
   69.9640  -12.3620   -6.2270 C   0  0  0  0  0
   70.6580  -13.5890   -6.8220 C   0  0  0  0  0
   69.0300  -12.8030   -5.0970 C   0  0  0  0  0
   71.9420   -8.8100   -6.3170 O   0  0  0  0  0
   53.1343   12.8493   -9.1091 H   0  0  0  0  0
   52.1205   11.8638   -9.9909 H   0  0  0  0  0
   51.7015   12.3192   -8.4437 H   0  0  0  0  0
   53.5554   11.0921   -7.5197 H   0  0  0  0  0
   51.8083    9.4840   -9.4366 H   0  0  0  0  0
   52.6989    8.8250   -8.0425 H   0  0  0  0  0
   51.3605    9.9706   -7.7832 H   0  0  0  0  0
   56.8631   10.3232  -10.4262 H   0  0  0  0  0
   58.3069   10.6363   -8.5609 H   0  0  0  0  0
   58.4472    8.8981   -8.6543 H   0  0  0  0  0
   57.4906   10.2165   -6.3935 H   0  0  0  0  0
   57.0832    8.5578   -6.7661 H   0  0  0  0  0
   54.8565    9.2712   -6.9443 H   0  0  0  0  0
   55.3115   10.9300   -6.8763 H   0  0  0  0  0
   56.4529    6.2413  -11.9664 H   0  0  0  0  0
   58.0647    6.8207  -13.6151 H   0  0  0  0  0
   59.0588    5.6928  -12.7300 H   0  0  0  0  0
   59.7813    8.3508  -13.0723 H   0  0  0  0  0
   60.3290    7.4049  -11.7108 H   0  0  0  0  0
   59.1758    8.9617  -10.3684 H   0  0  0  0  0
   58.3410    9.6268  -11.7154 H   0  0  0  0  0
   56.4199    4.1692  -11.3111 H   0  0  0  0  0
   57.0275    3.5040   -8.6336 H   0  0  0  0  0
   57.1948    1.0893   -9.5218 H   0  0  0  0  0
   56.9594    1.7881  -11.1429 H   0  0  0  0  0
   54.8406    2.8184  -10.4004 H   0  0  0  0  0
   54.8054    0.5234  -11.3384 H   0  0  0  0  0
   55.0438   -0.1473   -9.7061 H   0  0  0  0  0
   53.5425    0.7258  -10.0994 H   0  0  0  0  0
   55.4213    1.3821   -7.7702 H   0  0  0  0  0
   55.4561    3.1447   -8.0214 H   0  0  0  0  0
   53.9206    2.2547   -8.1672 H   0  0  0  0  0
   61.5322    3.4349   -8.8388 H   0  0  0  0  0
   61.4781    4.6642   -6.7982 H   0  0  0  0  0
   61.8476    3.1050   -6.1053 H   0  0  0  0  0
   59.5563    4.5510   -5.4449 H   0  0  0  0  0
   59.6650    2.8142   -5.2742 H   0  0  0  0  0
   57.9592    2.6612   -6.8781 H   0  0  0  0  0
   58.0561    4.3418   -7.2346 H   0  0  0  0  0
   62.6021   -0.8151   -8.5711 H   0  0  0  0  0
   64.7820   -0.1790   -9.2687 H   0  0  0  0  0
   65.1997   -0.6302   -7.6358 H   0  0  0  0  0
   65.6348    1.9280   -8.6299 H   0  0  0  0  0
   65.4072    1.6128   -6.9273 H   0  0  0  0  0
   63.4912    2.9725   -7.0836 H   0  0  0  0  0
   63.5288    2.9617   -8.8027 H   0  0  0  0  0
   61.9450   -2.3149   -7.2067 H   0  0  0  0  0
   61.3635   -1.8036   -4.4758 H   0  0  0  0  0
   61.3606   -4.2784   -4.1807 H   0  0  0  0  0
   62.1582   -4.4484   -5.7645 H   0  0  0  0  0
   60.0350   -2.8098   -6.3921 H   0  0  0  0  0
   59.3283   -3.8329   -5.1174 H   0  0  0  0  0
   60.9403   -5.0610   -7.3718 H   0  0  0  0  0
   59.2180   -4.6733   -7.5936 H   0  0  0  0  0
   60.3188   -6.8741   -5.9574 H   0  0  0  0  0
   56.5263   -5.5594   -5.6174 H   0  0  0  0  0
   57.7322   -4.5649   -6.4407 H   0  0  0  0  0
   58.7758   -8.1394   -4.9064 H   0  0  0  0  0
   62.7078   -1.1604   -2.9312 H   0  0  0  0  0
   64.8626   -0.7537   -1.9393 H   0  0  0  0  0
   64.3243   -3.7476   -1.6733 H   0  0  0  0  0
   63.8328   -2.4630   -0.5436 H   0  0  0  0  0
   67.7040   -2.0247   -0.1022 H   0  0  0  0  0
   66.5960   -1.1092   -1.1296 H   0  0  0  0  0
   65.7915   -4.0425   -2.7929 H   0  0  0  0  0
   67.9834   -2.8303   -4.5135 H   0  0  0  0  0
   69.1614   -3.7372   -2.7122 H   0  0  0  0  0
   69.1148   -5.1344   -3.8163 H   0  0  0  0  0
   66.7898   -5.5770   -2.5478 H   0  0  0  0  0
   67.6045   -4.6579   -1.2608 H   0  0  0  0  0
   69.3150   -6.2462   -1.0267 H   0  0  0  0  0
   69.0762   -6.8920   -2.6687 H   0  0  0  0  0
   66.7485   -7.3012   -0.8704 H   0  0  0  0  0
   69.5048  -10.1319   -1.6661 H   0  0  0  0  0
   69.8428   -8.4417   -2.0536 H   0  0  0  0  0
   66.3225   -9.4631   -0.3853 H   0  0  0  0  0
   66.6594   -5.5674   -7.7564 H   0  0  0  0  0
   68.3252   -4.5364   -9.1064 H   0  0  0  0  0
   69.1017   -6.0920   -8.9542 H   0  0  0  0  0
   70.2924   -3.7280   -8.0902 H   0  0  0  0  0
   70.7016   -5.2893   -7.4201 H   0  0  0  0  0
   69.8852   -4.4791   -5.3701 H   0  0  0  0  0
   69.2018   -3.0859   -6.1117 H   0  0  0  0  0
   65.8358   -7.3580   -6.8377 H   0  0  0  0  0
   65.8700   -9.5118   -5.8456 H   0  0  0  0  0
   66.0571  -10.9154   -7.5830 H   0  0  0  0  0
   67.8316  -10.6389   -7.6891 H   0  0  0  0  0
   66.1094   -8.4255   -8.6830 H   0  0  0  0  0
   66.0636   -9.9242   -9.6424 H   0  0  0  0  0
   68.5720   -8.3844   -8.8310 H   0  0  0  0  0
   67.8606   -8.4424  -10.4592 H   0  0  0  0  0
   68.2531  -11.1425   -9.8666 H   0  0  0  0  0
   71.7034   -9.0724  -10.0634 H   0  0  0  0  0
   70.1877   -8.2271   -9.7327 H   0  0  0  0  0
   70.1888  -12.2162  -10.2913 H   0  0  0  0  0
   69.2227   -9.8589   -7.0555 H   0  0  0  0  0
   70.0138  -10.2450   -4.1529 H   0  0  0  0  0
   70.8338   -8.5134   -3.6173 H   0  0  0  0  0
   71.5342  -11.8704   -4.8376 H   0  0  0  0  0
   71.7318  -11.1536   -6.4556 H   0  0  0  0  0
   69.3859  -11.8603   -7.0030 H   0  0  0  0  0
   71.3233  -13.2743   -7.6261 H   0  0  0  0  0
   71.2361  -14.0900   -6.0455 H   0  0  0  0  0
   69.9073  -14.2736   -7.2168 H   0  0  0  0  0
   69.6104  -13.3042   -4.3224 H   0  0  0  0  0
   68.5356  -11.9286   -4.6739 H   0  0  0  0  0
   68.2814  -13.4891   -5.4930 H   0  0  0  0  0
  1  2  1  0  0  0
  2  3  1  0  0  0
  2  5  1  0  0  0
  3  4  2  0  0  0
  3  6  1  0  0  0
  6  7  1  0  0  0
  6 12  1  0  0  0
  7  8  1  0  0  0
  7 10  1  0  0  0
  8  9  2  0  0  0
  8 13  1  0  0  0
 10 11  1  0  0  0
 11 12  1  0  0  0
 13 14  1  0  0  0
 13 19  1  0  0  0
 14 15  1  0  0  0
 14 17  1  0  0  0
 15 16  2  0  0  0
 15 20  1  0  0  0
 17 18  1  0  0  0
 18 19  1  0  0  0
 20 21  1  0  0  0
 21 22  1  0  0  0
 21 24  1  0  0  0
 22 23  2  0  0  0
 22 28  1  0  0  0
 24 25  1  0  0  0
 25 26  1  0  0  0
 25 27  1  0  0  0
 28 29  1  0  0  0
 28 34  1  0  0  0
 29 30  1  0  0  0
 29 32  1  0  0  0
 30 31  2  0  0  0
 30 35  1  0  0  0
 32 33  1  0  0  0
 33 34  1  0  0  0
 35 36  1  0  0  0
 35 41  1  0  0  0
 36 37  1  0  0  0
 36 39  1  0  0  0
 37 38  2  0  0  0
 37 42  1  0  0  0
 39 40  1  0  0  0
 40 41  1  0  0  0
 42 43  1  0  0  0
 43 44  1  0  0  0
 43 46  1  0  0  0
 44 45  2  0  0  0
 44 53  1  0  0  0
 46 47  1  0  0  0
 47 48  1  0  0  0
 48 49  1  0  0  0
 49 50  1  0  0  0
 50 51  1  0  0  0
 50 52  2  0  0  0
 53 54  1  0  0  0
 54 55  1  0  0  0
 54 57  1  0  0  0
 55 56  2  0  0  0
 55 61  1  0  0  0
 57 58  1  0  0  0
 58 59  2  0  0  0
 58 60  1  0  0  0
 61 62  1  0  0  0
 62 63  1  0  0  0
 62 65  1  0  0  0
 63 64  2  0  0  0
 63 72  1  0  0  0
 65 66  1  0  0  0
 66 67  1  0  0  0
 67 68  1  0  0  0
 68 69  1  0  0  0
 69 70  1  0  0  0
 69 71  2  0  0  0
 72 73  1  0  0  0
 72 78  1  0  0  0
 73 74  1  0  0  0
 73 76  1  0  0  0
 74 75  2  0  0  0
 74 79  1  0  0  0
 76 77  1  0  0  0
 77 78  1  0  0  0
 79 80  1  0  0  0
 80 81  1  0  0  0
 80 83  1  0  0  0
 81 82  2  0  0  0
 81 90  1  0  0  0
 83 84  1  0  0  0
 84 85  1  0  0  0
 85 86  1  0  0  0
 86 87  1  0  0  0
 87 88  1  0  0  0
 87 89  2  0  0  0
 90 91  1  0  0  0
 91 92  1  0  0  0
 91 94  1  0  0  0
 92 93  1  0  0  0
 92 98  2  0  0  0
 94 95  1  0  0  0
 95 96  1  0  0  0
 95 97  1  0  0  0
  1 99  1  0  0  0
  1100  1  0  0  0
  1101  1  0  0  0
  2102  1  0  0  0
  5103  1  0  0  0
  5104  1  0  0  0
  5105  1  0  0  0
  7106  1  0  0  0
 10107  1  0  0  0
 10108  1  0  0  0
 11109  1  0  0  0
 11110  1  0  0  0
 12111  1  0  0  0
 12112  1  0  0  0
 14113  1  0  0  0
 17114  1  0  0  0
 17115  1  0  0  0
 18116  1  0  0  0
 18117  1  0  0  0
 19118  1  0  0  0
 19119  1  0  0  0
 20120  1  0  0  0
 21121  1  0  0  0
 24122  1  0  0  0
 24123  1  0  0  0
 25124  1  0  0  0
 26125  1  0  0  0
 26126  1  0  0  0
 26127  1  0  0  0
 27128  1  0  0  0
 27129  1  0  0  0
 27130  1  0  0  0
 29131  1  0  0  0
 32132  1  0  0  0
 32133  1  0  0  0
 33134  1  0  0  0
 33135  1  0  0  0
 34136  1  0  0  0
 34137  1  0  0  0
 36138  1  0  0  0
 39139  1  0  0  0
 39140  1  0  0  0
 40141  1  0  0  0
 40142  1  0  0  0
 41143  1  0  0  0
 41144  1  0  0  0
 42145  1  0  0  0
 43146  1  0  0  0
 46147  1  0  0  0
 46148  1  0  0  0
 47149  1  0  0  0
 47150  1  0  0  0
 48151  1  0  0  0
 48152  1  0  0  0
 49153  1  0  0  0
 51154  1  0  0  0
 51155  1  0  0  0
 52156  1  0  0  0
 53157  1  0  0  0
 54158  1  0  0  0
 57159  1  0  0  0
 57160  1  0  0  0
 60161  1  0  0  0
 60162  1  0  0  0
 61163  1  0  0  0
 62164  1  0  0  0
 65165  1  0  0  0
 65166  1  0  0  0
 66167  1  0  0  0
 66168  1  0  0  0
 67169  1  0  0  0
 67170  1  0  0  0
 68171  1  0  0  0
 70172  1  0  0  0
 70173  1  0  0  0
 71174  1  0  0  0
 73175  1  0  0  0
 76176  1  0  0  0
 76177  1  0  0  0
 77178  1  0  0  0
 77179  1  0  0  0
 78180  1  0  0  0
 78181  1  0  0  0
 79182  1  0  0  0
 80183  1  0  0  0
 83184  1  0  0  0
 83185  1  0  0  0
 84186  1  0  0  0
 84187  1  0  0  0
 85188  1  0  0  0
 85189  1  0  0  0
 86190  1  0  0  0
 88191  1  0  0  0
 88192  1  0  0  0
 89193  1  0  0  0
 90194  1  0  0  0
 91195  1  0  0  0
 93196  1  0  0  0
 94197  1  0  0  0
 94198  1  0  0  0
 95199  1  0  0  0
 96200  1  0  0  0
 96201  1  0  0  0
 96202  1  0  0  0
 97203  1  0  0  0
 97204  1  0  0  0
 97205  1  0  0  0
M  END
$$$$
