### 
### Created by X-TOOL on Mon Sep 10 21:12:45 2018
### 

@<TRIPOS>MOLECULE
1qwe_ligand
  207   211     1     0     0
SMALL
GAST_HUCK


@<TRIPOS>ATOM
      1 N          52.4770   12.0710   -9.0580 N.4       1 ALA         0.2377
      2 CA         53.1730   10.8700   -8.5160 C.3       1 ALA         0.0623
      3 C          54.3380   10.4920   -9.4390 C.2       1 ALA         0.2289
      4 O          54.2210   10.5740  -10.6450 O.2       1 ALA        -0.3905
      5 CB         52.1890    9.7030   -8.4390 C.3       1 ALA        -0.0040
      6 H1         51.7116   12.3184   -8.4506 H         1 ALA         0.2015
      7 H2         52.1223   11.8667   -9.9792 H         1 ALA         0.2015
      8 H3         53.1262   12.8403   -9.1108 H         1 ALA         0.2015
      9 H4         53.5587   11.0924   -7.5101 H         1 ALA         0.1095
     10 H5         52.7025    8.8163   -8.0389 H         1 ALA         0.0310
     11 H6         51.8041    9.4809   -9.4452 H         1 ALA         0.0310
     12 H7         51.3524    9.9718   -7.7774 H         1 ALA         0.0310
     13 N          55.4290   10.0850   -8.8390 N.am      1 PRO        -0.2471
     14 CA         56.6390    9.6790   -9.5760 C.3       1 PRO         0.1341
     15 C          56.4670    8.2680  -10.1470 C.2       1 PRO         0.2066
     16 O          55.4900    7.6020   -9.8690 O.2       1 PRO        -0.3942
     17 CB         57.7350    9.7100   -8.5070 C.3       1 PRO        -0.0104
     18 CG         57.0200    9.5790   -7.1420 C.3       1 PRO        -0.0281
     19 CD         55.5560    9.9900   -7.3710 C.3       1 PRO         0.0371
     20 H8         56.8627   10.3832  -10.3909 H         1 PRO         0.0802
     21 H9         58.2879   10.6596   -8.5569 H         1 PRO         0.0313
     22 H10        58.4321    8.8717   -8.6529 H         1 PRO         0.0313
     23 H11        57.4895   10.2441   -6.4023 H         1 PRO         0.0287
     24 H12        57.0709    8.5397   -6.7852 H         1 PRO         0.0287
     25 H13        54.8704    9.2295   -6.9690 H         1 PRO         0.0524
     26 H14        55.3452   10.9605   -6.8980 H         1 PRO         0.0524
     27 N          57.4290    7.8540  -10.9290 N.am      1 PRO        -0.2498
     28 CA         57.4240    6.5210  -11.5580 C.3       1 PRO         0.1338
     29 C          57.7760    5.4440  -10.5270 C.2       1 PRO         0.2041
     30 O          58.6230    5.6380   -9.6780 O.2       1 PRO        -0.3944
     31 CB         58.5050    6.6270  -12.6370 C.3       1 PRO        -0.0104
     32 CG         59.4360    7.7850  -12.2070 C.3       1 PRO        -0.0281
     33 CD         58.6130    8.6760  -11.2570 C.3       1 PRO         0.0369
     34 H15        56.4439    6.2978  -12.0046 H         1 PRO         0.0802
     35 H16        58.0484    6.8479  -13.6131 H         1 PRO         0.0313
     36 H17        59.0720    5.6866  -12.7018 H         1 PRO         0.0313
     37 H18        59.7567    8.3619  -13.0869 H         1 PRO         0.0287
     38 H19        60.3201    7.3888  -11.6861 H         1 PRO         0.0287
     39 H20        59.1870    8.9140  -10.3494 H         1 PRO         0.0524
     40 H21        58.3144    9.6091  -11.7572 H         1 PRO         0.0524
     41 N          57.1280    4.3120  -10.5910 N.am      1 LEU        -0.2637
     42 CA         57.4240    3.2290   -9.6110 C.3       1 LEU         0.1314
     43 C          58.9440    3.0320   -9.5140 C.2       1 LEU         0.2064
     44 O          59.5950    2.7840  -10.5100 O.2       1 LEU        -0.3942
     45 CB         56.7720    1.9260  -10.0780 C.3       1 LEU        -0.0101
     46 CG         55.2640    1.9910   -9.8310 C.3       1 LEU        -0.0425
     47 CD1        54.6170    0.6780  -10.2760 C.3       1 LEU        -0.0625
     48 CD2        54.9960    2.2090   -8.3390 C.3       1 LEU        -0.0625
     49 H22        56.4338    4.1720  -11.2970 H         1 LEU         0.1883
     50 H23        57.0250    3.5067   -8.6243 H         1 LEU         0.0800
     51 H24        57.1989    1.0813   -9.5174 H         1 LEU         0.0315
     52 H25        56.9614    1.7862  -11.1525 H         1 LEU         0.0315
     53 H26        54.8347    2.8248  -10.4059 H         1 LEU         0.0298
     54 H27        53.5325    0.7250  -10.0983 H         1 LEU         0.0232
     55 H28        55.0469   -0.1558   -9.7016 H         1 LEU         0.0232
     56 H29        54.8063    0.5208  -11.3481 H         1 LEU         0.0232
     57 H30        55.4605    3.1527   -8.0171 H         1 LEU         0.0232
     58 H31        55.4241    1.3748   -7.7638 H         1 LEU         0.0232
     59 H32        53.9110    2.2562   -8.1644 H         1 LEU         0.0232
     60 N          59.4670    3.1500   -8.3170 N.am      1 PRO        -0.2498
     61 CA         60.9090    2.9900   -8.0630 C.3       1 PRO         0.1340
     62 C          61.2840    1.5040   -8.0140 C.2       1 PRO         0.2066
     63 O          60.4220    0.6480   -8.0250 O.2       1 PRO        -0.3942
     64 CB         61.1060    3.6450   -6.6940 C.3       1 PRO        -0.0104
     65 CG         59.7250    3.6270   -5.9980 C.3       1 PRO        -0.0281
     66 CD         58.6730    3.4520   -7.1090 C.3       1 PRO         0.0369
     67 H33        61.5065    3.4980   -8.8343 H         1 PRO         0.0802
     68 H34        61.4576    4.6803   -6.8147 H         1 PRO         0.0313
     69 H35        61.8378    3.0759   -6.1018 H         1 PRO         0.0313
     70 H36        59.5576    4.5733   -5.4629 H         1 PRO         0.0287
     71 H37        59.6692    2.7891   -5.2875 H         1 PRO         0.0287
     72 H38        57.9911    2.6218   -6.8730 H         1 PRO         0.0524
     73 H39        58.0922    4.3762   -7.2451 H         1 PRO         0.0524
     74 N          62.5650    1.2480   -7.9530 N.am      1 PRO        -0.2498
     75 CA         63.1000   -0.1240   -7.8910 C.3       1 PRO         0.1338
     76 C          62.9120   -0.6970   -6.4840 C.2       1 PRO         0.2041
     77 O          63.3240   -0.1070   -5.5040 O.2       1 PRO        -0.3944
     78 CB         64.5840    0.0520   -8.2220 C.3       1 PRO        -0.0104
     79 CG         64.9290    1.5260   -7.9030 C.3       1 PRO        -0.0281
     80 CD         63.5990    2.3030   -7.9370 C.3       1 PRO         0.0369
     81 H40        62.6073   -0.7769   -8.6265 H         1 PRO         0.0802
     82 H41        64.7644   -0.1595   -9.2863 H         1 PRO         0.0313
     83 H42        65.1945   -0.6239   -7.6052 H         1 PRO         0.0313
     84 H43        65.6223    1.9260   -8.6575 H         1 PRO         0.0287
     85 H44        65.3881    1.6018   -6.9063 H         1 PRO         0.0287
     86 H45        63.4950    2.9381   -7.0449 H         1 PRO         0.0524
     87 H46        63.5343    2.9268   -8.8407 H         1 PRO         0.0524
     88 N          62.2840   -1.8350   -6.3730 N.am      1 ARG        -0.2637
     89 CA         62.0630   -2.4320   -5.0270 C.3       1 ARG         0.1311
     90 C          63.3850   -2.5080   -4.2660 C.2       1 ARG         0.2040
     91 O          64.2810   -3.2410   -4.6340 O.2       1 ARG        -0.3944
     92 CB         61.4820   -3.8350   -5.1690 C.3       1 ARG        -0.0092
     93 CG         60.1200   -3.7590   -5.8630 C.3       1 ARG        -0.0156
     94 CD         59.9890   -4.9120   -6.8610 C.3       1 ARG         0.0627
     95 NE         59.6150   -6.1570   -6.1330 N.pl3     1 ARG        -0.2723
     96 CZ         58.3890   -6.3330   -5.7190 C.cat     1 ARG         0.2882
     97 NH1        57.4830   -5.4190   -5.9420 N.pl3     1 ARG        -0.2849
     98 NH2        58.0690   -7.4250   -5.0810 N.pl3     1 ARG        -0.2849
     99 H47        61.9516   -2.3055   -7.1904 H         1 ARG         0.1883
    100 H48        61.3572   -1.8025   -4.4654 H         1 ARG         0.0800
    101 H49        61.3602   -4.2834   -4.1720 H         1 ARG         0.0313
    102 H50        62.1644   -4.4548   -5.7690 H         1 ARG         0.0313
    103 H51        60.0337   -2.8010   -6.3967 H         1 ARG         0.0301
    104 H52        59.3209   -3.8331   -5.1108 H         1 ARG         0.0301
    105 H53        60.9493   -5.0625   -7.3759 H         1 ARG         0.0689
    106 H54        59.2105   -4.6711   -7.5999 H         1 ARG         0.0689
    107 H55        60.3257   -6.8812   -5.9557 H         1 ARG         0.2642
    108 H56        56.5169   -5.5607   -5.6142 H         1 ARG         0.2615
    109 H57        57.7346   -4.5565   -6.4456 H         1 ARG         0.2615
    110 H58        58.7827   -8.1464   -4.9046 H         1 ARG         0.2615
    111 H59        57.1026   -7.5658   -4.7536 H         1 ARG         0.2615
    112 N          63.4910   -1.7560   -3.2000 N.am      1 ASN        -0.2616
    113 CA         64.7350   -1.7490   -2.3650 C.3       1 ASN         0.1476
    114 C          65.9640   -2.0770   -3.2180 C.2       1 ASN         0.2063
    115 O          66.5790   -1.2070   -3.8010 O.2       1 ASN        -0.3942
    116 CB         64.6020   -2.7840   -1.2460 C.3       1 ASN         0.0773
    117 CG         65.9390   -2.9170   -0.5130 C.2       1 ASN         0.1780
    118 OD1        66.1940   -3.9130    0.1330 O.2       1 ASN        -0.3970
    119 ND2        66.8100   -1.9460   -0.5870 N.am      1 ASN        -0.3007
    120 H60        62.7232   -1.1720   -2.9365 H         1 ASN         0.1885
    121 H61        64.8630   -0.7503   -1.9221 H         1 ASN         0.0826
    122 H62        64.3219   -3.7564   -1.6772 H         1 ASN         0.0551
    123 H63        63.8258   -2.4600   -0.5371 H         1 ASN         0.0551
    124 H64        67.6864   -2.0232   -0.1117 H         1 ASN         0.1814
    125 H65        66.6002   -1.1256   -1.1189 H         1 ASN         0.1814
    126 N          66.3250   -3.3300   -3.2910 N.am      1 ARG        -0.2636
    127 CA         67.5130   -3.7220   -4.0990 C.3       1 ARG         0.1313
    128 C          67.0700   -4.6450   -5.2380 C.2       1 ARG         0.2064
    129 O          65.9750   -5.1710   -5.2170 O.2       1 ARG        -0.3942
    130 CB         68.5130   -4.4610   -3.2060 C.3       1 ARG        -0.0092
    131 CG         67.7570   -5.2710   -2.1490 C.3       1 ARG        -0.0156
    132 CD         68.5730   -6.5110   -1.7800 C.3       1 ARG         0.0627
    133 NE         67.6650   -7.5610   -1.2350 N.pl3     1 ARG        -0.2723
    134 CZ         68.0400   -8.8140   -1.2230 C.cat     1 ARG         0.2882
    135 NH1        69.2150   -9.1540   -1.6810 N.pl3     1 ARG        -0.2849
    136 NH2        67.2390   -9.7270   -0.7470 N.pl3     1 ARG        -0.2849
    137 H66        65.8019   -4.0285   -2.8027 H         1 ARG         0.1883
    138 H67        67.9875   -2.8221   -4.5173 H         1 ARG         0.0800
    139 H68        69.1683   -3.7311   -2.7082 H         1 ARG         0.0313
    140 H69        69.1213   -5.1400   -3.8215 H         1 ARG         0.0313
    141 H70        66.7814   -5.5803   -2.5520 H         1 ARG         0.0301
    142 H71        67.6040   -4.6522   -1.2525 H         1 ARG         0.0301
    143 H72        69.3221   -6.2440   -1.0201 H         1 ARG         0.0689
    144 H73        69.0812   -6.8955   -2.6766 H         1 ARG         0.0689
    145 H74        66.7395   -7.2986   -0.8668 H         1 ARG         0.2642
    146 H75        69.5061  -10.1420   -1.6696 H         1 ARG         0.2615
    147 H76        69.8505   -8.4342   -2.0536 H         1 ARG         0.2615
    148 H77        66.3120   -9.4610   -0.3853 H         1 ARG         0.2615
    149 H78        67.5336  -10.7139   -0.7328 H         1 ARG         0.2615
    150 N          67.9400   -4.8140   -6.2010 N.am      1 PRO        -0.2498
    151 CA         67.6730   -5.6710   -7.3690 C.3       1 PRO         0.1338
    152 C          67.8340   -7.1470   -6.9960 C.2       1 PRO         0.2041
    153 O          68.9310   -7.6560   -6.9200 O.2       1 PRO        -0.3944
    154 CB         68.7370   -5.2390   -8.3820 C.3       1 PRO        -0.0104
    155 CG         69.8790   -4.5890   -7.5650 C.3       1 PRO        -0.0281
    156 CD         69.2690   -4.1690   -6.2140 C.3       1 PRO         0.0369
    157 H79        66.6609   -5.4984   -7.7638 H         1 PRO         0.0802
    158 H80        68.3145   -4.5116   -9.0908 H         1 PRO         0.0313
    159 H81        69.1137   -6.1126   -8.9341 H         1 PRO         0.0313
    160 H82        70.2710   -3.7083   -8.0947 H         1 PRO         0.0287
    161 H83        70.6917   -5.3130   -7.4059 H         1 PRO         0.0287
    162 H84        69.8862   -4.5300   -5.3781 H         1 PRO         0.0524
    163 H85        69.1724   -3.0750   -6.1527 H         1 PRO         0.0524
    164 N          66.7390   -7.8260   -6.7630 N.am      1 ARG        -0.2637
    165 CA         66.7850   -9.2760   -6.3890 C.3       1 ARG         0.1310
    166 C          67.9910   -9.5590   -5.4800 C.2       1 ARG         0.2033
    167 O          67.8800   -9.5280   -4.2710 O.2       1 ARG        -0.3944
    168 CB         66.8490  -10.1690   -7.6460 C.3       1 ARG        -0.0092
    169 CG         66.6440   -9.3440   -8.9250 C.3       1 ARG        -0.0156
    170 CD         68.0050   -8.9970   -9.5320 C.3       1 ARG         0.0627
    171 NE         68.7530  -10.2550   -9.8140 N.pl3     1 ARG        -0.2723
    172 CZ         70.0460  -10.2250   -9.9940 C.cat     1 ARG         0.2882
    173 NH1        70.6930   -9.0920   -9.9250 N.pl3     1 ARG        -0.2849
    174 NH2        70.6930  -11.3310  -10.2400 N.pl3     1 ARG        -0.2849
    175 H86        65.8535   -7.3672   -6.8362 H         1 ARG         0.1883
    176 H87        65.8660   -9.5199   -5.8360 H         1 ARG         0.0800
    177 H88        66.0615  -10.9343   -7.5828 H         1 ARG         0.0313
    178 H89        67.8333  -10.6583   -7.6887 H         1 ARG         0.0313
    179 H90        66.1044   -8.4170   -8.6808 H         1 ARG         0.0301
    180 H91        66.0583   -9.9294   -9.6490 H         1 ARG         0.0301
    181 H92        68.5771   -8.3803   -8.8233 H         1 ARG         0.0689
    182 H93        67.8583   -8.4389  -10.4684 H         1 ARG         0.0689
    183 H94        68.2482  -11.1512   -9.8671 H         1 ARG         0.2642
    184 H95        71.7129   -9.0719  -10.0675 H         1 ARG         0.2615
    185 H96        70.1832   -8.2190   -9.7281 H         1 ARG         0.2615
    186 H97        70.1835  -12.2245  -10.2945 H         1 ARG         0.2615
    187 H98        71.7133  -11.3106  -10.3797 H         1 ARG         0.2615
    188 N          69.1410   -9.8360   -6.0390 N.am      1 LEU        -0.2695
    189 CA         70.3310  -10.1180   -5.1880 C.3       1 LEU         0.0946
    190 C          71.3140   -8.9490   -5.2810 C.2       1 LEU         0.0601
    191 O          71.4220   -8.2130   -4.3140 O.co2     1 LEU        -0.5666
    192 CB         71.0150  -11.3990   -5.6720 C.3       1 LEU        -0.0156
    193 CG         69.9640  -12.3620   -6.2270 C.3       1 LEU        -0.0431
    194 CD1        70.6580  -13.5890   -6.8220 C.3       1 LEU        -0.0625
    195 CD2        69.0300  -12.8030   -5.0970 C.3       1 LEU        -0.0625
    196 OXT        71.9420   -8.8100   -6.3170 O.co2     1 LEU        -0.5666
    197 H99        69.2211   -9.8584   -7.0355 H         1 LEU         0.1875
    198 H100       70.0117  -10.2459   -4.1432 H         1 LEU         0.0726
    199 H101       71.5395  -11.8747   -4.8303 H         1 LEU         0.0308
    200 H102       71.7389  -11.1516   -6.4625 H         1 LEU         0.0308
    201 H103       69.3797  -11.8558   -7.0095 H         1 LEU         0.0297
    202 H104       69.9014  -14.2808   -7.2208 H         1 LEU         0.0232
    203 H105       71.2417  -14.0956   -6.0394 H         1 LEU         0.0232
    204 H106       71.3297  -13.2728   -7.6337 H         1 LEU         0.0232
    205 H107       68.5308  -11.9213   -4.6688 H         1 LEU         0.0232
    206 H108       69.6145  -13.3093   -4.3147 H         1 LEU         0.0232
    207 H109       68.2736  -13.4951   -5.4955 H         1 LEU         0.0232
@<TRIPOS>BOND
     1    1    2 1  
     2    1    6 1  
     3    1    7 1  
     4    1    8 1  
     5    2    3 1  
     6    2    5 1  
     7    2    9 1  
     8    3    4 2  
     9    3   13 am 
    10    5   10 1  
    11    5   11 1  
    12    5   12 1  
    13   13   14 1  
    14   13   19 1  
    15   14   15 1  
    16   14   17 1  
    17   14   20 1  
    18   15   16 2  
    19   15   27 am 
    20   17   18 1  
    21   17   21 1  
    22   17   22 1  
    23   18   19 1  
    24   18   23 1  
    25   18   24 1  
    26   19   25 1  
    27   19   26 1  
    28   27   28 1  
    29   27   33 1  
    30   28   29 1  
    31   28   31 1  
    32   28   34 1  
    33   29   30 2  
    34   29   41 am 
    35   31   32 1  
    36   31   35 1  
    37   31   36 1  
    38   32   33 1  
    39   32   37 1  
    40   32   38 1  
    41   33   39 1  
    42   33   40 1  
    43   41   42 1  
    44   41   49 1  
    45   42   43 1  
    46   42   45 1  
    47   42   50 1  
    48   43   44 2  
    49   43   60 am 
    50   45   46 1  
    51   45   51 1  
    52   45   52 1  
    53   46   47 1  
    54   46   48 1  
    55   46   53 1  
    56   47   54 1  
    57   47   55 1  
    58   47   56 1  
    59   48   57 1  
    60   48   58 1  
    61   48   59 1  
    62   60   61 1  
    63   60   66 1  
    64   61   62 1  
    65   61   64 1  
    66   61   67 1  
    67   62   63 2  
    68   62   74 am 
    69   64   65 1  
    70   64   68 1  
    71   64   69 1  
    72   65   66 1  
    73   65   70 1  
    74   65   71 1  
    75   66   72 1  
    76   66   73 1  
    77   74   75 1  
    78   74   80 1  
    79   75   76 1  
    80   75   78 1  
    81   75   81 1  
    82   76   77 2  
    83   76   88 am 
    84   78   79 1  
    85   78   82 1  
    86   78   83 1  
    87   79   80 1  
    88   79   84 1  
    89   79   85 1  
    90   80   86 1  
    91   80   87 1  
    92   88   89 1  
    93   88   99 1  
    94   89   90 1  
    95   89   92 1  
    96   89  100 1  
    97   90   91 2  
    98   90  112 am 
    99   92   93 1  
   100   92  101 1  
   101   92  102 1  
   102   93   94 1  
   103   93  103 1  
   104   93  104 1  
   105   94   95 1  
   106   94  105 1  
   107   94  106 1  
   108   95   96 ar 
   109   95  107 1  
   110   96   97 ar 
   111   96   98 ar 
   112   97  108 1  
   113   97  109 1  
   114   98  110 1  
   115   98  111 1  
   116  112  113 1  
   117  112  120 1  
   118  113  114 1  
   119  113  116 1  
   120  113  121 1  
   121  114  115 2  
   122  114  126 am 
   123  116  117 1  
   124  116  122 1  
   125  116  123 1  
   126  117  118 2  
   127  117  119 am 
   128  119  124 1  
   129  119  125 1  
   130  126  127 1  
   131  126  137 1  
   132  127  128 1  
   133  127  130 1  
   134  127  138 1  
   135  128  129 2  
   136  128  150 am 
   137  130  131 1  
   138  130  139 1  
   139  130  140 1  
   140  131  132 1  
   141  131  141 1  
   142  131  142 1  
   143  132  133 1  
   144  132  143 1  
   145  132  144 1  
   146  133  134 ar 
   147  133  145 1  
   148  134  135 ar 
   149  134  136 ar 
   150  135  146 1  
   151  135  147 1  
   152  136  148 1  
   153  136  149 1  
   154  150  151 1  
   155  150  156 1  
   156  151  152 1  
   157  151  154 1  
   158  151  157 1  
   159  152  153 2  
   160  152  164 am 
   161  154  155 1  
   162  154  158 1  
   163  154  159 1  
   164  155  156 1  
   165  155  160 1  
   166  155  161 1  
   167  156  162 1  
   168  156  163 1  
   169  164  165 1  
   170  164  175 1  
   171  165  166 1  
   172  165  168 1  
   173  165  176 1  
   174  166  167 2  
   175  166  188 am 
   176  168  169 1  
   177  168  177 1  
   178  168  178 1  
   179  169  170 1  
   180  169  179 1  
   181  169  180 1  
   182  170  171 1  
   183  170  181 1  
   184  170  182 1  
   185  171  172 ar 
   186  171  183 1  
   187  172  173 ar 
   188  172  174 ar 
   189  173  184 1  
   190  173  185 1  
   191  174  186 1  
   192  174  187 1  
   193  188  189 1  
   194  188  197 1  
   195  189  190 1  
   196  189  192 1  
   197  189  198 1  
   198  190  191 ar 
   199  190  196 ar 
   200  192  193 1  
   201  192  199 1  
   202  192  200 1  
   203  193  194 1  
   204  193  195 1  
   205  193  201 1  
   206  194  202 1  
   207  194  203 1  
   208  194  204 1  
   209  195  205 1  
   210  195  206 1  
   211  195  207 1  
@<TRIPOS>SUBSTRUCTURE
     1 ALA         1

