6dko_ligand
  -I-interpret- 

 22 22  0  0  0  0  0  0  0  0999 V2000
   35.0820   76.2040   63.5360 C   0  0  0  0  0
   33.0460   74.9430   63.3490 C   0  0  0  0  0
   33.2030   77.1030   62.3290 C   0  0  0  0  0
   38.0350   80.3600   64.2720 C   0  0  0  0  0
   36.8900   80.2890   63.3050 C   0  0  0  0  0
   35.7550   79.3430   63.5830 C   0  0  0  0  0
   35.3040   78.4720   62.4550 C   0  0  0  0  0
   34.5020   77.2360   62.7950 C   0  0  0  0  0
   34.3450   75.0690   63.8100 C   0  0  0  0  0
   32.4670   75.9610   62.6120 C   0  0  0  0  0
   36.3310   76.3130   63.9960 F   0  0  0  0  0
   32.6540   78.0910   61.6100 F   0  0  0  0  0
   37.8880   80.2080   65.5400 O   0  0  0  0  0
   39.1560   80.5850   63.7570 O   0  0  0  0  0
   36.9230   81.0050   62.3010 O   0  0  0  0  0
   35.5720   78.7240   61.2500 O   0  0  0  0  0
   32.4773   74.0390   63.5672 H   0  0  0  0  0
   34.8999   79.9706   63.8340 H   0  0  0  0  0
   36.1161   78.6647   64.3561 H   0  0  0  0  0
   34.7905   74.2644   64.3950 H   0  0  0  0  0
   31.4409   75.8667   62.2565 H   0  0  0  0  0
   36.9625   80.0456   65.7365 H   0  0  0  0  0
  8  1  4  0  0  0
  1  9  4  0  0  0
  1 11  1  0  0  0
  9  2  4  0  0  0
 10  2  4  0  0  0
  8  3  4  0  0  0
  3 10  4  0  0  0
  3 12  1  0  0  0
  5  4  1  0  0  0
  4 13  1  0  0  0
  4 14  2  0  0  0
  6  5  1  0  0  0
  5 15  2  0  0  0
  7  6  1  0  0  0
  7  8  1  0  0  0
  7 16  2  0  0  0
  2 17  1  0  0  0
  6 18  1  0  0  0
  6 19  1  0  0  0
  9 20  1  0  0  0
 10 21  1  0  0  0
 13 22  1  0  0  0
M  END
$$$$
