5ork_ligand
  -I-interpret- 

 28 29  0  0  0  0  0  0  0  0999 V2000
   70.1780  139.6210  350.6580 C   0  0  0  0  0
   69.2390  140.0590  349.7390 C   0  0  0  0  0
   69.0320  141.4100  349.5140 C   0  0  0  0  0
   69.7540  142.3700  350.2250 C   0  0  0  0  0
   69.5030  143.8240  349.9920 C   0  0  0  0  0
   68.3360  144.4220  350.4640 C   0  0  0  0  0
   69.0980  146.5840  349.7700 C   0  0  0  0  0
   70.2640  146.0250  349.2840 C   0  0  0  0  0
   70.6800  141.9160  351.1560 C   0  0  0  0  0
   70.8880  140.5720  351.3790 C   0  0  0  0  0
   71.5980  143.0510  352.0840 Cl  0  0  0  0  0
   70.5580  138.1640  350.8460 C   0  0  0  0  0
   70.7030  137.7250  352.2170 N   0  3  0  0  0
   70.4320  144.6640  349.3880 C   0  0  0  0  0
   71.5130  144.1140  348.7930 F   0  0  0  0  0
   68.1290  145.7850  350.3350 C   0  0  0  0  0
   68.6525  139.3276  349.1829 H   0  0  0  0  0
   68.2974  141.7269  348.7737 H   0  0  0  0  0
   67.5739  143.8068  350.9424 H   0  0  0  0  0
   68.9444  147.6612  349.7061 H   0  0  0  0  0
   71.0334  146.6484  348.8285 H   0  0  0  0  0
   71.6147  140.2534  352.1263 H   0  0  0  0  0
   71.5333  138.0364  350.3764 H   0  0  0  0  0
   69.7464  137.5757  350.4178 H   0  0  0  0  0
   70.9579  136.7375  352.2314 H   0  0  0  0  0
   71.4331  138.2725  352.6727 H   0  0  0  0  0
   69.8199  137.8566  352.7101 H   0  0  0  0  0
   67.1952  146.2274  350.6821 H   0  0  0  0  0
  2  1  4  0  0  0
  1 10  4  0  0  0
  1 12  1  0  0  0
  3  2  4  0  0  0
  4  3  4  0  0  0
  5  4  1  0  0  0
  4  9  4  0  0  0
  6  5  4  0  0  0
  5 14  4  0  0  0
 16  6  4  0  0  0
  7  8  4  0  0  0
  7 16  4  0  0  0
  8 14  4  0  0  0
  9 10  4  0  0  0
  9 11  1  0  0  0
 12 13  1  0  0  0
 14 15  1  0  0  0
  2 17  1  0  0  0
  3 18  1  0  0  0
  6 19  1  0  0  0
  7 20  1  0  0  0
  8 21  1  0  0  0
 10 22  1  0  0  0
 12 23  1  0  0  0
 12 24  1  0  0  0
 13 25  1  0  0  0
 13 26  1  0  0  0
 13 27  1  0  0  0
 16 28  1  0  0  0
M  END
$$$$
