2vx9_ligand
  -I-interpret- 

 47 49  0  0  0  0  0  0  0  0999 V2000
   22.9590   74.4260   71.3190 N   0  0  0  0  0
   22.5310   75.5160   71.9860 C   0  0  0  0  0
   23.4110   76.2870   72.4870 O   0  0  0  0  0
   21.2180   75.7920   72.1170 N   0  0  0  0  0
   20.2330   75.0320   71.6490 C   0  0  0  0  0
   19.0160   75.3420   71.8070 O   0  0  0  0  0
   20.6130   73.8160   70.8950 C   0  0  0  0  0
   19.6900   72.9980   70.3620 N   0  0  0  0  0
   20.1070   71.8950   69.6920 C   0  0  0  0  0
   19.1500   71.0470   69.1650 C   0  0  0  0  0
   19.5490   69.9140   68.4520 C   0  0  0  0  0
   18.4760   69.0220   67.8660 C   0  0  0  0  0
   20.9930   69.6030   68.2900 C   0  0  0  0  0
   21.4090   68.3620   67.5350 C   0  0  0  0  0
   21.9630   70.4390   68.8360 C   0  0  0  0  0
   21.5480   71.5770   69.5350 C   0  0  0  0  0
   22.5180   72.4470   70.0860 N   0  0  0  0  0
   22.0610   73.5640   70.7650 C   0  0  0  0  0
   23.9750   72.2100   69.9720 C   0  0  0  0  0
   24.6650   73.1470   68.9760 C   0  0  0  0  0
   24.3680   72.6770   67.6540 O   0  0  0  0  0
   26.1900   73.1920   69.1660 C   0  0  0  0  0
   26.6940   71.8540   69.3040 O   0  0  0  0  0
   26.6440   74.0040   70.3850 C   0  0  0  0  0
   26.1730   73.3910   71.5880 O   0  0  0  0  0
   26.1940   75.4700   70.3040 C   0  0  0  0  0
   26.6670   75.9800   69.0520 O   0  0  0  0  0
   20.9616   76.6465   72.6114 H   0  0  0  0  0
   18.0906   71.2615   69.3052 H   0  0  0  0  0
   17.8435   68.6416   68.6681 H   0  0  0  0  0
   17.8702   69.5967   67.1654 H   0  0  0  0  0
   18.9442   68.1875   67.3440 H   0  0  0  0  0
   20.9992   67.4821   68.0309 H   0  0  0  0  0
   21.0300   68.4150   66.5144 H   0  0  0  0  0
   22.4969   68.2968   67.5170 H   0  0  0  0  0
   23.0228   70.2116   68.7212 H   0  0  0  0  0
   24.1159   71.1894   69.6162 H   0  0  0  0  0
   24.4157   72.3893   70.9527 H   0  0  0  0  0
   24.2935   74.1585   69.1404 H   0  0  0  0  0
   24.7906   73.2495   67.0096 H   0  0  0  0  0
   26.5877   73.6891   68.2812 H   0  0  0  0  0
   27.6462   71.8826   69.4226 H   0  0  0  0  0
   27.7340   74.0082   70.3926 H   0  0  0  0  0
   26.4629   73.9073   72.3436 H   0  0  0  0  0
   26.6001   76.0463   71.1353 H   0  0  0  0  0
   25.1085   75.5461   70.3680 H   0  0  0  0  0
   26.4048   76.8991   68.9626 H   0  0  0  0  0
  1  2  1  0  0  0
  1 18  2  0  0  0
  2  3  2  0  0  0
  2  4  1  0  0  0
  4  5  1  0  0  0
  5  6  2  0  0  0
  5  7  1  0  0  0
  7  8  2  0  0  0
  7 18  1  0  0  0
  8  9  1  0  0  0
  9 10  4  0  0  0
  9 16  4  0  0  0
 10 11  4  0  0  0
 11 12  1  0  0  0
 11 13  4  0  0  0
 13 14  1  0  0  0
 13 15  4  0  0  0
 15 16  4  0  0  0
 16 17  1  0  0  0
 17 18  1  0  0  0
 17 19  1  0  0  0
 19 20  1  0  0  0
 20 21  1  0  0  0
 20 22  1  0  0  0
 22 23  1  0  0  0
 22 24  1  0  0  0
 24 25  1  0  0  0
 24 26  1  0  0  0
 26 27  1  0  0  0
  4 28  1  0  0  0
 10 29  1  0  0  0
 12 30  1  0  0  0
 12 31  1  0  0  0
 12 32  1  0  0  0
 14 33  1  0  0  0
 14 34  1  0  0  0
 14 35  1  0  0  0
 15 36  1  0  0  0
 19 37  1  0  0  0
 19 38  1  0  0  0
 20 39  1  0  0  0
 21 40  1  0  0  0
 22 41  1  0  0  0
 23 42  1  0  0  0
 24 43  1  0  0  0
 25 44  1  0  0  0
 26 45  1  0  0  0
 26 46  1  0  0  0
 27 47  1  0  0  0
M  END
$$$$
