2vcj_ligand
  -I-interpret- 

 57 60  0  0  0  0  0  0  0  0999 V2000
   36.0920    4.7760   23.9480 C   0  0  0  0  0
   37.0300    3.6260   23.6890 C   0  0  0  0  0
   37.4070    3.7880   22.3460 O   0  0  0  0  0
   36.4110    3.3290   21.5060 C   0  0  0  0  0
   35.4780    4.5100   21.4960 C   0  0  0  0  0
   35.7050    5.3550   22.6660 N   0  3  0  0  0
   35.5330    6.7900   22.5390 C   0  0  0  0  0
   34.5530    7.2940   23.5700 C   0  0  0  0  0
   35.0100    7.9950   24.6650 C   0  0  0  0  0
   34.1330    8.4620   25.6150 C   0  0  0  0  0
   33.2110    7.0600   23.4110 C   0  0  0  0  0
   32.3300    7.5250   24.3630 C   0  0  0  0  0
   32.7890    8.2220   25.4630 C   0  0  0  0  0
   31.8790    8.7000   26.3770 C   0  0  0  0  0
   31.5530    8.2050   27.6140 C   0  0  0  0  0
   32.1590    7.0110   28.3040 C   0  0  0  0  0
   32.8350    6.1970   27.7070 O   0  0  0  0  0
   32.0040    7.0180   29.6070 N   0  0  0  0  0
   32.5270    5.9630   30.4700 C   0  0  0  0  0
   34.0280    6.1100   30.6460 C   0  0  0  0  0
   30.6360    8.9740   28.1520 N   0  0  0  0  0
   30.3430    9.9890   27.2470 O   0  0  0  0  0
   31.1120    9.8140   26.1610 C   0  0  0  0  0
   31.1350   10.6160   25.0320 C   0  0  0  0  0
   32.3420   11.0120   24.4870 C   0  0  0  0  0
   32.3680   11.8170   23.3560 C   0  0  0  0  0
   33.8320   12.3300   22.6330 Cl  0  0  0  0  0
   31.1910   12.2230   22.7830 C   0  0  0  0  0
   31.2280   12.9990   21.6910 O   0  0  0  0  0
   29.9880   11.8280   23.3320 C   0  0  0  0  0
   29.9670   11.0340   24.4550 C   0  0  0  0  0
   28.8030   10.6630   24.9840 O   0  0  0  0  0
   36.5865    5.5286   24.5622 H   0  0  0  0  0
   35.2080    4.4229   24.4790 H   0  0  0  0  0
   36.5585    2.6603   23.8713 H   0  0  0  0  0
   37.8876    3.6339   24.3618 H   0  0  0  0  0
   35.9453    2.4015   21.8392 H   0  0  0  0  0
   36.7665    3.0390   20.5172 H   0  0  0  0  0
   34.4501    4.1480   21.5160 H   0  0  0  0  0
   35.6609    5.0968   20.5958 H   0  0  0  0  0
   36.1710    4.6109   23.1851 H   0  0  0  0  0
   35.1497    7.0155   21.5439 H   0  0  0  0  0
   36.4950    7.2786   22.6940 H   0  0  0  0  0
   36.0779    8.1811   24.7790 H   0  0  0  0  0
   34.4998    9.0163   26.4789 H   0  0  0  0  0
   32.8457    6.5128   22.5420 H   0  0  0  0  0
   31.2619    7.3411   24.2467 H   0  0  0  0  0
   31.4970    7.7928   30.0347 H   0  0  0  0  0
   32.3186    4.9964   30.0114 H   0  0  0  0  0
   32.0484    6.0364   31.4466 H   0  0  0  0  0
   34.5148    6.0443   29.6730 H   0  0  0  0  0
   34.2465    7.0773   31.0984 H   0  0  0  0  0
   34.3964    5.3135   31.2925 H   0  0  0  0  0
   33.2768   10.6912   24.9468 H   0  0  0  0  0
   30.3317   13.1975   21.4104 H   0  0  0  0  0
   29.0514   12.1463   22.8742 H   0  0  0  0  0
   28.0848   11.0355   24.4673 H   0  0  0  0  0
  1  2  1  0  0  0
  1  6  1  0  0  0
  2  3  1  0  0  0
  3  4  1  0  0  0
  4  5  1  0  0  0
  5  6  1  0  0  0
  6  7  1  0  0  0
  7  8  1  0  0  0
  8  9  4  0  0  0
  8 11  4  0  0  0
  9 10  4  0  0  0
 10 13  4  0  0  0
 11 12  4  0  0  0
 12 13  4  0  0  0
 13 14  1  0  0  0
 14 15  4  0  0  0
 14 23  4  0  0  0
 15 16  1  0  0  0
 15 21  4  0  0  0
 16 17  2  0  0  0
 16 18  1  0  0  0
 18 19  1  0  0  0
 19 20  1  0  0  0
 21 22  4  0  0  0
 22 23  4  0  0  0
 23 24  1  0  0  0
 24 25  4  0  0  0
 24 31  4  0  0  0
 25 26  4  0  0  0
 26 27  1  0  0  0
 26 28  4  0  0  0
 28 29  1  0  0  0
 28 30  4  0  0  0
 30 31  4  0  0  0
 31 32  1  0  0  0
  1 33  1  0  0  0
  1 34  1  0  0  0
  2 35  1  0  0  0
  2 36  1  0  0  0
  4 37  1  0  0  0
  4 38  1  0  0  0
  5 39  1  0  0  0
  5 40  1  0  0  0
  6 41  1  0  0  0
  7 42  1  0  0  0
  7 43  1  0  0  0
  9 44  1  0  0  0
 10 45  1  0  0  0
 11 46  1  0  0  0
 12 47  1  0  0  0
 18 48  1  0  0  0
 19 49  1  0  0  0
 19 50  1  0  0  0
 20 51  1  0  0  0
 20 52  1  0  0  0
 20 53  1  0  0  0
 25 54  1  0  0  0
 29 55  1  0  0  0
 30 56  1  0  0  0
 32 57  1  0  0  0
M  END
$$$$
