4yzu_ligand
  -I-interpret- 

 46 49  0  0  0  0  0  0  0  0999 V2000
  -17.2670  -38.8730  -12.7280 O   0  0  0  0  0
  -16.0760  -39.0400  -12.4670 C   0  0  0  0  0
  -15.6130  -40.2830  -11.7740 C   0  0  0  0  0
  -16.3740  -41.4340  -11.9710 C   0  0  0  0  0
  -16.1520  -42.5680  -11.2130 C   0  0  0  0  0
  -15.1540  -42.5780  -10.2490 C   0  0  0  0  0
  -14.9740  -43.7270   -9.4180 N   0  0  0  0  0
  -14.7660  -43.7610   -8.0750 C   0  0  0  0  0
  -14.7120  -44.9870   -7.6420 N   0  0  0  0  0
  -14.8960  -45.8150   -8.7460 N   0  0  0  0  0
  -15.0450  -45.0370   -9.7800 C   0  0  0  0  0
  -14.3540  -41.4540  -10.0740 C   0  0  0  0  0
  -14.5800  -40.3170  -10.8360 C   0  0  0  0  0
  -15.1530  -38.1320  -12.7940 N   0  0  0  0  0
  -15.5250  -36.8670  -13.4190 C   0  0  0  0  0
  -14.3590  -35.9190  -13.5290 C   0  0  0  0  0
  -13.8380  -35.5140  -12.1930 C   0  0  0  0  0
  -14.5930  -34.8530  -11.2860 N   0  0  0  0  0
  -13.7630  -34.5410  -10.2110 C   0  0  0  0  0
  -13.9910  -33.9400   -8.9820 C   0  0  0  0  0
  -12.5900  -35.6830  -11.7970 N   0  0  0  0  0
  -12.5160  -35.0630  -10.5500 C   0  0  0  0  0
  -11.4560  -34.9470   -9.6570 C   0  0  0  0  0
  -11.6570  -34.3420   -8.4200 C   0  0  0  0  0
  -10.4840  -34.1910   -7.4860 C   0  0  0  0  0
  -12.9490  -33.8690   -8.0590 C   0  0  0  0  0
  -13.2240  -33.3700   -6.6610 C   0  0  0  0  0
  -17.1539  -41.4398  -12.7324 H   0  0  0  0  0
  -16.7624  -43.4568  -11.3728 H   0  0  0  0  0
  -14.6587  -42.8784   -7.4445 H   0  0  0  0  0
  -15.2052  -45.3883  -10.7993 H   0  0  0  0  0
  -13.5497  -41.4664   -9.3384 H   0  0  0  0  0
  -13.9447  -39.4417  -10.7009 H   0  0  0  0  0
  -14.1700  -38.3263  -12.6034 H   0  0  0  0  0
  -16.2874  -36.3949  -12.7994 H   0  0  0  0  0
  -15.8839  -37.0799  -14.4259 H   0  0  0  0  0
  -14.6976  -35.0223  -14.0480 H   0  0  0  0  0
  -13.5580  -36.4262  -14.0669 H   0  0  0  0  0
  -14.9714  -33.5289   -8.7413 H   0  0  0  0  0
  -10.4709  -35.3288   -9.9252 H   0  0  0  0  0
  -10.0806  -35.1755   -7.2493 H   0  0  0  0  0
   -9.7140  -33.5874   -7.9664 H   0  0  0  0  0
  -10.8120  -33.7012   -6.5691 H   0  0  0  0  0
  -13.6093  -32.3515   -6.7094 H   0  0  0  0  0
  -13.9609  -34.0163   -6.1843 H   0  0  0  0  0
  -12.2996  -33.3831   -6.0835 H   0  0  0  0  0
  1  2  2  0  0  0
  2  3  1  0  0  0
  2 14  1  0  0  0
  3  4  4  0  0  0
  3 13  4  0  0  0
  4  5  4  0  0  0
  5  6  4  0  0  0
  6  7  1  0  0  0
  6 12  4  0  0  0
  7  8  4  0  0  0
  7 11  4  0  0  0
  8  9  4  0  0  0
  9 10  4  0  0  0
 10 11  4  0  0  0
 12 13  4  0  0  0
 14 15  1  0  0  0
 15 16  1  0  0  0
 16 17  1  0  0  0
 17 18  4  0  0  0
 17 21  4  0  0  0
 18 19  4  0  0  0
 19 20  4  0  0  0
 19 22  4  0  0  0
 20 26  4  0  0  0
 21 22  4  0  0  0
 22 23  4  0  0  0
 23 24  4  0  0  0
 24 25  1  0  0  0
 24 26  4  0  0  0
 26 27  1  0  0  0
  4 28  1  0  0  0
  5 29  1  0  0  0
  8 30  1  0  0  0
 11 31  1  0  0  0
 12 32  1  0  0  0
 13 33  1  0  0  0
 14 34  1  0  0  0
 15 35  1  0  0  0
 15 36  1  0  0  0
 16 37  1  0  0  0
 16 38  1  0  0  0
 20 39  1  0  0  0
 23 40  1  0  0  0
 25 41  1  0  0  0
 25 42  1  0  0  0
 25 43  1  0  0  0
 27 44  1  0  0  0
 27 45  1  0  0  0
 27 46  1  0  0  0
M  END
$$$$
