6gj7_ligand
  -I-interpret- 

 67 73  0  0  0  0  0  0  0  0999 V2000
   10.1490   12.8600  -19.7900 C   0  0  0  0  0
   10.4290   14.1050  -19.2160 C   0  0  0  0  0
   11.6490   14.7390  -19.4600 C   0  0  0  0  0
   13.4550   12.4680  -21.6670 C   0  0  0  0  0
   12.5920   14.1230  -20.2610 C   0  0  0  0  0
   15.0050   14.7720  -19.6750 C   0  0  0  0  0
   15.1800   14.0740  -18.3910 C   0  0  0  0  0
   16.0630   13.1740  -15.8980 C   0  0  0  0  0
   16.7440   14.2060  -16.5170 C   0  0  0  0  0
   16.1680   18.6370  -25.6570 C   0  0  0  0  0
   17.7940   17.1980  -24.6450 C   0  0  0  0  0
   16.6320   18.8140  -23.2840 C   0  0  0  0  0
   13.9660   14.5120  -20.7550 C   0  0  0  0  0
   16.2540   16.6290  -20.8940 C   0  0  0  0  0
   15.9890   15.6900  -19.7420 C   0  0  0  0  0
   16.3070   14.6670  -17.7660 C   0  0  0  0  0
   14.5120   13.0290  -17.7410 C   0  0  0  0  0
   14.9410   12.5970  -16.5080 C   0  0  0  0  0
   15.9310   19.2460  -24.4030 C   0  0  0  0  0
   17.1140   17.6030  -25.7660 C   0  0  0  0  0
   17.5630   17.8040  -23.4060 C   0  0  0  0  0
   18.2760   17.3350  -22.1630 C   0  0  0  0  0
   11.0820   12.2350  -20.5920 C   0  0  0  0  0
   15.2770   19.3230  -26.5960 C   0  0  0  0  0
   14.6000   20.2540  -25.8970 C   0  0  0  0  0
   14.3910   21.0180  -23.4910 C   0  0  0  0  0
   13.5950   20.1910  -22.4940 C   0  0  0  0  0
   13.4970   20.6140  -21.1710 C   0  0  0  0  0
   12.7570   19.8830  -20.2440 C   0  0  0  0  0
   12.0930   18.7250  -20.6320 C   0  0  0  0  0
   12.1670   18.3070  -21.9540 C   0  0  0  0  0
   12.9110   19.0400  -22.8790 C   0  0  0  0  0
   12.3040   12.8730  -20.8490 C   0  0  0  0  0
   16.7730   15.6290  -18.6230 N   0  0  0  0  0
   17.5230   16.2300  -21.5340 N   0  3  0  0  0
   14.9620   20.2040  -24.5770 N   0  0  0  0  0
   14.4080   13.4130  -21.6130 N   0  0  0  0  0
    9.5070   14.6770  -18.4030 O   0  0  0  0  0
   13.5290   11.4280  -22.2990 O   0  0  0  0  0
    9.1881   12.3809  -19.6025 H   0  0  0  0  0
   11.8566   15.7148  -19.0210 H   0  0  0  0  0
   16.4011   12.8068  -14.9290 H   0  0  0  0  0
   17.6130   14.6569  -16.0377 H   0  0  0  0  0
   18.5245   16.3926  -24.7214 H   0  0  0  0  0
   16.4466   19.2721  -22.3124 H   0  0  0  0  0
   13.8792   15.4690  -21.2694 H   0  0  0  0  0
   16.3239   17.6548  -20.5320 H   0  0  0  0  0
   15.4384   16.5758  -21.6152 H   0  0  0  0  0
   13.6504   12.5571  -18.2132 H   0  0  0  0  0
   14.4026   11.7972  -15.9996 H   0  0  0  0  0
   17.3050   17.1289  -26.7287 H   0  0  0  0  0
   18.3513   18.1637  -21.4589 H   0  0  0  0  0
   19.2716   16.9824  -22.4325 H   0  0  0  0  0
   10.8713   11.2555  -21.0213 H   0  0  0  0  0
   15.1800   19.1180  -27.6621 H   0  0  0  0  0
   13.8712   20.9456  -26.3196 H   0  0  0  0  0
   15.2162   21.4861  -22.9542 H   0  0  0  0  0
   13.7138   21.7454  -23.9386 H   0  0  0  0  0
   14.0044   21.5263  -20.8574 H   0  0  0  0  0
   12.6984   20.2208  -19.2093 H   0  0  0  0  0
   11.5194   18.1502  -19.9049 H   0  0  0  0  0
   11.6430   17.4048  -22.2696 H   0  0  0  0  0
   12.9577   18.7079  -23.9161 H   0  0  0  0  0
   17.2854   15.5734  -22.2775 H   0  0  0  0  0
   18.1177   15.8482  -20.7985 H   0  0  0  0  0
   15.3047   13.3706  -22.0973 H   0  0  0  0  0
    9.8391   15.5210  -18.0883 H   0  0  0  0  0
  2  1  4  0  0  0
 23  1  4  0  0  0
  3  2  4  0  0  0
  2 38  1  0  0  0
  5  3  4  0  0  0
  4 33  1  0  0  0
 37  4  1  0  0  0
  4 39  2  0  0  0
 13  5  1  0  0  0
  5 33  4  0  0  0
  6  7  4  0  0  0
  6 13  1  0  0  0
 15  6  4  0  0  0
 16  7  4  0  0  0
  7 17  4  0  0  0
  9  8  4  0  0  0
  8 18  4  0  0  0
 16  9  4  0  0  0
 19 10  4  0  0  0
 10 20  4  0  0  0
 24 10  4  0  0  0
 20 11  4  0  0  0
 21 11  4  0  0  0
 19 12  4  0  0  0
 12 21  4  0  0  0
 13 37  1  0  0  0
 14 15  1  0  0  0
 35 14  1  0  0  0
 15 34  4  0  0  0
 34 16  4  0  0  0
 17 18  4  0  0  0
 36 19  4  0  0  0
 21 22  1  0  0  0
 22 35  1  0  0  0
 33 23  4  0  0  0
 25 24  4  0  0  0
 36 25  4  0  0  0
 26 27  1  0  0  0
 26 36  1  0  0  0
 27 28  4  0  0  0
 27 32  4  0  0  0
 28 29  4  0  0  0
 29 30  4  0  0  0
 30 31  4  0  0  0
 31 32  4  0  0  0
  1 40  1  0  0  0
  3 41  1  0  0  0
  8 42  1  0  0  0
  9 43  1  0  0  0
 11 44  1  0  0  0
 12 45  1  0  0  0
 13 46  1  0  0  0
 14 47  1  0  0  0
 14 48  1  0  0  0
 17 49  1  0  0  0
 18 50  1  0  0  0
 20 51  1  0  0  0
 22 52  1  0  0  0
 22 53  1  0  0  0
 23 54  1  0  0  0
 24 55  1  0  0  0
 25 56  1  0  0  0
 26 57  1  0  0  0
 26 58  1  0  0  0
 28 59  1  0  0  0
 29 60  1  0  0  0
 30 61  1  0  0  0
 31 62  1  0  0  0
 32 63  1  0  0  0
 35 64  1  0  0  0
 35 65  1  0  0  0
 37 66  1  0  0  0
 38 67  1  0  0  0
M  END
$$$$
