### 
### Created by X-TOOL on Mon Sep 10 21:12:55 2018
### 

@<TRIPOS>MOLECULE
2r7g_ligand
  168   171     1     0     0
SMALL
GAST_HUCK


@<TRIPOS>ATOM
      1 N         -13.1290    1.6730    9.8840 N.4       1 PRO         0.2461
      2 CA        -11.9810    0.8150    9.6020 C.3       1 PRO         0.0671
      3 C         -12.0730   -0.4650   10.4210 C.2       1 PRO         0.2293
      4 O         -12.8690   -0.5240   11.3510 O.2       1 PRO        -0.3905
      5 CB        -10.7710    1.6520   10.0720 C.3       1 PRO         0.0127
      6 CG        -11.3000    3.0130   10.3300 C.3       1 PRO        -0.0053
      7 CD        -12.7440    2.8130   10.7250 C.3       1 PRO        -0.0313
      8 N         -11.2530   -1.4810   10.0900 N.am      1 PRO        -0.2471
      9 CA        -11.2050   -2.7170   10.8830 C.3       1 PRO         0.1339
     10 C         -10.6750   -2.3890   12.2700 C.2       1 PRO         0.2042
     11 O         -10.1060   -1.3150   12.4620 O.2       1 PRO        -0.3944
     12 CB        -10.1520   -3.5740   10.1590 C.3       1 PRO        -0.0104
     13 CG         -9.9540   -2.9620    8.8430 C.3       1 PRO        -0.0281
     14 CD        -10.3070   -1.5070    8.9590 C.3       1 PRO         0.0371
     15 N         -10.8390   -3.2960   13.2270 N.am      1 THR        -0.2613
     16 CA        -10.2320   -3.0810   14.5450 C.3       1 THR         0.1565
     17 C          -8.7110   -3.2330   14.4710 C.2       1 THR         0.2065
     18 O          -8.1730   -3.8790   13.5700 O.2       1 THR        -0.3943
     19 CB        -10.7290   -4.0810   15.5970 C.3       1 THR         0.0924
     20 OG1       -10.4070   -5.4020   15.1710 O.3       1 THR        -0.3874
     21 CG2       -12.2440   -3.9550   15.7880 C.3       1 THR        -0.0346
     22 N          -8.0320   -2.6380   15.4390 N.am      1 LEU        -0.2636
     23 CA         -6.5910   -2.8160   15.5600 C.3       1 LEU         0.1312
     24 C          -6.3100   -4.2940   15.8380 C.2       1 LEU         0.2040
     25 O          -5.3520   -4.8330   15.3250 O.2       1 LEU        -0.3944
     26 CB         -6.0430   -1.9170   16.6630 C.3       1 LEU        -0.0101
     27 CG         -6.0060   -0.4010   16.4230 C.3       1 LEU        -0.0425
     28 CD1        -7.3360    0.1720   16.0160 C.3       1 LEU        -0.0625
     29 CD2        -5.5870    0.3160   17.6870 C.3       1 LEU        -0.0625
     30 N          -7.1660   -4.9500   16.6220 N.am      1 HIS        -0.2619
     31 CA         -7.0160   -6.3950   16.8640 C.3       1 HIS         0.1421
     32 C          -6.9760   -7.1920   15.5350 C.2       1 HIS         0.2060
     33 O          -6.1260   -8.0780   15.3520 O.2       1 HIS        -0.3942
     34 CB         -8.1170   -6.9100   17.8030 C.3       1 HIS         0.0427
     35 CG         -7.8240   -6.7040   19.2600 C.2       1 HIS         0.0561
     36 ND1        -7.9160   -5.4750   19.8780 N.pl3     1 HIS        -0.2623
     37 CD2        -7.3870   -7.5690   20.2080 C.2       1 HIS        -0.0276
     38 CE1        -7.5910   -5.6000   21.1540 C.2       1 HIS         0.0875
     39 NE2        -7.2540   -6.8590   21.3780 N.2       1 HIS        -0.3437
     40 N          -7.8490   -6.8530   14.5970 N.am      1 GLU        -0.2635
     41 CA         -7.8380   -7.5170   13.2810 C.3       1 GLU         0.1325
     42 C          -6.5780   -7.2110   12.4930 C.2       1 GLU         0.2040
     43 O          -6.0230   -8.0910   11.8460 O.2       1 GLU        -0.3944
     44 CB         -9.0280   -7.0750   12.4350 C.3       1 GLU        -0.0008
     45 CG        -10.3490   -7.6550   12.8250 C.3       1 GLU         0.0044
     46 CD        -11.4470   -6.9530   12.0700 C.2       1 GLU         0.0350
     47 OE1       -11.6970   -7.3320   10.9060 O.co2     1 GLU        -0.5690
     48 OE2       -12.0270   -5.9960   12.6320 O.co2     1 GLU        -0.5690
     49 N          -6.1490   -5.9480   12.5290 N.am      1 LEU        -0.2637
     50 CA         -5.0300   -5.4880   11.7160 C.3       1 LEU         0.1312
     51 C          -3.7310   -6.1090   12.1970 C.2       1 LEU         0.2040
     52 O          -2.7930   -6.2450   11.4160 O.2       1 LEU        -0.3944
     53 CB         -4.9430   -3.9500   11.7310 C.3       1 LEU        -0.0101
     54 CG         -6.0100   -3.2020   10.8930 C.3       1 LEU        -0.0425
     55 CD1        -6.1670   -1.7820   11.4060 C.3       1 LEU        -0.0625
     56 CD2        -5.6820   -3.1710    9.4010 C.3       1 LEU        -0.0625
     57 N          -3.6940   -6.5060   13.4780 N.am      1 TYR        -0.2621
     58 CA         -2.4620   -7.0590   14.0680 C.3       1 TYR         0.1390
     59 C          -2.5790   -8.5300   14.4590 C.2       1 TYR         0.2058
     60 O          -1.7490   -9.0550   15.2110 O.2       1 TYR        -0.3942
     61 CB         -1.9810   -6.1780   15.2260 C.3       1 TYR         0.0163
     62 CG         -1.4460   -4.8900   14.6920 C.ar      1 TYR        -0.0493
     63 CD1        -2.2800   -3.7920   14.5390 C.ar      1 TYR        -0.0685
     64 CD2        -0.1190   -4.7790   14.2760 C.ar      1 TYR        -0.0685
     65 CE1        -1.8090   -2.5940   13.9780 C.ar      1 TYR        -0.0398
     66 CE2         0.3710   -3.5760   13.7170 C.ar      1 TYR        -0.0398
     67 CZ         -0.4800   -2.5020   13.5810 C.ar      1 TYR         0.0805
     68 OH         -0.0130   -1.3340   13.0590 O.3       1 TYR        -0.3376
     69 N          -3.6000   -9.1950   13.9220 N.am      1 ASP        -0.2620
     70 CA         -3.8320  -10.6260   14.1860 C.3       1 ASP         0.1423
     71 C          -3.8410  -10.9270   15.7010 C.2       1 ASP         0.2057
     72 O          -3.2190  -11.8870   16.1730 O.2       1 ASP        -0.3943
     73 CB         -2.8230  -11.5010   13.4210 C.3       1 ASP         0.0406
     74 CG         -2.9470  -11.3690   11.8970 C.2       1 ASP         0.0393
     75 OD1        -3.8890  -10.7180   11.4130 O.co2     1 ASP        -0.5688
     76 OD2        -2.1150  -11.9490   11.1640 O.co2     1 ASP        -0.5688
     77 N          -4.5730  -10.1010   16.4450 N.am      1 LEU        -0.2623
     78 CA         -4.6820  -10.2060   17.9060 C.3       1 LEU         0.1422
     79 C          -6.0540  -10.7530   18.3460 C.2       1 LEU         0.2571
     80 O          -7.0490  -10.6280   17.6060 O.2       1 LEU        -0.3680
     81 CB         -4.4530   -8.8240   18.5310 C.3       1 LEU        -0.0087
     82 CG         -3.0340   -8.3290   18.8610 C.3       1 LEU        -0.0424
     83 CD1        -1.9000   -9.1180   18.2280 C.3       1 LEU        -0.0624
     84 CD2        -2.8710   -6.8310   18.6650 C.3       1 LEU        -0.0624
     85 O1         -6.1769  -11.3619   19.5220 O.3       1 LEU        -0.2910
     86 H1        -13.8331    1.1337   10.3630 H         1 PRO         0.2035
     87 H2        -13.5038    2.0177    9.0141 H         1 PRO         0.2035
     88 H3        -11.9125    0.5760    8.5305 H         1 PRO         0.1099
     89 H4         -9.9988    1.6828    9.2893 H         1 PRO         0.0347
     90 H5        -10.3440    1.2259   10.9918 H         1 PRO         0.0347
     91 H6        -10.7410    3.4951   11.1455 H         1 PRO         0.0320
     92 H7        -11.2311    3.6312    9.4227 H         1 PRO         0.0320
     93 H8        -12.8372    2.5718   11.7942 H         1 PRO         0.0814
     94 H9        -13.3490    3.7026   10.4957 H         1 PRO         0.0814
     95 H10       -12.1845   -3.2148   10.9365 H         1 PRO         0.0802
     96 H11       -10.5134   -4.6069   10.0476 H         1 PRO         0.0313
     97 H12        -9.2082   -3.5747   10.7240 H         1 PRO         0.0313
     98 H13        -8.9038   -3.0694    8.5340 H         1 PRO         0.0287
     99 H14       -10.6058   -3.4478    8.1019 H         1 PRO         0.0287
    100 H15        -9.4153   -0.9006    9.1761 H         1 PRO         0.0524
    101 H16       -10.7834   -1.1417    8.0373 H         1 PRO         0.0524
    102 H17       -11.3741   -4.1219   13.0495 H         1 THR         0.1884
    103 H18       -10.4808   -2.0618   14.8756 H         1 THR         0.0826
    104 H19       -10.2288   -3.8753   16.5548 H         1 THR         0.0639
    105 H20       -10.8450   -5.5837   14.3478 H         1 THR         0.2101
    106 H21       -12.5796   -4.6792   16.5449 H         1 THR         0.0257
    107 H22       -12.7521   -4.1596   14.8341 H         1 THR         0.0257
    108 H23       -12.4880   -2.9358   16.1222 H         1 THR         0.0257
    109 H24        -8.5145   -2.0586   16.0960 H         1 LEU         0.1883
    110 H25        -6.1111   -2.5357   14.6107 H         1 LEU         0.0800
    111 H26        -5.0102   -2.2394   16.8614 H         1 LEU         0.0315
    112 H27        -6.6591   -2.0889   17.5579 H         1 LEU         0.0315
    113 H28        -5.2744   -0.1978   15.6271 H         1 LEU         0.0298
    114 H29        -7.2362    1.2565   15.8616 H         1 LEU         0.0232
    115 H30        -8.0753   -0.0191   16.8077 H         1 LEU         0.0232
    116 H31        -7.6690   -0.3023   15.0811 H         1 LEU         0.0232
    117 H32        -4.6144   -0.0723   18.0235 H         1 LEU         0.0232
    118 H33        -6.3401    0.1476   18.4709 H         1 LEU         0.0232
    119 H34        -5.5017    1.3941   17.4859 H         1 LEU         0.0232
    120 H35        -7.9205   -4.4539   17.0517 H         1 HIS         0.1885
    121 H36        -6.0510   -6.5488   17.3691 H         1 HIS         0.0824
    122 H37        -8.2464   -7.9878   17.6255 H         1 HIS         0.0491
    123 H38        -9.0520   -6.3836   17.5607 H         1 HIS         0.0491
    124 H39        -8.1944   -4.5966   19.4178 H         1 HIS         0.2386
    125 H40        -7.1798   -8.6290   20.0688 H         1 HIS         0.0324
    126 H41        -7.5995   -4.8016   21.8945 H         1 HIS         0.1149
    127 H42        -8.5230   -6.1384   14.7843 H         1 GLU         0.1883
    128 H43        -7.8981   -8.6030   13.4454 H         1 GLU         0.0801
    129 H44        -8.8271   -7.3620   11.3923 H         1 GLU         0.0330
    130 H45        -9.1052   -5.9800   12.5056 H         1 GLU         0.0330
    131 H46       -10.5036   -7.5214   13.9058 H         1 GLU         0.0433
    132 H47       -10.3647   -8.7277   12.5822 H         1 GLU         0.0433
    133 H48        -6.6094   -5.2969   13.1324 H         1 LEU         0.1883
    134 H49        -5.2019   -5.8117   10.6789 H         1 LEU         0.0800
    135 H50        -3.9525   -3.6650   11.3466 H         1 LEU         0.0315
    136 H51        -5.0409   -3.6174   12.7749 H         1 LEU         0.0315
    137 H52        -6.9679   -3.7280   11.0188 H         1 LEU         0.0298
    138 H53        -6.9257   -1.2574   10.8066 H         1 LEU         0.0232
    139 H54        -5.2055   -1.2540   11.3239 H         1 LEU         0.0232
    140 H55        -6.4837   -1.8055   12.4592 H         1 LEU         0.0232
    141 H56        -5.5682   -4.2000    9.0292 H         1 LEU         0.0232
    142 H57        -4.7441   -2.6183    9.2431 H         1 LEU         0.0232
    143 H58        -6.4975   -2.6725    8.8565 H         1 LEU         0.0232
    144 H59        -4.5160   -6.4253   14.0418 H         1 TYR         0.1885
    145 H60        -1.6888   -7.0092   13.2872 H         1 TYR         0.0821
    146 H61        -1.1874   -6.7021   15.7786 H         1 TYR         0.0453
    147 H62        -2.8236   -5.9712   15.9022 H         1 TYR         0.0453
    148 H63        -3.3137   -3.8601   14.8582 H         1 TYR         0.0530
    149 H64         0.5466   -5.6279   14.3829 H         1 TYR         0.0530
    150 H65        -2.4760   -1.7483   13.8556 H         1 TYR         0.0525
    151 H66         1.4046   -3.5002   13.3992 H         1 TYR         0.0525
    152 H67         0.3100   -1.4885   12.1790 H         1 TYR         0.2458
    153 H68        -4.2308   -8.7066   13.3190 H         1 ASP         0.1884
    154 H69        -4.8327  -10.8725   13.8014 H         1 ASP         0.0819
    155 H70        -2.9918  -12.5525   13.6963 H         1 ASP         0.0478
    156 H71        -1.8062  -11.2032   13.7167 H         1 ASP         0.0478
    157 H72        -5.0758   -9.3695   15.9845 H         1 LEU         0.1885
    158 H73        -3.9026  -10.8941   18.2651 H         1 LEU         0.0816
    159 H74        -5.0164   -8.8107   19.4756 H         1 LEU         0.0316
    160 H75        -4.8862   -8.0904   17.8352 H         1 LEU         0.0316
    161 H76        -2.9241   -8.4956   19.9427 H         1 LEU         0.0298
    162 H77        -0.9365   -8.6806   18.5287 H         1 LEU         0.0232
    163 H78        -1.9938   -9.0803   17.1327 H         1 LEU         0.0232
    164 H79        -1.9487  -10.1641   18.5644 H         1 LEU         0.0232
    165 H80        -3.7131   -6.3054   19.1390 H         1 LEU         0.0232
    166 H81        -2.8544   -6.6016   17.5893 H         1 LEU         0.0232
    167 H82        -1.9276   -6.5015   19.1248 H         1 LEU         0.0232
    168 H83        -5.3342  -11.3749   19.9602 H         1 LEU         0.2540
@<TRIPOS>BOND
     1    3    2 1  
     2    2    5 1  
     3    2    1 1  
     4    1    7 1  
     5    7    6 1  
     6    5    6 1  
     7    3    4 2  
     8   10    9 1  
     9    9   12 1  
    10    9    8 1  
    11    8   14 1  
    12   14   13 1  
    13   12   13 1  
    14   10   11 2  
    15    8    3 am 
    16   16   15 1  
    17   16   19 1  
    18   17   16 1  
    19   17   18 2  
    20   19   21 1  
    21   19   20 1  
    22   15   10 am 
    23   23   22 1  
    24   23   26 1  
    25   24   23 1  
    26   24   25 2  
    27   26   27 1  
    28   27   28 1  
    29   27   29 1  
    30   22   17 am 
    31   31   30 1  
    32   31   34 1  
    33   32   31 1  
    34   32   33 2  
    35   34   35 1  
    36   35   36 1  
    37   35   37 2  
    38   37   39 1  
    39   39   38 2  
    40   36   38 1  
    41   30   24 am 
    42   41   40 1  
    43   41   44 1  
    44   42   41 1  
    45   42   43 2  
    46   44   45 1  
    47   45   46 1  
    48   46   48 ar 
    49   46   47 ar 
    50   40   32 am 
    51   50   49 1  
    52   50   53 1  
    53   51   50 1  
    54   51   52 2  
    55   53   54 1  
    56   54   55 1  
    57   54   56 1  
    58   49   42 am 
    59   58   57 1  
    60   58   61 1  
    61   59   58 1  
    62   59   60 2  
    63   61   62 1  
    64   62   63 ar 
    65   62   64 ar 
    66   64   66 ar 
    67   66   67 ar 
    68   67   68 1  
    69   65   67 ar 
    70   63   65 ar 
    71   57   51 am 
    72   70   69 1  
    73   70   73 1  
    74   71   70 1  
    75   71   72 2  
    76   73   74 1  
    77   74   75 ar 
    78   74   76 ar 
    79   69   59 am 
    80   77   78 1  
    81   78   81 1  
    82   78   79 1  
    83   79   80 2  
    84   81   82 1  
    85   82   83 1  
    86   82   84 1  
    87   71   77 am 
    88   79   85 1  
    89    1   86 1  
    90    1   87 1  
    91    2   88 1  
    92    5   89 1  
    93    5   90 1  
    94    6   91 1  
    95    6   92 1  
    96    7   93 1  
    97    7   94 1  
    98    9   95 1  
    99   12   96 1  
   100   12   97 1  
   101   13   98 1  
   102   13   99 1  
   103   14  100 1  
   104   14  101 1  
   105   15  102 1  
   106   16  103 1  
   107   19  104 1  
   108   20  105 1  
   109   21  106 1  
   110   21  107 1  
   111   21  108 1  
   112   22  109 1  
   113   23  110 1  
   114   26  111 1  
   115   26  112 1  
   116   27  113 1  
   117   28  114 1  
   118   28  115 1  
   119   28  116 1  
   120   29  117 1  
   121   29  118 1  
   122   29  119 1  
   123   30  120 1  
   124   31  121 1  
   125   34  122 1  
   126   34  123 1  
   127   36  124 1  
   128   37  125 1  
   129   38  126 1  
   130   40  127 1  
   131   41  128 1  
   132   44  129 1  
   133   44  130 1  
   134   45  131 1  
   135   45  132 1  
   136   49  133 1  
   137   50  134 1  
   138   53  135 1  
   139   53  136 1  
   140   54  137 1  
   141   55  138 1  
   142   55  139 1  
   143   55  140 1  
   144   56  141 1  
   145   56  142 1  
   146   56  143 1  
   147   57  144 1  
   148   58  145 1  
   149   61  146 1  
   150   61  147 1  
   151   63  148 1  
   152   64  149 1  
   153   65  150 1  
   154   66  151 1  
   155   68  152 1  
   156   69  153 1  
   157   70  154 1  
   158   73  155 1  
   159   73  156 1  
   160   77  157 1  
   161   78  158 1  
   162   81  159 1  
   163   81  160 1  
   164   82  161 1  
   165   83  162 1  
   166   83  163 1  
   167   83  164 1  
   168   84  165 1  
   169   84  166 1  
   170   84  167 1  
   171   85  168 1  
@<TRIPOS>SUBSTRUCTURE
     1 PRO         1

