2r7g_ligand
  -I-interpret- 

169172  0  0  0  0  0  0  0  0999 V2000
  -13.1290    1.6730    9.8840 N   0  3  0  0  0
  -11.9810    0.8150    9.6020 C   0  0  0  0  0
  -12.0730   -0.4650   10.4210 C   0  0  0  0  0
  -12.8690   -0.5240   11.3510 O   0  0  0  0  0
  -10.7710    1.6520   10.0720 C   0  0  0  0  0
  -11.3000    3.0130   10.3300 C   0  0  0  0  0
  -12.7440    2.8130   10.7250 C   0  0  0  0  0
  -11.2530   -1.4810   10.0900 N   0  0  0  0  0
  -11.2050   -2.7170   10.8830 C   0  0  0  0  0
  -10.6750   -2.3890   12.2700 C   0  0  0  0  0
  -10.1060   -1.3150   12.4620 O   0  0  0  0  0
  -10.1520   -3.5740   10.1590 C   0  0  0  0  0
   -9.9540   -2.9620    8.8430 C   0  0  0  0  0
  -10.3070   -1.5070    8.9590 C   0  0  0  0  0
  -10.8390   -3.2960   13.2270 N   0  0  0  0  0
  -10.2320   -3.0810   14.5450 C   0  0  0  0  0
   -8.7110   -3.2330   14.4710 C   0  0  0  0  0
   -8.1730   -3.8790   13.5700 O   0  0  0  0  0
  -10.7290   -4.0810   15.5970 C   0  0  0  0  0
  -10.4070   -5.4020   15.1710 O   0  0  0  0  0
  -12.2440   -3.9550   15.7880 C   0  0  0  0  0
   -8.0320   -2.6380   15.4390 N   0  0  0  0  0
   -6.5910   -2.8160   15.5600 C   0  0  0  0  0
   -6.3100   -4.2940   15.8380 C   0  0  0  0  0
   -5.3520   -4.8330   15.3250 O   0  0  0  0  0
   -6.0430   -1.9170   16.6630 C   0  0  0  0  0
   -6.0060   -0.4010   16.4230 C   0  0  0  0  0
   -7.3360    0.1720   16.0160 C   0  0  0  0  0
   -5.5870    0.3160   17.6870 C   0  0  0  0  0
   -7.1660   -4.9500   16.6220 N   0  0  0  0  0
   -7.0160   -6.3950   16.8640 C   0  0  0  0  0
   -6.9760   -7.1920   15.5350 C   0  0  0  0  0
   -6.1260   -8.0780   15.3520 O   0  0  0  0  0
   -8.1170   -6.9100   17.8030 C   0  0  0  0  0
   -7.8240   -6.7040   19.2600 C   0  0  0  0  0
   -7.9160   -5.4750   19.8780 N   0  0  0  0  0
   -7.3870   -7.5690   20.2080 C   0  0  0  0  0
   -7.5910   -5.6000   21.1540 C   0  0  0  0  0
   -7.2540   -6.8590   21.3780 N   0  0  0  0  0
   -7.8490   -6.8530   14.5970 N   0  0  0  0  0
   -7.8380   -7.5170   13.2810 C   0  0  0  0  0
   -6.5780   -7.2110   12.4930 C   0  0  0  0  0
   -6.0230   -8.0910   11.8460 O   0  0  0  0  0
   -9.0280   -7.0750   12.4350 C   0  0  0  0  0
  -10.3490   -7.6550   12.8250 C   0  0  0  0  0
  -11.4470   -6.9530   12.0700 C   0  0  0  0  0
  -11.6970   -7.3320   10.9060 O   0  0  0  0  0
  -12.0270   -5.9960   12.6320 O   0  0  0  0  0
   -6.1490   -5.9480   12.5290 N   0  0  0  0  0
   -5.0300   -5.4880   11.7160 C   0  0  0  0  0
   -3.7310   -6.1090   12.1970 C   0  0  0  0  0
   -2.7930   -6.2450   11.4160 O   0  0  0  0  0
   -4.9430   -3.9500   11.7310 C   0  0  0  0  0
   -6.0100   -3.2020   10.8930 C   0  0  0  0  0
   -6.1670   -1.7820   11.4060 C   0  0  0  0  0
   -5.6820   -3.1710    9.4010 C   0  0  0  0  0
   -3.6940   -6.5060   13.4780 N   0  0  0  0  0
   -2.4620   -7.0590   14.0680 C   0  0  0  0  0
   -2.5790   -8.5300   14.4590 C   0  0  0  0  0
   -1.7490   -9.0550   15.2110 O   0  0  0  0  0
   -1.9810   -6.1780   15.2260 C   0  0  0  0  0
   -1.4460   -4.8900   14.6920 C   0  0  0  0  0
   -2.2800   -3.7920   14.5390 C   0  0  0  0  0
   -0.1190   -4.7790   14.2760 C   0  0  0  0  0
   -1.8090   -2.5940   13.9780 C   0  0  0  0  0
    0.3710   -3.5760   13.7170 C   0  0  0  0  0
   -0.4800   -2.5020   13.5810 C   0  0  0  0  0
   -0.0130   -1.3340   13.0590 O   0  0  0  0  0
   -3.6000   -9.1950   13.9220 N   0  0  0  0  0
   -3.8320  -10.6260   14.1860 C   0  0  0  0  0
   -3.8410  -10.9270   15.7010 C   0  0  0  0  0
   -3.2190  -11.8870   16.1730 O   0  0  0  0  0
   -2.8230  -11.5010   13.4210 C   0  0  0  0  0
   -2.9470  -11.3690   11.8970 C   0  0  0  0  0
   -3.8890  -10.7180   11.4130 O   0  0  0  0  0
   -2.1150  -11.9490   11.1640 O   0  0  0  0  0
   -4.5730  -10.1010   16.4450 N   0  0  0  0  0
   -4.6820  -10.2060   17.9060 C   0  0  0  0  0
   -6.0540  -10.7530   18.3460 C   0  0  0  0  0
   -7.0490  -10.6280   17.6060 O   0  0  0  0  0
   -4.4530   -8.8240   18.5310 C   0  0  0  0  0
   -3.0340   -8.3290   18.8610 C   0  0  0  0  0
   -1.9000   -9.1180   18.2280 C   0  0  0  0  0
   -2.8710   -6.8310   18.6650 C   0  0  0  0  0
   -6.1769  -11.3619   19.5220 O   0  0  0  0  0
  -13.8319    1.1247   10.3798 H   0  0  0  0  0
  -13.4953    2.0283    9.0008 H   0  0  0  0  0
  -11.9173    0.5229    8.5538 H   0  0  0  0  0
   -9.9826    1.6681    9.3195 H   0  0  0  0  0
  -10.3166    1.2261   10.9666 H   0  0  0  0  0
  -10.7368    3.5197   11.1137 H   0  0  0  0  0
  -11.2099    3.6511    9.4509 H   0  0  0  0  0
  -12.8812    2.6317   11.7910 H   0  0  0  0  0
  -13.3631    3.6964   10.5685 H   0  0  0  0  0
  -12.1763   -3.2025   10.9783 H   0  0  0  0  0
  -10.4869   -4.6069   10.0635 H   0  0  0  0  0
   -9.2185   -3.6037   10.7209 H   0  0  0  0  0
   -8.9184   -3.0769    8.5229 H   0  0  0  0  0
  -10.5860   -3.4478    8.0996 H   0  0  0  0  0
   -9.4352   -0.8739    9.1244 H   0  0  0  0  0
  -10.7358   -1.1032    8.0418 H   0  0  0  0  0
  -11.3848   -4.1384   13.0459 H   0  0  0  0  0
  -10.5200   -2.0716   14.8386 H   0  0  0  0  0
  -10.2432   -3.8673   16.5491 H   0  0  0  0  0
  -10.7158   -6.0324   15.8259 H   0  0  0  0  0
  -12.4844   -2.9447   16.1191 H   0  0  0  0  0
  -12.7463   -4.1579   14.8421 H   0  0  0  0  0
  -12.5753   -4.6731   16.5382 H   0  0  0  0  0
   -8.5241   -2.0471   16.1091 H   0  0  0  0  0
   -6.0894   -2.5300   14.6355 H   0  0  0  0  0
   -5.0002   -2.2123   16.7791 H   0  0  0  0  0
   -6.7203   -2.0553   17.5057 H   0  0  0  0  0
   -5.2951   -0.2519   15.6103 H   0  0  0  0  0
   -7.6648   -0.2988   15.0896 H   0  0  0  0  0
   -8.0677   -0.0180   16.8013 H   0  0  0  0  0
   -7.2358    1.2466   15.8633 H   0  0  0  0  0
   -6.3005    0.0965   18.4812 H   0  0  0  0  0
   -4.5948   -0.0238   17.9841 H   0  0  0  0  0
   -5.5647    1.3902   17.5035 H   0  0  0  0  0
   -7.9356   -4.4440   17.0603 H   0  0  0  0  0
   -6.0583   -6.5541   17.3596 H   0  0  0  0  0
   -8.2040   -7.9842   17.6399 H   0  0  0  0  0
   -9.0242   -6.3509   17.5740 H   0  0  0  0  0
   -7.1796   -8.6300   20.0687 H   0  0  0  0  0
   -7.5995   -4.8008   21.8952 H   0  0  0  0  0
   -8.5365   -6.1241   14.7880 H   0  0  0  0  0
   -7.8867   -8.5863   13.4867 H   0  0  0  0  0
   -8.8286   -7.4153   11.4189 H   0  0  0  0  0
   -9.1142   -5.9959   12.5622 H   0  0  0  0  0
  -10.5022   -7.5230   13.8961 H   0  0  0  0  0
  -10.3646   -8.7181   12.5848 H   0  0  0  0  0
  -11.6750   -5.8859   13.5183 H   0  0  0  0  0
   -6.6186   -5.2839   13.1445 H   0  0  0  0  0
   -5.1981   -5.8064   10.6872 H   0  0  0  0  0
   -3.9769   -3.6935   11.2962 H   0  0  0  0  0
   -5.0968   -3.6445   12.7659 H   0  0  0  0  0
   -6.9431   -3.7537   11.0069 H   0  0  0  0  0
   -6.4808   -1.8067   12.4496 H   0  0  0  0  0
   -5.2136   -1.2600   11.3241 H   0  0  0  0  0
   -6.9189   -1.2633   10.8114 H   0  0  0  0  0
   -4.7277   -2.6662    9.2505 H   0  0  0  0  0
   -5.6183   -4.1914    9.0230 H   0  0  0  0  0
   -6.4668   -2.6334    8.8689 H   0  0  0  0  0
   -4.5324   -6.4237   14.0530 H   0  0  0  0  0
   -1.6994   -7.0419   13.2893 H   0  0  0  0  0
   -1.1931   -6.6975   15.7714 H   0  0  0  0  0
   -2.8173   -5.9720   15.8940 H   0  0  0  0  0
   -3.3194   -3.8605   14.8600 H   0  0  0  0  0
    0.5503   -5.6326   14.3835 H   0  0  0  0  0
   -2.4797   -1.7436   13.8549 H   0  0  0  0  0
    1.4103   -3.4998   13.3975 H   0  0  0  0  0
   -0.7244   -0.6900   13.0315 H   0  0  0  0  0
   -4.2434   -8.6969   13.3070 H   0  0  0  0  0
   -4.8235  -10.8812   13.8118 H   0  0  0  0  0
   -3.0218  -12.5407   13.6810 H   0  0  0  0  0
   -1.8216  -11.1747   13.7016 H   0  0  0  0  0
   -1.4656  -12.3969   11.7111 H   0  0  0  0  0
   -5.0859   -9.3549   15.9753 H   0  0  0  0  0
   -3.9230  -10.9089   18.2495 H   0  0  0  0  0
   -4.9430   -8.8887   19.5025 H   0  0  0  0  0
   -4.8055   -8.1279   17.7699 H   0  0  0  0  0
   -2.9376   -8.5323   19.9275 H   0  0  0  0  0
   -1.9494  -10.1544   18.5621 H   0  0  0  0  0
   -1.9941   -9.0799   17.1427 H   0  0  0  0  0
   -0.9459   -8.6837   18.5267 H   0  0  0  0  0
   -3.0790   -6.5771   17.6256 H   0  0  0  0  0
   -3.5678   -6.3028   19.3158 H   0  0  0  0  0
   -1.8497   -6.5424   18.9135 H   0  0  0  0  0
   -5.3252  -11.3750   19.9648 H   0  0  0  0  0
  3  2  1  0  0  0
  2  5  1  0  0  0
  2  1  1  0  0  0
  1  7  1  0  0  0
  7  6  1  0  0  0
  5  6  1  0  0  0
  3  4  2  0  0  0
 10  9  1  0  0  0
  9 12  1  0  0  0
  9  8  1  0  0  0
  8 14  1  0  0  0
 14 13  1  0  0  0
 12 13  1  0  0  0
 10 11  2  0  0  0
  8  3  1  0  0  0
 16 15  1  0  0  0
 16 19  1  0  0  0
 17 16  1  0  0  0
 17 18  2  0  0  0
 19 21  1  0  0  0
 19 20  1  0  0  0
 15 10  1  0  0  0
 23 22  1  0  0  0
 23 26  1  0  0  0
 24 23  1  0  0  0
 24 25  2  0  0  0
 26 27  1  0  0  0
 27 28  1  0  0  0
 27 29  1  0  0  0
 22 17  1  0  0  0
 31 30  1  0  0  0
 31 34  1  0  0  0
 32 31  1  0  0  0
 32 33  2  0  0  0
 34 35  1  0  0  0
 35 36  4  0  0  0
 35 37  4  0  0  0
 37 39  4  0  0  0
 39 38  4  0  0  0
 36 38  4  0  0  0
 30 24  1  0  0  0
 41 40  1  0  0  0
 41 44  1  0  0  0
 42 41  1  0  0  0
 42 43  2  0  0  0
 44 45  1  0  0  0
 45 46  1  0  0  0
 46 48  1  0  0  0
 46 47  2  0  0  0
 40 32  1  0  0  0
 50 49  1  0  0  0
 50 53  1  0  0  0
 51 50  1  0  0  0
 51 52  2  0  0  0
 53 54  1  0  0  0
 54 55  1  0  0  0
 54 56  1  0  0  0
 49 42  1  0  0  0
 58 57  1  0  0  0
 58 61  1  0  0  0
 59 58  1  0  0  0
 59 60  2  0  0  0
 61 62  1  0  0  0
 62 63  4  0  0  0
 62 64  4  0  0  0
 64 66  4  0  0  0
 66 67  4  0  0  0
 67 68  1  0  0  0
 65 67  4  0  0  0
 63 65  4  0  0  0
 57 51  1  0  0  0
 70 69  1  0  0  0
 70 73  1  0  0  0
 71 70  1  0  0  0
 71 72  2  0  0  0
 73 74  1  0  0  0
 74 75  2  0  0  0
 74 76  1  0  0  0
 69 59  1  0  0  0
 77 78  1  0  0  0
 78 81  1  0  0  0
 78 79  1  0  0  0
 79 80  2  0  0  0
 81 82  1  0  0  0
 82 83  1  0  0  0
 82 84  1  0  0  0
 71 77  1  0  0  0
 79 85  1  0  0  0
  1 86  1  0  0  0
  1 87  1  0  0  0
  2 88  1  0  0  0
  5 89  1  0  0  0
  5 90  1  0  0  0
  6 91  1  0  0  0
  6 92  1  0  0  0
  7 93  1  0  0  0
  7 94  1  0  0  0
  9 95  1  0  0  0
 12 96  1  0  0  0
 12 97  1  0  0  0
 13 98  1  0  0  0
 13 99  1  0  0  0
 14100  1  0  0  0
 14101  1  0  0  0
 15102  1  0  0  0
 16103  1  0  0  0
 19104  1  0  0  0
 20105  1  0  0  0
 21106  1  0  0  0
 21107  1  0  0  0
 21108  1  0  0  0
 22109  1  0  0  0
 23110  1  0  0  0
 26111  1  0  0  0
 26112  1  0  0  0
 27113  1  0  0  0
 28114  1  0  0  0
 28115  1  0  0  0
 28116  1  0  0  0
 29117  1  0  0  0
 29118  1  0  0  0
 29119  1  0  0  0
 30120  1  0  0  0
 31121  1  0  0  0
 34122  1  0  0  0
 34123  1  0  0  0
 37124  1  0  0  0
 38125  1  0  0  0
 40126  1  0  0  0
 41127  1  0  0  0
 44128  1  0  0  0
 44129  1  0  0  0
 45130  1  0  0  0
 45131  1  0  0  0
 48132  1  0  0  0
 49133  1  0  0  0
 50134  1  0  0  0
 53135  1  0  0  0
 53136  1  0  0  0
 54137  1  0  0  0
 55138  1  0  0  0
 55139  1  0  0  0
 55140  1  0  0  0
 56141  1  0  0  0
 56142  1  0  0  0
 56143  1  0  0  0
 57144  1  0  0  0
 58145  1  0  0  0
 61146  1  0  0  0
 61147  1  0  0  0
 63148  1  0  0  0
 64149  1  0  0  0
 65150  1  0  0  0
 66151  1  0  0  0
 68152  1  0  0  0
 69153  1  0  0  0
 70154  1  0  0  0
 73155  1  0  0  0
 73156  1  0  0  0
 76157  1  0  0  0
 77158  1  0  0  0
 78159  1  0  0  0
 81160  1  0  0  0
 81161  1  0  0  0
 82162  1  0  0  0
 83163  1  0  0  0
 83164  1  0  0  0
 83165  1  0  0  0
 84166  1  0  0  0
 84167  1  0  0  0
 84168  1  0  0  0
 85169  1  0  0  0
M  END
$$$$
