1wb0_ligand
  -I-interpret- 

 88 89  0  0  0  0  0  0  0  0999 V2000
   11.4070    1.5140   11.5580 C   0  0  0  0  0
   12.5590    1.9800   10.7560 N   0  0  0  0  0
   13.6660    2.3480   11.3970 C   0  0  0  0  0
   13.7400    2.3340   12.6280 O   0  0  0  0  0
   14.6680    2.7910   10.6250 N   0  0  0  0  0
   15.8410    3.2080   11.1210 C   0  0  0  0  0
   16.1240    3.0640   12.4230 N   0  0  0  0  0
   16.7530    3.6880   10.2830 N   0  0  0  0  0
   18.0480    4.1900   10.7770 C   0  0  0  0  0
   19.1640    3.7710    9.8300 C   0  0  0  0  0
   20.5050    4.3610   10.2870 C   0  0  0  0  0
   21.6620    3.7740    9.4700 C   0  0  0  0  0
   22.9990    4.3010   10.0260 C   0  0  0  0  0
   23.4180    3.8540   11.1000 O   0  0  0  0  0
   23.6870    5.2010    9.2700 N   0  0  0  0  0
   24.9310    5.7090    9.8990 C   0  0  0  0  0
   21.6290    2.3160    9.6500 N   0  0  0  0  0
   22.3260    1.4890    8.8840 C   0  0  0  0  0
   23.0670    1.8610    7.9770 O   0  0  0  0  0
   22.1770   -0.0010    9.2250 C   0  0  0  0  0
   21.0920   -0.6330    8.3400 C   0  0  0  0  0
   23.4680   -0.6700    8.9750 N   0  0  0  0  0
   24.5590   -0.4120    9.7030 C   0  0  0  0  0
   24.6000    0.3960   10.6390 O   0  0  0  0  0
   25.8030   -1.1850    9.2800 C   0  0  0  0  0
   26.7980   -0.2370    8.6050 C   0  0  0  0  0
   28.0710   -1.0020    8.2140 C   0  0  0  0  0
   27.9650   -1.8730    7.3240 O   0  0  0  0  0
   29.1240   -0.6900    8.8140 O   0  0  0  0  0
   26.1820    0.3590    7.3990 N   0  0  0  0  0
   26.3870    1.6290    7.0400 C   0  0  0  0  0
   27.1100    2.4200    7.6550 O   0  0  0  0  0
   25.6650    2.0540    5.7570 C   0  0  0  0  0
   25.5340    3.5750    5.6580 C   0  0  0  0  0
   25.1090    3.9470    4.2310 C   0  0  0  0  0
   23.8850    4.0030    3.9940 O   0  0  0  0  0
   26.0300    4.1620    3.4020 O   0  0  0  0  0
   24.5480    4.0620    6.6690 N   0  0  0  0  0
   24.2640    5.3580    6.8420 C   0  0  0  0  0
   24.7760    6.2650    6.1800 O   0  0  0  0  0
   23.2100    5.6730    7.9380 C   0  0  0  0  0
   22.9580    7.1920    7.9710 C   0  0  0  0  0
   21.8380    7.5730    8.9380 C   0  0  0  0  0
   22.1400    7.9420   10.2690 C   0  0  0  0  0
   21.1050    8.3120   11.1430 C   0  0  0  0  0
   19.7670    8.3120   10.6980 C   0  0  0  0  0
   19.4660    7.9430    9.3740 C   0  0  0  0  0
   20.5040    7.5740    8.4940 C   0  0  0  0  0
   11.7000    0.6390   12.1382 H   0  0  0  0  0
   11.0901    2.3094   12.2326 H   0  0  0  0  0
   10.5849    1.2514   10.8922 H   0  0  0  0  0
   12.5065    2.0184    9.7381 H   0  0  0  0  0
   15.4431    2.6330   13.0483 H   0  0  0  0  0
   16.5543    3.7096    9.2828 H   0  0  0  0  0
   18.2409    3.7731   11.7655 H   0  0  0  0  0
   18.0137    5.2781   10.8318 H   0  0  0  0  0
   18.9371    4.1395    8.8296 H   0  0  0  0  0
   19.2375    2.6835    9.8278 H   0  0  0  0  0
   20.6570    4.1174   11.3385 H   0  0  0  0  0
   20.4829    5.4409   10.1409 H   0  0  0  0  0
   21.5684    4.0503    8.4198 H   0  0  0  0  0
   24.6855    6.2048   10.8382 H   0  0  0  0  0
   25.6056    4.8750   10.0924 H   0  0  0  0  0
   25.4126    6.4192    9.2269 H   0  0  0  0  0
   21.0480    1.9259   10.3921 H   0  0  0  0  0
   21.8899   -0.1148   10.2703 H   0  0  0  0  0
   20.1425   -0.1267    8.5140 H   0  0  0  0  0
   21.3738   -0.5294    7.2922 H   0  0  0  0  0
   20.9925   -1.6897    8.5881 H   0  0  0  0  0
   23.5302   -1.3533    8.2202 H   0  0  0  0  0
   25.5189   -1.9688    8.5779 H   0  0  0  0  0
   26.2683   -1.6287   10.1602 H   0  0  0  0  0
   27.0617    0.5569    9.3038 H   0  0  0  0  0
   28.9354    0.0052    9.4486 H   0  0  0  0  0
   25.5772   -0.2227    6.8192 H   0  0  0  0  0
   24.6638    1.6233    5.7679 H   0  0  0  0  0
   26.2460    1.7033    4.9040 H   0  0  0  0  0
   26.4903    4.0533    5.8695 H   0  0  0  0  0
   26.8801    4.0546    3.8349 H   0  0  0  0  0
   24.0700    3.3761    7.2534 H   0  0  0  0  0
   22.2805    5.1532    7.7057 H   0  0  0  0  0
   22.6628    7.5077    6.9703 H   0  0  0  0  0
   23.8738    7.6796    8.3052 H   0  0  0  0  0
   23.1734    7.9393   10.6158 H   0  0  0  0  0
   21.3366    8.6000   12.1684 H   0  0  0  0  0
   18.9659    8.5978   11.3797 H   0  0  0  0  0
   18.4320    7.9424    9.0292 H   0  0  0  0  0
   20.2719    7.2891    7.4678 H   0  0  0  0  0
  1  2  1  0  0  0
  2  3  1  0  0  0
  3  4  2  0  0  0
  3  5  1  0  0  0
  5  6  4  0  0  0
  6  7  2  0  0  0
  6  8  1  0  0  0
  8  9  1  0  0  0
  9 10  1  0  0  0
 10 11  1  0  0  0
 11 12  1  0  0  0
 12 13  1  0  0  0
 12 17  1  0  0  0
 13 14  2  0  0  0
 13 15  1  0  0  0
 15 16  1  0  0  0
 15 41  1  0  0  0
 17 18  1  0  0  0
 18 19  2  0  0  0
 18 20  1  0  0  0
 20 21  1  0  0  0
 20 22  1  0  0  0
 22 23  1  0  0  0
 23 24  2  0  0  0
 23 25  1  0  0  0
 25 26  1  0  0  0
 26 27  1  0  0  0
 26 30  1  0  0  0
 27 28  2  0  0  0
 27 29  1  0  0  0
 30 31  1  0  0  0
 31 32  2  0  0  0
 31 33  1  0  0  0
 33 34  1  0  0  0
 34 35  1  0  0  0
 34 38  1  0  0  0
 35 36  2  0  0  0
 35 37  1  0  0  0
 38 39  1  0  0  0
 39 40  2  0  0  0
 39 41  1  0  0  0
 41 42  1  0  0  0
 42 43  1  0  0  0
 43 44  4  0  0  0
 43 48  4  0  0  0
 44 45  4  0  0  0
 45 46  4  0  0  0
 46 47  4  0  0  0
 47 48  4  0  0  0
  1 49  1  0  0  0
  1 50  1  0  0  0
  1 51  1  0  0  0
  2 52  1  0  0  0
  7 53  1  0  0  0
  8 54  1  0  0  0
  9 55  1  0  0  0
  9 56  1  0  0  0
 10 57  1  0  0  0
 10 58  1  0  0  0
 11 59  1  0  0  0
 11 60  1  0  0  0
 12 61  1  0  0  0
 16 62  1  0  0  0
 16 63  1  0  0  0
 16 64  1  0  0  0
 17 65  1  0  0  0
 20 66  1  0  0  0
 21 67  1  0  0  0
 21 68  1  0  0  0
 21 69  1  0  0  0
 22 70  1  0  0  0
 25 71  1  0  0  0
 25 72  1  0  0  0
 26 73  1  0  0  0
 29 74  1  0  0  0
 30 75  1  0  0  0
 33 76  1  0  0  0
 33 77  1  0  0  0
 34 78  1  0  0  0
 37 79  1  0  0  0
 38 80  1  0  0  0
 41 81  1  0  0  0
 42 82  1  0  0  0
 42 83  1  0  0  0
 44 84  1  0  0  0
 45 85  1  0  0  0
 46 86  1  0  0  0
 47 87  1  0  0  0
 48 88  1  0  0  0
M  END
$$$$
