4cu7_ligand
  -I-interpret- 

 24 24  0  0  0  0  0  0  0  0999 V2000
   97.7760   12.9180    8.2260 C   0  0  0  0  0
   98.1620   11.5050    8.2510 N   0  3  0  0  0
   99.1260    9.2300    4.6450 O   0  0  0  0  0
   97.1350   13.2520    6.8730 C   0  0  0  0  0
   99.2670   13.4340    5.6210 O   0  0  0  0  0
   97.9920   12.7470    5.6820 C   0  0  0  0  0
   96.9120   14.6650    6.7860 O   0  0  0  0  0
   98.1890   11.2460    5.7880 C   0  0  0  0  0
   98.9110   10.9610    7.1120 C   0  0  0  0  0
   98.9400   10.6710    4.5760 C   0  0  0  0  0
   98.6608   13.5379    8.3707 H   0  0  0  0  0
   97.0595   13.1121    9.0242 H   0  0  0  0  0
   97.2821   10.9892    8.2613 H   0  0  0  0  0
   98.7901   11.4151    9.0496 H   0  0  0  0  0
   99.5985    8.9317    3.8644 H   0  0  0  0  0
   96.1790   12.7323    6.8098 H   0  0  0  0  0
   99.1167   14.3798    5.5544 H   0  0  0  0  0
   97.4601   12.9678    4.7566 H   0  0  0  0  0
   96.3807   14.9506    7.5329 H   0  0  0  0  0
   97.2211   10.7448    5.7828 H   0  0  0  0  0
   98.9984    9.8816    7.2359 H   0  0  0  0  0
   99.8926   11.4340    7.0825 H   0  0  0  0  0
   98.3447   10.8842    3.6882 H   0  0  0  0  0
   99.9284   11.1300    4.5528 H   0  0  0  0  0
  2  1  1  0  0  0
  4  1  1  0  0  0
  9  2  1  0  0  0
 10  3  1  0  0  0
  6  4  1  0  0  0
  4  7  1  0  0  0
  6  5  1  0  0  0
  8  6  1  0  0  0
  8  9  1  0  0  0
  8 10  1  0  0  0
  1 11  1  0  0  0
  1 12  1  0  0  0
  2 13  1  0  0  0
  2 14  1  0  0  0
  3 15  1  0  0  0
  4 16  1  0  0  0
  5 17  1  0  0  0
  6 18  1  0  0  0
  7 19  1  0  0  0
  8 20  1  0  0  0
  9 21  1  0  0  0
  9 22  1  0  0  0
 10 23  1  0  0  0
 10 24  1  0  0  0
M  END
$$$$
