3m35_ligand
  -I-interpret- 

 58 61  0  0  0  0  0  0  0  0999 V2000
   17.2430   67.1500   25.4920 C   0  0  0  0  0
   24.0950   67.9160   21.0680 F   0  0  0  0  0
   20.0710   68.5200   22.4700 N   0  0  0  0  0
   18.9970   78.5930   21.2640 S   0  0  0  0  0
   16.8830   67.0630   24.0770 C   0  0  0  0  0
   22.8450   66.3480   20.2720 F   0  0  0  0  0
   17.8330   67.5390   23.0630 C   0  0  0  0  0
   23.0930   68.1790   19.1970 F   0  0  0  0  0
   20.2050   67.1420   27.6090 N   0  3  0  0  0
   18.8650   70.9740   23.2450 O   0  0  0  0  0
   19.1460   68.0980   23.4160 C   0  0  0  0  0
   17.6980   72.9810   21.2640 F   0  0  0  0  0
   20.0710   77.6480   21.2060 O   0  0  0  0  0
   19.4990   68.1980   24.8290 C   0  0  0  0  0
   20.3100   72.2080   22.0450 N   0  0  0  0  0
   19.3220   79.9570   20.9600 O   0  0  0  0  0
   18.5510   67.7240   25.8380 C   0  0  0  0  0
   20.9200   67.6340   21.8630 N   0  0  0  0  0
   19.7640   73.4340   22.3890 C   0  0  0  0  0
   19.8290   71.0130   22.4940 C   0  0  0  0  0
   17.6020   78.0730   20.2540 C   0  0  0  0  0
   21.8250   68.2910   21.1340 C   0  0  0  0  0
   23.0030   67.6620   20.3890 C   0  0  0  0  0
   21.5560   69.6850   21.2460 C   0  0  0  0  0
   20.4310   69.7950   22.1030 C   0  0  0  0  0
   17.7970   75.0690   22.4340 C   0  0  0  0  0
   17.3040   77.4670   24.9250 C   0  0  0  0  0
   18.5960   75.9750   23.2480 C   0  0  0  0  0
   18.0550   77.3290   23.6680 C   0  0  0  0  0
   19.9690   75.5950   23.5890 C   0  0  0  0  0
   18.9450   67.8370   27.2950 C   0  0  0  0  0
   18.2680   78.5630   22.8980 C   0  0  0  0  0
   20.5710   74.3440   23.1780 C   0  0  0  0  0
   16.8510   78.7850   25.3690 C   0  0  0  0  0
   17.8120   79.8830   23.3640 C   0  0  0  0  0
   17.1060   80.0120   24.6260 C   0  0  0  0  0
   18.4040   73.8200   22.0190 C   0  0  0  0  0
   16.5613   66.7995   26.2670 H   0  0  0  0  0
   15.9199   66.6493   23.7782 H   0  0  0  0  0
   17.5545   67.4755   22.0111 H   0  0  0  0  0
   20.4157   67.2541   28.6007 H   0  0  0  0  0
   20.1085   66.1503   27.3907 H   0  0  0  0  0
   20.9604   67.5420   27.0524 H   0  0  0  0  0
   20.4578   68.6209   25.1290 H   0  0  0  0  0
   21.1168   72.1984   21.4211 H   0  0  0  0  0
   17.9218   77.9780   19.2163 H   0  0  0  0  0
   17.2345   77.1112   20.6118 H   0  0  0  0  0
   16.8074   78.8159   20.3241 H   0  0  0  0  0
   22.1022   70.4999   20.7709 H   0  0  0  0  0
   16.7765   75.3220   22.1465 H   0  0  0  0  0
   17.0845   76.5852   25.5270 H   0  0  0  0  0
   20.5667   76.2880   24.1811 H   0  0  0  0  0
   19.0856   68.8945   27.5188 H   0  0  0  0  0
   18.1556   67.3753   27.8881 H   0  0  0  0  0
   21.5960   74.0949   23.4524 H   0  0  0  0  0
   16.2941   78.8526   26.3036 H   0  0  0  0  0
   18.0055   80.7683   22.7582 H   0  0  0  0  0
   16.7814   80.9828   25.0006 H   0  0  0  0  0
  5  1  4  0  0  0
 17  1  4  0  0  0
 23  2  1  0  0  0
  3 11  1  0  0  0
  3 18  4  0  0  0
 25  3  4  0  0  0
  4 13  2  0  0  0
  4 16  2  0  0  0
  4 21  1  0  0  0
 32  4  1  0  0  0
  7  5  4  0  0  0
 23  6  1  0  0  0
 11  7  4  0  0  0
 23  8  1  0  0  0
 31  9  1  0  0  0
 20 10  2  0  0  0
 11 14  4  0  0  0
 37 12  1  0  0  0
 14 17  4  0  0  0
 19 15  1  0  0  0
 15 20  1  0  0  0
 17 31  1  0  0  0
 22 18  4  0  0  0
 19 33  4  0  0  0
 37 19  4  0  0  0
 20 25  1  0  0  0
 22 23  1  0  0  0
 24 22  4  0  0  0
 25 24  4  0  0  0
 28 26  4  0  0  0
 26 37  4  0  0  0
 29 27  4  0  0  0
 27 34  4  0  0  0
 29 28  1  0  0  0
 28 30  4  0  0  0
 29 32  4  0  0  0
 30 33  4  0  0  0
 32 35  4  0  0  0
 34 36  4  0  0  0
 35 36  4  0  0  0
  1 38  1  0  0  0
  5 39  1  0  0  0
  7 40  1  0  0  0
  9 41  1  0  0  0
  9 42  1  0  0  0
  9 43  1  0  0  0
 14 44  1  0  0  0
 15 45  1  0  0  0
 21 46  1  0  0  0
 21 47  1  0  0  0
 21 48  1  0  0  0
 24 49  1  0  0  0
 26 50  1  0  0  0
 27 51  1  0  0  0
 30 52  1  0  0  0
 31 53  1  0  0  0
 31 54  1  0  0  0
 33 55  1  0  0  0
 34 56  1  0  0  0
 35 57  1  0  0  0
 36 58  1  0  0  0
M  END
$$$$
