11gs_ligand
  -I-interpret- 

 69 69  0  0  0  0  0  0  0  0999 V2000
   14.7090   10.7820   23.2520 N   0  3  0  0  0
   14.6200    9.9440   24.4710 C   0  0  0  0  0
   15.7480    8.9120   24.4560 C   0  0  0  0  0
   16.0850    8.4010   25.5410 O   0  0  0  0  0
   16.3130    8.6420   23.3670 O   0  0  0  0  0
   13.2690    9.2400   24.5300 C   0  0  0  0  0
   12.9530    8.6610   25.9060 C   0  0  0  0  0
   11.5780    8.0220   25.9870 C   0  0  0  0  0
   10.7970    8.0380   25.0250 O   0  0  0  0  0
   11.2470    7.5340   27.1750 N   0  0  0  0  0
    9.9720    6.8700   27.4160 C   0  0  0  0  0
    9.3670    7.3930   28.7190 C   0  0  0  0  0
   10.0850    7.8880   29.5910 O   0  0  0  0  0
   10.2030    5.3550   27.5530 C   0  0  0  0  0
   11.4450    4.7020   26.3760 S   0  0  0  0  0
    8.0510    7.2770   28.8380 N   0  0  0  0  0
    7.3820    7.6900   30.0580 C   0  0  0  0  0
    6.9000    9.1180   30.0690 C   0  0  0  0  0
    6.0060    9.4220   30.8870 O   0  0  0  0  0
    7.3950    9.9270   29.2540 O   0  0  0  0  0
    5.7920    2.7370   28.0810 C   0  0  0  0  0
    5.1050    2.1790   29.1650 O   0  0  0  0  0
    7.1260    2.3100   27.8760 C   0  0  0  0  0
    7.8880    2.8040   26.8050 C   0  0  0  0  0
    7.3230    3.7760   25.8990 C   0  0  0  0  0
    5.9880    4.1980   26.1300 C   0  0  0  0  0
    5.2430    3.6890   27.1990 C   0  0  0  0  0
    8.0950    4.3720   24.7030 C   0  0  0  0  0
    7.5850    5.1970   23.9310 O   0  0  0  0  0
    9.6100    3.9850   24.4110 C   0  0  0  0  0
    9.8770    3.3130   23.0520 C   0  0  0  0  0
   11.1860    2.5160   22.9220 C   0  0  0  0  0
   10.6730    5.0250   24.7730 C   0  0  0  0  0
    4.0210    1.1970   29.0350 C   0  0  0  0  0
    3.8530    0.2730   30.2430 C   0  0  0  0  0
    4.7490   -0.5720   30.4860 O   0  0  0  0  0
    2.8040    0.3540   30.9250 O   0  0  0  0  0
    7.8760    1.1450   28.9840 Cl  0  0  0  0  0
    9.5230    2.1350   26.6450 Cl  0  0  0  0  0
   13.9575   11.4716   23.2593 H   0  0  0  0  0
   15.6101   11.2596   23.2342 H   0  0  0  0  0
   14.6205   10.1896   22.4264 H   0  0  0  0  0
   14.7181   10.5782   25.3521 H   0  0  0  0  0
   15.8994    9.1431   22.6603 H   0  0  0  0  0
   13.2965    8.4121   23.8215 H   0  0  0  0  0
   12.5013    9.9781   24.2978 H   0  0  0  0  0
   12.9776    9.4820   26.6226 H   0  0  0  0  0
   13.6897    7.8851   26.1142 H   0  0  0  0  0
   11.9075    7.6266   27.9467 H   0  0  0  0  0
    9.2973    7.0706   26.5838 H   0  0  0  0  0
    9.2564    4.8572   27.3428 H   0  0  0  0  0
   10.5741    5.1682   28.5607 H   0  0  0  0  0
    7.5049    6.8945   28.0661 H   0  0  0  0  0
    8.1112    7.5981   30.8630 H   0  0  0  0  0
    6.4990    7.0593   30.1613 H   0  0  0  0  0
    8.0610    9.4805   28.7261 H   0  0  0  0  0
    5.5352    4.9315   25.4629 H   0  0  0  0  0
    4.2207    4.0346   27.3523 H   0  0  0  0  0
    9.7461    3.2016   25.1565 H   0  0  0  0  0
    9.9442    4.1220   22.3246 H   0  0  0  0  0
    9.0712    2.5930   22.9092 H   0  0  0  0  0
   12.0328    3.1796   23.0968 H   0  0  0  0  0
   11.1949    1.7120   23.6579 H   0  0  0  0  0
   11.2546    2.0936   21.9195 H   0  0  0  0  0
   10.1854    5.9984   24.8257 H   0  0  0  0  0
   11.4523    4.9869   24.0118 H   0  0  0  0  0
    4.2644    0.5646   28.1813 H   0  0  0  0  0
    3.0926    1.7587   28.9317 H   0  0  0  0  0
    5.4639   -0.4696   29.8535 H   0  0  0  0  0
  2  1  1  0  0  0
  6  2  1  0  0  0
  2  3  1  0  0  0
  3  5  1  0  0  0
  3  4  2  0  0  0
  7  6  1  0  0  0
  8  7  1  0  0  0
 10  8  1  0  0  0
  8  9  2  0  0  0
 11 10  1  0  0  0
 14 11  1  0  0  0
 11 12  1  0  0  0
 12 16  1  0  0  0
 12 13  2  0  0  0
 16 17  1  0  0  0
 17 18  1  0  0  0
 18 20  1  0  0  0
 18 19  2  0  0  0
 15 14  1  0  0  0
 27 21  4  0  0  0
 23 21  4  0  0  0
 21 22  1  0  0  0
 22 34  1  0  0  0
 34 35  1  0  0  0
 35 37  2  0  0  0
 35 36  1  0  0  0
 24 23  4  0  0  0
 25 24  4  0  0  0
 28 25  1  0  0  0
 25 26  4  0  0  0
 26 27  4  0  0  0
 30 28  1  0  0  0
 28 29  2  0  0  0
 33 30  1  0  0  0
 30 31  1  0  0  0
 31 32  1  0  0  0
 23 38  1  0  0  0
 24 39  1  0  0  0
 33 15  1  0  0  0
  1 40  1  0  0  0
  1 41  1  0  0  0
  1 42  1  0  0  0
  2 43  1  0  0  0
  5 44  1  0  0  0
  6 45  1  0  0  0
  6 46  1  0  0  0
  7 47  1  0  0  0
  7 48  1  0  0  0
 10 49  1  0  0  0
 11 50  1  0  0  0
 14 51  1  0  0  0
 14 52  1  0  0  0
 16 53  1  0  0  0
 17 54  1  0  0  0
 17 55  1  0  0  0
 20 56  1  0  0  0
 26 57  1  0  0  0
 27 58  1  0  0  0
 30 59  1  0  0  0
 31 60  1  0  0  0
 31 61  1  0  0  0
 32 62  1  0  0  0
 32 63  1  0  0  0
 32 64  1  0  0  0
 33 65  1  0  0  0
 33 66  1  0  0  0
 34 67  1  0  0  0
 34 68  1  0  0  0
 36 69  1  0  0  0
M  END
$$$$
