### 
### Created by X-TOOL on Mon Sep 10 21:13:02 2018
### 

@<TRIPOS>MOLECULE
2kgi_ligand
  170   169     1     0     0
SMALL
GAST_HUCK


@<TRIPOS>ATOM
      1 N           2.9830   10.2390   -2.9570 N.4       1 ALA         0.2377
      2 CA          2.7280    8.9560   -3.6650 C.3       1 ALA         0.0621
      3 C           1.3040    8.8880   -4.1840 C.2       1 ALA         0.2264
      4 O           0.5290    9.8600   -4.1300 O.2       1 ALA        -0.3907
      5 CB          2.9780    7.7500   -2.7540 C.3       1 ALA        -0.0040
      6 N           0.9780    7.7620   -4.7130 N.am      1 ARG        -0.2610
      7 CA         -0.3270    7.4670   -5.1800 C.3       1 ARG         0.1312
      8 C          -0.9500    6.4730   -4.2130 C.2       1 ARG         0.2040
      9 O          -0.4580    5.3650   -4.0490 O.2       1 ARG        -0.3944
     10 CB         -0.2140    6.9210   -6.5980 C.3       1 ARG        -0.0092
     11 CG          0.2220    7.9850   -7.6090 C.3       1 ARG        -0.0156
     12 CD          0.7300    7.3830   -8.9150 C.3       1 ARG         0.0627
     13 NE          2.0690    6.7870   -8.7400 N.pl3     1 ARG        -0.2723
     14 CZ          2.6540    5.9250   -9.5680 C.cat     1 ARG         0.2882
     15 NH1         2.0190    5.4650  -10.6330 N.pl3     1 ARG        -0.2849
     16 NH2         3.8810    5.5180   -9.3160 N.pl3     1 ARG        -0.2849
     17 N          -1.9730    6.8920   -3.5270 N.am      1 THR        -0.2613
     18 CA         -2.6030    6.0670   -2.5240 C.3       1 THR         0.1565
     19 C          -3.9910    5.6230   -2.9500 C.2       1 THR         0.2065
     20 O          -4.5140    6.0820   -3.9810 O.2       1 THR        -0.3943
     21 CB         -2.6740    6.8070   -1.1580 C.3       1 THR         0.0924
     22 OG1        -3.2940    8.1130   -1.2990 O.3       1 THR        -0.3874
     23 CG2        -1.2850    6.9480   -0.5830 C.3       1 THR        -0.0346
     24 N          -4.5750    4.7200   -2.1760 N.am      1 M3L        -0.2637
     25 CA         -5.9360    4.2280   -2.4300 C.3       1 M3L         0.1310
     26 CB         -5.9670    3.3130   -3.6490 C.3       1 M3L        -0.0122
     27 CG         -5.0520    2.1640   -3.4980 C.3       1 M3L        -0.0440
     28 CD         -4.9210    1.3310   -4.7290 C.3       1 M3L        -0.0123
     29 CE         -6.1710    0.5820   -5.0970 C.3       1 M3L        -0.0309
     30 NZ         -5.9730   -0.2440   -6.3570 N.4       1 M3L         0.2369
     31 C          -6.4380    3.4620   -1.2440 C.2       1 M3L         0.2039
     32 O          -5.6600    3.1080   -0.3470 O.2       1 M3L        -0.3944
     33 CM1        -4.8130   -1.1570   -6.2170 C.3       1 M3L        -0.0418
     34 CM2        -5.7510    0.6870   -7.5230 C.3       1 M3L        -0.0418
     35 CM3        -7.1510   -1.0830   -6.5910 C.3       1 M3L        -0.0418
     36 N          -7.7140    3.1930   -1.2540 N.am      1 GLN        -0.2636
     37 CA         -8.3510    2.4400   -0.2200 C.3       1 GLN         0.1330
     38 C          -9.4170    1.5720   -0.8680 C.2       1 GLN         0.2041
     39 O         -10.3550    2.0830   -1.4780 O.2       1 GLN        -0.3944
     40 CB         -8.9660    3.3820    0.8160 C.3       1 GLN         0.0045
     41 CG         -9.5400    2.6780    2.0340 C.3       1 GLN         0.0412
     42 CD        -10.1020    3.6510    3.0380 C.2       1 GLN         0.1737
     43 OE1       -11.2910    3.9890    3.0030 O.2       1 GLN        -0.3973
     44 NE2        -9.2630    4.1370    3.9070 N.am      1 GLN        -0.3009
     45 N          -9.2500    0.2820   -0.7730 N.am      1 THR        -0.2613
     46 CA        -10.1870   -0.6440   -1.3760 C.3       1 THR         0.1565
     47 C         -11.2700   -1.0110   -0.3650 C.2       1 THR         0.2065
     48 O         -10.9550   -1.3830    0.7830 O.2       1 THR        -0.3943
     49 CB         -9.4600   -1.9240   -1.8460 C.3       1 THR         0.0924
     50 OG1        -8.7630   -2.4950   -0.7230 O.3       1 THR        -0.3874
     51 CG2        -8.4570   -1.6140   -2.9740 C.3       1 THR        -0.0346
     52 N         -12.5160   -0.9110   -0.7750 N.am      1 ALA        -0.2639
     53 CA        -13.6230   -1.2170    0.0970 C.3       1 ALA         0.1282
     54 C         -14.2360   -2.5620   -0.2630 C.2       1 ALA         0.2036
     55 O         -14.7710   -2.7490   -1.3470 O.2       1 ALA        -0.3944
     56 CB        -14.6710   -0.1020    0.0870 C.3       1 ALA        -0.0244
     57 N         -14.1470   -3.4730    0.6520 N.am      1 ARG        -0.2637
     58 CA        -14.6060   -4.8240    0.5080 C.3       1 ARG         0.1309
     59 C         -15.8060   -5.0680    1.4000 C.2       1 ARG         0.2019
     60 O         -15.8820   -4.5360    2.5080 O.2       1 ARG        -0.3945
     61 CB        -13.4800   -5.7730    0.9180 C.3       1 ARG        -0.0092
     62 CG        -12.2630   -5.7160    0.0200 C.3       1 ARG        -0.0156
     63 CD        -12.5840   -6.2810   -1.3440 C.3       1 ARG         0.0627
     64 NE        -12.9970   -7.6950   -1.2330 N.pl3     1 ARG        -0.2723
     65 CZ        -13.4760   -8.4410   -2.2300 C.cat     1 ARG         0.2882
     66 NH1       -13.6280   -7.9270   -3.4450 N.pl3     1 ARG        -0.2849
     67 NH2       -13.8070   -9.7120   -2.0050 N.pl3     1 ARG        -0.2849
     68 N         -16.7490   -5.8540    0.8900 N.am      1 LYS        -0.2823
     69 CA        -17.9450   -6.2960    1.6410 C.3       1 LYS         0.0393
     70 C         -18.6570   -5.1320    2.3600 C.3       1 LYS        -0.0420
     71 CB        -17.5690   -7.4130    2.6440 C.3       1 LYS        -0.0300
     72 CG        -16.9050   -8.6360    2.0110 C.3       1 LYS        -0.0462
     73 CD        -17.8040   -9.3210    0.9850 C.3       1 LYS        -0.0126
     74 CE        -17.0900  -10.5030    0.3320 C.3       1 LYS        -0.0354
     75 NZ        -17.9420  -11.1780   -0.6770 N.4       1 LYS         0.2185
     76 H1          3.9343   10.2557   -2.6242 H         1 ALA         0.2015
     77 H2          2.3521   10.3226   -2.1754 H         1 ALA         0.2015
     78 H3          2.8355   11.0081   -3.5917 H         1 ALA         0.2015
     79 H4          3.4166    8.8964   -4.5207 H         1 ALA         0.1095
     80 H5          2.7796    6.8224   -3.3110 H         1 ALA         0.0310
     81 H6          2.3095    7.8042   -1.8821 H         1 ALA         0.0310
     82 H7          4.0244    7.7573   -2.4148 H         1 ALA         0.0310
     83 H8          1.6825    7.0576   -4.7993 H         1 ARG         0.1884
     84 H9         -0.9366    8.3825   -5.1969 H         1 ARG         0.0800
     85 H10        -1.1950    6.5275   -6.9026 H         1 ARG         0.0313
     86 H11         0.5255    6.1067   -6.6035 H         1 ARG         0.0313
     87 H12         1.0274    8.5862   -7.1619 H         1 ARG         0.0301
     88 H13        -0.6388    8.6327   -7.8315 H         1 ARG         0.0301
     89 H14         0.7857    8.1739   -9.6775 H         1 ARG         0.0689
     90 H15         0.0299    6.6022   -9.2470 H         1 ARG         0.0689
     91 H16         2.5986    7.0634   -7.9009 H         1 ARG         0.2642
     92 H17         2.4868    4.7982  -11.2634 H         1 ARG         0.2615
     93 H18         1.0567    5.7735  -10.8320 H         1 ARG         0.2615
     94 H19         4.3813    5.8722   -8.4883 H         1 ARG         0.2615
     95 H20         4.3402    4.8455   -9.9466 H         1 ARG         0.2615
     96 H21        -2.3321    7.8093   -3.6990 H         1 THR         0.1884
     97 H22        -1.9846    5.1668   -2.3931 H         1 THR         0.0826
     98 H23        -3.2829    6.2062   -0.4665 H         1 THR         0.0639
     99 H24        -3.3240    8.5412   -0.4515 H         1 THR         0.2101
    100 H25        -1.3394    7.4717    0.3828 H         1 THR         0.0257
    101 H26        -0.6572    7.5249   -1.2780 H         1 THR         0.0257
    102 H27        -0.8465    5.9502   -0.4348 H         1 THR         0.0257
    103 H28        -4.0713    4.3603   -1.3906 H         1 M3L         0.1883
    104 H29        -6.5957    5.0895   -2.6105 H         1 M3L         0.0800
    105 H30        -5.6682    3.8914   -4.5356 H         1 M3L         0.0312
    106 H31        -6.9915    2.9363   -3.7850 H         1 M3L         0.0312
    107 H32        -5.4290    1.5251   -2.6858 H         1 M3L         0.0269
    108 H33        -4.0559    2.5469   -3.2311 H         1 M3L         0.0269
    109 H34        -4.1149    0.6002   -4.5678 H         1 M3L         0.0317
    110 H35        -4.6546    1.9919   -5.5670 H         1 M3L         0.0317
    111 H36        -6.9837    1.3037   -5.2665 H         1 M3L         0.0815
    112 H37        -6.4431   -0.0887   -4.2687 H         1 M3L         0.0815
    113 H38        -4.6928   -1.7415   -7.1411 H         1 M3L         0.0778
    114 H39        -4.9834   -1.8393   -5.3712 H         1 M3L         0.0778
    115 H40        -3.9023   -0.5676   -6.0350 H         1 M3L         0.0778
    116 H41        -6.6138    1.3620   -7.6227 H         1 M3L         0.0778
    117 H42        -5.6372    0.0987   -8.4455 H         1 M3L         0.0778
    118 H43        -4.8401    1.2793   -7.3511 H         1 M3L         0.0778
    119 H44        -7.2988   -1.7551   -5.7328 H         1 M3L         0.0778
    120 H45        -7.0008   -1.6800   -7.5026 H         1 M3L         0.0778
    121 H46        -8.0379   -0.4439   -6.7132 H         1 M3L         0.0778
    122 H47        -8.2690    3.5271   -2.0158 H         1 GLN         0.1883
    123 H48        -7.6098    1.7976    0.2778 H         1 GLN         0.0801
    124 H49        -9.7754    3.9473    0.3309 H         1 GLN         0.0337
    125 H50        -8.1851    4.0782    1.1560 H         1 GLN         0.0337
    126 H51        -8.7419    2.0934    2.5149 H         1 GLN         0.0504
    127 H52       -10.3436    2.0018    1.7071 H         1 GLN         0.0504
    128 H53        -9.5792    4.7874    4.5977 H         1 GLN         0.1814
    129 H54        -8.3024    3.8599    3.8838 H         1 GLN         0.1814
    130 H55        -8.4600   -0.0748   -0.2744 H         1 THR         0.1884
    131 H56       -10.6558   -0.1607   -2.2458 H         1 THR         0.0826
    132 H57       -10.2037   -2.6436   -2.2189 H         1 THR         0.0639
    133 H58        -9.3874   -2.7094   -0.0399 H         1 THR         0.2101
    134 H59        -7.9572   -2.5430   -3.2858 H         1 THR         0.0257
    135 H60        -7.7056   -0.8978   -2.6100 H         1 THR         0.0257
    136 H61        -8.9921   -1.1800   -3.8315 H         1 THR         0.0257
    137 H62       -12.6997   -0.6161   -1.7127 H         1 ALA         0.1883
    138 H63       -13.2300   -1.2926    1.1216 H         1 ALA         0.0797
    139 H64       -15.4976   -0.3698    0.7615 H         1 ALA         0.0277
    140 H65       -15.0585    0.0279   -0.9342 H         1 ALA         0.0277
    141 H66       -14.2103    0.8373    0.4266 H         1 ALA         0.0277
    142 H67       -13.7277   -3.2161    1.5227 H         1 ARG         0.1883
    143 H68       -14.8845   -5.0079   -0.5401 H         1 ARG         0.0800
    144 H69       -13.8721   -6.8006    0.9027 H         1 ARG         0.0313
    145 H70       -13.1666   -5.5152    1.9404 H         1 ARG         0.0313
    146 H71       -11.4511   -6.3037    0.4731 H         1 ARG         0.0301
    147 H72       -11.9419   -4.6695   -0.0883 H         1 ARG         0.0301
    148 H73       -11.6914   -6.2136   -1.9832 H         1 ARG         0.0689
    149 H74       -13.4019   -5.6991   -1.7938 H         1 ARG         0.0689
    150 H75       -12.9078   -8.1420   -0.3094 H         1 ARG         0.2642
    151 H76       -13.9986   -8.5107   -4.2085 H         1 ARG         0.2615
    152 H77       -13.3753   -6.9446   -3.6239 H         1 ARG         0.2615
    153 H78       -13.6911  -10.1156   -1.0645 H         1 ARG         0.2615
    154 H79       -14.1788  -10.2908   -2.7716 H         1 ARG         0.2615
    155 H80       -16.6442   -6.1642   -0.0549 H         1 LYS         0.1854
    156 H81       -18.6548   -6.7188    0.9148 H         1 LYS         0.0553
    157 H82       -19.5349   -5.5166    2.8998 H         1 LYS         0.0252
    158 H83       -18.9801   -4.3860    1.6190 H         1 LYS         0.0252
    159 H84       -17.9639   -4.6633    3.0741 H         1 LYS         0.0252
    160 H85       -18.4879   -7.7442    3.1498 H         1 LYS         0.0287
    161 H86       -16.8747   -6.9901    3.3849 H         1 LYS         0.0287
    162 H87       -16.6626   -9.3571    2.8055 H         1 LYS         0.0268
    163 H88       -15.9788   -8.3160    1.5112 H         1 LYS         0.0268
    164 H89       -18.0807   -8.5940    0.2073 H         1 LYS         0.0317
    165 H90       -18.7126   -9.6833    1.4882 H         1 LYS         0.0317
    166 H91       -16.8199  -11.2299    1.1122 H         1 LYS         0.0813
    167 H92       -16.1770  -10.1381   -0.1611 H         1 LYS         0.0813
    168 H93       -17.4354  -11.9493   -1.0826 H         1 LYS         0.1994
    169 H94       -18.1902  -10.5215   -1.4005 H         1 LYS         0.1994
    170 H95       -18.7794  -11.5220   -0.2337 H         1 LYS         0.1994
@<TRIPOS>BOND
     1    1    2 1  
     2    2    3 1  
     3    2    5 1  
     4    3    4 2  
     5    3    6 am 
     6    6    7 1  
     7    7    8 1  
     8    7   10 1  
     9    8    9 2  
    10    8   17 am 
    11   10   11 1  
    12   11   12 1  
    13   12   13 1  
    14   13   14 ar 
    15   14   15 ar 
    16   14   16 ar 
    17   17   18 1  
    18   18   19 1  
    19   18   21 1  
    20   19   20 2  
    21   19   24 am 
    22   21   22 1  
    23   21   23 1  
    24   24   25 1  
    25   25   26 1  
    26   25   31 1  
    27   26   27 1  
    28   27   28 1  
    29   28   29 1  
    30   29   30 1  
    31   30   33 1  
    32   30   34 1  
    33   30   35 1  
    34   31   32 2  
    35   31   36 am 
    36   36   37 1  
    37   37   38 1  
    38   37   40 1  
    39   38   39 2  
    40   38   45 am 
    41   40   41 1  
    42   41   42 1  
    43   42   43 2  
    44   42   44 am 
    45   45   46 1  
    46   46   47 1  
    47   46   49 1  
    48   47   48 2  
    49   47   52 am 
    50   49   50 1  
    51   49   51 1  
    52   52   53 1  
    53   53   54 1  
    54   53   56 1  
    55   54   55 2  
    56   54   57 am 
    57   57   58 1  
    58   58   59 1  
    59   58   61 1  
    60   59   60 2  
    61   59   68 am 
    62   61   62 1  
    63   62   63 1  
    64   63   64 1  
    65   64   65 ar 
    66   65   66 ar 
    67   65   67 ar 
    68   68   69 1  
    69   69   70 1  
    70   69   71 1  
    71   71   72 1  
    72   72   73 1  
    73   73   74 1  
    74   74   75 1  
    75    1   76 1  
    76    1   77 1  
    77    1   78 1  
    78    2   79 1  
    79    5   80 1  
    80    5   81 1  
    81    5   82 1  
    82    6   83 1  
    83    7   84 1  
    84   10   85 1  
    85   10   86 1  
    86   11   87 1  
    87   11   88 1  
    88   12   89 1  
    89   12   90 1  
    90   13   91 1  
    91   15   92 1  
    92   15   93 1  
    93   16   94 1  
    94   16   95 1  
    95   17   96 1  
    96   18   97 1  
    97   21   98 1  
    98   22   99 1  
    99   23  100 1  
   100   23  101 1  
   101   23  102 1  
   102   24  103 1  
   103   25  104 1  
   104   26  105 1  
   105   26  106 1  
   106   27  107 1  
   107   27  108 1  
   108   28  109 1  
   109   28  110 1  
   110   29  111 1  
   111   29  112 1  
   112   33  113 1  
   113   33  114 1  
   114   33  115 1  
   115   34  116 1  
   116   34  117 1  
   117   34  118 1  
   118   35  119 1  
   119   35  120 1  
   120   35  121 1  
   121   36  122 1  
   122   37  123 1  
   123   40  124 1  
   124   40  125 1  
   125   41  126 1  
   126   41  127 1  
   127   44  128 1  
   128   44  129 1  
   129   45  130 1  
   130   46  131 1  
   131   49  132 1  
   132   50  133 1  
   133   51  134 1  
   134   51  135 1  
   135   51  136 1  
   136   52  137 1  
   137   53  138 1  
   138   56  139 1  
   139   56  140 1  
   140   56  141 1  
   141   57  142 1  
   142   58  143 1  
   143   61  144 1  
   144   61  145 1  
   145   62  146 1  
   146   62  147 1  
   147   63  148 1  
   148   63  149 1  
   149   64  150 1  
   150   66  151 1  
   151   66  152 1  
   152   67  153 1  
   153   67  154 1  
   154   68  155 1  
   155   69  156 1  
   156   70  157 1  
   157   70  158 1  
   158   70  159 1  
   159   71  160 1  
   160   71  161 1  
   161   72  162 1  
   162   72  163 1  
   163   73  164 1  
   164   73  165 1  
   165   74  166 1  
   166   74  167 1  
   167   75  168 1  
   168   75  169 1  
   169   75  170 1  
@<TRIPOS>SUBSTRUCTURE
     1 ALA         1

