2kgi_ligand
  -I-interpret- 

168167  0  0  0  0  0  0  0  0999 V2000
    2.9830   10.2390   -2.9570 N   0  3  0  0  0
    2.7280    8.9560   -3.6650 C   0  0  0  0  0
    1.3040    8.8880   -4.1840 C   0  0  0  0  0
    0.5290    9.8600   -4.1300 O   0  0  0  0  0
    2.9780    7.7500   -2.7540 C   0  0  0  0  0
    0.9780    7.7620   -4.7130 N   0  0  0  0  0
   -0.3270    7.4670   -5.1800 C   0  0  0  0  0
   -0.9500    6.4730   -4.2130 C   0  0  0  0  0
   -0.4580    5.3650   -4.0490 O   0  0  0  0  0
   -0.2140    6.9210   -6.5980 C   0  0  0  0  0
    0.2220    7.9850   -7.6090 C   0  0  0  0  0
    0.7300    7.3830   -8.9150 C   0  0  0  0  0
    2.0690    6.7870   -8.7400 N   0  0  0  0  0
    2.6540    5.9250   -9.5680 C   0  0  0  0  0
    2.0190    5.4650  -10.6330 N   0  0  0  0  0
    3.8810    5.5180   -9.3160 N   0  0  0  0  0
   -1.9730    6.8920   -3.5270 N   0  0  0  0  0
   -2.6030    6.0670   -2.5240 C   0  0  0  0  0
   -3.9910    5.6230   -2.9500 C   0  0  0  0  0
   -4.5140    6.0820   -3.9810 O   0  0  0  0  0
   -2.6740    6.8070   -1.1580 C   0  0  0  0  0
   -3.2940    8.1130   -1.2990 O   0  0  0  0  0
   -1.2850    6.9480   -0.5830 C   0  0  0  0  0
   -4.5750    4.7200   -2.1760 N   0  0  0  0  0
   -5.9360    4.2280   -2.4300 C   0  0  0  0  0
   -5.9670    3.3130   -3.6490 C   0  0  0  0  0
   -5.0520    2.1640   -3.4980 C   0  0  0  0  0
   -4.9210    1.3310   -4.7290 C   0  0  0  0  0
   -6.1710    0.5820   -5.0970 C   0  0  0  0  0
   -5.9730   -0.2440   -6.3570 N   0  3  0  0  0
   -6.4380    3.4620   -1.2440 C   0  0  0  0  0
   -5.6600    3.1080   -0.3470 O   0  0  0  0  0
   -4.8130   -1.1570   -6.2170 C   0  0  0  0  0
   -5.7510    0.6870   -7.5230 C   0  0  0  0  0
   -7.1510   -1.0830   -6.5910 C   0  0  0  0  0
   -7.7140    3.1930   -1.2540 N   0  0  0  0  0
   -8.3510    2.4400   -0.2200 C   0  0  0  0  0
   -9.4170    1.5720   -0.8680 C   0  0  0  0  0
  -10.3550    2.0830   -1.4780 O   0  0  0  0  0
   -8.9660    3.3820    0.8160 C   0  0  0  0  0
   -9.5400    2.6780    2.0340 C   0  0  0  0  0
  -10.1020    3.6510    3.0380 C   0  0  0  0  0
  -11.2910    3.9890    3.0030 O   0  0  0  0  0
   -9.2630    4.1370    3.9070 N   0  0  0  0  0
   -9.2500    0.2820   -0.7730 N   0  0  0  0  0
  -10.1870   -0.6440   -1.3760 C   0  0  0  0  0
  -11.2700   -1.0110   -0.3650 C   0  0  0  0  0
  -10.9550   -1.3830    0.7830 O   0  0  0  0  0
   -9.4600   -1.9240   -1.8460 C   0  0  0  0  0
   -8.7630   -2.4950   -0.7230 O   0  0  0  0  0
   -8.4570   -1.6140   -2.9740 C   0  0  0  0  0
  -12.5160   -0.9110   -0.7750 N   0  0  0  0  0
  -13.6230   -1.2170    0.0970 C   0  0  0  0  0
  -14.2360   -2.5620   -0.2630 C   0  0  0  0  0
  -14.7710   -2.7490   -1.3470 O   0  0  0  0  0
  -14.6710   -0.1020    0.0870 C   0  0  0  0  0
  -14.1470   -3.4730    0.6520 N   0  0  0  0  0
  -14.6060   -4.8240    0.5080 C   0  0  0  0  0
  -15.8060   -5.0680    1.4000 C   0  0  0  0  0
  -15.8820   -4.5360    2.5080 O   0  0  0  0  0
  -13.4800   -5.7730    0.9180 C   0  0  0  0  0
  -12.2630   -5.7160    0.0200 C   0  0  0  0  0
  -12.5840   -6.2810   -1.3440 C   0  0  0  0  0
  -12.9970   -7.6950   -1.2330 N   0  0  0  0  0
  -13.4760   -8.4410   -2.2300 C   0  0  0  0  0
  -13.6280   -7.9270   -3.4450 N   0  0  0  0  0
  -13.8070   -9.7120   -2.0050 N   0  0  0  0  0
  -16.7490   -5.8540    0.8900 N   0  0  0  0  0
  -17.9450   -6.2960    1.6410 C   0  0  0  0  0
  -18.6570   -5.1320    2.3600 C   0  0  0  0  0
  -17.5690   -7.4130    2.6440 C   0  0  0  0  0
  -16.9050   -8.6360    2.0110 C   0  0  0  0  0
  -17.8040   -9.3210    0.9850 C   0  0  0  0  0
  -17.0900  -10.5030    0.3320 C   0  0  0  0  0
  -17.9420  -11.1780   -0.6770 N   0  3  0  0  0
    2.8069   11.0173   -3.5923 H   0  0  0  0  0
    2.3627   10.3099   -2.1504 H   0  0  0  0  0
    3.9536   10.2664   -2.6445 H   0  0  0  0  0
    3.4233    8.9209   -4.5037 H   0  0  0  0  0
    2.2778    7.7756   -1.9191 H   0  0  0  0  0
    2.8343    6.8310   -3.3223 H   0  0  0  0  0
    3.9992    7.7883   -2.3747 H   0  0  0  0  0
    1.6966    7.0435   -4.8010 H   0  0  0  0  0
   -0.9681    8.3477   -5.2183 H   0  0  0  0  0
   -1.1981    6.5596   -6.8965 H   0  0  0  0  0
    0.5405    6.1344   -6.5942 H   0  0  0  0  0
    1.0373    8.5553   -7.1640 H   0  0  0  0  0
   -0.6460    8.6024   -7.8404 H   0  0  0  0  0
    0.7953    8.1744   -9.6617 H   0  0  0  0  0
    0.0389    6.6015   -9.2309 H   0  0  0  0  0
    2.5934    7.0607   -7.9091 H   0  0  0  0  0
    2.4796    4.7992  -11.2534 H   0  0  0  0  0
    1.0686    5.7761  -10.8340 H   0  0  0  0  0
    4.3739    5.8634   -8.4925 H   0  0  0  0  0
   -2.3393    7.8276   -3.7025 H   0  0  0  0  0
   -1.9854    5.1762   -2.4094 H   0  0  0  0  0
   -3.2893    6.2169   -0.4789 H   0  0  0  0  0
   -3.3243    8.5457   -0.4426 H   0  0  0  0  0
   -0.8516    5.9586   -0.4367 H   0  0  0  0  0
   -0.6640    7.5197   -1.2726 H   0  0  0  0  0
   -1.3402    7.4670    0.3739 H   0  0  0  0  0
   -4.0612    4.3531   -1.3749 H   0  0  0  0  0
   -6.5724    5.0936   -2.6137 H   0  0  0  0  0
   -5.6506    3.8901   -4.5178 H   0  0  0  0  0
   -6.9810    2.9298   -3.7632 H   0  0  0  0  0
   -5.4603    1.5246   -2.7154 H   0  0  0  0  0
   -4.0639    2.5637   -3.2699 H   0  0  0  0  0
   -4.1451    0.5900   -4.5366 H   0  0  0  0  0
   -4.6946    2.0067   -5.5538 H   0  0  0  0  0
   -6.9663    1.3048   -5.2788 H   0  0  0  0  0
   -6.4242   -0.0915   -4.2783 H   0  0  0  0  0
   -3.9113   -0.5717   -6.0367 H   0  0  0  0  0
   -4.9830   -1.8325   -5.3786 H   0  0  0  0  0
   -4.6950   -1.7356   -7.1332 H   0  0  0  0  0
   -6.6198    1.3348   -7.6396 H   0  0  0  0  0
   -4.8653    1.2947   -7.3376 H   0  0  0  0  0
   -5.6080    0.1018   -8.4314 H   0  0  0  0  0
   -7.2950   -1.7501   -5.7411 H   0  0  0  0  0
   -8.0295   -0.4487   -6.7096 H   0  0  0  0  0
   -7.0019   -1.6722   -7.4958 H   0  0  0  0  0
   -8.2801    3.5338   -2.0311 H   0  0  0  0  0
   -7.6278    1.8114    0.2996 H   0  0  0  0  0
   -9.7894    3.9036    0.3280 H   0  0  0  0  0
   -8.1692    4.0369    1.1686 H   0  0  0  0  0
   -8.7365    2.1197    2.5143 H   0  0  0  0  0
  -10.3488    2.0275    1.7012 H   0  0  0  0  0
   -9.5790    4.8230    4.5925 H   0  0  0  0  0
   -8.2898    3.8317    3.9023 H   0  0  0  0  0
   -8.4442   -0.0819   -0.2644 H   0  0  0  0  0
  -10.6428   -0.1637   -2.2418 H   0  0  0  0  0
  -10.1969   -2.6259   -2.2365 H   0  0  0  0  0
   -8.3067   -3.2920   -1.0026 H   0  0  0  0  0
   -8.9884   -1.1840   -3.8230 H   0  0  0  0  0
   -7.7131   -0.9043   -2.6121 H   0  0  0  0  0
   -7.9625   -2.5352   -3.2820 H   0  0  0  0  0
  -12.7033   -0.6102   -1.7315 H   0  0  0  0  0
  -13.2387   -1.2851    1.1147 H   0  0  0  0  0
  -14.2132    0.8282    0.4237 H   0  0  0  0  0
  -15.0541    0.0257   -0.9254 H   0  0  0  0  0
  -15.4895   -0.3685    0.7557 H   0  0  0  0  0
  -13.7193   -3.2110    1.5401 H   0  0  0  0  0
  -14.8927   -4.9975   -0.5292 H   0  0  0  0  0
  -13.8762   -6.7867    0.8589 H   0  0  0  0  0
  -13.1573   -5.4770    1.9162 H   0  0  0  0  0
  -11.4642   -6.3066    0.4686 H   0  0  0  0  0
  -11.9537   -4.6767   -0.0913 H   0  0  0  0  0
  -11.6948   -6.2196   -1.9714 H   0  0  0  0  0
  -13.4001   -5.7067   -1.7825 H   0  0  0  0  0
  -12.9086   -8.1377   -0.3183 H   0  0  0  0  0
  -13.3778   -6.9542   -3.6222 H   0  0  0  0  0
  -14.1751  -10.2852   -2.7641 H   0  0  0  0  0
  -13.6922  -10.1117   -1.0736 H   0  0  0  0  0
  -16.6421   -6.1704   -0.0738 H   0  0  0  0  0
  -18.6522   -6.6938    0.9132 H   0  0  0  0  0
  -17.9692   -4.6684    3.0672 H   0  0  0  0  0
  -18.9766   -4.3935    1.6247 H   0  0  0  0  0
  -19.5266   -5.5143    2.8945 H   0  0  0  0  0
  -18.4966   -7.7553    3.1029 H   0  0  0  0  0
  -16.8500   -6.9855    3.3429 H   0  0  0  0  0
  -16.6922   -9.3525    2.8044 H   0  0  0  0  0
  -16.0025   -8.3023    1.4989 H   0  0  0  0  0
  -18.0636   -8.5989    0.2109 H   0  0  0  0  0
  -18.6958   -9.6888    1.4925 H   0  0  0  0  0
  -16.8456  -11.2259    1.1103 H   0  0  0  0  0
  -16.1987  -10.1275   -0.1707 H   0  0  0  0  0
  -17.4284  -11.9582   -1.0867 H   0  0  0  0  0
  -18.7890  -11.5256   -0.2273 H   0  0  0  0  0
  -18.1925  -10.5128   -1.4085 H   0  0  0  0  0
  1  2  1  0  0  0
  2  3  1  0  0  0
  2  5  1  0  0  0
  3  4  2  0  0  0
  3  6  1  0  0  0
  6  7  1  0  0  0
  7  8  1  0  0  0
  7 10  1  0  0  0
  8  9  2  0  0  0
  8 17  1  0  0  0
 10 11  1  0  0  0
 11 12  1  0  0  0
 12 13  1  0  0  0
 13 14  1  0  0  0
 14 15  1  0  0  0
 14 16  2  0  0  0
 17 18  1  0  0  0
 18 19  1  0  0  0
 18 21  1  0  0  0
 19 20  2  0  0  0
 19 24  1  0  0  0
 21 22  1  0  0  0
 21 23  1  0  0  0
 24 25  1  0  0  0
 25 26  1  0  0  0
 25 31  1  0  0  0
 26 27  1  0  0  0
 27 28  1  0  0  0
 28 29  1  0  0  0
 29 30  1  0  0  0
 30 33  1  0  0  0
 30 34  1  0  0  0
 30 35  1  0  0  0
 31 32  2  0  0  0
 31 36  1  0  0  0
 36 37  1  0  0  0
 37 38  1  0  0  0
 37 40  1  0  0  0
 38 39  2  0  0  0
 38 45  1  0  0  0
 40 41  1  0  0  0
 41 42  1  0  0  0
 42 43  2  0  0  0
 42 44  1  0  0  0
 45 46  1  0  0  0
 46 47  1  0  0  0
 46 49  1  0  0  0
 47 48  2  0  0  0
 47 52  1  0  0  0
 49 50  1  0  0  0
 49 51  1  0  0  0
 52 53  1  0  0  0
 53 54  1  0  0  0
 53 56  1  0  0  0
 54 55  2  0  0  0
 54 57  1  0  0  0
 57 58  1  0  0  0
 58 59  1  0  0  0
 58 61  1  0  0  0
 59 60  2  0  0  0
 59 68  1  0  0  0
 61 62  1  0  0  0
 62 63  1  0  0  0
 63 64  1  0  0  0
 64 65  1  0  0  0
 65 66  2  0  0  0
 65 67  1  0  0  0
 68 69  1  0  0  0
 69 70  1  0  0  0
 69 71  1  0  0  0
 71 72  1  0  0  0
 72 73  1  0  0  0
 73 74  1  0  0  0
 74 75  1  0  0  0
  1 76  1  0  0  0
  1 77  1  0  0  0
  1 78  1  0  0  0
  2 79  1  0  0  0
  5 80  1  0  0  0
  5 81  1  0  0  0
  5 82  1  0  0  0
  6 83  1  0  0  0
  7 84  1  0  0  0
 10 85  1  0  0  0
 10 86  1  0  0  0
 11 87  1  0  0  0
 11 88  1  0  0  0
 12 89  1  0  0  0
 12 90  1  0  0  0
 13 91  1  0  0  0
 15 92  1  0  0  0
 15 93  1  0  0  0
 16 94  1  0  0  0
 17 95  1  0  0  0
 18 96  1  0  0  0
 21 97  1  0  0  0
 22 98  1  0  0  0
 23 99  1  0  0  0
 23100  1  0  0  0
 23101  1  0  0  0
 24102  1  0  0  0
 25103  1  0  0  0
 26104  1  0  0  0
 26105  1  0  0  0
 27106  1  0  0  0
 27107  1  0  0  0
 28108  1  0  0  0
 28109  1  0  0  0
 29110  1  0  0  0
 29111  1  0  0  0
 33112  1  0  0  0
 33113  1  0  0  0
 33114  1  0  0  0
 34115  1  0  0  0
 34116  1  0  0  0
 34117  1  0  0  0
 35118  1  0  0  0
 35119  1  0  0  0
 35120  1  0  0  0
 36121  1  0  0  0
 37122  1  0  0  0
 40123  1  0  0  0
 40124  1  0  0  0
 41125  1  0  0  0
 41126  1  0  0  0
 44127  1  0  0  0
 44128  1  0  0  0
 45129  1  0  0  0
 46130  1  0  0  0
 49131  1  0  0  0
 50132  1  0  0  0
 51133  1  0  0  0
 51134  1  0  0  0
 51135  1  0  0  0
 52136  1  0  0  0
 53137  1  0  0  0
 56138  1  0  0  0
 56139  1  0  0  0
 56140  1  0  0  0
 57141  1  0  0  0
 58142  1  0  0  0
 61143  1  0  0  0
 61144  1  0  0  0
 62145  1  0  0  0
 62146  1  0  0  0
 63147  1  0  0  0
 63148  1  0  0  0
 64149  1  0  0  0
 66150  1  0  0  0
 67151  1  0  0  0
 67152  1  0  0  0
 68153  1  0  0  0
 69154  1  0  0  0
 70155  1  0  0  0
 70156  1  0  0  0
 70157  1  0  0  0
 71158  1  0  0  0
 71159  1  0  0  0
 72160  1  0  0  0
 72161  1  0  0  0
 73162  1  0  0  0
 73163  1  0  0  0
 74164  1  0  0  0
 74165  1  0  0  0
 75166  1  0  0  0
 75167  1  0  0  0
 75168  1  0  0  0
M  END
$$$$
