3iu9_ligand
  -I-interpret- 

 23 24  0  0  0  0  0  0  0  0999 V2000
  -10.8170   43.8280   -4.3810 S   0  0  0  0  0
   -9.9410   49.1270   -3.9830 C   0  0  0  0  0
   -8.1450   43.8390   -3.7660 N   0  0  0  0  0
   -7.7360   46.7360   -6.2830 Cl  0  0  0  0  0
   -9.0700   47.3530   -5.2420 C   0  0  0  0  0
   -8.1860   43.7230   -1.5830 N   0  0  0  0  0
   -9.7920   50.7880   -3.4710 Cl  0  0  0  0  0
  -10.0750   46.5420   -4.8600 C   0  0  0  0  0
   -6.0240   43.8800   -2.5770 N   0  0  0  0  0
  -10.1840   45.1440   -5.4510 C   0  0  0  0  0
   -9.5310   43.6660   -1.9910 N   0  0  0  0  0
   -8.9170   48.6720   -4.8090 C   0  0  0  0  0
  -10.9780   47.0060   -3.8940 C   0  0  0  0  0
  -10.8740   48.2940   -3.4900 C   0  0  0  0  0
   -7.3950   43.8240   -2.6410 C   0  0  0  0  0
   -9.4170   43.7770   -3.3170 C   0  0  0  0  0
   -5.4754   43.9394   -3.4349 H   0  0  0  0  0
   -5.5546   43.8622   -1.6716 H   0  0  0  0  0
  -10.9008   45.2269   -6.2680 H   0  0  0  0  0
   -9.1642   44.8521   -5.7016 H   0  0  0  0  0
   -8.0675   49.2927   -5.0938 H   0  0  0  0  0
  -11.7424   46.3486   -3.4797 H   0  0  0  0  0
  -11.5703   48.6683   -2.7396 H   0  0  0  0  0
 10  1  1  0  0  0
  1 16  1  0  0  0
  2  7  1  0  0  0
 12  2  4  0  0  0
  2 14  4  0  0  0
  3 15  4  0  0  0
 16  3  4  0  0  0
  5  4  1  0  0  0
  8  5  4  0  0  0
  5 12  4  0  0  0
  6 11  4  0  0  0
 15  6  4  0  0  0
  8 10  1  0  0  0
  8 13  4  0  0  0
 15  9  1  0  0  0
 11 16  4  0  0  0
 13 14  4  0  0  0
  9 17  1  0  0  0
  9 18  1  0  0  0
 10 19  1  0  0  0
 10 20  1  0  0  0
 12 21  1  0  0  0
 13 22  1  0  0  0
 14 23  1  0  0  0
M  END
$$$$
