3v5l_ligand
  -I-interpret- 

 54 58  0  0  0  0  0  0  0  0999 V2000
   14.0830    8.7330    0.4150 C   0  0  0  0  0
   13.0540    9.1270    1.3270 O   0  0  0  0  0
   11.9110    8.4330    1.0720 C   0  0  0  0  0
   11.7370    7.1520    1.5980 C   0  0  0  0  0
   10.5550    6.4540    1.3510 C   0  0  0  0  0
   10.9080    9.0040    0.2900 C   0  0  0  0  0
    9.7290    8.3000    0.0350 C   0  0  0  0  0
    9.5660    7.0090    0.5360 C   0  0  0  0  0
    8.3890    6.3000    0.3150 C   0  0  0  0  0
    7.2280    6.5520    1.0330 C   0  0  0  0  0
    6.8620    7.5220    1.9710 C   0  0  0  0  0
    5.5670    7.5210    2.4970 C   0  0  0  0  0
    4.6410    6.5460    2.1050 C   0  0  0  0  0
    3.2120    6.5460    2.6950 C   0  0  0  0  0
    3.2760    6.7070    4.2180 C   0  0  0  0  0
    4.0250    5.5430    4.8760 C   0  0  0  0  0
    2.4140    7.7140    2.1080 C   0  0  0  0  0
    2.0640    7.4790    0.6360 C   0  0  0  0  0
    2.5320    5.3190    2.4010 O   0  0  0  0  0
    5.0230    5.5730    1.1760 C   0  0  0  0  0
    6.3090    5.5840    0.6330 C   0  0  0  0  0
    6.9070    4.7780   -0.2400 N   0  0  0  0  0
    8.1770    5.1410   -0.4440 C   0  0  0  0  0
    9.0170    4.4830   -1.3600 C   0  0  0  0  0
   10.2630    4.8540   -1.8620 C   0  0  0  0  0
   11.5770    5.9160   -1.8420 S   0  0  0  0  0
   12.5140    5.1070   -2.9870 C   0  0  0  0  0
   11.8110    4.0290   -3.3620 C   0  0  0  0  0
   10.6080    3.8480   -2.7710 C   0  0  0  0  0
    9.5780    2.9980   -2.7760 N   0  0  0  0  0
    8.6830    3.3640   -2.0070 N   0  0  0  0  0
   14.2787    7.6667    0.5286 H   0  0  0  0  0
   13.7600    8.9377   -0.6057 H   0  0  0  0  0
   14.9918    9.2953    0.6296 H   0  0  0  0  0
   12.5235    6.6978    2.2008 H   0  0  0  0  0
   10.4025    5.4708    1.7961 H   0  0  0  0  0
   11.0444   10.0032   -0.1238 H   0  0  0  0  0
    8.9365    8.7597   -0.5555 H   0  0  0  0  0
    7.5826    8.2749    2.2904 H   0  0  0  0  0
    5.2755    8.2849    3.2178 H   0  0  0  0  0
    2.2575    6.7251    4.6060 H   0  0  0  0  0
    3.8073    7.6313    4.4451 H   0  0  0  0  0
    3.5125    4.6082    4.6489 H   0  0  0  0  0
    5.0436    5.5035    4.4900 H   0  0  0  0  0
    4.0497    5.6924    5.9554 H   0  0  0  0  0
    3.0240    8.6148    2.1760 H   0  0  0  0  0
    1.4852    7.8118    2.6701 H   0  0  0  0  0
    2.9819    7.3661    0.0592 H   0  0  0  0  0
    1.4635    6.5737    0.5467 H   0  0  0  0  0
    1.4982    8.3305    0.2580 H   0  0  0  0  0
    1.6494    5.3454    2.7778 H   0  0  0  0  0
    4.3134    4.8025    0.8745 H   0  0  0  0  0
   13.4981    5.4026   -3.3508 H   0  0  0  0  0
   12.1910    3.3311   -4.1081 H   0  0  0  0  0
  1  2  1  0  0  0
  2  3  1  0  0  0
  3  4  4  0  0  0
  3  6  4  0  0  0
  4  5  4  0  0  0
  5  8  4  0  0  0
  6  7  4  0  0  0
  7  8  4  0  0  0
  8  9  1  0  0  0
  9 10  4  0  0  0
  9 23  4  0  0  0
 10 11  4  0  0  0
 10 21  4  0  0  0
 11 12  4  0  0  0
 12 13  4  0  0  0
 13 14  1  0  0  0
 13 20  4  0  0  0
 14 15  1  0  0  0
 14 17  1  0  0  0
 14 19  1  0  0  0
 15 16  1  0  0  0
 17 18  1  0  0  0
 20 21  4  0  0  0
 21 22  4  0  0  0
 22 23  4  0  0  0
 23 24  1  0  0  0
 24 25  4  0  0  0
 24 31  4  0  0  0
 25 26  4  0  0  0
 25 29  4  0  0  0
 26 27  4  0  0  0
 27 28  4  0  0  0
 28 29  4  0  0  0
 29 30  4  0  0  0
 30 31  4  0  0  0
  1 32  1  0  0  0
  1 33  1  0  0  0
  1 34  1  0  0  0
  4 35  1  0  0  0
  5 36  1  0  0  0
  6 37  1  0  0  0
  7 38  1  0  0  0
 11 39  1  0  0  0
 12 40  1  0  0  0
 15 41  1  0  0  0
 15 42  1  0  0  0
 16 43  1  0  0  0
 16 44  1  0  0  0
 16 45  1  0  0  0
 17 46  1  0  0  0
 17 47  1  0  0  0
 18 48  1  0  0  0
 18 49  1  0  0  0
 18 50  1  0  0  0
 19 51  1  0  0  0
 20 52  1  0  0  0
 27 53  1  0  0  0
 28 54  1  0  0  0
M  END
$$$$
