4p6g_ligand
  -I-interpret- 

 65 69  0  0  0  0  0  0  0  0999 V2000
   30.1910  -21.1030   16.7500 C   0  0  0  0  0
   27.7010  -15.9610   19.6570 C   0  0  0  0  0
   26.5050  -16.1290   17.1230 C   0  0  0  0  0
   26.3400  -14.9740   17.9230 C   0  0  0  0  0
   30.0150  -23.7790   17.5740 C   0  0  0  0  0
   31.2650  -23.2180   17.3410 C   0  0  0  0  0
   27.8780  -17.0950   18.8660 C   0  0  0  0  0
   27.3000  -17.1700   17.5900 C   0  0  0  0  0
   28.9150  -21.6610   16.9940 C   0  0  0  0  0
   31.3480  -21.8750   16.9530 C   0  0  0  0  0
   28.8430  -23.0150   17.3720 C   0  0  0  0  0
   26.9510  -14.9000   19.1750 C   0  0  0  0  0
   27.4410  -18.4130   16.7530 C   0  0  0  0  0
   24.4970  -20.1800   16.9690 C   0  0  0  0  0
   32.7550  -20.1040   15.9580 C   0  0  0  0  0
   33.6130  -21.5290   17.7850 C   0  0  0  0  0
   34.1970  -19.9170   15.4970 C   0  0  0  0  0
   35.0370  -21.3640   17.2350 C   0  0  0  0  0
   37.5800  -19.7320   17.1060 C   0  0  0  0  0
   36.8520  -18.4590   15.6210 C   0  0  0  0  0
   26.5350  -23.0690   16.8910 C   0  0  0  0  0
   27.6560  -20.8490   16.7880 C   0  0  0  0  0
   36.5290  -19.9090   15.9990 C   0  0  0  0  0
   26.3720  -21.6030   17.2150 C   0  0  0  0  0
   22.5490  -18.7980   16.4450 C   0  0  0  0  0
   32.6300  -21.3460   16.7050 N   0  0  0  0  0
   35.1780  -20.0420   16.5910 N   0  3  0  0  0
   27.6300  -19.5640   17.4680 N   0  0  0  0  0
   23.5890  -19.7180   16.0510 N   0  0  0  0  0
   27.3780  -18.3900   15.5280 O   0  0  0  0  0
   24.5260  -19.8690   18.1570 O   0  0  0  0  0
   27.6470  -23.6430   17.6270 O   0  0  0  0  0
   37.8830  -18.3850   16.6570 O   0  0  0  0  0
   25.3340  -21.0920   16.3690 O   0  0  0  0  0
   26.7780  -13.8130   19.9480 F   0  0  0  0  0
   30.2776  -20.0730   16.4041 H   0  0  0  0  0
   28.1499  -15.9090   20.6489 H   0  0  0  0  0
   26.0149  -16.2021   16.1522 H   0  0  0  0  0
   25.7357  -14.1421   17.5613 H   0  0  0  0  0
   29.9381  -24.8118   17.9137 H   0  0  0  0  0
   32.1690  -23.8156   17.4587 H   0  0  0  0  0
   28.4699  -17.9296   19.2417 H   0  0  0  0  0
   32.1014  -20.1418   15.0865 H   0  0  0  0  0
   32.4719  -19.2692   16.5992 H   0  0  0  0  0
   33.4389  -20.7806   18.5581 H   0  0  0  0  0
   33.5042  -22.5301   18.2022 H   0  0  0  0  0
   34.2850  -18.9104   15.0881 H   0  0  0  0  0
   34.4144  -20.6975   14.7679 H   0  0  0  0  0
   35.2306  -22.1445   16.4992 H   0  0  0  0  0
   35.7503  -21.4418   18.0555 H   0  0  0  0  0
   38.3890  -20.4576   17.1902 H   0  0  0  0  0
   37.2890  -19.8921   18.1442 H   0  0  0  0  0
   36.0514  -17.7194   15.6118 H   0  0  0  0  0
   37.1144  -18.2226   14.5898 H   0  0  0  0  0
   26.7312  -23.1719   15.8238 H   0  0  0  0  0
   25.6215  -23.5932   17.1718 H   0  0  0  0  0
   27.6734  -20.6777   15.7117 H   0  0  0  0  0
   36.5437  -20.7194   15.2702 H   0  0  0  0  0
   26.1629  -21.4777   18.2774 H   0  0  0  0  0
   21.9280  -19.2606   17.2121 H   0  0  0  0  0
   23.0010  -17.8887   16.8412 H   0  0  0  0  0
   21.9354  -18.5524   15.5782 H   0  0  0  0  0
   35.0264  -19.3214   17.2968 H   0  0  0  0  0
   27.7529  -19.5207   18.4796 H   0  0  0  0  0
   23.6492  -20.0274   15.0809 H   0  0  0  0  0
  9  1  4  0  0  0
  1 10  4  0  0  0
  7  2  4  0  0  0
  2 12  4  0  0  0
  3  4  4  0  0  0
  8  3  4  0  0  0
  4 12  4  0  0  0
  5  6  4  0  0  0
 11  5  4  0  0  0
 10  6  4  0  0  0
  8  7  4  0  0  0
 13  8  1  0  0  0
  9 11  4  0  0  0
 22  9  1  0  0  0
 10 26  1  0  0  0
 32 11  1  0  0  0
 12 35  1  0  0  0
 28 13  1  0  0  0
 13 30  2  0  0  0
 14 29  1  0  0  0
 14 31  2  0  0  0
 34 14  1  0  0  0
 15 17  1  0  0  0
 26 15  1  0  0  0
 16 18  1  0  0  0
 26 16  1  0  0  0
 17 27  1  0  0  0
 18 27  1  0  0  0
 23 19  1  0  0  0
 19 33  1  0  0  0
 23 20  1  0  0  0
 20 33  1  0  0  0
 24 21  1  0  0  0
 21 32  1  0  0  0
 24 22  1  0  0  0
 22 28  1  0  0  0
 27 23  1  0  0  0
 24 34  1  0  0  0
 29 25  1  0  0  0
  1 36  1  0  0  0
  2 37  1  0  0  0
  3 38  1  0  0  0
  4 39  1  0  0  0
  5 40  1  0  0  0
  6 41  1  0  0  0
  7 42  1  0  0  0
 15 43  1  0  0  0
 15 44  1  0  0  0
 16 45  1  0  0  0
 16 46  1  0  0  0
 17 47  1  0  0  0
 17 48  1  0  0  0
 18 49  1  0  0  0
 18 50  1  0  0  0
 19 51  1  0  0  0
 19 52  1  0  0  0
 20 53  1  0  0  0
 20 54  1  0  0  0
 21 55  1  0  0  0
 21 56  1  0  0  0
 22 57  1  0  0  0
 23 58  1  0  0  0
 24 59  1  0  0  0
 25 60  1  0  0  0
 25 61  1  0  0  0
 25 62  1  0  0  0
 27 63  1  0  0  0
 28 64  1  0  0  0
 29 65  1  0  0  0
M  END
$$$$
