5hg5_ligand
  -I-interpret- 

 64 68  0  0  0  0  0  0  0  0999 V2000
    9.9940   -3.9270  -33.5490 C   0  0  0  0  0
    9.6930   -2.5670  -33.7210 C   0  0  0  0  0
    7.7810   -3.7080  -33.8050 C   0  0  0  0  0
   15.4690   -5.9140  -33.2480 C   0  0  0  0  0
   14.6320   -6.1360  -30.9230 C   0  0  0  0  0
   16.3680   -6.2510  -26.2710 C   0  0  0  0  0
   15.0140   -2.0660  -33.0950 C   0  0  0  0  0
   17.1420   -0.7710  -32.9700 C   0  0  0  0  0
   14.9510    0.3380  -33.4550 C   0  0  0  0  0
   11.8750   -1.8980  -33.5570 C   0  0  0  0  0
   12.2600   -3.1940  -33.3770 N   0  0  0  0  0
   11.3520   -4.2230  -33.3720 C   0  0  0  0  0
   10.5700   -1.5220  -33.7380 N   0  0  0  0  0
    8.3440   -2.4580  -33.8730 N   0  0  0  0  0
    8.7790   -4.6390  -33.6060 C   0  0  0  0  0
   11.7660   -5.5440  -33.1930 O   0  0  0  0  0
   13.0690   -5.7340  -32.7800 C   0  0  0  0  0
   14.1450   -5.7190  -33.7120 C   0  0  0  0  0
   15.7170   -6.1210  -31.8600 C   0  0  0  0  0
   13.3100   -5.9420  -31.3980 C   0  0  0  0  0
   14.7590   -6.3310  -29.5160 N   0  0  0  0  0
   15.9030   -6.5230  -28.7630 C   0  0  0  0  0
   15.5690   -6.9660  -27.3490 C   0  0  0  0  0
   17.0680   -6.3600  -29.1270 O   0  0  0  0  0
   12.8450   -0.8770  -33.5590 N   0  0  0  0  0
   14.2480   -0.8940  -33.3740 C   0  0  0  0  0
   16.4210   -2.0120  -32.8960 C   0  0  0  0  0
   16.3570    0.4030  -33.2620 C   0  0  0  0  0
   18.5590   -0.6440  -32.7680 N   0  0  0  0  0
   19.3740   -1.8980  -32.7630 C   0  0  0  0  0
   20.8670   -1.5690  -32.6530 C   0  0  0  0  0
   21.1110   -0.7350  -31.4070 N   0  3  0  0  0
   20.2870    0.5350  -31.3980 C   0  0  0  0  0
   18.8070    0.1720  -31.5230 C   0  0  0  0  0
   22.5710   -0.4000  -31.2780 C   0  0  0  0  0
    6.7174   -3.9291  -33.8939 H   0  0  0  0  0
   16.2996   -5.9057  -33.9538 H   0  0  0  0  0
   17.4309   -6.4377  -26.4243 H   0  0  0  0  0
   16.1741   -5.1798  -26.3271 H   0  0  0  0  0
   16.0698   -6.6247  -25.2915 H   0  0  0  0  0
   14.5064   -3.0286  -33.0328 H   0  0  0  0  0
   14.3995    1.2533  -33.6699 H   0  0  0  0  0
    8.6524   -5.7175  -33.5111 H   0  0  0  0  0
   13.9518   -5.5590  -34.7727 H   0  0  0  0  0
   16.7381   -6.2689  -31.5085 H   0  0  0  0  0
   12.4750   -5.9528  -30.6975 H   0  0  0  0  0
   13.8840   -6.3285  -28.9919 H   0  0  0  0  0
   14.5175   -6.7354  -27.1781 H   0  0  0  0  0
   15.8081   -8.0271  -27.2780 H   0  0  0  0  0
   12.4628    0.0539  -33.7259 H   0  0  0  0  0
   16.9647   -2.9323  -32.6826 H   0  0  0  0  0
   16.8571    1.3686  -33.3368 H   0  0  0  0  0
   19.1984   -2.4376  -33.6936 H   0  0  0  0  0
   19.0819   -2.5062  -31.9070 H   0  0  0  0  0
   21.1813   -1.0080  -33.5331 H   0  0  0  0  0
   21.4393   -2.4944  -32.5887 H   0  0  0  0  0
   20.8190   -1.2975  -30.6078 H   0  0  0  0  0
   20.5810    1.1688  -32.2346 H   0  0  0  0  0
   20.4548    1.0744  -30.4658 H   0  0  0  0  0
   18.5146   -0.4161  -30.6531 H   0  0  0  0  0
   18.2235    1.0907  -31.5828 H   0  0  0  0  0
   23.1491   -1.3214  -31.2079 H   0  0  0  0  0
   22.8913    0.1657  -32.1529 H   0  0  0  0  0
   22.7274    0.1977  -30.3800 H   0  0  0  0  0
  2  1  4  0  0  0
 12  1  4  0  0  0
  1 15  4  0  0  0
 13  2  4  0  0  0
  2 14  4  0  0  0
 14  3  4  0  0  0
  3 15  4  0  0  0
 18  4  4  0  0  0
  4 19  4  0  0  0
  5 19  4  0  0  0
 20  5  4  0  0  0
  5 21  1  0  0  0
 23  6  1  0  0  0
 26  7  4  0  0  0
  7 27  4  0  0  0
 27  8  4  0  0  0
 28  8  4  0  0  0
  8 29  1  0  0  0
 26  9  4  0  0  0
  9 28  4  0  0  0
 10 11  4  0  0  0
 10 13  4  0  0  0
 25 10  1  0  0  0
 11 12  4  0  0  0
 12 16  1  0  0  0
 16 17  1  0  0  0
 17 18  4  0  0  0
 17 20  4  0  0  0
 21 22  1  0  0  0
 22 23  1  0  0  0
 22 24  2  0  0  0
 25 26  1  0  0  0
 29 30  1  0  0  0
 29 34  1  0  0  0
 30 31  1  0  0  0
 31 32  1  0  0  0
 32 33  1  0  0  0
 32 35  1  0  0  0
 33 34  1  0  0  0
  3 36  1  0  0  0
  4 37  1  0  0  0
  6 38  1  0  0  0
  6 39  1  0  0  0
  6 40  1  0  0  0
  7 41  1  0  0  0
  9 42  1  0  0  0
 15 43  1  0  0  0
 18 44  1  0  0  0
 19 45  1  0  0  0
 20 46  1  0  0  0
 21 47  1  0  0  0
 23 48  1  0  0  0
 23 49  1  0  0  0
 25 50  1  0  0  0
 27 51  1  0  0  0
 28 52  1  0  0  0
 30 53  1  0  0  0
 30 54  1  0  0  0
 31 55  1  0  0  0
 31 56  1  0  0  0
 32 57  1  0  0  0
 33 58  1  0  0  0
 33 59  1  0  0  0
 34 60  1  0  0  0
 34 61  1  0  0  0
 35 62  1  0  0  0
 35 63  1  0  0  0
 35 64  1  0  0  0
M  END
$$$$
