5qat_ligand
  -I-interpret- 

 34 35  0  0  0  0  0  0  0  0999 V2000
    5.5020   43.3560  140.3670 C   0  0  0  0  0
    6.8920   43.3150  138.4230 O   0  0  0  0  0
    6.2250   42.7340  139.2280 C   0  0  0  0  0
    7.6050   36.5850  141.9920 C   0  0  0  0  0
    7.2340   35.7480  143.0290 C   0  0  0  0  0
    7.4740   36.1160  144.3390 C   0  0  0  0  0
    8.4590   38.1680  143.5760 C   0  0  0  0  0
    8.0850   37.3310  144.6230 C   0  0  0  0  0
    8.3300   37.7490  146.0510 C   0  0  0  0  0
    6.9390   40.6450  138.3420 C   0  0  0  0  0
    8.0110   40.0400  139.1990 C   0  0  0  0  0
    7.6630   39.2500  140.2870 C   0  0  0  0  0
    8.6260   38.7040  141.1350 C   0  0  0  0  0
    9.9660   38.9800  140.8740 C   0  0  0  0  0
   10.3250   39.7580  139.7880 C   0  0  0  0  0
    9.3520   40.2810  138.9550 C   0  0  0  0  0
    8.2260   37.8070  142.2480 C   0  0  0  0  0
    6.0670   41.4060  139.2200 O   0  0  0  0  0
    7.7860   37.0750  146.9600 O   0  0  0  0  0
    9.0610   38.7470  146.2460 O   0  0  0  0  0
    6.2166   43.8604  141.0174 H   0  0  0  0  0
    4.7813   44.0798  139.9865 H   0  0  0  0  0
    4.9795   42.5826  140.9299 H   0  0  0  0  0
    7.4095   36.2857  140.9623 H   0  0  0  0  0
    6.7509   34.7953  142.8120 H   0  0  0  0  0
    7.1831   35.4510  145.1522 H   0  0  0  0  0
    8.9414   39.1203  143.7964 H   0  0  0  0  0
    6.3781   39.8680  137.8226 H   0  0  0  0  0
    7.3751   41.2907  137.5798 H   0  0  0  0  0
    6.6093   39.0515  140.4832 H   0  0  0  0  0
   10.7382   38.5796  141.5309 H   0  0  0  0  0
   11.3774   39.9596  139.5880 H   0  0  0  0  0
    9.6442   40.8886  138.0985 H   0  0  0  0  0
    7.2764   36.3625  146.5672 H   0  0  0  0  0
  3  1  1  0  0  0
  3  2  2  0  0  0
 18  3  1  0  0  0
  4  5  4  0  0  0
 17  4  4  0  0  0
  5  6  4  0  0  0
  8  6  4  0  0  0
  7  8  4  0  0  0
 17  7  4  0  0  0
  8  9  1  0  0  0
  9 19  1  0  0  0
  9 20  2  0  0  0
 11 10  1  0  0  0
 10 18  1  0  0  0
 12 11  4  0  0  0
 11 16  4  0  0  0
 13 12  4  0  0  0
 13 14  4  0  0  0
 13 17  1  0  0  0
 14 15  4  0  0  0
 15 16  4  0  0  0
  1 21  1  0  0  0
  1 22  1  0  0  0
  1 23  1  0  0  0
  4 24  1  0  0  0
  5 25  1  0  0  0
  6 26  1  0  0  0
  7 27  1  0  0  0
 10 28  1  0  0  0
 10 29  1  0  0  0
 12 30  1  0  0  0
 14 31  1  0  0  0
 15 32  1  0  0  0
 16 33  1  0  0  0
 19 34  1  0  0  0
M  END
$$$$
