4e8w_ligand
  -I-interpret- 

 51 54  0  0  0  0  0  0  0  0999 V2000
   13.1860  -41.6630  -22.5900 O   0  0  0  0  0
   13.4870  -40.5200  -23.0010 C   0  0  0  0  0
   12.6570  -39.5930  -23.1230 O   0  0  0  0  0
   14.9190  -40.2340  -23.3820 C   0  0  0  0  0
   15.0940  -38.8210  -23.4080 O   0  0  0  0  0
   16.1970  -38.2720  -23.9930 C   0  0  0  0  0
   17.0250  -39.0580  -24.7900 C   0  0  0  0  0
   16.4660  -36.9250  -23.7860 C   0  0  0  0  0
   17.5810  -36.3520  -24.3730 C   0  0  0  0  0
   18.3970  -37.1510  -25.1610 C   0  0  0  0  0
   18.1470  -38.4970  -25.3880 C   0  0  0  0  0
   19.1210  -39.0220  -26.2040 N   0  0  0  0  0
   19.7210  -36.6040  -25.9050 S   0  0  0  0  0
   20.0620  -38.1020  -26.5690 C   0  0  0  0  0
   21.3090  -38.1320  -27.4240 C   0  0  0  0  0
   22.2430  -39.1050  -26.8930 N   0  0  0  0  0
   22.6150  -39.0190  -25.6010 C   0  0  0  0  0
   23.5630  -38.1520  -25.1970 N   0  0  0  0  0
   23.9200  -38.0940  -23.8470 N   0  0  0  0  0
   23.3240  -38.9030  -22.9590 C   0  0  0  0  0
   22.0210  -39.8330  -24.7110 N   0  0  0  0  0
   22.3500  -39.7910  -23.4080 C   0  0  0  0  0
   21.6390  -40.7080  -22.4900 C   0  0  0  0  0
   22.1900  -41.9300  -22.1770 C   0  0  0  0  0
   23.4030  -42.2820  -22.7360 O   0  0  0  0  0
   24.4970  -42.7410  -21.9200 C   0  0  0  0  0
   20.4240  -40.3380  -21.9630 C   0  0  0  0  0
   19.9000  -39.1140  -22.2900 O   0  0  0  0  0
   18.7490  -38.6060  -21.6020 C   0  0  0  0  0
   19.7460  -41.1980  -21.1080 C   0  0  0  0  0
   20.2950  -42.4340  -20.7880 C   0  0  0  0  0
   21.5180  -42.8050  -21.3290 C   0  0  0  0  0
   13.9721  -42.2138  -22.5752 H   0  0  0  0  0
   15.1401  -40.6588  -24.3612 H   0  0  0  0  0
   15.5983  -40.6842  -22.6581 H   0  0  0  0  0
   16.7935  -40.1118  -24.9447 H   0  0  0  0  0
   15.8029  -36.3227  -23.1649 H   0  0  0  0  0
   17.8125  -35.2979  -24.2198 H   0  0  0  0  0
   21.7735  -37.1459  -27.4197 H   0  0  0  0  0
   21.0410  -38.4080  -28.4438 H   0  0  0  0  0
   22.6136  -39.8448  -27.4895 H   0  0  0  0  0
   23.5972  -38.8661  -21.9044 H   0  0  0  0  0
   24.7659  -41.9639  -21.2045 H   0  0  0  0  0
   24.1963  -43.6414  -21.3844 H   0  0  0  0  0
   25.3540  -42.9639  -22.5555 H   0  0  0  0  0
   17.9125  -39.2908  -21.7412 H   0  0  0  0  0
   18.9732  -38.5156  -20.5391 H   0  0  0  0  0
   18.4895  -37.6268  -22.0045 H   0  0  0  0  0
   18.7841  -40.9035  -20.6884 H   0  0  0  0  0
   19.7671  -43.1094  -20.1147 H   0  0  0  0  0
   21.9500  -43.7770  -21.0908 H   0  0  0  0  0
  1  2  1  0  0  0
  2  3  2  0  0  0
  2  4  1  0  0  0
  4  5  1  0  0  0
  5  6  1  0  0  0
  6  7  4  0  0  0
  6  8  4  0  0  0
  7 11  4  0  0  0
  8  9  4  0  0  0
  9 10  4  0  0  0
 10 11  4  0  0  0
 10 13  4  0  0  0
 11 12  4  0  0  0
 12 14  4  0  0  0
 13 14  4  0  0  0
 14 15  1  0  0  0
 15 16  1  0  0  0
 16 17  1  0  0  0
 17 18  4  0  0  0
 17 21  4  0  0  0
 18 19  4  0  0  0
 19 20  4  0  0  0
 20 22  4  0  0  0
 21 22  4  0  0  0
 22 23  1  0  0  0
 23 24  4  0  0  0
 23 27  4  0  0  0
 24 25  1  0  0  0
 24 32  4  0  0  0
 25 26  1  0  0  0
 27 28  1  0  0  0
 27 30  4  0  0  0
 28 29  1  0  0  0
 30 31  4  0  0  0
 31 32  4  0  0  0
  1 33  1  0  0  0
  4 34  1  0  0  0
  4 35  1  0  0  0
  7 36  1  0  0  0
  8 37  1  0  0  0
  9 38  1  0  0  0
 15 39  1  0  0  0
 15 40  1  0  0  0
 16 41  1  0  0  0
 20 42  1  0  0  0
 26 43  1  0  0  0
 26 44  1  0  0  0
 26 45  1  0  0  0
 29 46  1  0  0  0
 29 47  1  0  0  0
 29 48  1  0  0  0
 30 49  1  0  0  0
 31 50  1  0  0  0
 32 51  1  0  0  0
M  END
$$$$
