6dne_ligand
  -I-interpret- 

108115  0  0  0  0  0  0  0  0999 V2000
  -35.6830   14.8890   -6.4770 C   0  0  0  0  0
  -35.2660   11.1840   -5.3400 N   0  0  0  0  0
  -36.2090   15.9680   -7.3870 C   0  0  0  0  0
  -30.7580   10.8310   -2.5280 O   0  0  0  0  0
  -31.6790   10.4190   -4.6710 C   0  0  0  0  0
  -30.6290   10.9720   -3.7340 C   0  0  0  0  0
  -28.4290   11.9210   -3.4500 C   0  0  0  0  0
  -27.6280   10.7010   -3.0020 C   0  0  0  0  0
  -25.8450    9.2520   -3.5880 C   0  0  0  0  0
  -25.4820    8.3700   -4.7770 C   0  0  0  0  0
  -24.2420    8.2690   -6.7750 C   0  0  0  0  0
  -23.0250    8.8660   -7.4720 C   0  0  0  0  0
  -20.9090    9.7400   -6.6760 C   0  0  0  0  0
  -19.6060    9.4610   -5.9640 C   0  0  0  0  0
  -34.8110   14.9130   -5.2580 C   0  0  0  0  0
  -18.4800   10.2170   -6.6590 C   0  0  0  0  0
  -17.5790   10.0620   -8.8490 C   0  0  0  0  0
  -16.7700   11.2750   -8.5680 C   0  0  0  0  0
  -16.0070   11.4470   -7.3040 C   0  0  0  0  0
  -15.7060   13.4710   -8.8680 C   0  0  0  0  0
  -15.1970   14.8120   -9.3260 C   0  0  0  0  0
  -16.5980   12.4460   -9.5010 C   0  0  0  0  0
  -17.2070   12.6100  -10.8670 C   0  0  0  0  0
  -14.9940   10.1480   -5.5610 C   0  0  0  0  0
  -13.5490   10.5690   -5.6230 C   0  0  0  0  0
  -34.2480   16.1780   -4.6700 C   0  0  0  0  0
  -17.1880    9.9770   -5.9870 C   0  0  0  0  0
  -17.4420    9.3820  -10.1770 C   0  0  0  0  0
  -18.5090    8.7150  -10.7680 C   0  0  0  0  0
  -18.3300    8.0800  -11.9990 C   0  0  0  0  0
  -17.0920    8.1120  -12.6320 C   0  0  0  0  0
  -16.0300    8.7750  -12.0380 C   0  0  0  0  0
  -16.2050    9.4000  -10.8120 C   0  0  0  0  0
  -33.8070   13.1120   -3.5570 C   0  0  0  0  0
  -33.9920   13.8240   -2.2490 C   0  0  0  0  0
  -32.9590   13.8750   -1.3230 C   0  0  0  0  0
  -34.6080   13.5040   -4.7530 C   0  0  0  0  0
  -33.1480   14.5260   -0.1090 C   0  0  0  0  0
  -34.3710   15.1180    0.1810 C   0  0  0  0  0
  -35.4090   15.0630   -0.7400 C   0  0  0  0  0
  -35.2180   14.4110   -1.9520 C   0  0  0  0  0
  -35.3300   12.5030   -5.5790 C   0  0  0  0  0
  -36.2610   10.2940   -5.4130 C   0  0  0  0  0
  -37.7140   10.5040   -5.7460 C   0  0  0  0  0
  -34.0870   10.6630   -5.0280 C   0  0  0  0  0
  -32.8220   11.4100   -4.8700 C   0  0  0  0  0
  -35.6850    9.1110   -5.1020 N   0  0  0  0  0
  -34.3150    9.3430   -4.8530 N   0  0  0  0  0
  -29.5810   11.5920   -4.2710 N   0  0  0  0  0
  -21.8270    8.7770   -6.6560 N   0  0  0  0  0
  -18.3510    9.5940   -7.9690 N   0  0  0  0  0
  -16.0300   10.5410   -6.3080 N   0  0  0  0  0
  -15.5250    9.2460   -4.7060 N   0  0  0  0  0
  -16.9050    9.1330   -4.9770 N   0  0  0  0  0
  -32.9950   12.1480   -3.6290 N   0  0  0  0  0
  -26.7040   10.3090   -4.0180 O   0  0  0  0  0
  -24.6090    9.0730   -5.6560 O   0  0  0  0  0
  -21.0880   10.8070   -7.2380 O   0  0  0  0  0
  -36.1540   13.2690   -6.8920 S   0  0  0  0  0
  -15.1790   12.9700   -7.2910 S   0  0  0  0  0
  -16.8520    7.3060  -14.2160 Cl  0  0  0  0  0
  -34.6020   15.9540    1.7510 Cl  0  0  0  0  0
  -36.8157   16.6651   -6.8090 H   0  0  0  0  0
  -35.3720   16.5007   -7.8385 H   0  0  0  0  0
  -36.8185   15.5163   -8.1696 H   0  0  0  0  0
  -32.0841    9.5047   -4.2373 H   0  0  0  0  0
  -31.2143   10.2267   -5.6380 H   0  0  0  0  0
  -27.7666   12.5435   -4.0515 H   0  0  0  0  0
  -28.7987   12.4164   -2.5522 H   0  0  0  0  0
  -28.3152    9.8767   -2.8110 H   0  0  0  0  0
  -27.0742   10.9534   -2.0978 H   0  0  0  0  0
  -24.9359    9.6758   -3.1613 H   0  0  0  0  0
  -26.3581    8.6523   -2.8363 H   0  0  0  0  0
  -26.3912    8.1002   -5.3144 H   0  0  0  0  0
  -24.9813    7.4711   -4.4173 H   0  0  0  0  0
  -23.9992    7.2642   -6.4293 H   0  0  0  0  0
  -25.0745    8.2323   -7.4776 H   0  0  0  0  0
  -23.2271    9.9198   -7.6640 H   0  0  0  0  0
  -22.8518    8.3060   -8.3909 H   0  0  0  0  0
  -19.3977    8.3914   -5.9902 H   0  0  0  0  0
  -19.6796    9.7886   -4.9270 H   0  0  0  0  0
  -18.7011   11.2843   -6.6706 H   0  0  0  0  0
  -14.6200   14.6866  -10.2422 H   0  0  0  0  0
  -16.0416   15.4746   -9.5149 H   0  0  0  0  0
  -14.5622   15.2422   -8.5513 H   0  0  0  0  0
  -16.8728   11.7976  -11.5123 H   0  0  0  0  0
  -18.2936   12.5864  -10.7842 H   0  0  0  0  0
  -16.8942   13.5644  -11.2906 H   0  0  0  0  0
  -13.1437   10.3285   -6.6059 H   0  0  0  0  0
  -13.4772   11.6431   -5.4518 H   0  0  0  0  0
  -12.9842   10.0390   -4.8561 H   0  0  0  0  0
  -33.6221   16.6746   -5.4114 H   0  0  0  0  0
  -35.0658   16.8386   -4.3819 H   0  0  0  0  0
  -33.6497   15.9342   -3.7921 H   0  0  0  0  0
  -19.4799    8.6878  -10.2734 H   0  0  0  0  0
  -19.1645    7.5568  -12.4659 H   0  0  0  0  0
  -15.0593    8.8053  -12.5330 H   0  0  0  0  0
  -15.3645    9.9103  -10.3417 H   0  0  0  0  0
  -32.0012   13.4054   -1.5473 H   0  0  0  0  0
  -32.3355   14.5720    0.6162 H   0  0  0  0  0
  -36.3681   15.5287   -0.5133 H   0  0  0  0  0
  -36.0330   14.3591   -2.6740 H   0  0  0  0  0
  -38.1565   11.1874   -5.0212 H   0  0  0  0  0
  -37.7985   10.9287   -6.7463 H   0  0  0  0  0
  -38.2354    9.5475   -5.7108 H   0  0  0  0  0
  -32.6007   12.0440   -5.7286 H   0  0  0  0  0
  -29.5868   11.8366   -5.2612 H   0  0  0  0  0
  -21.6870    7.9629   -6.0577 H   0  0  0  0  0
  1  3  1  0  0  0
  1 15  4  0  0  0
 59  1  4  0  0  0
  2 42  1  0  0  0
  2 43  4  0  0  0
 45  2  4  0  0  0
  6  4  2  0  0  0
  5  6  1  0  0  0
 46  5  1  0  0  0
  6 49  1  0  0  0
  7  8  1  0  0  0
 49  7  1  0  0  0
  8 56  1  0  0  0
  9 10  1  0  0  0
 56  9  1  0  0  0
 10 57  1  0  0  0
 11 12  1  0  0  0
 57 11  1  0  0  0
 12 50  1  0  0  0
 13 14  1  0  0  0
 50 13  1  0  0  0
 13 58  2  0  0  0
 14 16  1  0  0  0
 15 26  1  0  0  0
 37 15  4  0  0  0
 16 27  1  0  0  0
 16 51  1  0  0  0
 17 18  1  0  0  0
 17 28  1  0  0  0
 51 17  2  0  0  0
 18 19  4  0  0  0
 18 22  4  0  0  0
 52 19  1  0  0  0
 19 60  4  0  0  0
 20 21  1  0  0  0
 22 20  4  0  0  0
 60 20  4  0  0  0
 22 23  1  0  0  0
 24 25  1  0  0  0
 52 24  4  0  0  0
 24 53  4  0  0  0
 27 52  4  0  0  0
 27 54  4  0  0  0
 28 29  4  0  0  0
 28 33  4  0  0  0
 29 30  4  0  0  0
 30 31  4  0  0  0
 32 31  4  0  0  0
 31 61  1  0  0  0
 33 32  4  0  0  0
 34 35  1  0  0  0
 37 34  1  0  0  0
 34 55  2  0  0  0
 35 36  4  0  0  0
 35 41  4  0  0  0
 36 38  4  0  0  0
 42 37  4  0  0  0
 38 39  4  0  0  0
 40 39  4  0  0  0
 39 62  1  0  0  0
 41 40  4  0  0  0
 42 59  4  0  0  0
 43 44  1  0  0  0
 43 47  4  0  0  0
 45 46  1  0  0  0
 45 48  4  0  0  0
 46 55  1  0  0  0
 47 48  4  0  0  0
 53 54  4  0  0  0
  3 63  1  0  0  0
  3 64  1  0  0  0
  3 65  1  0  0  0
  5 66  1  0  0  0
  5 67  1  0  0  0
  7 68  1  0  0  0
  7 69  1  0  0  0
  8 70  1  0  0  0
  8 71  1  0  0  0
  9 72  1  0  0  0
  9 73  1  0  0  0
 10 74  1  0  0  0
 10 75  1  0  0  0
 11 76  1  0  0  0
 11 77  1  0  0  0
 12 78  1  0  0  0
 12 79  1  0  0  0
 14 80  1  0  0  0
 14 81  1  0  0  0
 16 82  1  0  0  0
 21 83  1  0  0  0
 21 84  1  0  0  0
 21 85  1  0  0  0
 23 86  1  0  0  0
 23 87  1  0  0  0
 23 88  1  0  0  0
 25 89  1  0  0  0
 25 90  1  0  0  0
 25 91  1  0  0  0
 26 92  1  0  0  0
 26 93  1  0  0  0
 26 94  1  0  0  0
 29 95  1  0  0  0
 30 96  1  0  0  0
 32 97  1  0  0  0
 33 98  1  0  0  0
 36 99  1  0  0  0
 38100  1  0  0  0
 40101  1  0  0  0
 41102  1  0  0  0
 44103  1  0  0  0
 44104  1  0  0  0
 44105  1  0  0  0
 46106  1  0  0  0
 49107  1  0  0  0
 50108  1  0  0  0
M  END
$$$$
