2alv_ligand
  -I-interpret- 

 82 83  0  0  0  0  0  0  0  0999 V2000
   73.3760   47.7140   18.4330 C   0  0  0  0  0
   72.8930   46.2990   18.6050 C   0  0  0  0  0
   71.9590   45.8240   17.7670 O   0  0  0  0  0
   71.7080   44.4820   18.1770 N   0  0  0  0  0
   72.4860   44.2900   19.1810 C   0  0  0  0  0
   73.3040   45.4570   19.5210 C   0  0  0  0  0
   72.5940   43.0470   19.9540 C   0  0  0  0  0
   73.0910   42.0800   19.3140 O   0  0  0  0  0
   72.2270   42.9390   21.2720 N   0  0  0  0  0
   72.3260   41.7740   22.1820 C   0  0  0  0  0
   72.1330   42.1430   23.7530 C   0  0  0  0  0
   72.2900   40.9620   24.7780 C   0  0  0  0  0
   70.7360   42.8150   24.0190 C   0  0  0  0  0
   71.3590   40.6490   21.7020 C   0  0  0  0  0
   70.1250   40.8390   21.5470 O   0  0  0  0  0
   72.0130   39.2830   21.4870 C   0  0  0  0  0
   71.1410   38.0200   21.0920 C   0  0  0  0  0
   72.1390   36.8100   20.9160 C   0  0  0  0  0
   73.0630   37.0400   19.7340 C   0  0  0  0  0
   74.1020   36.0980   19.3790 C   0  0  0  0  0
   74.6740   36.1150   18.0000 C   0  0  0  0  0
   74.6400   35.1100   20.3920 C   0  0  0  0  0
   70.2140   37.7990   22.3190 C   0  0  0  0  0
   70.7080   38.0510   23.4970 O   0  0  0  0  0
   68.9190   37.3770   22.1920 N   0  0  0  0  0
   68.1000   37.2110   23.3980 C   0  0  0  0  0
   67.5730   35.8690   23.8530 C   0  0  0  0  0
   68.8440   35.0260   24.2700 C   0  0  0  0  0
   68.5470   33.6490   24.9040 C   0  0  0  0  0
   67.3640   33.2810   25.0880 O   0  0  0  0  0
   69.5250   32.7600   25.3300 O   0  0  0  0  0
   70.3680   33.0850   26.4740 C   0  0  0  0  0
   69.8230   32.5050   27.8090 C   0  0  0  0  0
   66.8980   38.2280   23.3800 C   0  0  0  0  0
   66.9220   39.3590   24.4470 C   0  0  0  0  0
   67.1800   39.0330   25.9450 C   0  0  0  0  0
   66.7700   40.3700   26.6240 C   0  0  0  0  0
   65.6080   40.7100   25.7960 N   0  0  0  0  0
   65.6540   40.1510   24.5640 C   0  0  0  0  0
   64.8130   40.2570   23.6380 O   0  0  0  0  0
   73.8135   47.8292   17.4413 H   0  0  0  0  0
   72.5355   48.3993   18.5426 H   0  0  0  0  0
   74.1276   47.9347   19.1910 H   0  0  0  0  0
   74.0437   45.5876   20.3109 H   0  0  0  0  0
   71.8286   43.7825   21.6846 H   0  0  0  0  0
   73.3495   41.4033   22.1254 H   0  0  0  0  0
   72.9629   42.8263   23.9331 H   0  0  0  0  0
   71.5493   40.1926   24.5600 H   0  0  0  0  0
   73.2910   40.5391   24.6926 H   0  0  0  0  0
   72.1382   41.3381   25.7897 H   0  0  0  0  0
   70.6589   43.7328   23.4361 H   0  0  0  0  0
   69.9421   42.1285   23.7249 H   0  0  0  0  0
   70.6423   43.0478   25.0797 H   0  0  0  0  0
   72.4240   39.0279   22.4638 H   0  0  0  0  0
   72.6678   39.4334   20.6287 H   0  0  0  0  0
   70.5619   38.1306   20.1752 H   0  0  0  0  0
   71.5624   35.9020   20.7395 H   0  0  0  0  0
   72.7413   36.7172   21.8197 H   0  0  0  0  0
   72.9400   37.9421   19.1346 H   0  0  0  0  0
   73.8811   35.9244   17.2768 H   0  0  0  0  0
   75.1189   37.0907   17.8046 H   0  0  0  0  0
   75.4381   35.3423   17.9154 H   0  0  0  0  0
   75.0671   35.6526   21.2354 H   0  0  0  0  0
   73.8284   34.4722   20.7421 H   0  0  0  0  0
   75.4106   34.4964   19.9253 H   0  0  0  0  0
   68.5278   37.1803   21.2708 H   0  0  0  0  0
   68.8749   37.3910   24.1431 H   0  0  0  0  0
   66.5317   35.5487   23.8866 H   0  0  0  0  0
   69.8600   35.3914   24.1204 H   0  0  0  0  0
   70.3970   34.1704   26.5692 H   0  0  0  0  0
   71.3515   32.6493   26.2980 H   0  0  0  0  0
   68.8296   32.9105   28.0012 H   0  0  0  0  0
   69.7655   31.4190   27.7352 H   0  0  0  0  0
   70.4930   32.7802   28.6236 H   0  0  0  0  0
   66.0043   37.6394   23.5872 H   0  0  0  0  0
   66.9428   38.7278   22.4124 H   0  0  0  0  0
   67.7817   39.8647   24.0073 H   0  0  0  0  0
   68.2056   38.7309   26.1569 H   0  0  0  0  0
   66.6227   38.1691   26.3073 H   0  0  0  0  0
   67.5520   41.1290   26.6476 H   0  0  0  0  0
   66.5641   40.2958   27.6918 H   0  0  0  0  0
   64.8443   41.3060   26.1155 H   0  0  0  0  0
  1  2  1  0  0  0
  2  3  4  0  0  0
  2  6  4  0  0  0
  3  4  4  0  0  0
  4  5  4  0  0  0
  5  6  4  0  0  0
  5  7  1  0  0  0
  7  8  2  0  0  0
  7  9  1  0  0  0
  9 10  1  0  0  0
 10 11  1  0  0  0
 10 14  1  0  0  0
 11 12  1  0  0  0
 11 13  1  0  0  0
 14 15  2  0  0  0
 14 16  1  0  0  0
 16 17  1  0  0  0
 17 18  1  0  0  0
 17 23  1  0  0  0
 18 19  1  0  0  0
 19 20  2  0  0  0
 20 21  1  0  0  0
 20 22  1  0  0  0
 23 24  2  0  0  0
 23 25  1  0  0  0
 25 26  1  0  0  0
 26 27  1  0  0  0
 26 34  1  0  0  0
 27 28  2  0  0  0
 28 29  1  0  0  0
 29 30  2  0  0  0
 29 31  1  0  0  0
 31 32  1  0  0  0
 32 33  1  0  0  0
 34 35  1  0  0  0
 35 36  1  0  0  0
 35 39  1  0  0  0
 36 37  1  0  0  0
 37 38  1  0  0  0
 38 39  1  0  0  0
 39 40  2  0  0  0
  1 41  1  0  0  0
  1 42  1  0  0  0
  1 43  1  0  0  0
  6 44  1  0  0  0
  9 45  1  0  0  0
 10 46  1  0  0  0
 11 47  1  0  0  0
 12 48  1  0  0  0
 12 49  1  0  0  0
 12 50  1  0  0  0
 13 51  1  0  0  0
 13 52  1  0  0  0
 13 53  1  0  0  0
 16 54  1  0  0  0
 16 55  1  0  0  0
 17 56  1  0  0  0
 18 57  1  0  0  0
 18 58  1  0  0  0
 19 59  1  0  0  0
 21 60  1  0  0  0
 21 61  1  0  0  0
 21 62  1  0  0  0
 22 63  1  0  0  0
 22 64  1  0  0  0
 22 65  1  0  0  0
 25 66  1  0  0  0
 26 67  1  0  0  0
 27 68  1  0  0  0
 28 69  1  0  0  0
 32 70  1  0  0  0
 32 71  1  0  0  0
 33 72  1  0  0  0
 33 73  1  0  0  0
 33 74  1  0  0  0
 34 75  1  0  0  0
 34 76  1  0  0  0
 35 77  1  0  0  0
 36 78  1  0  0  0
 36 79  1  0  0  0
 37 80  1  0  0  0
 37 81  1  0  0  0
 38 82  1  0  0  0
M  END
$$$$
