4nyf_ligand
  -I-interpret- 

 49 51  0  0  0  0  0  0  0  0999 V2000
   18.6600   64.4030    8.4330 N   0  0  0  0  0
   18.5920   64.5860    9.7720 C   0  0  0  0  0
   19.6660   64.2170   10.6650 C   0  0  0  0  0
   20.8640   63.6130   10.0530 C   0  0  0  0  0
   20.9310   63.4190    8.5910 C   0  0  0  0  0
   19.7730   63.8400    7.8400 C   0  0  0  0  0
   19.4670   64.4690   12.0860 C   0  0  0  0  0
   18.2740   65.0580   12.5860 C   0  0  0  0  0
   17.2430   65.4120   11.6890 C   0  0  0  0  0
   17.4110   65.1730   10.2950 C   0  0  0  0  0
   22.2050   62.7810    7.9370 C   0  0  0  0  0
   21.9960   61.2840    7.5360 C   0  0  0  0  0
   21.1970   60.5950    8.2380 O   0  0  0  0  0
   22.6650   60.9010    6.5290 O   0  0  0  0  0
   22.7370   63.5380    6.7920 O   0  0  0  0  0
   23.6810   64.6440    6.9560 C   0  0  0  0  0
   19.6230   63.7380    6.3410 C   0  0  0  0  0
   22.0180   63.2070   10.9260 C   0  0  0  0  0
   23.0170   64.1670   11.3210 C   0  0  0  0  0
   24.1110   63.7790   12.1440 C   0  0  0  0  0
   24.2200   62.4320   12.5810 C   0  0  0  0  0
   23.2490   61.4660   12.2080 C   0  0  0  0  0
   22.1530   61.8490   11.3850 C   0  0  0  0  0
   25.5390   61.9660   13.5720 Cl  0  0  0  0  0
   22.9960   65.9400    7.3930 C   0  0  0  0  0
   24.8280   64.3130    7.9400 C   0  0  0  0  0
   24.2820   64.8560    5.5570 C   0  0  0  0  0
   20.2566   64.1977   12.7867 H   0  0  0  0  0
   18.1559   65.2352   13.6550 H   0  0  0  0  0
   16.3242   65.8654   12.0609 H   0  0  0  0  0
   16.6091   65.4490    9.6102 H   0  0  0  0  0
   22.9542   62.8272    8.7274 H   0  0  0  0  0
   23.1864   61.6345    6.1948 H   0  0  0  0  0
   18.7592   63.1165    6.1050 H   0  0  0  0  0
   19.4805   64.7344    5.9228 H   0  0  0  0  0
   20.5215   63.2897    5.9169 H   0  0  0  0  0
   22.9339   65.2009   10.9860 H   0  0  0  0  0
   24.8621   64.5123   12.4378 H   0  0  0  0  0
   23.3425   60.4354   12.5505 H   0  0  0  0  0
   21.4079   61.1065   11.0991 H   0  0  0  0  0
   22.2626   66.2330    6.6418 H   0  0  0  0  0
   22.4958   65.7808    8.3483 H   0  0  0  0  0
   23.7432   66.7264    7.4992 H   0  0  0  0  0
   24.4095   64.0838    8.9200 H   0  0  0  0  0
   25.3846   63.4516    7.5707 H   0  0  0  0  0
   25.4953   65.1712    8.0201 H   0  0  0  0  0
   24.7810   63.9420    5.2350 H   0  0  0  0  0
   23.4860   65.1037    4.8547 H   0  0  0  0  0
   25.0036   65.6721    5.5928 H   0  0  0  0  0
  1  2  4  0  0  0
  1  6  4  0  0  0
  2  3  4  0  0  0
  2 10  4  0  0  0
  3  4  4  0  0  0
  3  7  4  0  0  0
  4  5  4  0  0  0
  4 18  1  0  0  0
  5  6  4  0  0  0
  5 11  1  0  0  0
  6 17  1  0  0  0
  7  8  4  0  0  0
  8  9  4  0  0  0
  9 10  4  0  0  0
 11 12  1  0  0  0
 11 15  1  0  0  0
 12 13  2  0  0  0
 12 14  1  0  0  0
 15 16  1  0  0  0
 16 25  1  0  0  0
 16 26  1  0  0  0
 16 27  1  0  0  0
 18 19  4  0  0  0
 18 23  4  0  0  0
 19 20  4  0  0  0
 20 21  4  0  0  0
 21 22  4  0  0  0
 21 24  1  0  0  0
 22 23  4  0  0  0
  7 28  1  0  0  0
  8 29  1  0  0  0
  9 30  1  0  0  0
 10 31  1  0  0  0
 11 32  1  0  0  0
 14 33  1  0  0  0
 17 34  1  0  0  0
 17 35  1  0  0  0
 17 36  1  0  0  0
 19 37  1  0  0  0
 20 38  1  0  0  0
 22 39  1  0  0  0
 23 40  1  0  0  0
 25 41  1  0  0  0
 25 42  1  0  0  0
 25 43  1  0  0  0
 26 44  1  0  0  0
 26 45  1  0  0  0
 26 46  1  0  0  0
 27 47  1  0  0  0
 27 48  1  0  0  0
 27 49  1  0  0  0
M  END
$$$$
