1w3l_ligand
  -I-interpret- 

 64 66  0  0  0  0  0  0  0  0999 V2000
   57.2280   50.5890   39.1650 C   0  0  0  0  0
   56.0560   51.4800   38.7980 C   0  0  0  0  0
   56.4420   52.5320   37.7770 C   0  0  0  0  0
   57.1650   51.8770   36.6160 C   0  0  0  0  0
   57.6590   52.8670   35.5900 C   0  0  0  0  0
   57.8970   50.0560   37.9120 C   0  0  0  0  0
   56.8190   49.5010   39.9810 O   0  0  0  0  0
   55.5610   52.0680   39.9820 O   0  0  0  0  0
   55.2880   53.1980   37.3160 O   0  0  0  0  0
   58.2780   51.1210   37.0700 O   0  0  0  0  0
   58.5850   53.7430   36.1960 O   0  0  0  0  0
   61.8010   47.7810   36.3460 C   0  0  0  0  0
   61.1670   48.7420   37.3450 C   0  0  0  0  0
   59.6650   48.5070   37.3740 C   0  0  0  0  0
   59.4320   47.0430   37.7410 C   0  0  0  0  0
   57.9890   46.6360   37.8660 C   0  0  0  0  0
   61.4160   46.3450   36.6790 C   0  0  0  0  0
   63.2090   47.8930   36.3430 O   0  0  0  0  0
   61.4410   50.0790   36.9650 O   0  0  0  0  0
   59.0730   49.3700   38.3380 O   0  0  0  0  0
   60.0060   46.2230   36.7320 O   0  0  0  0  0
   57.3350   46.8230   36.6200 O   0  0  0  0  0
   63.7750   43.9770   37.3560 C   0  0  0  0  0
   63.1240   43.5370   36.0590 C   0  0  0  0  0
   61.7440   44.1490   35.8230 C   0  0  0  0  0
   61.1750   43.5330   34.5440 C   0  0  0  0  0
   61.1970   42.0050   34.6670 C   0  0  0  0  0
   62.9190   43.7010   38.4670 O   0  0  0  0  0
   63.0070   42.1210   36.1800 O   0  0  0  0  0
   61.8560   45.5440   35.6470 O   0  0  0  0  0
   59.8120   43.8900   34.3420 O   0  0  0  0  0
   62.5530   41.5600   34.9400 N   0  3  0  0  0
   57.9366   51.1955   39.7291 H   0  0  0  0  0
   55.2776   50.8778   38.3294 H   0  0  0  0  0
   57.1060   53.2596   38.2436 H   0  0  0  0  0
   56.4260   51.2297   36.1438 H   0  0  0  0  0
   56.8172   53.4388   35.1994 H   0  0  0  0  0
   58.1425   52.3339   34.7714 H   0  0  0  0  0
   57.2168   49.4048   37.3631 H   0  0  0  0  0
   56.3957   49.8385   40.7738 H   0  0  0  0  0
   55.3261   51.3779   40.6067 H   0  0  0  0  0
   54.8387   53.6085   38.0585 H   0  0  0  0  0
   58.9005   54.3738   35.5447 H   0  0  0  0  0
   61.4284   48.0452   35.3563 H   0  0  0  0  0
   61.5823   48.5678   38.3376 H   0  0  0  0  0
   59.2132   48.7200   36.4052 H   0  0  0  0  0
   59.8880   46.9171   38.7230 H   0  0  0  0  0
   57.5036   47.2476   38.6265 H   0  0  0  0  0
   57.9312   45.5860   38.1527 H   0  0  0  0  0
   61.8524   46.0614   37.6367 H   0  0  0  0  0
   63.5766   47.2766   35.7054 H   0  0  0  0  0
   61.0393   50.6790   37.5977 H   0  0  0  0  0
   56.4144   46.5630   36.7009 H   0  0  0  0  0
   63.9614   45.0500   37.3116 H   0  0  0  0  0
   64.7093   43.4307   37.4855 H   0  0  0  0  0
   63.7246   43.8636   35.2101 H   0  0  0  0  0
   61.0970   43.9522   36.6778 H   0  0  0  0  0
   61.7843   43.8990   33.7177 H   0  0  0  0  0
   60.8498   41.5606   33.7342 H   0  0  0  0  0
   60.5426   41.6969   35.4824 H   0  0  0  0  0
   63.3470   43.9858   39.2778 H   0  0  0  0  0
   59.4930   43.4852   33.5321 H   0  0  0  0  0
   63.1673   41.8666   34.1857 H   0  0  0  0  0
   62.5678   40.5421   35.0044 H   0  0  0  0  0
  1  2  1  0  0  0
  6  1  1  0  0  0
  1  7  1  0  0  0
  2  3  1  0  0  0
  2  8  1  0  0  0
  4  3  1  0  0  0
  3  9  1  0  0  0
  4  5  1  0  0  0
 10  4  1  0  0  0
  5 11  1  0  0  0
  6 10  1  0  0  0
 20  6  1  0  0  0
 12 13  1  0  0  0
 17 12  1  0  0  0
 12 18  1  0  0  0
 13 14  1  0  0  0
 13 19  1  0  0  0
 15 14  1  0  0  0
 14 20  1  0  0  0
 15 16  1  0  0  0
 21 15  1  0  0  0
 16 22  1  0  0  0
 17 21  1  0  0  0
 30 17  1  0  0  0
 24 23  1  0  0  0
 23 28  1  0  0  0
 25 24  1  0  0  0
 24 29  1  0  0  0
 25 26  1  0  0  0
 25 30  1  0  0  0
 26 27  1  0  0  0
 26 31  1  0  0  0
 27 32  1  0  0  0
 29 32  1  0  0  0
  1 33  1  0  0  0
  2 34  1  0  0  0
  3 35  1  0  0  0
  4 36  1  0  0  0
  5 37  1  0  0  0
  5 38  1  0  0  0
  6 39  1  0  0  0
  7 40  1  0  0  0
  8 41  1  0  0  0
  9 42  1  0  0  0
 11 43  1  0  0  0
 12 44  1  0  0  0
 13 45  1  0  0  0
 14 46  1  0  0  0
 15 47  1  0  0  0
 16 48  1  0  0  0
 16 49  1  0  0  0
 17 50  1  0  0  0
 18 51  1  0  0  0
 19 52  1  0  0  0
 22 53  1  0  0  0
 23 54  1  0  0  0
 23 55  1  0  0  0
 24 56  1  0  0  0
 25 57  1  0  0  0
 26 58  1  0  0  0
 27 59  1  0  0  0
 27 60  1  0  0  0
 28 61  1  0  0  0
 31 62  1  0  0  0
 32 63  1  0  0  0
 32 64  1  0  0  0
M  END
$$$$
