1rin_ligand
  -I-interpret- 

 24 24  0  0  0  0  0  0  0  0999 V2000
   15.4930    5.7790   24.4630 C   0  0  0  0  0
   16.0590    5.3190   25.8110 C   0  0  0  0  0
   16.7680    6.4850   26.4760 C   0  0  0  0  0
   17.8410    6.9760   25.5660 C   0  0  0  0  0
   17.2340    7.3580   24.2370 C   0  0  0  0  0
   18.2780    7.8450   23.2640 C   0  0  0  0  0
   14.4730    6.7840   24.5860 O   0  0  0  0  0
   16.9320    4.1970   25.6540 O   0  0  0  0  0
   17.3040    6.1310   27.7390 O   0  0  0  0  0
   18.4430    8.0980   26.1450 O   0  0  0  0  0
   16.5800    6.2370   23.6650 O   0  0  0  0  0
   19.0670    6.8100   22.7520 O   0  0  0  0  0
   14.9966    4.9329   23.9878 H   0  0  0  0  0
   15.2389    4.9904   26.4494 H   0  0  0  0  0
   16.0416    7.2772   26.6571 H   0  0  0  0  0
   18.5854    6.1951   25.4104 H   0  0  0  0  0
   16.5253    8.1644   24.4256 H   0  0  0  0  0
   18.9347    8.5333   23.7961 H   0  0  0  0  0
   17.7610    8.3154   22.4276 H   0  0  0  0  0
   13.7562    6.4462   25.1279 H   0  0  0  0  0
   16.4552    3.4786   25.2319 H   0  0  0  0  0
   16.5976    5.8180   28.3088 H   0  0  0  0  0
   18.8282    7.8531   26.9895 H   0  0  0  0  0
   19.7121    7.1732   22.1408 H   0  0  0  0  0
  1  2  1  0  0  0
  1  7  1  0  0  0
  1 11  1  0  0  0
  2  3  1  0  0  0
  2  8  1  0  0  0
  3  4  1  0  0  0
  3  9  1  0  0  0
  4  5  1  0  0  0
  4 10  1  0  0  0
  5  6  1  0  0  0
  5 11  1  0  0  0
  6 12  1  0  0  0
  1 13  1  0  0  0
  2 14  1  0  0  0
  3 15  1  0  0  0
  4 16  1  0  0  0
  5 17  1  0  0  0
  6 18  1  0  0  0
  6 19  1  0  0  0
  7 20  1  0  0  0
  8 21  1  0  0  0
  9 22  1  0  0  0
 10 23  1  0  0  0
 12 24  1  0  0  0
M  END
$$$$
