2zgx_ligand
  -I-interpret- 

 50 51  0  0  0  0  0  0  0  0999 V2000
   18.4130  -13.3300   21.6440 N   0  0  0  0  0
   18.3270  -12.0220   21.0170 C   0  0  0  0  0
   17.0180  -11.9110   20.2720 C   0  0  0  0  0
   16.6340  -12.8750   19.6440 O   0  0  0  0  0
   16.3710  -10.7240   20.3370 N   0  0  0  0  0
   15.0790  -10.6370   19.6650 C   0  0  0  0  0
   13.9920  -10.6390   20.7580 C   0  0  0  0  0
   13.4040   -9.4430   21.1600 C   0  0  0  0  0
   12.4210   -9.4500   22.1480 C   0  0  0  0  0
   12.0120  -10.6500   22.7480 C   0  0  0  0  0
   10.8810  -10.6450   23.8790 C   0  0  0  0  0
   10.2060  -11.7630   24.0990 N   0  0  0  0  0
   10.6480   -9.5500   24.5560 N   0  0  0  0  0
   12.6060  -11.8450   22.3400 C   0  0  0  0  0
   13.5860  -11.8300   21.3540 C   0  0  0  0  0
   19.4930  -12.0770   19.9820 C   0  0  0  0  0
   20.4710  -13.0420   20.6980 C   0  0  0  0  0
   19.5280  -14.1680   21.1920 C   0  0  0  0  0
   17.4360  -13.7490   22.4880 C   0  0  0  0  0
   17.4220  -15.1030   23.1790 C   0  0  0  0  0
   16.0930  -15.7440   23.0790 N   0  3  0  0  0
   17.6350  -14.8790   24.7110 C   0  0  0  0  0
   18.9730  -14.4490   25.3430 C   0  0  0  0  0
   16.4680  -13.0330   22.7690 O   0  0  0  0  0
   18.3851  -11.1891   21.7178 H   0  0  0  0  0
   16.7686   -9.9265   20.8333 H   0  0  0  0  0
   14.9423  -11.4801   18.9878 H   0  0  0  0  0
   15.0190   -9.7275   19.0673 H   0  0  0  0  0
   13.7118   -8.5026   20.7029 H   0  0  0  0  0
   11.9640   -8.5104   22.4585 H   0  0  0  0  0
    9.4793  -11.7876   24.8144 H   0  0  0  0  0
   10.4128  -12.5994   23.5531 H   0  0  0  0  0
   11.1863   -8.7058   24.3613 H   0  0  0  0  0
   12.3022  -12.7885   22.7935 H   0  0  0  0  0
   14.0450  -12.7680   21.0418 H   0  0  0  0  0
   19.9235  -11.1035   19.7475 H   0  0  0  0  0
   19.1891  -12.4101   18.9896 H   0  0  0  0  0
   21.0272  -12.5655   21.5052 H   0  0  0  0  0
   21.2661  -13.4054   20.0470 H   0  0  0  0  0
   19.2720  -14.9212   20.4469 H   0  0  0  0  0
   19.9495  -14.8298   21.9486 H   0  0  0  0  0
   18.1916  -15.7167   22.7109 H   0  0  0  0  0
   16.1165  -16.6480   23.5509 H   0  0  0  0  0
   15.3945  -15.1464   23.5210 H   0  0  0  0  0
   15.8546  -15.8782   22.0964 H   0  0  0  0  0
   17.4857  -15.8774   25.1222 H   0  0  0  0  0
   16.9864  -14.0286   24.9213 H   0  0  0  0  0
   19.7356  -15.1948   25.1186 H   0  0  0  0  0
   19.2739  -13.4850   24.9328 H   0  0  0  0  0
   18.8526  -14.3642   26.4230 H   0  0  0  0  0
  1  2  1  0  0  0
  1 18  1  0  0  0
  1 19  1  0  0  0
  2  3  1  0  0  0
  2 16  1  0  0  0
  3  4  2  0  0  0
  3  5  1  0  0  0
  5  6  1  0  0  0
  6  7  1  0  0  0
  7  8  4  0  0  0
  7 15  4  0  0  0
  8  9  4  0  0  0
  9 10  4  0  0  0
 10 11  1  0  0  0
 10 14  4  0  0  0
 11 12  1  0  0  0
 11 13  2  0  0  0
 14 15  4  0  0  0
 16 17  1  0  0  0
 17 18  1  0  0  0
 19 20  1  0  0  0
 19 24  2  0  0  0
 20 21  1  0  0  0
 20 22  1  0  0  0
 22 23  1  0  0  0
  2 25  1  0  0  0
  5 26  1  0  0  0
  6 27  1  0  0  0
  6 28  1  0  0  0
  8 29  1  0  0  0
  9 30  1  0  0  0
 12 31  1  0  0  0
 12 32  1  0  0  0
 13 33  1  0  0  0
 14 34  1  0  0  0
 15 35  1  0  0  0
 16 36  1  0  0  0
 16 37  1  0  0  0
 17 38  1  0  0  0
 17 39  1  0  0  0
 18 40  1  0  0  0
 18 41  1  0  0  0
 20 42  1  0  0  0
 21 43  1  0  0  0
 21 44  1  0  0  0
 21 45  1  0  0  0
 22 46  1  0  0  0
 22 47  1  0  0  0
 23 48  1  0  0  0
 23 49  1  0  0  0
 23 50  1  0  0  0
M  END
$$$$
