4c1e_ligand
  -I-interpret- 

 29 29  0  0  0  0  0  0  0  0999 V2000
   75.7530    5.6130   56.4370 O   0  0  0  0  0
   75.2250    4.9570   57.3520 C   0  0  0  0  0
   74.6140    3.9540   57.0960 O   0  0  0  0  0
   75.2870    5.4580   58.7130 C   0  0  0  0  0
   76.0720    4.5180   59.5830 C   0  0  0  0  0
   77.4600    4.9910   59.5200 C   0  0  0  0  0
   77.3740    6.4510   59.1960 C   0  0  0  0  0
   76.0350    6.6750   58.7390 N   0  0  0  0  0
   75.5320    7.9470   58.3570 C   0  0  0  0  0
   74.4300    8.0340   57.9990 O   0  0  0  0  0
   76.4800    9.0930   58.4050 C   0  0  0  0  0
   76.1050   10.0520   59.5210 C   0  0  0  0  0
   76.4060    9.8270   57.0910 C   0  0  0  0  0
   76.9360    8.8690   55.6150 S   0  0  0  0  0
   76.1981    6.3780   56.8089 H   0  0  0  0  0
   74.2612    5.5797   59.0609 H   0  0  0  0  0
   75.9853    3.4879   59.2374 H   0  0  0  0  0
   75.6975    4.5148   60.6066 H   0  0  0  0  0
   78.0318    4.4488   58.7669 H   0  0  0  0  0
   77.9816    4.8221   60.4621 H   0  0  0  0  0
   78.1030    6.7305   58.4354 H   0  0  0  0  0
   77.6013    7.0634   60.0686 H   0  0  0  0  0
   77.4867    8.7170   58.5876 H   0  0  0  0  0
   75.0985   10.4331   59.3480 H   0  0  0  0  0
   76.1369    9.5269   60.4756 H   0  0  0  0  0
   76.8113   10.8821   59.5377 H   0  0  0  0  0
   77.0872   10.6741   57.1710 H   0  0  0  0  0
   75.3569   10.0790   56.9360 H   0  0  0  0  0
   76.8217    9.6298   54.5301 H   0  0  0  0  0
  1  2  1  0  0  0
  2  3  2  0  0  0
  2  4  1  0  0  0
  4  5  1  0  0  0
  4  8  1  0  0  0
  5  6  1  0  0  0
  6  7  1  0  0  0
  7  8  1  0  0  0
  8  9  1  0  0  0
  9 10  2  0  0  0
  9 11  1  0  0  0
 11 12  1  0  0  0
 11 13  1  0  0  0
 13 14  1  0  0  0
  1 15  1  0  0  0
  4 16  1  0  0  0
  5 17  1  0  0  0
  5 18  1  0  0  0
  6 19  1  0  0  0
  6 20  1  0  0  0
  7 21  1  0  0  0
  7 22  1  0  0  0
 11 23  1  0  0  0
 12 24  1  0  0  0
 12 25  1  0  0  0
 12 26  1  0  0  0
 13 27  1  0  0  0
 13 28  1  0  0  0
 14 29  1  0  0  0
M  END
$$$$
