5wap_ligand
  -I-interpret- 

 61 65  0  0  0  0  0  0  0  0999 V2000
  -60.9190  356.2790  694.3330 C   0  0  0  0  0
  -58.3500  358.0100  686.2440 C   0  0  0  0  0
  -57.6360  358.7090  687.2020 C   0  0  0  0  0
  -58.3310  359.4860  688.1170 C   0  0  0  0  0
  -57.8170  360.3380  689.2480 C   0  0  0  0  0
  -58.9310  355.7890  693.0840 C   0  0  0  0  0
  -57.7720  354.8760  692.7460 C   0  0  0  0  0
  -56.7840  355.3740  690.5190 C   0  0  0  0  0
  -57.3790  354.1160  689.9190 C   0  0  0  0  0
  -60.1650  353.8780  690.2010 C   0  0  0  0  0
  -60.0880  352.6160  690.7900 C   0  0  0  0  0
  -60.9760  357.4920  693.6500 C   0  0  0  0  0
  -61.0460  352.2220  691.7060 C   0  0  0  0  0
  -62.0760  353.0720  692.0400 C   0  0  0  0  0
  -62.1650  354.3230  691.4680 C   0  0  0  0  0
  -61.2110  354.7200  690.5520 C   0  0  0  0  0
  -55.7840  356.2650  692.6220 C   0  0  0  0  0
  -56.1660  355.9920  694.0640 C   0  0  0  0  0
  -56.8660  354.6440  693.9630 C   0  0  0  0  0
  -60.0210  357.7950  692.7250 C   0  0  0  0  0
  -60.0580  359.0980  691.9770 C   0  0  0  0  0
  -59.0440  360.4290  690.1770 C   0  0  0  0  0
  -60.2100  360.4660  689.1680 C   0  0  0  0  0
  -59.7170  359.5560  688.0750 C   0  0  0  0  0
  -60.4270  358.8600  687.1070 C   0  0  0  0  0
  -59.7290  358.0840  686.1980 C   0  0  0  0  0
  -59.1220  359.2530  691.0240 N   0  0  0  0  0
  -59.0090  356.9590  692.4450 N   0  0  0  0  0
  -56.7940  355.5210  691.8540 N   0  0  0  0  0
  -59.8680  355.4420  694.0200 N   0  0  0  0  0
  -61.7500  355.9280  695.1840 O   0  0  0  0  0
  -62.0030  358.2980  693.9570 O   0  0  0  0  0
  -60.8890  359.9670  692.2350 O   0  0  0  0  0
  -56.3140  356.2450  689.7930 O   0  0  0  0  0
  -58.9390  354.3810  689.0330 S   0  0  0  0  0
  -61.3440  356.2950  689.8450 Cl  0  0  0  0  0
  -57.8186  357.3945  685.5181 H   0  0  0  0  0
  -56.5482  358.6499  687.2367 H   0  0  0  0  0
  -57.4551  361.3124  688.9199 H   0  0  0  0  0
  -56.9395  359.9157  689.7377 H   0  0  0  0  0
  -58.2584  353.9902  692.3375 H   0  0  0  0  0
  -57.5891  353.4347  690.7435 H   0  0  0  0  0
  -56.6592  353.7332  689.1955 H   0  0  0  0  0
  -59.2732  351.9408  690.5284 H   0  0  0  0  0
  -60.9854  351.2352  692.1650 H   0  0  0  0  0
  -62.8272  352.7533  692.7626 H   0  0  0  0  0
  -62.9816  354.9932  691.7365 H   0  0  0  0  0
  -54.7667  355.9487  692.3917 H   0  0  0  0  0
  -55.7783  357.3289  692.3850 H   0  0  0  0  0
  -56.7942  356.7707  694.4966 H   0  0  0  0  0
  -55.3111  355.9823  694.7402 H   0  0  0  0  0
  -56.1849  353.8003  693.8518 H   0  0  0  0  0
  -57.4049  354.3578  694.8662 H   0  0  0  0  0
  -59.0300  361.2816  690.8560 H   0  0  0  0  0
  -60.4418  361.4716  688.8170 H   0  0  0  0  0
  -61.1592  360.1455  689.5974 H   0  0  0  0  0
  -61.5143  358.9232  687.0633 H   0  0  0  0  0
  -60.2734  357.5248  685.4371 H   0  0  0  0  0
  -58.4357  358.5104  690.8903 H   0  0  0  0  0
  -59.7871  354.5440  694.4969 H   0  0  0  0  0
  -62.5451  357.8812  694.6308 H   0  0  0  0  0
 12  1  1  0  0  0
  1 30  1  0  0  0
  1 31  2  0  0  0
  3  2  4  0  0  0
  2 26  4  0  0  0
  4  3  4  0  0  0
  5  4  1  0  0  0
  4 24  4  0  0  0
 22  5  1  0  0  0
  6  7  1  0  0  0
 28  6  2  0  0  0
  6 30  1  0  0  0
  7 19  1  0  0  0
  7 29  1  0  0  0
  8  9  1  0  0  0
 29  8  1  0  0  0
  8 34  2  0  0  0
  9 35  1  0  0  0
 10 11  4  0  0  0
 10 16  4  0  0  0
 35 10  1  0  0  0
 11 13  4  0  0  0
 20 12  2  0  0  0
 12 32  1  0  0  0
 13 14  4  0  0  0
 15 14  4  0  0  0
 16 15  4  0  0  0
 16 36  1  0  0  0
 17 18  1  0  0  0
 29 17  1  0  0  0
 19 18  1  0  0  0
 21 20  1  0  0  0
 20 28  1  0  0  0
 27 21  1  0  0  0
 21 33  2  0  0  0
 22 23  1  0  0  0
 22 27  1  0  0  0
 23 24  1  0  0  0
 24 25  4  0  0  0
 25 26  4  0  0  0
  2 37  1  0  0  0
  3 38  1  0  0  0
  5 39  1  0  0  0
  5 40  1  0  0  0
  7 41  1  0  0  0
  9 42  1  0  0  0
  9 43  1  0  0  0
 11 44  1  0  0  0
 13 45  1  0  0  0
 14 46  1  0  0  0
 15 47  1  0  0  0
 17 48  1  0  0  0
 17 49  1  0  0  0
 18 50  1  0  0  0
 18 51  1  0  0  0
 19 52  1  0  0  0
 19 53  1  0  0  0
 22 54  1  0  0  0
 23 55  1  0  0  0
 23 56  1  0  0  0
 25 57  1  0  0  0
 26 58  1  0  0  0
 27 59  1  0  0  0
 30 60  1  0  0  0
 32 61  1  0  0  0
M  END
$$$$
