6ocq_ligand
  -I-interpret- 

 38 39  0  0  0  0  0  0  0  0999 V2000
   20.1380    1.0320   51.8510 C   0  0  0  0  0
   18.7610   -4.7370   51.9630 C   0  0  0  0  0
   19.5450   -2.5950   51.2790 C   0  0  0  0  0
   20.2750   -6.1350   53.1190 C   0  0  0  0  0
   20.0070   -4.6510   55.0420 C   0  0  0  0  0
   22.2830   -5.2980   54.2310 C   0  0  0  0  0
   20.8560   -4.9520   53.8400 C   0  0  0  0  0
   20.2310   -0.2570   51.3770 C   0  0  0  0  0
   19.2000    1.3390   52.8070 C   0  0  0  0  0
   18.4520   -0.9360   52.8060 C   0  0  0  0  0
   19.3930   -1.2380   51.8470 C   0  0  0  0  0
   18.3640    0.3570   53.2840 C   0  0  0  0  0
   20.7760   -3.7360   52.9450 C   0  0  0  0  0
   17.8270   -4.2320   50.8940 C   0  0  0  0  0
   18.3740   -2.9160   50.3960 C   0  0  0  0  0
   17.4600    0.7030   54.2280 F   0  0  0  0  0
   19.5840   -3.6080   52.2820 N   0  0  0  0  0
   21.6660   -2.9070   52.8110 O   0  0  0  0  0
   20.8051    1.8052   51.4699 H   0  0  0  0  0
   19.3497   -5.5888   51.6225 H   0  0  0  0  0
   18.2220   -5.1092   52.8343 H   0  0  0  0  0
   20.4864   -2.5878   50.7296 H   0  0  0  0  0
   19.2336   -5.9314   52.8697 H   0  0  0  0  0
   20.8403   -6.3151   52.2046 H   0  0  0  0  0
   20.3310   -7.0138   53.7614 H   0  0  0  0  0
   20.3959   -3.7672   55.5478 H   0  0  0  0  0
   18.9809   -4.4670   54.7236 H   0  0  0  0  0
   20.0303   -5.5011   55.7238 H   0  0  0  0  0
   22.8646   -5.5045   53.3326 H   0  0  0  0  0
   22.7254   -4.4581   54.7667 H   0  0  0  0  0
   22.2790   -6.1787   54.8732 H   0  0  0  0  0
   20.9773   -0.5014   50.6211 H   0  0  0  0  0
   19.1189    2.3577   53.1861 H   0  0  0  0  0
   17.7834   -1.7094   53.1840 H   0  0  0  0  0
   16.8232   -4.0987   51.2975 H   0  0  0  0  0
   17.7601   -4.9501   50.0767 H   0  0  0  0  0
   18.6743   -2.9832   49.3503 H   0  0  0  0  0
   17.6185   -2.1316   50.4410 H   0  0  0  0  0
  8  1  4  0  0  0
  1  9  4  0  0  0
  2 14  1  0  0  0
 17  2  1  0  0  0
  3 11  1  0  0  0
  3 15  1  0  0  0
 17  3  1  0  0  0
  7  4  1  0  0  0
  7  5  1  0  0  0
  7  6  1  0  0  0
 13  7  1  0  0  0
 11  8  4  0  0  0
 12  9  4  0  0  0
 11 10  4  0  0  0
 10 12  4  0  0  0
 12 16  1  0  0  0
 13 17  1  0  0  0
 13 18  2  0  0  0
 14 15  1  0  0  0
  1 19  1  0  0  0
  2 20  1  0  0  0
  2 21  1  0  0  0
  3 22  1  0  0  0
  4 23  1  0  0  0
  4 24  1  0  0  0
  4 25  1  0  0  0
  5 26  1  0  0  0
  5 27  1  0  0  0
  5 28  1  0  0  0
  6 29  1  0  0  0
  6 30  1  0  0  0
  6 31  1  0  0  0
  8 32  1  0  0  0
  9 33  1  0  0  0
 10 34  1  0  0  0
 14 35  1  0  0  0
 14 36  1  0  0  0
 15 37  1  0  0  0
 15 38  1  0  0  0
M  END
$$$$
