2pe1_ligand
  -I-interpret- 

 36 38  0  0  0  0  0  0  0  0999 V2000
   -6.2660   39.9610   45.5570 N   0  0  0  0  0
   -5.6210   38.8900   46.0160 C   0  0  0  0  0
   -4.3960   39.2650   46.3560 C   0  0  0  0  0
   -4.2810   40.5660   46.1090 C   0  0  0  0  0
   -5.4440   41.0110   45.6130 C   0  0  0  0  0
   -5.7280   42.3580   45.2500 C   0  0  0  0  0
   -4.5770   43.3720   45.4190 C   0  0  0  0  0
   -7.0250   42.8040   44.7640 C   0  0  0  0  0
   -7.3500   44.0880   44.2770 C   0  0  0  0  0
   -6.6320   45.2930   44.0860 C   0  0  0  0  0
   -8.2100   42.0570   44.6680 C   0  0  0  0  0
   -8.3810   40.8940   45.0330 O   0  0  0  0  0
   -9.1860   42.8070   44.1620 N   0  0  0  0  0
   -8.7150   44.0350   43.9110 C   0  0  0  0  0
   -9.3400   45.1670   43.3640 C   0  0  0  0  0
   -8.6180   46.3540   43.1740 C   0  0  0  0  0
   -7.2540   46.4280   43.5320 C   0  0  0  0  0
   -6.5180   47.5590   43.3850 N   0  0  0  0  0
   -6.9310   48.7370   42.8500 C   0  0  0  0  0
   -8.0480   48.9110   42.3490 O   0  0  0  0  0
   -6.0270   49.7080   42.8300 N   0  0  0  0  0
   -6.0287   37.8824   46.0977 H   0  0  0  0  0
   -3.6192   38.6197   46.7662 H   0  0  0  0  0
   -3.3900   41.1699   46.2810 H   0  0  0  0  0
   -6.6417   42.0631   44.7339 H   0  0  0  0  0
   -4.3546   43.8311   44.4557 H   0  0  0  0  0
   -4.8748   44.1426   46.1301 H   0  0  0  0  0
   -3.6915   42.8560   45.7902 H   0  0  0  0  0
   -6.0837   42.4369   45.1730 H   0  0  0  0  0
   -5.5814   45.3428   44.3723 H   0  0  0  0  0
  -10.1423   42.4954   43.9921 H   0  0  0  0  0
  -10.3929   45.1229   43.0853 H   0  0  0  0  0
   -9.1133   47.2260   42.7468 H   0  0  0  0  0
   -5.5523   47.5200   43.7109 H   0  0  0  0  0
   -6.2515   50.6050   42.3994 H   0  0  0  0  0
   -5.1076   49.5575   43.2452 H   0  0  0  0  0
  1  2  4  0  0  0
  1  5  4  0  0  0
  2  3  4  0  0  0
  3  4  4  0  0  0
  4  5  4  0  0  0
  5  6  1  0  0  0
  6  7  1  0  0  0
  6  8  1  0  0  0
  8  9  1  0  0  0
  8 11  1  0  0  0
  9 10  4  0  0  0
  9 14  4  0  0  0
 10 17  4  0  0  0
 11 12  2  0  0  0
 11 13  1  0  0  0
 13 14  1  0  0  0
 14 15  4  0  0  0
 15 16  4  0  0  0
 16 17  4  0  0  0
 17 18  1  0  0  0
 18 19  1  0  0  0
 19 20  2  0  0  0
 19 21  1  0  0  0
  2 22  1  0  0  0
  3 23  1  0  0  0
  4 24  1  0  0  0
  6 25  1  0  0  0
  7 26  1  0  0  0
  7 27  1  0  0  0
  7 28  1  0  0  0
  8 29  1  0  0  0
 10 30  1  0  0  0
 13 31  1  0  0  0
 15 32  1  0  0  0
 16 33  1  0  0  0
 18 34  1  0  0  0
 21 35  1  0  0  0
 21 36  1  0  0  0
M  END
$$$$
