4p5z_ligand
  -I-interpret- 

 55 59  0  0  0  0  0  0  0  0999 V2000
   -4.7520    0.0410  -15.4620 F   0  0  0  0  0
   -3.7870   -0.5410  -14.8830 C   0  0  0  0  0
   -3.5300    0.2640  -13.9820 F   0  0  0  0  0
   -4.1260   -1.5210  -14.1640 F   0  0  0  0  0
   -2.5870   -0.7300  -15.7290 C   0  0  0  0  0
   -1.6610   -1.7390  -15.5800 C   0  0  0  0  0
   -2.3870    0.2130  -16.6780 C   0  0  0  0  0
   -1.3100    0.1530  -17.5140 C   0  0  0  0  0
   -0.3960   -0.8330  -17.3960 C   0  0  0  0  0
   -0.5340   -1.8130  -16.4450 C   0  0  0  0  0
    0.4190   -2.7980  -16.5040 N   0  0  0  0  0
    0.2900   -4.0070  -15.9690 C   0  0  0  0  0
   -0.7330   -4.3550  -15.4800 O   0  0  0  0  0
    1.3600   -4.7930  -16.0040 N   0  0  0  0  0
    1.4430   -6.0970  -15.6120 C   0  0  0  0  0
    0.3830   -6.9220  -15.3930 C   0  0  0  0  0
    0.5450   -8.1980  -14.9490 C   0  0  0  0  0
    2.6840   -6.6550  -15.3610 C   0  0  0  0  0
    2.8260   -7.9640  -14.8960 C   0  0  0  0  0
    1.7440   -8.7960  -14.6740 C   0  0  0  0  0
    1.6550  -10.0410  -14.2440 N   0  0  0  0  0
    1.2850  -10.4460  -13.0210 C   0  0  0  0  0
    1.1400   -9.6430  -11.9630 N   0  0  0  0  0
    1.6810  -11.0000  -15.1390 C   0  0  0  0  0
    1.4230  -12.2610  -14.4130 C   0  0  0  0  0
    1.1620  -11.9220  -12.9960 C   0  0  0  0  0
    0.8170  -12.9360  -11.9390 C   0  0  0  0  0
    0.5580  -14.1840  -12.2410 N   0  0  0  0  0
    0.7230  -12.6540  -10.7710 O   0  0  0  0  0
    1.9630  -11.0420  -16.4400 N   0  0  0  0  0
    1.9910  -12.2380  -17.0560 C   0  0  0  0  0
    1.7000  -13.4870  -16.3140 C   0  0  0  0  0
    1.4410  -13.4460  -15.0170 N   0  0  0  0  0
    2.2610  -12.3290  -18.4000 C   0  0  0  0  0
    2.2800  -13.5600  -19.0200 C   0  0  0  0  0
    2.0280  -14.7210  -18.3210 C   0  0  0  0  0
    1.7320  -14.6950  -16.9730 C   0  0  0  0  0
   -1.7925   -2.4843  -14.7955 H   0  0  0  0  0
   -3.0974    1.0338  -16.7765 H   0  0  0  0  0
   -1.1863    0.9113  -18.2871 H   0  0  0  0  0
    0.4640   -0.8513  -18.0655 H   0  0  0  0  0
    1.2886   -2.5870  -16.9936 H   0  0  0  0  0
    2.2171   -4.3740  -16.3650 H   0  0  0  0  0
   -0.6246   -6.5500  -15.5786 H   0  0  0  0  0
   -0.3559   -8.7932  -14.8001 H   0  0  0  0  0
    3.5777   -6.0547  -15.5314 H   0  0  0  0  0
    3.8285   -8.3447  -14.7005 H   0  0  0  0  0
    1.3150   -8.6423  -12.0545 H   0  0  0  0  0
    0.8543  -10.0307  -11.0638 H   0  0  0  0  0
    0.2974  -14.8428  -11.5072 H   0  0  0  0  0
    0.6169  -14.4970  -13.2100 H   0  0  0  0  0
    2.4606  -11.4261  -18.9771 H   0  0  0  0  0
    2.4991  -13.6166  -20.0863 H   0  0  0  0  0
    2.0631  -15.6775  -18.8425 H   0  0  0  0  0
    1.5258  -15.6210  -16.4363 H   0  0  0  0  0
  1  2  1  0  0  0
  2  3  1  0  0  0
  2  4  1  0  0  0
  2  5  1  0  0  0
  5  6  4  0  0  0
  5  7  4  0  0  0
  6 10  4  0  0  0
  7  8  4  0  0  0
  8  9  4  0  0  0
  9 10  4  0  0  0
 10 11  1  0  0  0
 11 12  1  0  0  0
 12 13  2  0  0  0
 12 14  1  0  0  0
 14 15  1  0  0  0
 15 16  4  0  0  0
 15 18  4  0  0  0
 16 17  4  0  0  0
 17 20  4  0  0  0
 18 19  4  0  0  0
 19 20  4  0  0  0
 20 21  1  0  0  0
 21 22  4  0  0  0
 21 24  4  0  0  0
 22 23  1  0  0  0
 22 26  4  0  0  0
 24 25  4  0  0  0
 24 30  4  0  0  0
 25 26  4  0  0  0
 25 33  4  0  0  0
 26 27  1  0  0  0
 27 28  1  0  0  0
 27 29  2  0  0  0
 30 31  4  0  0  0
 31 32  4  0  0  0
 31 34  4  0  0  0
 32 33  4  0  0  0
 32 37  4  0  0  0
 34 35  4  0  0  0
 35 36  4  0  0  0
 36 37  4  0  0  0
  6 38  1  0  0  0
  7 39  1  0  0  0
  8 40  1  0  0  0
  9 41  1  0  0  0
 11 42  1  0  0  0
 14 43  1  0  0  0
 16 44  1  0  0  0
 17 45  1  0  0  0
 18 46  1  0  0  0
 19 47  1  0  0  0
 23 48  1  0  0  0
 23 49  1  0  0  0
 28 50  1  0  0  0
 28 51  1  0  0  0
 34 52  1  0  0  0
 35 53  1  0  0  0
 36 54  1  0  0  0
 37 55  1  0  0  0
M  END
$$$$
