5axp_ligand
  -I-interpret- 

 51 55  0  0  0  0  0  0  0  0999 V2000
    9.5540    1.8700  -20.2790 C   0  0  0  0  0
    8.3050    1.7530  -19.7020 C   0  0  0  0  0
   10.5310    0.9360  -20.0080 C   0  0  0  0  0
    8.0270    0.7080  -18.8500 C   0  0  0  0  0
   10.2660   -0.1160  -19.1600 C   0  0  0  0  0
    9.8370   -0.5160  -23.5650 C   0  0  0  0  0
    8.9460   -0.9290  -22.5950 C   0  0  0  0  0
    7.8060   -3.0090  -16.7870 C   0  0  0  0  0
    9.6790   -2.6450  -24.6020 C   0  0  0  0  0
    8.5950   -2.2700  -15.8780 C   0  0  0  0  0
    9.0150   -0.2140  -18.5920 C   0  0  0  0  0
   10.2210   -1.3790  -24.5730 C   0  0  0  0  0
    8.4100   -2.2020  -22.5960 C   0  0  0  0  0
    8.7980   -3.0460  -23.6180 C   0  0  0  0  0
    7.9200   -2.3390  -17.9840 C   0  0  0  0  0
    6.3550   -3.2900  -21.7030 C   0  0  0  0  0
    7.3760   -2.6400  -19.2670 C   0  0  0  0  0
    5.5650   -3.6960  -20.6990 C   0  0  0  0  0
    6.0670   -3.3630  -19.3490 C   0  0  0  0  0
   11.8780   -1.7810  -26.3760 C   0  0  0  0  0
   11.5930    0.4080  -25.6230 C   0  0  0  0  0
   12.7140    0.3350  -26.6340 C   0  0  0  0  0
    4.1190   -4.7940  -22.1360 C   0  0  0  0  0
    9.1770   -1.2190  -16.4600 N   0  0  0  0  0
    8.0540   -2.3110  -20.3250 N   0  0  0  0  0
    8.7480   -1.2810  -17.7310 N   0  0  0  0  0
    7.5490   -2.6200  -21.5460 N   0  0  0  0  0
   11.1410   -0.9530  -25.5610 N   0  0  0  0  0
    5.4760   -3.6600  -18.3200 O   0  0  0  0  0
   11.7580   -2.9880  -26.5230 O   0  0  0  0  0
   12.8120   -1.0310  -27.0450 O   0  0  0  0  0
    4.3600   -4.3810  -20.7830 O   0  0  0  0  0
    8.3160   -4.2940  -23.6600 F   0  0  0  0  0
    9.7678    2.7021  -20.9498 H   0  0  0  0  0
    7.5348    2.4922  -19.9223 H   0  0  0  0  0
   11.5156    1.0305  -20.4661 H   0  0  0  0  0
    7.0438    0.6130  -18.3891 H   0  0  0  0  0
   11.0333   -0.8588  -18.9419 H   0  0  0  0  0
   10.2397    0.4964  -23.5354 H   0  0  0  0  0
    8.6579   -0.2324  -21.8077 H   0  0  0  0  0
    7.2318   -3.9131  -16.5847 H   0  0  0  0  0
    9.9467   -3.3323  -25.4045 H   0  0  0  0  0
    8.7146   -2.5274  -14.8256 H   0  0  0  0  0
    6.0284   -3.5061  -22.7202 H   0  0  0  0  0
   10.8062    1.1066  -25.9076 H   0  0  0  0  0
   11.9145    0.7955  -24.6563 H   0  0  0  0  0
   13.6525    0.6763  -26.1971 H   0  0  0  0  0
   12.5093    0.9823  -27.4867 H   0  0  0  0  0
    4.0771   -3.9160  -22.7805 H   0  0  0  0  0
    4.9263   -5.4488  -22.4639 H   0  0  0  0  0
    3.1712   -5.3298  -22.1876 H   0  0  0  0  0
  2  1  4  0  0  0
  3  1  4  0  0  0
  4  2  4  0  0  0
  5  3  4  0  0  0
 11  4  4  0  0  0
 11  5  4  0  0  0
  6  7  4  0  0  0
 12  6  4  0  0  0
  7 13  4  0  0  0
  8 10  4  0  0  0
 15  8  4  0  0  0
 12  9  4  0  0  0
  9 14  4  0  0  0
 10 24  4  0  0  0
 26 11  1  0  0  0
 28 12  1  0  0  0
 14 13  4  0  0  0
 13 27  1  0  0  0
 14 33  1  0  0  0
 17 15  1  0  0  0
 15 26  4  0  0  0
 16 18  2  0  0  0
 27 16  1  0  0  0
 19 17  1  0  0  0
 17 25  2  0  0  0
 18 19  1  0  0  0
 18 32  1  0  0  0
 19 29  2  0  0  0
 28 20  1  0  0  0
 20 30  2  0  0  0
 20 31  1  0  0  0
 21 22  1  0  0  0
 21 28  1  0  0  0
 22 31  1  0  0  0
 32 23  1  0  0  0
 24 26  4  0  0  0
 25 27  1  0  0  0
  1 34  1  0  0  0
  2 35  1  0  0  0
  3 36  1  0  0  0
  4 37  1  0  0  0
  5 38  1  0  0  0
  6 39  1  0  0  0
  7 40  1  0  0  0
  8 41  1  0  0  0
  9 42  1  0  0  0
 10 43  1  0  0  0
 16 44  1  0  0  0
 21 45  1  0  0  0
 21 46  1  0  0  0
 22 47  1  0  0  0
 22 48  1  0  0  0
 23 49  1  0  0  0
 23 50  1  0  0  0
 23 51  1  0  0  0
M  END
$$$$
