3ouj_ligand
  -I-interpret- 

 16 15  0  0  0  0  0  0  0  0999 V2000
   14.2120   24.7980   -5.4660 C   0  0  0  0  0
   13.6390   24.3690   -6.5140 O   0  0  0  0  0
   15.0900   24.1210   -4.8870 O   0  0  0  0  0
   13.8490   26.1120   -4.8990 C   0  0  0  0  0
   13.1970   26.9100   -5.5590 O   0  0  0  0  0
   14.2630   26.4810   -3.4840 C   0  0  0  0  0
   13.2770   27.5000   -2.9140 C   0  0  0  0  0
   13.6190   27.9000   -1.4970 C   0  0  0  0  0
   14.4110   27.2000   -0.8280 O   0  0  0  0  0
   13.0820   28.9310   -1.0380 O   0  0  0  0  0
   12.9993   25.0180   -6.8160 H   0  0  0  0  0
   15.2637   26.9129   -3.4992 H   0  0  0  0  0
   14.2625   25.5869   -2.8605 H   0  0  0  0  0
   12.2868   27.0445   -2.9068 H   0  0  0  0  0
   13.3173   28.3939   -3.5365 H   0  0  0  0  0
   14.7090   26.4587   -1.3602 H   0  0  0  0  0
  1  2  1  0  0  0
  1  3  2  0  0  0
  1  4  1  0  0  0
  4  5  2  0  0  0
  4  6  1  0  0  0
  6  7  1  0  0  0
  7  8  1  0  0  0
  8  9  1  0  0  0
  8 10  2  0  0  0
  2 11  1  0  0  0
  6 12  1  0  0  0
  6 13  1  0  0  0
  7 14  1  0  0  0
  7 15  1  0  0  0
  9 16  1  0  0  0
M  END
$$$$
