6f6s_ligand
  -I-interpret- 

 49 52  0  0  0  0  0  0  0  0999 V2000
  -35.9960   15.4390   -8.3400 C   0  0  0  0  0
  -37.3260   15.6250   -8.2150 N   0  3  0  0  0
  -37.8150   14.7520   -7.4280 C   0  0  0  0  0
  -37.5490   15.3230   -5.9190 C   0  0  0  0  0
  -37.3350   16.8380   -6.2140 C   0  0  0  0  0
  -37.5760   16.8470   -7.8220 C   0  0  0  0  0
  -39.3380   14.5850   -7.6080 C   0  0  0  0  0
  -40.0510   15.9730   -8.0530 C   0  0  0  0  0
  -39.0210   17.2570   -8.0640 C   0  0  0  0  0
  -40.9840   16.2850   -7.1950 O   0  0  0  0  0
  -41.9950   15.3160   -6.9420 C   0  0  0  0  0
  -42.0920   15.2900   -5.3390 C   0  0  0  0  0
  -41.0290   15.8530   -4.5970 C   0  0  0  0  0
  -41.0620   15.8660   -3.1610 C   0  0  0  0  0
  -42.1500   15.3180   -2.5180 C   0  0  0  0  0
  -43.2290   14.7500   -3.2640 C   0  0  0  0  0
  -43.1900   14.7360   -4.6840 C   0  0  0  0  0
  -43.5760   17.2580   -7.4690 C   0  0  0  0  0
  -44.7280   17.7810   -8.0420 C   0  0  0  0  0
  -45.6060   16.9290   -8.7360 C   0  0  0  0  0
  -45.3220   15.5770   -8.8570 C   0  0  0  0  0
  -44.1740   15.0530   -8.2890 C   0  0  0  0  0
  -43.2910   15.8950   -7.5840 C   0  0  0  0  0
  -35.6001   16.1391   -9.0756 H   0  0  0  0  0
  -35.5144   15.6105   -7.3773 H   0  0  0  0  0
  -35.8025   14.4176   -8.6677 H   0  0  0  0  0
  -37.7770   15.5034   -9.1218 H   0  0  0  0  0
  -37.3547   13.7837   -7.6244 H   0  0  0  0  0
  -36.7117   14.8488   -5.4071 H   0  0  0  0  0
  -38.3587   15.1181   -5.2187 H   0  0  0  0  0
  -36.3657   17.2260   -5.9009 H   0  0  0  0  0
  -37.9930   17.5037   -5.6555 H   0  0  0  0  0
  -36.9423   17.5431   -8.3716 H   0  0  0  0  0
  -39.7626   14.2735   -6.6537 H   0  0  0  0  0
  -39.5105   13.8461   -8.3906 H   0  0  0  0  0
  -40.4320   15.7951   -9.0586 H   0  0  0  0  0
  -39.0776   17.7251   -9.0467 H   0  0  0  0  0
  -39.3176   17.9329   -7.2619 H   0  0  0  0  0
  -41.8194   14.3151   -7.3362 H   0  0  0  0  0
  -40.1745   16.2822   -5.1203 H   0  0  0  0  0
  -40.2414   16.3014   -2.5908 H   0  0  0  0  0
  -42.1886   15.3175   -1.4287 H   0  0  0  0  0
  -44.0858   14.3256   -2.7408 H   0  0  0  0  0
  -44.0089   14.2973   -5.2541 H   0  0  0  0  0
  -42.8925   17.9125   -6.9282 H   0  0  0  0  0
  -44.9502   18.8445   -7.9545 H   0  0  0  0  0
  -46.5149   17.3337   -9.1813 H   0  0  0  0  0
  -46.0052   14.9250   -9.4012 H   0  0  0  0  0
  -43.9530   13.9901   -8.3868 H   0  0  0  0  0
  2  1  1  0  0  0
  3  2  1  0  0  0
  6  2  1  0  0  0
  3  4  1  0  0  0
  7  3  1  0  0  0
  5  4  1  0  0  0
  6  5  1  0  0  0
  9  6  1  0  0  0
  8  7  1  0  0  0
  8  9  1  0  0  0
 10  8  1  0  0  0
 11 10  1  0  0  0
 11 12  1  0  0  0
 23 11  1  0  0  0
 12 13  4  0  0  0
 12 17  4  0  0  0
 13 14  4  0  0  0
 14 15  4  0  0  0
 16 15  4  0  0  0
 17 16  4  0  0  0
 18 19  4  0  0  0
 18 23  4  0  0  0
 19 20  4  0  0  0
 20 21  4  0  0  0
 21 22  4  0  0  0
 22 23  4  0  0  0
  1 24  1  0  0  0
  1 25  1  0  0  0
  1 26  1  0  0  0
  2 27  1  0  0  0
  3 28  1  0  0  0
  4 29  1  0  0  0
  4 30  1  0  0  0
  5 31  1  0  0  0
  5 32  1  0  0  0
  6 33  1  0  0  0
  7 34  1  0  0  0
  7 35  1  0  0  0
  8 36  1  0  0  0
  9 37  1  0  0  0
  9 38  1  0  0  0
 11 39  1  0  0  0
 13 40  1  0  0  0
 14 41  1  0  0  0
 15 42  1  0  0  0
 16 43  1  0  0  0
 17 44  1  0  0  0
 18 45  1  0  0  0
 19 46  1  0  0  0
 20 47  1  0  0  0
 21 48  1  0  0  0
 22 49  1  0  0  0
M  END
$$$$
