1cnx_ligand
  -I-interpret- 

 44 44  0  0  0  0  0  0  0  0999 V2000
   -5.9900    0.9170   17.0960 S   0  0  0  0  0
   -5.5100    0.9170   18.3670 O   0  0  0  0  0
   -7.4480    0.9590   16.9540 O   0  0  0  0  0
   -5.3370   -0.2090   16.3890 N   0  0  0  0  0
   -4.7060    4.3780   14.6230 C   0  0  0  0  0
   -3.7550    3.3780   14.9060 C   0  0  0  0  0
   -4.2130    2.2930   15.6830 C   0  0  0  0  0
   -5.5380    2.2100   16.1770 C   0  0  0  0  0
   -6.4280    3.2530   15.8240 C   0  0  0  0  0
   -6.0120    4.3370   15.0470 C   0  0  0  0  0
   -4.3140    5.5040   13.7750 C   0  0  0  0  0
   -4.9910    6.4220   13.4220 O   0  0  0  0  0
   -2.9650    5.5460   13.3510 N   0  0  0  0  0
   -2.4460    6.5890   12.5040 C   0  0  0  0  0
   -2.2090    7.9230   13.0690 C   0  0  0  0  0
   -1.3070    7.8810   14.1990 O   0  0  0  0  0
   -1.4860    9.0070   15.0470 C   0  0  0  0  0
   -0.3810   10.0080   14.9060 C   0  0  0  0  0
   -0.8170   11.2620   15.5020 O   0  0  0  0  0
   -0.1640   12.2980   14.8090 C   0  0  0  0  0
    0.1490   13.3850   15.7050 C   0  0  0  0  0
    0.3890   14.6150   14.9720 N   0  3  0  0  0
   -5.9005   -0.8744   15.8597 H   0  0  0  0  0
   -4.3238   -0.3190   16.4314 H   0  0  0  0  0
   -2.7278    3.4388   14.5466 H   0  0  0  0  0
   -3.5183    1.4850   15.9127 H   0  0  0  0  0
   -7.4619    3.2092   16.1664 H   0  0  0  0  0
   -6.7085    5.1328   14.7830 H   0  0  0  0  0
   -2.3332    4.8064   13.6581 H   0  0  0  0  0
   -3.2150    6.7405   11.7466 H   0  0  0  0  0
   -1.4602    6.2363   12.2009 H   0  0  0  0  0
   -3.1639    8.3231   13.4100 H   0  0  0  0  0
   -1.7579    8.5451   12.2960 H   0  0  0  0  0
   -1.4931    8.6550   16.0786 H   0  0  0  0  0
   -2.4205    9.4942   14.7685 H   0  0  0  0  0
   -0.1464   10.1580   13.8522 H   0  0  0  0  0
    0.5152    9.6473   15.4108 H   0  0  0  0  0
   -0.8207   12.6662   14.0207 H   0  0  0  0  0
    0.7621   11.9113   14.3836 H   0  0  0  0  0
    1.0507   13.1293   16.2615 H   0  0  0  0  0
   -0.6965   13.5383   16.3757 H   0  0  0  0  0
    0.6073   15.3639   15.6292 H   0  0  0  0  0
    1.1735   14.4816   14.3339 H   0  0  0  0  0
   -0.4457   14.8606   14.4398 H   0  0  0  0  0
  1  8  1  0  0  0
  1  4  1  0  0  0
  1  3  2  0  0  0
  1  2  2  0  0  0
  8  9  4  0  0  0
  8  7  4  0  0  0
  7  6  4  0  0  0
  6  5  4  0  0  0
  5 11  1  0  0  0
  5 10  4  0  0  0
 10  9  4  0  0  0
 11 13  1  0  0  0
 11 12  2  0  0  0
 13 14  1  0  0  0
 14 15  1  0  0  0
 15 16  1  0  0  0
 16 17  1  0  0  0
 17 18  1  0  0  0
 18 19  1  0  0  0
 19 20  1  0  0  0
 20 21  1  0  0  0
 21 22  1  0  0  0
  4 23  1  0  0  0
  4 24  1  0  0  0
  6 25  1  0  0  0
  7 26  1  0  0  0
  9 27  1  0  0  0
 10 28  1  0  0  0
 13 29  1  0  0  0
 14 30  1  0  0  0
 14 31  1  0  0  0
 15 32  1  0  0  0
 15 33  1  0  0  0
 17 34  1  0  0  0
 17 35  1  0  0  0
 18 36  1  0  0  0
 18 37  1  0  0  0
 20 38  1  0  0  0
 20 39  1  0  0  0
 21 40  1  0  0  0
 21 41  1  0  0  0
 22 42  1  0  0  0
 22 43  1  0  0  0
 22 44  1  0  0  0
M  END
$$$$
