2ntf_ligand
  -I-interpret- 

 49 49  0  0  0  0  0  0  0  0999 V2000
  -34.8950   17.6830    2.6130 C   0  0  0  0  0
  -33.3840   17.4540    2.9500 C   0  0  0  0  0
  -32.8630   16.0950    2.3420 C   0  0  0  0  0
  -31.3020   15.8110    2.5610 C   0  0  0  0  0
  -30.9410   14.3350    2.0730 C   0  0  0  0  0
  -29.4530   14.0980    1.7010 C   0  0  0  0  0
  -29.1890   12.7500    0.9920 C   0  0  0  0  0
  -28.8660   11.6030    1.9810 C   0  0  0  0  0
  -27.9070   10.4950    1.4700 C   0  0  0  0  0
  -28.6590    9.2220    0.9930 C   0  0  0  0  0
  -29.0070    8.3400    1.7740 O   0  0  0  0  0
  -28.9650    9.1260   -0.5040 C   0  0  0  0  0
  -29.3540    7.7520   -0.9790 C   0  0  0  0  0
  -28.5240    6.9140   -1.3120 O   0  0  0  0  0
  -30.6430    7.5490   -1.0360 N   0  0  0  0  0
  -31.1610    6.2820   -1.5390 C   0  0  0  0  0
  -31.3490    5.2560   -0.4530 C   0  0  0  0  0
  -32.6060    4.5190   -0.9460 C   0  0  0  0  0
  -33.3910    5.5510   -1.6450 N   0  0  0  0  0
  -32.5880    6.5500   -1.9820 C   0  0  0  0  0
  -32.9530    7.5760   -2.5620 O   0  0  0  0  0
  -35.0241   17.7135    1.5311 H   0  0  0  0  0
  -35.4862   16.8667    3.0279 H   0  0  0  0  0
  -35.2234   18.6278    3.0461 H   0  0  0  0  0
  -33.2713   17.4161    4.0335 H   0  0  0  0  0
  -32.8044   18.2716    2.5214 H   0  0  0  0  0
  -33.0254   16.1487    1.2655 H   0  0  0  0  0
  -33.4029   15.2954    2.8493 H   0  0  0  0  0
  -31.0659   15.9057    3.6209 H   0  0  0  0  0
  -30.7224   16.5311    1.9834 H   0  0  0  0  0
  -31.5191   14.1584    1.1660 H   0  0  0  0  0
  -31.1614   13.6699    2.9080 H   0  0  0  0  0
  -28.8845   14.0909    2.6310 H   0  0  0  0  0
  -29.1626   14.8892    1.0097 H   0  0  0  0  0
  -28.3257   12.8802    0.3394 H   0  0  0  0  0
  -30.0934   12.4766    0.4486 H   0  0  0  0  0
  -29.8147   11.1080    2.1884 H   0  0  0  0  0
  -28.3635   12.0688    2.8287 H   0  0  0  0  0
  -27.2566   10.2088    2.2965 H   0  0  0  0  0
  -27.3562   10.8961    0.6192 H   0  0  0  0  0
  -28.0515    9.3979   -1.0328 H   0  0  0  0  0
  -29.8146    9.7809   -0.6970 H   0  0  0  0  0
  -31.2877    8.2771   -0.7285 H   0  0  0  0  0
  -30.4651    5.9251   -2.2983 H   0  0  0  0  0
  -31.4568    5.6872    0.5423 H   0  0  0  0  0
  -30.4866    4.6043   -0.3128 H   0  0  0  0  0
  -33.1636    4.0694   -0.1244 H   0  0  0  0  0
  -32.3582    3.6827   -1.5997 H   0  0  0  0  0
  -34.3914    5.5043   -1.8385 H   0  0  0  0  0
  1  2  1  0  0  0
  2  3  1  0  0  0
  3  4  1  0  0  0
  4  5  1  0  0  0
  5  6  1  0  0  0
  6  7  1  0  0  0
  7  8  1  0  0  0
  8  9  1  0  0  0
  9 10  1  0  0  0
 10 11  2  0  0  0
 10 12  1  0  0  0
 12 13  1  0  0  0
 13 14  2  0  0  0
 13 15  1  0  0  0
 15 16  1  0  0  0
 16 17  1  0  0  0
 16 20  1  0  0  0
 17 18  1  0  0  0
 18 19  1  0  0  0
 19 20  1  0  0  0
 20 21  2  0  0  0
  1 22  1  0  0  0
  1 23  1  0  0  0
  1 24  1  0  0  0
  2 25  1  0  0  0
  2 26  1  0  0  0
  3 27  1  0  0  0
  3 28  1  0  0  0
  4 29  1  0  0  0
  4 30  1  0  0  0
  5 31  1  0  0  0
  5 32  1  0  0  0
  6 33  1  0  0  0
  6 34  1  0  0  0
  7 35  1  0  0  0
  7 36  1  0  0  0
  8 37  1  0  0  0
  8 38  1  0  0  0
  9 39  1  0  0  0
  9 40  1  0  0  0
 12 41  1  0  0  0
 12 42  1  0  0  0
 15 43  1  0  0  0
 16 44  1  0  0  0
 17 45  1  0  0  0
 17 46  1  0  0  0
 18 47  1  0  0  0
 18 48  1  0  0  0
 19 49  1  0  0  0
M  END
$$$$
