5yto_ligand
  -I-interpret- 

 43 45  0  0  0  0  0  0  0  0999 V2000
   68.6860   74.5300   -6.9940 C   0  0  0  0  0
   68.3640   73.4130   -6.3640 O   0  0  0  0  0
   67.7220   75.4680   -7.2900 C   0  0  0  0  0
   66.4430   75.2400   -6.9620 O   0  0  0  0  0
   68.1090   76.6300   -7.9400 C   0  0  0  0  0
   72.7690   75.2300   -7.6020 O   0  0  0  0  0
   69.4440   76.8400   -8.2750 C   0  0  0  0  0
   70.4380   75.9110   -7.9670 C   0  0  0  0  0
   71.8920   76.0920   -8.3460 C   0  0  0  0  0
   72.1380   75.6870   -9.8200 C   0  0  0  0  0
   71.7740   76.4530  -12.1600 C   0  0  0  0  0
   72.5120   76.7940  -13.4450 C   0  0  0  0  0
   72.3710   77.5370  -15.7690 C   0  0  0  0  0
   71.6090   77.9670  -16.8380 C   0  0  0  0  0
   72.2310   78.2600  -18.0400 C   0  0  0  0  0
   73.6100   78.1490  -18.1860 C   0  0  0  0  0
   74.3770   77.7300  -17.1040 C   0  0  0  0  0
   73.7480   77.4180  -15.9010 C   0  0  0  0  0
   74.4870   77.0000  -14.8060 C   0  0  0  0  0
   73.8790   76.6670  -13.6000 C   0  0  0  0  0
   70.0190   74.7610   -7.3200 C   0  0  0  0  0
   71.7680   77.2090  -14.5600 C   0  0  0  0  0
   72.3330   76.7800  -10.8390 N   0  3  0  0  0
   69.1516   72.8783   -6.2402 H   0  0  0  0  0
   65.9055   75.9865   -7.2365 H   0  0  0  0  0
   67.3630   77.3842   -8.1904 H   0  0  0  0  0
   73.6757   75.3825   -7.8781 H   0  0  0  0  0
   69.7208   77.7579   -8.7935 H   0  0  0  0  0
   72.0976   77.1441   -8.1487 H   0  0  0  0  0
   71.2318   75.1659  -10.1289 H   0  0  0  0  0
   73.0763   75.1324   -9.8118 H   0  0  0  0  0
   71.7374   75.3636  -12.1635 H   0  0  0  0  0
   70.8674   77.0557  -12.2141 H   0  0  0  0  0
   70.5291   78.0746  -16.7364 H   0  0  0  0  0
   71.6283   78.5840  -18.8884 H   0  0  0  0  0
   74.0842   78.3878  -19.1379 H   0  0  0  0  0
   75.4599   77.6466  -17.1966 H   0  0  0  0  0
   75.5714   76.9304  -14.8917 H   0  0  0  0  0
   74.4858   76.3030  -12.7709 H   0  0  0  0  0
   70.7614   74.0079   -7.0559 H   0  0  0  0  0
   70.6834   77.2763  -14.4756 H   0  0  0  0  0
   73.3371   76.9168  -10.9551 H   0  0  0  0  0
   71.8484   77.6097  -10.4967 H   0  0  0  0  0
  1  2  1  0  0  0
  1  3  4  0  0  0
 21  1  4  0  0  0
  3  4  1  0  0  0
  5  3  4  0  0  0
  7  5  4  0  0  0
  9  6  1  0  0  0
  8  7  4  0  0  0
  9  8  1  0  0  0
  8 21  4  0  0  0
 10  9  1  0  0  0
 23 10  1  0  0  0
 12 11  1  0  0  0
 11 23  1  0  0  0
 12 20  4  0  0  0
 22 12  4  0  0  0
 13 14  4  0  0  0
 13 18  4  0  0  0
 13 22  4  0  0  0
 14 15  4  0  0  0
 15 16  4  0  0  0
 16 17  4  0  0  0
 17 18  4  0  0  0
 18 19  4  0  0  0
 19 20  4  0  0  0
  2 24  1  0  0  0
  4 25  1  0  0  0
  5 26  1  0  0  0
  6 27  1  0  0  0
  7 28  1  0  0  0
  9 29  1  0  0  0
 10 30  1  0  0  0
 10 31  1  0  0  0
 11 32  1  0  0  0
 11 33  1  0  0  0
 14 34  1  0  0  0
 15 35  1  0  0  0
 16 36  1  0  0  0
 17 37  1  0  0  0
 19 38  1  0  0  0
 20 39  1  0  0  0
 21 40  1  0  0  0
 22 41  1  0  0  0
 23 42  1  0  0  0
 23 43  1  0  0  0
M  END
$$$$
