4pl0_ligand
  -I-interpret- 

 48 50  0  0  0  0  0  0  0  0999 V2000
  -29.5350  -24.7030   11.1780 P   0  0  0  0  0
  -29.8540  -24.0840    9.7670 O   0  0  0  0  0
  -30.0150  -23.4750   12.0240 O   0  0  0  0  0
  -28.0850  -25.0840   11.2310 O   0  0  0  0  0
  -30.2650  -27.4770   11.8650 P   0  0  0  0  0
  -31.3260  -28.3420   11.0760 O   0  0  0  0  0
  -28.8590  -27.8920   11.6970 O   0  0  0  0  0
  -30.5980  -25.9060   11.5300 N   0  0  0  0  0
  -30.4420  -28.2350   14.7470 P   0  0  0  0  0
  -29.6900  -29.5790   14.6800 O   0  0  0  0  0
  -29.7160  -27.1060   15.3820 O   0  0  0  0  0
  -30.7450  -27.8570   13.2770 O   0  0  0  0  0
  -31.8530  -28.6440   15.4150 O   0  0  0  0  0
  -32.7970  -29.5710   14.8470 C   0  0  0  0  0
  -34.0830  -29.5480   15.6450 C   0  0  0  0  0
  -33.8200  -29.8250   17.0370 O   0  0  0  0  0
  -34.9130  -28.2640   15.6160 C   0  0  0  0  0
  -36.3070  -28.5550   15.5860 O   0  0  0  0  0
  -34.5040  -27.5610   16.9130 C   0  0  0  0  0
  -35.5200  -26.7100   17.4270 O   0  0  0  0  0
  -34.2470  -28.7440   17.8490 C   0  0  0  0  0
  -33.2190  -28.4880   18.8560 N   0  0  0  0  0
  -31.9130  -28.1290   18.6360 C   0  0  0  0  0
  -31.2110  -27.9670   19.7320 N   0  0  0  0  0
  -32.1190  -28.2320   20.7460 C   0  0  0  0  0
  -32.0070  -28.2100   22.1500 C   0  0  0  0  0
  -30.8630  -27.9620   22.7950 N   0  0  0  0  0
  -33.1160  -28.4890   22.8780 N   0  0  0  0  0
  -34.2520  -28.7860   22.2320 C   0  0  0  0  0
  -34.4750  -28.8500   20.9150 N   0  0  0  0  0
  -33.3610  -28.5550   20.2210 C   0  0  0  0  0
  -30.7813  -23.8386    9.7287 H   0  0  0  0  0
  -30.9578  -23.3479   11.8950 H   0  0  0  0  0
  -32.2065  -27.9992   11.2457 H   0  0  0  0  0
  -31.5838  -25.6442   11.5416 H   0  0  0  0  0
  -30.2465  -30.2349   14.2537 H   0  0  0  0  0
  -32.3751  -30.5757   14.8728 H   0  0  0  0  0
  -33.0075  -29.2846   13.8166 H   0  0  0  0  0
  -34.6738  -30.3121   15.1398 H   0  0  0  0  0
  -34.7364  -27.6520   14.7315 H   0  0  0  0  0
  -36.8039  -27.7338   15.5682 H   0  0  0  0  0
  -33.6502  -26.8964   16.7808 H   0  0  0  0  0
  -35.2108  -26.2973   18.2367 H   0  0  0  0  0
  -35.1682  -28.9486   18.3946 H   0  0  0  0  0
  -31.4958  -27.9907   17.6385 H   0  0  0  0  0
  -30.0102  -27.7754   22.2675 H   0  0  0  0  0
  -30.8427  -27.9593   23.8148 H   0  0  0  0  0
  -35.1109  -29.0052   22.8663 H   0  0  0  0  0
  1  2  1  0  0  0
  1  3  1  0  0  0
  1  4  2  0  0  0
  8  1  1  0  0  0
  5  6  1  0  0  0
  5  7  2  0  0  0
  5  8  1  0  0  0
 12  5  1  0  0  0
  9 10  1  0  0  0
  9 11  2  0  0  0
  9 12  1  0  0  0
  9 13  1  0  0  0
 13 14  1  0  0  0
 14 15  1  0  0  0
 15 16  1  0  0  0
 15 17  1  0  0  0
 16 21  1  0  0  0
 17 18  1  0  0  0
 17 19  1  0  0  0
 19 20  1  0  0  0
 19 21  1  0  0  0
 21 22  1  0  0  0
 22 23  4  0  0  0
 22 31  4  0  0  0
 23 24  4  0  0  0
 24 25  4  0  0  0
 25 26  4  0  0  0
 25 31  4  0  0  0
 26 27  1  0  0  0
 26 28  4  0  0  0
 28 29  4  0  0  0
 29 30  4  0  0  0
 30 31  4  0  0  0
  2 32  1  0  0  0
  3 33  1  0  0  0
  6 34  1  0  0  0
  8 35  1  0  0  0
 10 36  1  0  0  0
 14 37  1  0  0  0
 14 38  1  0  0  0
 15 39  1  0  0  0
 17 40  1  0  0  0
 18 41  1  0  0  0
 19 42  1  0  0  0
 20 43  1  0  0  0
 21 44  1  0  0  0
 23 45  1  0  0  0
 27 46  1  0  0  0
 27 47  1  0  0  0
 29 48  1  0  0  0
M  END
$$$$
