### 
### Created by X-TOOL on Mon Sep 10 21:13:20 2018
### 

@<TRIPOS>MOLECULE
4pl0_ligand
   44    46     1     0     0
SMALL
GAST_HUCK


@<TRIPOS>ATOM
      1 PG        -29.5350  -24.7030   11.1780 P.3       1 ANP         0.1803
      2 O1G       -29.8540  -24.0840    9.7670 O.co2     1 ANP        -0.5454
      3 O2G       -30.0150  -23.4750   12.0240 O.co2     1 ANP        -0.5454
      4 O3G       -28.0850  -25.0840   11.2310 O.co2     1 ANP        -0.5454
      5 PB        -30.2650  -27.4770   11.8650 P.3       1 ANP         0.2543
      6 O1B       -31.3260  -28.3420   11.0760 O.co2     1 ANP        -0.6257
      7 O2B       -28.8590  -27.8920   11.6970 O.co2     1 ANP        -0.6257
      8 N3B       -30.5980  -25.9060   11.5300 N.am      1 ANP        -0.1803
      9 PA        -30.4420  -28.2350   14.7470 P.3       1 ANP         0.2949
     10 O1A       -29.6900  -29.5790   14.6800 O.co2     1 ANP        -0.6129
     11 O2A       -29.7160  -27.1060   15.3820 O.co2     1 ANP        -0.6129
     12 O3A       -30.7450  -27.8570   13.2770 O.3       1 ANP        -0.1431
     13 O5'       -31.8530  -28.6440   15.4150 O.3       1 ANP        -0.2478
     14 C5'       -32.7970  -29.5710   14.8470 C.3       1 ANP         0.1128
     15 C4'       -34.0830  -29.5480   15.6450 C.3       1 ANP         0.1189
     16 O4'       -33.8200  -29.8250   17.0370 O.3       1 ANP        -0.3364
     17 C3'       -34.9130  -28.2640   15.6160 C.3       1 ANP         0.1149
     18 O3'       -36.3070  -28.5550   15.5860 O.3       1 ANP        -0.3864
     19 C2'       -34.5040  -27.5610   16.9130 C.3       1 ANP         0.1385
     20 O2'       -35.5200  -26.7100   17.4270 O.3       1 ANP        -0.3836
     21 C1'       -34.2470  -28.7440   17.8490 C.3       1 ANP         0.2010
     22 N9        -33.2190  -28.4880   18.8560 N.pl3     1 ANP        -0.1919
     23 C8        -31.9130  -28.1290   18.6360 C.2       1 ANP         0.1123
     24 N7        -31.2110  -27.9670   19.7320 N.2       1 ANP        -0.2958
     25 C5        -32.1190  -28.2320   20.7460 C.ar      1 ANP         0.1045
     26 C6        -32.0070  -28.2100   22.1500 C.ar      1 ANP         0.1298
     27 N6        -30.8630  -27.9620   22.7950 N.pl3     1 ANP        -0.3152
     28 N1        -33.1160  -28.4890   22.8780 N.ar      1 ANP        -0.2698
     29 C2        -34.2520  -28.7860   22.2320 C.ar      1 ANP         0.0533
     30 N3        -34.4750  -28.8500   20.9150 N.ar      1 ANP        -0.2714
     31 C4        -33.3610  -28.5550   20.2210 C.ar      1 ANP         0.1613
     32 H         -31.5644  -25.6493   11.5413 H         1 ANP         0.2132
     33 H         -32.3715  -30.5851   14.8696 H         1 ANP         0.0648
     34 H         -33.0082  -29.2851   13.8060 H         1 ANP         0.0648
     35 H         -34.7141  -30.3524   15.2393 H         1 ANP         0.0651
     36 H         -34.6541  -27.6490   14.7415 H         1 ANP         0.0648
     37 H         -36.7987  -27.7423   15.5684 H         1 ANP         0.2100
     38 H         -33.5881  -26.9707   16.7623 H         1 ANP         0.0676
     39 H         -35.7238  -26.0390   16.7860 H         1 ANP         0.2101
     40 H         -35.1847  -29.0045   18.3618 H         1 ANP         0.0996
     41 H         -31.4962  -27.9908   17.6394 H         1 ANP         0.1349
     42 H         -30.8425  -27.9593   23.8248 H         1 ANP         0.1820
     43 H         -30.0018  -27.7736   22.2623 H         1 ANP         0.1820
     44 H         -35.1062  -29.0040   22.8628 H         1 ANP         0.0996
@<TRIPOS>BOND
     1    1    2 ar 
     2    1    3 ar 
     3    1    4 ar 
     4    8    1 am 
     5    5    6 ar 
     6    5    7 ar 
     7    5    8 1  
     8   12    5 1  
     9    9   10 ar 
    10    9   11 ar 
    11    9   12 1  
    12    9   13 1  
    13   13   14 1  
    14   14   15 1  
    15   15   16 1  
    16   15   17 1  
    17   16   21 1  
    18   17   18 1  
    19   17   19 1  
    20   19   20 1  
    21   19   21 1  
    22   21   22 1  
    23   22   23 1  
    24   22   31 1  
    25   23   24 2  
    26   24   25 1  
    27   25   26 ar 
    28   25   31 ar 
    29   26   27 1  
    30   26   28 ar 
    31   28   29 ar 
    32   29   30 ar 
    33   30   31 ar 
    34    8   32 1  
    35   14   33 1  
    36   14   34 1  
    37   15   35 1  
    38   17   36 1  
    39   18   37 1  
    40   19   38 1  
    41   20   39 1  
    42   21   40 1  
    43   23   41 1  
    44   27   42 1  
    45   27   43 1  
    46   29   44 1  
@<TRIPOS>SUBSTRUCTURE
     1 ANP         1

