2ql9_ligand
  -I-interpret- 

 63 62  0  0  0  0  0  0  0  0999 V2000
  -57.0810   28.7610    0.5160 N   0  3  0  0  0
  -55.6930   28.2940    0.3850 C   0  0  0  0  0
  -55.5730   27.0860   -0.5360 C   0  0  0  0  0
  -56.5030   26.2870   -0.6440 O   0  0  0  0  0
  -55.2870   27.9510    1.8190 C   0  0  0  0  0
  -55.2470   29.1660    2.7220 C   0  0  0  0  0
  -54.5940   30.1610    2.3450 O   0  0  0  0  0
  -55.8560   29.1240    3.8130 O   0  0  0  0  0
  -54.4300   26.9660   -1.2030 N   0  0  0  0  0
  -54.1830   25.8580   -2.1140 C   0  0  0  0  0
  -52.9520   25.0810   -1.6610 C   0  0  0  0  0
  -52.1140   25.6080   -0.9250 O   0  0  0  0  0
  -53.9570   26.3810   -3.5340 C   0  0  0  0  0
  -55.0800   27.2470   -4.0670 C   0  0  0  0  0
  -54.8770   27.6230   -5.5220 C   0  0  0  0  0
  -53.8800   28.2570   -5.8850 O   0  0  0  0  0
  -55.8240   27.2280   -6.3690 N   0  0  0  0  0
  -52.8430   23.8310   -2.1060 N   0  0  0  0  0
  -51.7080   22.9930   -1.7420 C   0  0  0  0  0
  -50.6510   22.9490   -2.8410 C   0  0  0  0  0
  -50.9650   23.0830   -4.0260 O   0  0  0  0  0
  -52.1710   21.5680   -1.4330 C   0  0  0  0  0
  -53.0690   21.4510   -0.2160 C   0  0  0  0  0
  -54.6770   20.7520   -0.6270 S   0  0  0  0  0
  -55.6220   22.2370   -0.9090 C   0  0  0  0  0
  -49.3990   22.7590   -2.4270 N   0  0  0  0  0
  -48.2560   22.6740   -3.3300 C   0  0  0  0  0
  -47.6120   21.3080   -3.2650 C   0  0  0  0  0
  -47.7660   20.6080   -4.4900 O   0  0  0  0  0
  -47.1810   23.6890   -2.9420 C   0  0  0  0  0
  -47.3610   25.0230   -3.6220 C   0  0  0  0  0
  -46.9420   26.0390   -3.0280 O   0  0  0  0  0
  -47.9140   25.0590   -4.7430 O   0  0  0  0  0
  -57.4410   29.0158   -0.4037 H   0  0  0  0  0
  -57.6534   28.0153    0.9118 H   0  0  0  0  0
  -57.1081   29.5747    1.1304 H   0  0  0  0  0
  -55.0480   29.0462   -0.0692 H   0  0  0  0  0
  -54.2850   27.5229    1.7897 H   0  0  0  0  0
  -56.0284   27.2601    2.2204 H   0  0  0  0  0
  -56.2895   28.2722    3.9036 H   0  0  0  0  0
  -53.7045   27.6710   -1.0728 H   0  0  0  0  0
  -55.0527   25.2010   -2.1084 H   0  0  0  0  0
  -53.8850   25.5118   -4.1877 H   0  0  0  0  0
  -53.0600   26.9997   -3.5084 H   0  0  0  0  0
  -55.1054   28.1657   -3.4810 H   0  0  0  0  0
  -56.0084   26.6811   -3.9906 H   0  0  0  0  0
  -55.7436   27.4467   -7.3620 H   0  0  0  0  0
  -56.6304   26.7065   -6.0253 H   0  0  0  0  0
  -53.5689   23.4522   -2.7142 H   0  0  0  0  0
  -51.2588   23.4381   -0.8542 H   0  0  0  0  0
  -51.2772   20.9784   -1.2289 H   0  0  0  0  0
  -52.7494   21.2264   -2.2914 H   0  0  0  0  0
  -53.2258   22.4509    0.1887 H   0  0  0  0  0
  -52.5841   20.7901    0.5025 H   0  0  0  0  0
  -55.6263   22.8412   -0.0018 H   0  0  0  0  0
  -55.1705   22.8044   -1.7228 H   0  0  0  0  0
  -56.6450   21.9702   -1.1743 H   0  0  0  0  0
  -49.2304   22.6681   -1.4251 H   0  0  0  0  0
  -48.6348   22.8726   -4.3326 H   0  0  0  0  0
  -47.0960   20.9118   -2.3904 H   0  0  0  0  0
  -46.2160   23.2860   -3.2495 H   0  0  0  0  0
  -47.2493   23.8516   -1.8664 H   0  0  0  0  0
  -48.1545   24.1684   -5.0087 H   0  0  0  0  0
  1  2  1  0  0  0
  2  3  1  0  0  0
  2  5  1  0  0  0
  3  4  2  0  0  0
  3  9  1  0  0  0
  5  6  1  0  0  0
  6  7  2  0  0  0
  6  8  1  0  0  0
  9 10  1  0  0  0
 10 11  1  0  0  0
 10 13  1  0  0  0
 11 12  2  0  0  0
 11 18  1  0  0  0
 13 14  1  0  0  0
 14 15  1  0  0  0
 15 16  2  0  0  0
 15 17  1  0  0  0
 18 19  1  0  0  0
 19 20  1  0  0  0
 19 22  1  0  0  0
 20 21  2  0  0  0
 20 26  1  0  0  0
 22 23  1  0  0  0
 23 24  1  0  0  0
 24 25  1  0  0  0
 26 27  1  0  0  0
 27 28  1  0  0  0
 27 30  1  0  0  0
 28 29  2  0  0  0
 30 31  1  0  0  0
 31 32  2  0  0  0
 31 33  1  0  0  0
  1 34  1  0  0  0
  1 35  1  0  0  0
  1 36  1  0  0  0
  2 37  1  0  0  0
  5 38  1  0  0  0
  5 39  1  0  0  0
  8 40  1  0  0  0
  9 41  1  0  0  0
 10 42  1  0  0  0
 13 43  1  0  0  0
 13 44  1  0  0  0
 14 45  1  0  0  0
 14 46  1  0  0  0
 17 47  1  0  0  0
 17 48  1  0  0  0
 18 49  1  0  0  0
 19 50  1  0  0  0
 22 51  1  0  0  0
 22 52  1  0  0  0
 23 53  1  0  0  0
 23 54  1  0  0  0
 25 55  1  0  0  0
 25 56  1  0  0  0
 25 57  1  0  0  0
 26 58  1  0  0  0
 27 59  1  0  0  0
 28 60  1  0  0  0
 30 61  1  0  0  0
 30 62  1  0  0  0
 33 63  1  0  0  0
M  END
$$$$
