5fcw_ligand
  -I-interpret- 

 31 33  0  0  0  0  0  0  0  0999 V2000
   38.8450   17.0600  123.3070 C   0  0  0  0  0
   38.5040   15.7610  122.9630 C   0  0  0  0  0
   37.1920   15.2890  123.1180 C   0  0  0  0  0
   36.2040   16.1470  123.7030 C   0  0  0  0  0
   36.5520   17.4310  124.0360 C   0  0  0  0  0
   37.8850   17.9080  123.8430 C   0  0  0  0  0
   34.8650   15.7280  123.9190 C   0  0  0  0  0
   33.9240   16.6230  124.4720 C   0  0  0  0  0
   36.6530    8.9440  121.1100 O   0  0  0  0  0
   34.2870   17.9200  124.8010 C   0  0  0  0  0
   35.5910   18.3360  124.5910 C   0  0  0  0  0
   37.0550   13.8340  122.7580 C   0  0  0  0  0
   36.6470   12.9720  123.7890 C   0  0  0  0  0
   36.5660   11.5980  123.5750 C   0  0  0  0  0
   36.9960    8.7840  123.4640 N   0  0  0  0  0
   36.8990   11.0520  122.3280 C   0  0  0  0  0
   37.3410   11.8990  121.3010 C   0  0  0  0  0
   37.4340   13.2950  121.5240 C   0  0  0  0  0
   36.8040    9.5350  122.2170 C   0  0  0  0  0
   36.9730    7.5030  123.6120 O   0  0  0  0  0
   39.8646   17.4149  123.1570 H   0  0  0  0  0
   39.2690   15.0944  122.5649 H   0  0  0  0  0
   38.1465   18.9307  124.1147 H   0  0  0  0  0
   34.5631   14.7138  123.6575 H   0  0  0  0  0
   32.9000   16.2906  124.6424 H   0  0  0  0  0
   33.5521   18.6065  125.2214 H   0  0  0  0  0
   35.8862   19.3532  124.8484 H   0  0  0  0  0
   36.3913   13.3821  124.7660 H   0  0  0  0  0
   36.2413   10.9427  124.3833 H   0  0  0  0  0
   37.6130   11.4830  120.3309 H   0  0  0  0  0
   37.8011   13.9495  120.7335 H   0  0  0  0  0
  2  1  4  0  0  0
  1  6  4  0  0  0
  3  2  4  0  0  0
  3  4  4  0  0  0
 12  3  1  0  0  0
  4  5  4  0  0  0
  4  7  4  0  0  0
  5  6  4  0  0  0
  5 11  4  0  0  0
  7  8  4  0  0  0
  8 10  4  0  0  0
 19  9  2  0  0  0
 11 10  4  0  0  0
 13 12  4  0  0  0
 12 18  4  0  0  0
 14 13  4  0  0  0
 16 14  4  0  0  0
 19 15  1  0  0  0
 15 20  2  0  0  0
 16 17  4  0  0  0
 16 19  1  0  0  0
 17 18  4  0  0  0
  1 21  1  0  0  0
  2 22  1  0  0  0
  6 23  1  0  0  0
  7 24  1  0  0  0
  8 25  1  0  0  0
 10 26  1  0  0  0
 11 27  1  0  0  0
 13 28  1  0  0  0
 14 29  1  0  0  0
 17 30  1  0  0  0
 18 31  1  0  0  0
M  END
$$$$
