2a5b_ligand
  -I-interpret- 

 33 35  0  0  0  0  0  0  0  0999 V2000
   -0.3450   27.7960    0.0040 O   0  0  0  0  0
    0.5210   28.3010   -0.7500 C   0  0  0  0  0
    1.3440   29.2150   -0.2300 N   0  0  0  0  0
    2.2870   29.7720   -0.9910 C   0  0  0  0  0
    3.1170   30.6710   -0.5130 N   0  0  0  0  0
    2.4710   29.4770   -2.2760 N   0  0  0  0  0
    1.6670   28.5630   -2.8590 C   0  0  0  0  0
    0.6540   27.9370   -2.1040 C   0  0  0  0  0
    0.0080   27.0750   -2.9350 N   0  0  0  0  0
    0.6350   27.2190   -4.1130 C   0  0  0  0  0
    0.2880   26.5660   -5.1640 O   0  0  0  0  0
    1.6470   28.1050   -4.1100 N   0  0  0  0  0
    2.5440   28.5020   -5.2430 C   0  0  0  0  0
    3.7330   29.2840   -4.9760 O   0  0  0  0  0
    1.7440   29.3490   -6.2270 C   0  0  0  0  0
    2.7820   30.2110   -6.9160 C   0  0  0  0  0
    2.6750   29.8820   -8.3030 O   0  0  0  0  0
    4.1000   29.7610   -6.2810 C   0  0  0  0  0
    5.1850   30.8180   -6.3070 C   0  0  0  0  0
    4.7560   31.9000   -7.1520 O   0  0  0  0  0
    1.2515   29.4870    0.7487 H   0  0  0  0  0
    3.8285   31.0810   -1.1180 H   0  0  0  0  0
    3.0500   30.9590    0.4632 H   0  0  0  0  0
   -0.7746   26.4595   -2.7133 H   0  0  0  0  0
    2.8972   27.5304   -5.5883 H   0  0  0  0  0
    0.9828   29.9474   -5.7265 H   0  0  0  0  0
    1.1866   28.7358   -6.9351 H   0  0  0  0  0
    2.6821   31.2918   -6.8165 H   0  0  0  0  0
    3.3116   30.3979   -8.8031 H   0  0  0  0  0
    4.5812   28.9679   -6.8533 H   0  0  0  0  0
    6.1093   30.3898   -6.6949 H   0  0  0  0  0
    5.3665   31.1867   -5.2974 H   0  0  0  0  0
    5.4373   32.5759   -7.1752 H   0  0  0  0  0
  1  2  2  0  0  0
  2  3  1  0  0  0
  2  8  1  0  0  0
  3  4  1  0  0  0
  4  5  1  0  0  0
  4  6  2  0  0  0
  6  7  1  0  0  0
  7  8  2  0  0  0
  7 12  1  0  0  0
  8  9  1  0  0  0
  9 10  1  0  0  0
 10 11  2  0  0  0
 10 12  1  0  0  0
 12 13  1  0  0  0
 13 14  1  0  0  0
 13 15  1  0  0  0
 14 18  1  0  0  0
 15 16  1  0  0  0
 16 17  1  0  0  0
 16 18  1  0  0  0
 18 19  1  0  0  0
 19 20  1  0  0  0
  3 21  1  0  0  0
  5 22  1  0  0  0
  5 23  1  0  0  0
  9 24  1  0  0  0
 13 25  1  0  0  0
 15 26  1  0  0  0
 15 27  1  0  0  0
 16 28  1  0  0  0
 17 29  1  0  0  0
 18 30  1  0  0  0
 19 31  1  0  0  0
 19 32  1  0  0  0
 20 33  1  0  0  0
M  END
$$$$
