### 
### Created by X-TOOL on Mon Sep 10 21:12:52 2018
### 

@<TRIPOS>MOLECULE
1opi_ligand
  244   246     1     0     0
SMALL
GAST_HUCK


@<TRIPOS>ATOM
      1 N          11.1250    5.2070   19.5130 N.4       1 PRO         0.2461
      2 CA         10.7440    4.5740   18.2450 C.3       1 PRO         0.0670
      3 C          11.6480    3.3990   17.8890 C.2       1 PRO         0.2268
      4 O          12.8440    3.5730   17.6560 O.2       1 PRO        -0.3907
      5 CB         10.8980    5.6960   17.2150 C.3       1 PRO         0.0127
      6 CG         10.8150    6.9560   17.9940 C.3       1 PRO        -0.0053
      7 CD         11.3790    6.6510   19.3530 C.3       1 PRO        -0.0313
      8 N          11.0670    2.2030   17.8510 N.am      1 SER        -0.2589
      9 CA         11.8190    0.9970   17.5220 C.3       1 SER         0.1540
     10 C          11.5580    0.5710   16.0810 C.2       1 SER         0.2062
     11 O          10.9990    1.3320   15.2910 O.2       1 SER        -0.3943
     12 CB         11.4450   -0.1370   18.4770 C.3       1 SER         0.0843
     13 OG         12.6010   -0.7910   18.9700 O.3       1 SER        -0.3903
     14 N          11.9650   -0.6520   15.7490 N.am      1 LYS        -0.2637
     15 CA         11.7770   -1.1870   14.4030 C.3       1 LYS         0.1310
     16 C          12.3940   -0.2600   13.3580 C.2       1 LYS         0.2039
     17 O          11.7380    0.1260   12.3900 O.2       1 LYS        -0.3944
     18 CB         10.2870   -1.3880   14.1150 C.3       1 LYS        -0.0122
     19 CG          9.7710   -2.7610   14.5120 C.3       1 LYS        -0.0440
     20 CD          8.9510   -2.7010   15.7910 C.3       1 LYS        -0.0124
     21 CE          7.9230   -3.8180   15.8450 C.3       1 LYS        -0.0354
     22 NZ          6.9170   -3.5960   16.9190 N.4       1 LYS         0.2185
     23 N          13.6610    0.0910   13.5610 N.am      1 LYS        -0.2637
     24 CA         14.3670    0.9740   12.6380 C.3       1 LYS         0.1310
     25 C          15.5550    0.2600   11.9980 C.2       1 LYS         0.2039
     26 O          15.8650    0.4800   10.8270 O.2       1 LYS        -0.3944
     27 CB         14.8420    2.2340   13.3670 C.3       1 LYS        -0.0122
     28 CG         15.8330    1.9560   14.4860 C.3       1 LYS        -0.0440
     29 CD         15.4050    2.6160   15.7860 C.3       1 LYS        -0.0124
     30 CE         15.5690    1.6760   16.9690 C.3       1 LYS        -0.0354
     31 NZ         16.9820    1.2390   17.1400 N.4       1 LYS         0.2185
     32 N          16.2160   -0.5930   12.7730 N.am      1 ARG        -0.2637
     33 CA         17.3680   -1.3390   12.2820 C.3       1 ARG         0.1311
     34 C          17.4400   -2.7160   12.9330 C.2       1 ARG         0.2039
     35 O          18.0290   -2.8800   14.0010 O.2       1 ARG        -0.3944
     36 CB         18.6590   -0.5640   12.5540 C.3       1 ARG        -0.0092
     37 CG         19.0360    0.3990   11.4390 C.3       1 ARG        -0.0156
     38 CD         20.5370    0.4150   11.1990 C.3       1 ARG         0.0627
     39 NE         21.0570   -0.9170   10.8960 N.pl3     1 ARG        -0.2723
     40 CZ         22.2580   -1.3430   11.2760 C.cat     1 ARG         0.2882
     41 NH1        23.0630   -0.5450   11.9650 N.pl3     1 ARG        -0.2849
     42 NH2        22.6560   -2.5690   10.9640 N.pl3     1 ARG        -0.2849
     43 N          16.8330   -3.7030   12.2810 N.am      1 LYS        -0.2637
     44 CA         16.8260   -5.0670   12.7940 C.3       1 LYS         0.1310
     45 C          16.4290   -6.0550   11.7030 C.2       1 LYS         0.2039
     46 O          17.1480   -7.0170   11.4310 O.2       1 LYS        -0.3944
     47 CB         15.8610   -5.1840   13.9760 C.3       1 LYS        -0.0122
     48 CG         16.1130   -6.4050   14.8440 C.3       1 LYS        -0.0440
     49 CD         17.1820   -6.1350   15.8890 C.3       1 LYS        -0.0124
     50 CE         16.6770   -6.4300   17.2920 C.3       1 LYS        -0.0354
     51 NZ         16.8630   -7.8610   17.6590 N.4       1 LYS         0.2185
     52 N          15.2800   -5.8090   11.0810 N.am      1 ARG        -0.2637
     53 CA         14.7840   -6.6770   10.0210 C.3       1 ARG         0.1311
     54 C          14.4400   -5.8720    8.7720 C.2       1 ARG         0.2040
     55 O          13.4840   -5.0950    8.7670 O.2       1 ARG        -0.3944
     56 CB         13.5520   -7.4470   10.5010 C.3       1 ARG        -0.0092
     57 CG         13.3510   -8.7760    9.7940 C.3       1 ARG        -0.0156
     58 CD         13.8540   -9.9370   10.6380 C.3       1 ARG         0.0627
     59 NE         13.5670  -11.2280   10.0200 N.pl3     1 ARG        -0.2723
     60 CZ         12.5550  -12.0100   10.3830 C.cat     1 ARG         0.2882
     61 NH1        11.7380  -11.6360   11.3600 N.pl3     1 ARG        -0.2849
     62 NH2        12.3580  -13.1690    9.7690 N.pl3     1 ARG        -0.2849
     63 N          15.2260   -6.0620    7.7160 N.am      1 SER        -0.2616
     64 CA         15.0000   -5.3550    6.4610 C.3       1 SER         0.1539
     65 C          13.6610   -5.7550    5.8520 C.2       1 SER         0.2062
     66 O          13.3890   -6.9390    5.6480 O.2       1 SER        -0.3943
     67 CB         16.1300   -5.6500    5.4730 C.3       1 SER         0.0843
     68 OG         16.8480   -6.8110    5.8500 O.3       1 SER        -0.3903
     69 N          12.8260   -4.7600    5.5650 N.am      1 ARG        -0.2637
     70 CA         11.5120   -5.0090    4.9830 C.3       1 ARG         0.1311
     71 C          11.4380   -4.4760    3.5560 C.2       1 ARG         0.2040
     72 O          10.3560   -4.3740    2.9790 O.2       1 ARG        -0.3944
     73 CB         10.4250   -4.3590    5.8380 C.3       1 ARG        -0.0092
     74 CG         10.0440   -5.1790    7.0600 C.3       1 ARG        -0.0156
     75 CD          8.6800   -5.8280    6.8920 C.3       1 ARG         0.0627
     76 NE          8.5190   -6.9950    7.7530 N.pl3     1 ARG        -0.2723
     77 CZ          7.4150   -7.2520    8.4470 C.cat     1 ARG         0.2882
     78 NH1         6.3780   -6.4290    8.3790 N.pl3     1 ARG        -0.2849
     79 NH2         7.3460   -8.3350    9.2110 N.pl3     1 ARG        -0.2849
     80 N          12.5930   -4.1350    2.9940 N.am      1 TRP        -0.2627
     81 CA         12.6570   -3.6120    1.6340 C.3       1 TRP         0.1352
     82 C          13.8880   -4.1440    0.9080 C.2       1 TRP         0.2053
     83 O          14.6830   -3.3770    0.3640 O.2       1 TRP        -0.3942
     84 CB         12.6730   -2.0810    1.6530 C.3       1 TRP         0.0042
     85 CG         11.5180   -1.4860    2.4030 C.2       1 TRP        -0.0418
     86 CD1        11.5170   -1.0590    3.6990 C.2       1 TRP         0.0167
     87 CD2        10.1960   -1.2550    1.9020 C.ar      1 TRP        -0.0214
     88 NE1        10.2760   -0.5780    4.0360 N.pl3     1 TRP        -0.2890
     89 CE2         9.4470   -0.6870    2.9500 C.ar      1 TRP         0.0603
     90 CE3         9.5720   -1.4740    0.6710 C.ar      1 TRP        -0.0747
     91 CZ2         8.1080   -0.3330    2.8030 C.ar      1 TRP        -0.0443
     92 CZ3         8.2420   -1.1230    0.5260 C.ar      1 TRP        -0.0792
     93 CH2         7.5240   -0.5590    1.5870 C.ar      1 TRP        -0.0768
     94 N          14.0380   -5.4650    0.9050 N.am      1 ASN        -0.2615
     95 CA         15.1710   -6.1080    0.2460 C.3       1 ASN         0.1476
     96 C          14.9380   -6.2120   -1.2580 C.2       1 ASN         0.2063
     97 O          14.1650   -5.4430   -1.8300 O.2       1 ASN        -0.3942
     98 CB         15.4070   -7.4990    0.8390 C.3       1 ASN         0.0773
     99 CG         16.8430   -7.7050    1.2780 C.2       1 ASN         0.1780
    100 OD1        17.4910   -8.6770    0.8890 O.2       1 ASN        -0.3970
    101 ND2        17.3510   -6.7860    2.0920 N.am      1 ASN        -0.3007
    102 N          15.6160   -7.1640   -1.8940 N.am      1 GLN        -0.2634
    103 CA         15.4790   -7.3720   -3.3330 C.3       1 GLN         0.1330
    104 C          16.1500   -8.6740   -3.7610 C.2       1 GLN         0.2036
    105 O          15.6470   -9.3850   -4.6310 O.2       1 GLN        -0.3944
    106 CB         16.0800   -6.1940   -4.1020 C.3       1 GLN         0.0045
    107 CG         17.5660   -5.9890   -3.8470 C.3       1 GLN         0.0412
    108 CD         18.1150   -4.7710   -4.5630 C.2       1 GLN         0.1737
    109 OE1        17.5450   -4.3040   -5.5490 O.2       1 GLN        -0.3973
    110 NE2        19.2300   -4.2470   -4.0670 N.am      1 GLN        -0.3009
    111 N          17.2880   -8.9810   -3.1430 N.am      1 ASP        -0.2679
    112 CA         18.0280  -10.1970   -3.4580 C.3       1 ASP         0.1057
    113 C          18.0420  -11.1470   -2.2650 C.2       1 ASP         0.0618
    114 O          18.5140  -10.7330   -1.1860 O.co2     1 ASP        -0.5665
    115 CB         19.4620   -9.8550   -3.8680 C.3       1 ASP         0.0351
    116 CG         19.8460  -10.4700   -5.1990 C.2       1 ASP         0.0387
    117 OD1        19.2100  -10.1260   -6.2180 O.co2     1 ASP        -0.5688
    118 OD2        20.7810  -11.2980   -5.2230 O.co2     1 ASP        -0.5688
    119 OXT        17.5810  -12.2970   -2.4210 O.co2     1 ASP        -0.5665
    120 H1         11.9624    4.7653   19.8589 H         1 PRO         0.2035
    121 H2         10.3784    5.0793   20.1781 H         1 PRO         0.2035
    122 H3          9.7017    4.2254   18.2892 H         1 PRO         0.1099
    123 H4         10.0896    5.6493   16.4705 H         1 PRO         0.0347
    124 H5         11.8702    5.6211   16.7059 H         1 PRO         0.0347
    125 H6          9.7679    7.2816   18.0808 H         1 PRO         0.0320
    126 H7         11.4052    7.7452   17.5054 H         1 PRO         0.0320
    127 H8         12.4569    6.8673   19.3893 H         1 PRO         0.0814
    128 H9         10.8623    7.2302   20.1325 H         1 PRO         0.0814
    129 H10        10.0904    2.1287   18.0530 H         1 SER         0.1885
    130 H11        12.8917    1.2129   17.6345 H         1 SER         0.0823
    131 H12        10.8205   -0.8668   17.9410 H         1 SER         0.0606
    132 H13        10.8788    0.2784   19.3236 H         1 SER         0.0606
    133 H14        12.3413   -1.4893   19.5593 H         1 SER         0.2097
    134 H15        12.4118   -1.2202   16.4401 H         1 LYS         0.1883
    135 H16        12.2803   -2.1633   14.3433 H         1 LYS         0.0800
    136 H17        10.1198   -1.2521   13.0363 H         1 LYS         0.0312
    137 H18         9.7194   -0.6285   14.6726 H         1 LYS         0.0312
    138 H19        10.6276   -3.4332   14.6681 H         1 LYS         0.0269
    139 H20         9.1398   -3.1536   13.7012 H         1 LYS         0.0269
    140 H21         8.4302   -1.7332   15.8368 H         1 LYS         0.0317
    141 H22         9.6268   -2.7950   16.6538 H         1 LYS         0.0317
    142 H23         8.4415   -4.7694   16.0348 H         1 LYS         0.0813
    143 H24         7.4036   -3.8702   14.8768 H         1 LYS         0.0813
    144 H25         6.2552   -4.3563   16.9218 H         1 LYS         0.1994
    145 H26         6.4317   -2.7287   16.7507 H         1 LYS         0.1994
    146 H27         7.3827   -3.5527   17.8119 H         1 LYS         0.1994
    147 H28        14.1413   -0.2586   14.3654 H         1 LYS         0.1883
    148 H29        13.6698    1.2721   11.8411 H         1 LYS         0.0800
    149 H30        13.9641    2.7377   13.7979 H         1 LYS         0.0312
    150 H31        15.3231    2.8985   12.6343 H         1 LYS         0.0312
    151 H32        16.8194    2.3462   14.1950 H         1 LYS         0.0269
    152 H33        15.9001    0.8692   14.6422 H         1 LYS         0.0269
    153 H34        14.3478    2.9094   15.7067 H         1 LYS         0.0317
    154 H35        16.0224    3.5110   15.9526 H         1 LYS         0.0317
    155 H36        14.9395    0.7885   16.8078 H         1 LYS         0.0813
    156 H37        15.2443    2.1948   17.8830 H         1 LYS         0.0813
    157 H38        17.0484    0.6191   17.9320 H         1 LYS         0.1994
    158 H39        17.5668    2.0454   17.2945 H         1 LYS         0.1994
    159 H40        17.2874    0.7567   16.3093 H         1 LYS         0.1994
    160 H41        15.9155   -0.7267   13.7174 H         1 ARG         0.1883
    161 H42        17.2599   -1.4712   11.1953 H         1 ARG         0.0800
    162 H43        19.4784   -1.2867   12.6815 H         1 ARG         0.0313
    163 H44        18.5302    0.0118   13.4823 H         1 ARG         0.0313
    164 H45        18.7077    1.4118   11.7154 H         1 ARG         0.0301
    165 H46        18.5295    0.0893   10.5130 H         1 ARG         0.0301
    166 H47        21.0371    0.7945   12.1022 H         1 ARG         0.0689
    167 H48        20.7542    1.0822   10.3519 H         1 ARG         0.0689
    168 H49        20.4600   -1.5615   10.3583 H         1 ARG         0.2642
    169 H50        23.9925   -0.8790   12.2574 H         1 ARG         0.2615
    170 H51        22.7586    0.4086   12.2076 H         1 ARG         0.2615
    171 H52        22.0340   -3.1919   10.4291 H         1 ARG         0.2615
    172 H53        23.5871   -2.8983   11.2566 H         1 ARG         0.2615
    173 H54        16.3698   -3.5045   11.4173 H         1 LYS         0.1883
    174 H55        17.8401   -5.3153   13.1403 H         1 LYS         0.0800
    175 H56        14.8349   -5.2412   13.5837 H         1 LYS         0.0312
    176 H57        15.9650   -4.2848   14.6010 H         1 LYS         0.0312
    177 H58        16.4414   -7.2370   14.2037 H         1 LYS         0.0269
    178 H59        15.1776   -6.6809   15.3528 H         1 LYS         0.0269
    179 H60        17.4793   -5.0775   15.8312 H         1 LYS         0.0317
    180 H61        18.0538   -6.7729   15.6815 H         1 LYS         0.0317
    181 H62        15.6056   -6.1861   17.3431 H         1 LYS         0.0813
    182 H63        17.2301   -5.8044   18.0080 H         1 LYS         0.0813
    183 H64        16.5171   -8.0160   18.5930 H         1 LYS         0.1994
    184 H65        17.8432   -8.0930   17.6209 H         1 LYS         0.1994
    185 H66        16.3546   -8.4428   17.0116 H         1 LYS         0.1994
    186 H67        14.7430   -5.0085   11.3472 H         1 ARG         0.1883
    187 H68        15.5729   -7.3995    9.7647 H         1 ARG         0.0800
    188 H69        12.6628   -6.8231   10.3276 H         1 ARG         0.0313
    189 H70        13.6604   -7.6395   11.5786 H         1 ARG         0.0313
    190 H71        13.9015   -8.7614    8.8418 H         1 ARG         0.0301
    191 H72        12.2783   -8.9168    9.5953 H         1 ARG         0.0301
    192 H73        13.3649   -9.8982   11.6225 H         1 ARG         0.0689
    193 H74        14.9422   -9.8383   10.7649 H         1 ARG         0.0689
    194 H75        14.1829  -11.5511    9.2603 H         1 ARG         0.2642
    195 H76        10.9552  -12.2449   11.6381 H         1 ARG         0.2615
    196 H77        11.8869  -10.7369   11.8400 H         1 ARG         0.2615
    197 H78        12.9892  -13.4637    9.0103 H         1 ARG         0.2615
    198 H79        11.5738  -13.7744   10.0509 H         1 ARG         0.2615
    199 H80        15.9893   -6.7044    7.7843 H         1 SER         0.1884
    200 H81        14.9841   -4.2744    6.6661 H         1 SER         0.0823
    201 H82        16.8195   -4.7932    5.4498 H         1 SER         0.0606
    202 H83        15.7008   -5.8026    4.4717 H         1 SER         0.0606
    203 H84        17.5420   -6.9709    5.2213 H         1 SER         0.2097
    204 H85        13.1060   -3.8185    5.7528 H         1 ARG         0.1883
    205 H86        11.3405   -6.0953    4.9603 H         1 ARG         0.0800
    206 H87         9.5278   -4.2230    5.2164 H         1 ARG         0.0313
    207 H88        10.7886   -3.3777    6.1767 H         1 ARG         0.0313
    208 H89        10.0200   -4.5193    7.9399 H         1 ARG         0.0301
    209 H90        10.7978   -5.9656    7.2119 H         1 ARG         0.0301
    210 H91         8.5626   -6.1412    5.8441 H         1 ARG         0.0689
    211 H92         7.9029   -5.0913    7.1438 H         1 ARG         0.0689
    212 H93         9.3049   -7.6566    7.8271 H         1 ARG         0.2642
    213 H94         5.5239   -6.6311    8.9181 H         1 ARG         0.2615
    214 H95         6.4263   -5.5875    7.7871 H         1 ARG         0.2615
    215 H96         8.1490   -8.9776    9.2672 H         1 ARG         0.2615
    216 H97         6.4894   -8.5329    9.7477 H         1 ARG         0.2615
    217 H98        13.4392   -4.2396    3.5165 H         1 TRP         0.1884
    218 H99        11.7608   -3.9456    1.0903 H         1 TRP         0.0815
    219 H100       12.6396   -1.7183    0.6151 H         1 TRP         0.0397
    220 H101       13.6072   -1.7472    2.1282 H         1 TRP         0.0397
    221 H102       12.3753   -1.0946    4.3683 H         1 TRP         0.0795
    222 H103       10.0110   -0.1971    4.9556 H         1 TRP         0.2216
    223 H104       10.1205   -1.9112   -0.1555 H         1 TRP         0.0540
    224 H105        7.5494    0.1054    3.6220 H         1 TRP         0.0541
    225 H106        7.7477   -1.2873   -0.4246 H         1 TRP         0.0510
    226 H107        6.4826   -0.2956    1.4418 H         1 TRP         0.0530
    227 H108       13.3567   -6.0333    1.3664 H         1 ASN         0.1885
    228 H109       16.0683   -5.4955    0.4186 H         1 ASN         0.0826
    229 H110       15.1586   -8.2539    0.0784 H         1 ASN         0.0551
    230 H111       14.7493   -7.6272    1.7114 H         1 ASN         0.0551
    231 H112       18.2939   -6.8699    2.4144 H         1 ASN         0.1814
    232 H113       16.7905   -6.0104    2.3823 H         1 ASN         0.1814
    233 H114       16.2351   -7.7520   -1.3734 H         1 GLN         0.1883
    234 H115       14.4076   -7.4369   -3.5738 H         1 GLN         0.0801
    235 H116       15.5476   -5.2782   -3.8055 H         1 GLN         0.0337
    236 H117       15.9339   -6.3711   -5.1778 H         1 GLN         0.0337
    237 H118       18.1100   -6.8788   -4.1967 H         1 GLN         0.0504
    238 H119       17.7244   -5.8638   -2.7657 H         1 GLN         0.0504
    239 H120       19.6390   -3.4424   -4.4976 H         1 GLN         0.1814
    240 H121       19.6606   -4.6570   -3.2629 H         1 GLN         0.1814
    241 H122       17.6449   -8.3612   -2.4441 H         1 ASP         0.1876
    242 H123       17.5310  -10.6997   -4.3007 H         1 ASP         0.0745
    243 H124       20.1491  -10.2294   -3.0949 H         1 ASP         0.0471
    244 H125       19.5562   -8.7617   -3.9440 H         1 ASP         0.0471
@<TRIPOS>BOND
     1    1    2 1  
     2    1    7 1  
     3    2    3 1  
     4    2    5 1  
     5    3    4 2  
     6    3    8 am 
     7    5    6 1  
     8    6    7 1  
     9    8    9 1  
    10    9   10 1  
    11    9   12 1  
    12   10   11 2  
    13   10   14 am 
    14   12   13 1  
    15   14   15 1  
    16   15   16 1  
    17   15   18 1  
    18   16   17 2  
    19   16   23 am 
    20   18   19 1  
    21   19   20 1  
    22   20   21 1  
    23   21   22 1  
    24   23   24 1  
    25   24   25 1  
    26   24   27 1  
    27   25   26 2  
    28   25   32 am 
    29   27   28 1  
    30   28   29 1  
    31   29   30 1  
    32   30   31 1  
    33   32   33 1  
    34   33   34 1  
    35   33   36 1  
    36   34   35 2  
    37   34   43 am 
    38   36   37 1  
    39   37   38 1  
    40   38   39 1  
    41   39   40 ar 
    42   40   41 ar 
    43   40   42 ar 
    44   43   44 1  
    45   44   45 1  
    46   44   47 1  
    47   45   46 2  
    48   45   52 am 
    49   47   48 1  
    50   48   49 1  
    51   49   50 1  
    52   50   51 1  
    53   52   53 1  
    54   53   54 1  
    55   53   56 1  
    56   54   55 2  
    57   54   63 am 
    58   56   57 1  
    59   57   58 1  
    60   58   59 1  
    61   59   60 ar 
    62   60   61 ar 
    63   60   62 ar 
    64   63   64 1  
    65   64   65 1  
    66   64   67 1  
    67   65   66 2  
    68   65   69 am 
    69   67   68 1  
    70   69   70 1  
    71   70   71 1  
    72   70   73 1  
    73   71   72 2  
    74   71   80 am 
    75   73   74 1  
    76   74   75 1  
    77   75   76 1  
    78   76   77 ar 
    79   77   78 ar 
    80   77   79 ar 
    81   80   81 1  
    82   81   82 1  
    83   81   84 1  
    84   82   83 2  
    85   82   94 am 
    86   84   85 1  
    87   85   86 2  
    88   85   87 1  
    89   86   88 1  
    90   87   89 ar 
    91   87   90 ar 
    92   88   89 1  
    93   89   91 ar 
    94   90   92 ar 
    95   91   93 ar 
    96   92   93 ar 
    97   94   95 1  
    98   95   96 1  
    99   95   98 1  
   100   96   97 2  
   101   96  102 am 
   102   98   99 1  
   103   99  100 2  
   104   99  101 am 
   105  102  103 1  
   106  103  104 1  
   107  103  106 1  
   108  104  105 2  
   109  104  111 am 
   110  106  107 1  
   111  107  108 1  
   112  108  109 2  
   113  108  110 am 
   114  111  112 1  
   115  112  113 1  
   116  112  115 1  
   117  113  114 ar 
   118  113  119 ar 
   119  115  116 1  
   120  116  117 ar 
   121  116  118 ar 
   122    1  120 1  
   123    1  121 1  
   124    2  122 1  
   125    5  123 1  
   126    5  124 1  
   127    6  125 1  
   128    6  126 1  
   129    7  127 1  
   130    7  128 1  
   131    8  129 1  
   132    9  130 1  
   133   12  131 1  
   134   12  132 1  
   135   13  133 1  
   136   14  134 1  
   137   15  135 1  
   138   18  136 1  
   139   18  137 1  
   140   19  138 1  
   141   19  139 1  
   142   20  140 1  
   143   20  141 1  
   144   21  142 1  
   145   21  143 1  
   146   22  144 1  
   147   22  145 1  
   148   22  146 1  
   149   23  147 1  
   150   24  148 1  
   151   27  149 1  
   152   27  150 1  
   153   28  151 1  
   154   28  152 1  
   155   29  153 1  
   156   29  154 1  
   157   30  155 1  
   158   30  156 1  
   159   31  157 1  
   160   31  158 1  
   161   31  159 1  
   162   32  160 1  
   163   33  161 1  
   164   36  162 1  
   165   36  163 1  
   166   37  164 1  
   167   37  165 1  
   168   38  166 1  
   169   38  167 1  
   170   39  168 1  
   171   41  169 1  
   172   41  170 1  
   173   42  171 1  
   174   42  172 1  
   175   43  173 1  
   176   44  174 1  
   177   47  175 1  
   178   47  176 1  
   179   48  177 1  
   180   48  178 1  
   181   49  179 1  
   182   49  180 1  
   183   50  181 1  
   184   50  182 1  
   185   51  183 1  
   186   51  184 1  
   187   51  185 1  
   188   52  186 1  
   189   53  187 1  
   190   56  188 1  
   191   56  189 1  
   192   57  190 1  
   193   57  191 1  
   194   58  192 1  
   195   58  193 1  
   196   59  194 1  
   197   61  195 1  
   198   61  196 1  
   199   62  197 1  
   200   62  198 1  
   201   63  199 1  
   202   64  200 1  
   203   67  201 1  
   204   67  202 1  
   205   68  203 1  
   206   69  204 1  
   207   70  205 1  
   208   73  206 1  
   209   73  207 1  
   210   74  208 1  
   211   74  209 1  
   212   75  210 1  
   213   75  211 1  
   214   76  212 1  
   215   78  213 1  
   216   78  214 1  
   217   79  215 1  
   218   79  216 1  
   219   80  217 1  
   220   81  218 1  
   221   84  219 1  
   222   84  220 1  
   223   86  221 1  
   224   88  222 1  
   225   90  223 1  
   226   91  224 1  
   227   92  225 1  
   228   93  226 1  
   229   94  227 1  
   230   95  228 1  
   231   98  229 1  
   232   98  230 1  
   233  101  231 1  
   234  101  232 1  
   235  102  233 1  
   236  103  234 1  
   237  106  235 1  
   238  106  236 1  
   239  107  237 1  
   240  107  238 1  
   241  110  239 1  
   242  110  240 1  
   243  111  241 1  
   244  112  242 1  
   245  115  243 1  
   246  115  244 1  
@<TRIPOS>SUBSTRUCTURE
     1 PRO         1

