1opi_ligand
  -I-interpret- 

242244  0  0  0  0  0  0  0  0999 V2000
   11.1250    5.2070   19.5130 N   0  3  0  0  0
   10.7440    4.5740   18.2450 C   0  0  0  0  0
   11.6480    3.3990   17.8890 C   0  0  0  0  0
   12.8440    3.5730   17.6560 O   0  0  0  0  0
   10.8980    5.6960   17.2150 C   0  0  0  0  0
   10.8150    6.9560   17.9940 C   0  0  0  0  0
   11.3790    6.6510   19.3530 C   0  0  0  0  0
   11.0670    2.2030   17.8510 N   0  0  0  0  0
   11.8190    0.9970   17.5220 C   0  0  0  0  0
   11.5580    0.5710   16.0810 C   0  0  0  0  0
   10.9990    1.3320   15.2910 O   0  0  0  0  0
   11.4450   -0.1370   18.4770 C   0  0  0  0  0
   12.6010   -0.7910   18.9700 O   0  0  0  0  0
   11.9650   -0.6520   15.7490 N   0  0  0  0  0
   11.7770   -1.1870   14.4030 C   0  0  0  0  0
   12.3940   -0.2600   13.3580 C   0  0  0  0  0
   11.7380    0.1260   12.3900 O   0  0  0  0  0
   10.2870   -1.3880   14.1150 C   0  0  0  0  0
    9.7710   -2.7610   14.5120 C   0  0  0  0  0
    8.9510   -2.7010   15.7910 C   0  0  0  0  0
    7.9230   -3.8180   15.8450 C   0  0  0  0  0
    6.9170   -3.5960   16.9190 N   0  3  0  0  0
   13.6610    0.0910   13.5610 N   0  0  0  0  0
   14.3670    0.9740   12.6380 C   0  0  0  0  0
   15.5550    0.2600   11.9980 C   0  0  0  0  0
   15.8650    0.4800   10.8270 O   0  0  0  0  0
   14.8420    2.2340   13.3670 C   0  0  0  0  0
   15.8330    1.9560   14.4860 C   0  0  0  0  0
   15.4050    2.6160   15.7860 C   0  0  0  0  0
   15.5690    1.6760   16.9690 C   0  0  0  0  0
   16.9820    1.2390   17.1400 N   0  3  0  0  0
   16.2160   -0.5930   12.7730 N   0  0  0  0  0
   17.3680   -1.3390   12.2820 C   0  0  0  0  0
   17.4400   -2.7160   12.9330 C   0  0  0  0  0
   18.0290   -2.8800   14.0010 O   0  0  0  0  0
   18.6590   -0.5640   12.5540 C   0  0  0  0  0
   19.0360    0.3990   11.4390 C   0  0  0  0  0
   20.5370    0.4150   11.1990 C   0  0  0  0  0
   21.0570   -0.9170   10.8960 N   0  0  0  0  0
   22.2580   -1.3430   11.2760 C   0  0  0  0  0
   23.0630   -0.5450   11.9650 N   0  0  0  0  0
   22.6560   -2.5690   10.9640 N   0  0  0  0  0
   16.8330   -3.7030   12.2810 N   0  0  0  0  0
   16.8260   -5.0670   12.7940 C   0  0  0  0  0
   16.4290   -6.0550   11.7030 C   0  0  0  0  0
   17.1480   -7.0170   11.4310 O   0  0  0  0  0
   15.8610   -5.1840   13.9760 C   0  0  0  0  0
   16.1130   -6.4050   14.8440 C   0  0  0  0  0
   17.1820   -6.1350   15.8890 C   0  0  0  0  0
   16.6770   -6.4300   17.2920 C   0  0  0  0  0
   16.8630   -7.8610   17.6590 N   0  3  0  0  0
   15.2800   -5.8090   11.0810 N   0  0  0  0  0
   14.7840   -6.6770   10.0210 C   0  0  0  0  0
   14.4400   -5.8720    8.7720 C   0  0  0  0  0
   13.4840   -5.0950    8.7670 O   0  0  0  0  0
   13.5520   -7.4470   10.5010 C   0  0  0  0  0
   13.3510   -8.7760    9.7940 C   0  0  0  0  0
   13.8540   -9.9370   10.6380 C   0  0  0  0  0
   13.5670  -11.2280   10.0200 N   0  0  0  0  0
   12.5550  -12.0100   10.3830 C   0  0  0  0  0
   11.7380  -11.6360   11.3600 N   0  0  0  0  0
   12.3580  -13.1690    9.7690 N   0  0  0  0  0
   15.2260   -6.0620    7.7160 N   0  0  0  0  0
   15.0000   -5.3550    6.4610 C   0  0  0  0  0
   13.6610   -5.7550    5.8520 C   0  0  0  0  0
   13.3890   -6.9390    5.6480 O   0  0  0  0  0
   16.1300   -5.6500    5.4730 C   0  0  0  0  0
   16.8480   -6.8110    5.8500 O   0  0  0  0  0
   12.8260   -4.7600    5.5650 N   0  0  0  0  0
   11.5120   -5.0090    4.9830 C   0  0  0  0  0
   11.4380   -4.4760    3.5560 C   0  0  0  0  0
   10.3560   -4.3740    2.9790 O   0  0  0  0  0
   10.4250   -4.3590    5.8380 C   0  0  0  0  0
   10.0440   -5.1790    7.0600 C   0  0  0  0  0
    8.6800   -5.8280    6.8920 C   0  0  0  0  0
    8.5190   -6.9950    7.7530 N   0  0  0  0  0
    7.4150   -7.2520    8.4470 C   0  0  0  0  0
    6.3780   -6.4290    8.3790 N   0  0  0  0  0
    7.3460   -8.3350    9.2110 N   0  0  0  0  0
   12.5930   -4.1350    2.9940 N   0  0  0  0  0
   12.6570   -3.6120    1.6340 C   0  0  0  0  0
   13.8880   -4.1440    0.9080 C   0  0  0  0  0
   14.6830   -3.3770    0.3640 O   0  0  0  0  0
   12.6730   -2.0810    1.6530 C   0  0  0  0  0
   11.5180   -1.4860    2.4030 C   0  0  0  0  0
   11.5170   -1.0590    3.6990 C   0  0  0  0  0
   10.1960   -1.2550    1.9020 C   0  0  0  0  0
   10.2760   -0.5780    4.0360 N   0  0  0  0  0
    9.4470   -0.6870    2.9500 C   0  0  0  0  0
    9.5720   -1.4740    0.6710 C   0  0  0  0  0
    8.1080   -0.3330    2.8030 C   0  0  0  0  0
    8.2420   -1.1230    0.5260 C   0  0  0  0  0
    7.5240   -0.5590    1.5870 C   0  0  0  0  0
   14.0380   -5.4650    0.9050 N   0  0  0  0  0
   15.1710   -6.1080    0.2460 C   0  0  0  0  0
   14.9380   -6.2120   -1.2580 C   0  0  0  0  0
   14.1650   -5.4430   -1.8300 O   0  0  0  0  0
   15.4070   -7.4990    0.8390 C   0  0  0  0  0
   16.8430   -7.7050    1.2780 C   0  0  0  0  0
   17.4910   -8.6770    0.8890 O   0  0  0  0  0
   17.3510   -6.7860    2.0920 N   0  0  0  0  0
   15.6160   -7.1640   -1.8940 N   0  0  0  0  0
   15.4790   -7.3720   -3.3330 C   0  0  0  0  0
   16.1500   -8.6740   -3.7610 C   0  0  0  0  0
   15.6470   -9.3850   -4.6310 O   0  0  0  0  0
   16.0800   -6.1940   -4.1020 C   0  0  0  0  0
   17.5660   -5.9890   -3.8470 C   0  0  0  0  0
   18.1150   -4.7710   -4.5630 C   0  0  0  0  0
   17.5450   -4.3040   -5.5490 O   0  0  0  0  0
   19.2300   -4.2470   -4.0670 N   0  0  0  0  0
   17.2880   -8.9810   -3.1430 N   0  0  0  0  0
   18.0280  -10.1970   -3.4580 C   0  0  0  0  0
   18.0420  -11.1470   -2.2650 C   0  0  0  0  0
   18.5140  -10.7330   -1.1860 O   0  0  0  0  0
   19.4620   -9.8550   -3.8680 C   0  0  0  0  0
   19.8460  -10.4700   -5.1990 C   0  0  0  0  0
   19.2100  -10.1260   -6.2180 O   0  0  0  0  0
   20.7810  -11.2980   -5.2230 O   0  0  0  0  0
   17.5810  -12.2970   -2.4210 O   0  0  0  0  0
   11.9829    4.7664   19.8451 H   0  0  0  0  0
   10.3562    5.0889   20.1729 H   0  0  0  0  0
    9.7374    4.1583   18.2897 H   0  0  0  0  0
   10.1245    5.6462   16.4486 H   0  0  0  0  0
   11.8421    5.6190   16.6757 H   0  0  0  0  0
    9.7847    7.3043   18.0668 H   0  0  0  0  0
   11.3752    7.7546   17.5078 H   0  0  0  0  0
   12.4369    6.9012   19.4328 H   0  0  0  0  0
   10.9179    7.2468   20.1408 H   0  0  0  0  0
   10.0709    2.1272   18.0570 H   0  0  0  0  0
   12.8808    1.2185   17.6300 H   0  0  0  0  0
   10.8378   -0.8627   17.9358 H   0  0  0  0  0
   10.8961    0.2835   19.3196 H   0  0  0  0  0
   12.3386   -1.4967   19.5656 H   0  0  0  0  0
   12.4207   -1.2315   16.4539 H   0  0  0  0  0
   12.2817   -2.1515   14.3467 H   0  0  0  0  0
   10.1449   -1.2837   13.0393 H   0  0  0  0  0
    9.7383   -0.6505   14.7008 H   0  0  0  0  0
   10.6263   -3.4152   14.6811 H   0  0  0  0  0
    9.1334   -3.1347   13.7108 H   0  0  0  0  0
    8.4259   -1.7463   15.8204 H   0  0  0  0  0
    9.6260   -2.8112   16.6398 H   0  0  0  0  0
    8.4445   -4.7522   16.0534 H   0  0  0  0  0
    7.4007   -3.8479   14.8888 H   0  0  0  0  0
    6.2479   -4.3659   16.9209 H   0  0  0  0  0
    7.3894   -3.5523   17.8219 H   0  0  0  0  0
    6.4266   -2.7182   16.7477 H   0  0  0  0  0
   14.1509   -0.2656   14.3815 H   0  0  0  0  0
   13.6735    1.2605   11.8474 H   0  0  0  0  0
   13.9653    2.7004   13.8165 H   0  0  0  0  0
   15.3463    2.8639   12.6342 H   0  0  0  0  0
   16.8029    2.3605   14.1965 H   0  0  0  0  0
   15.8806    0.8787   14.6452 H   0  0  0  0  0
   14.3526    2.8880   15.7047 H   0  0  0  0  0
   16.0327    3.4916   15.9514 H   0  0  0  0  0
   14.9573    0.7918   16.7900 H   0  0  0  0  0
   15.2639    2.2060   17.8712 H   0  0  0  0  0
   17.0480    0.6118   17.9417 H   0  0  0  0  0
   17.2899    0.7511   16.2988 H   0  0  0  0  0
   17.5727    2.0557   17.2963 H   0  0  0  0  0
   15.9095   -0.7293   13.7363 H   0  0  0  0  0
   17.2530   -1.4707   11.2061 H   0  0  0  0  0
   19.4651   -1.2922   12.6439 H   0  0  0  0  0
   18.5024    0.0261   13.4570 H   0  0  0  0  0
   18.7224    1.4019   11.7287 H   0  0  0  0  0
   18.5436    0.0749   10.5222 H   0  0  0  0  0
   21.0236    0.7727   12.1064 H   0  0  0  0  0
   20.7389    1.0621   10.3454 H   0  0  0  0  0
   20.4658   -1.5552   10.3635 H   0  0  0  0  0
   23.9842   -0.8750   12.2528 H   0  0  0  0  0
   22.7608    0.3987   12.2070 H   0  0  0  0  0
   22.0409   -3.1851   10.4326 H   0  0  0  0  0
   16.3606   -3.5005   11.4000 H   0  0  0  0  0
   17.8346   -5.3076   13.1301 H   0  0  0  0  0
   14.8536   -5.2729   13.5694 H   0  0  0  0  0
   16.0003   -4.3024   14.6017 H   0  0  0  0  0
   16.4539   -7.2189   14.2040 H   0  0  0  0  0
   15.1859   -6.6610   15.3569 H   0  0  0  0  0
   17.4584   -5.0820   15.8359 H   0  0  0  0  0
   18.0348   -6.7828   15.6858 H   0  0  0  0  0
   15.6113   -6.2039   17.3264 H   0  0  0  0  0
   17.2444   -5.8201   17.9950 H   0  0  0  0  0
   16.5127   -8.0167   18.6042 H   0  0  0  0  0
   16.3482   -8.4486   17.0032 H   0  0  0  0  0
   17.8551   -8.0946   17.6201 H   0  0  0  0  0
   14.7322   -4.9925   11.3525 H   0  0  0  0  0
   15.5725   -7.3855    9.7671 H   0  0  0  0  0
   12.6787   -6.8297   10.2904 H   0  0  0  0  0
   13.6920   -7.6589   11.5610 H   0  0  0  0  0
   13.9126   -8.7590    8.8600 H   0  0  0  0  0
   12.2847   -8.9148    9.6158 H   0  0  0  0  0
   13.3478   -9.9012   11.6027 H   0  0  0  0  0
   14.9350   -9.8409   10.7397 H   0  0  0  0  0
   14.1770  -11.5479    9.2677 H   0  0  0  0  0
   10.9628  -12.2390   11.6355 H   0  0  0  0  0
   11.8853  -10.7456   11.8353 H   0  0  0  0  0
   12.9832  -13.4609    9.0177 H   0  0  0  0  0
   16.0046   -6.7172    7.7857 H   0  0  0  0  0
   14.9826   -4.2856    6.6710 H   0  0  0  0  0
   16.8162   -4.8031    5.4654 H   0  0  0  0  0
   15.6964   -5.8135    4.4864 H   0  0  0  0  0
   17.5493   -6.9726    5.2146 H   0  0  0  0  0
   13.1116   -3.7997    5.7566 H   0  0  0  0  0
   11.3512   -6.0868    4.9569 H   0  0  0  0  0
    9.5341   -4.2621    5.2175 H   0  0  0  0  0
   10.8137   -3.4042    6.1922 H   0  0  0  0  0
   10.0064   -4.5149    7.9235 H   0  0  0  0  0
   10.7866   -5.9657    7.1932 H   0  0  0  0  0
    8.5829   -6.1532    5.8562 H   0  0  0  0  0
    7.9191   -5.0965    7.1642 H   0  0  0  0  0
    9.2973   -7.6502    7.8264 H   0  0  0  0  0
    6.4259   -5.5956    7.7928 H   0  0  0  0  0
    6.4978   -8.5310    9.7425 H   0  0  0  0  0
    8.1412   -8.9714    9.2667 H   0  0  0  0  0
   13.4561   -4.2417    3.5270 H   0  0  0  0  0
   11.7699   -3.9472    1.0966 H   0  0  0  0  0
   12.6080   -1.7376    0.6206 H   0  0  0  0  0
   13.5886   -1.7669    2.1540 H   0  0  0  0  0
   12.3761   -1.0946    4.3689 H   0  0  0  0  0
   10.1235   -1.9136   -0.1601 H   0  0  0  0  0
    7.5463    0.1078    3.6265 H   0  0  0  0  0
    7.7450   -1.2883   -0.4299 H   0  0  0  0  0
    6.4768   -0.2942    1.4410 H   0  0  0  0  0
   13.3431   -6.0446    1.3756 H   0  0  0  0  0
   16.0563   -5.4947    0.4141 H   0  0  0  0  0
   15.1811   -8.2364    0.0687 H   0  0  0  0  0
   14.7682   -7.6042    1.7159 H   0  0  0  0  0
   18.3135   -6.8704    2.4190 H   0  0  0  0  0
   16.7785   -5.9961    2.3899 H   0  0  0  0  0
   16.2475   -7.7637   -1.3630 H   0  0  0  0  0
   14.4161   -7.4400   -3.5650 H   0  0  0  0  0
   15.5655   -5.2923   -3.7698 H   0  0  0  0  0
   15.9582   -6.4032   -5.1648 H   0  0  0  0  0
   18.0954   -6.8656   -4.2203 H   0  0  0  0  0
   17.7063   -5.8414   -2.7762 H   0  0  0  0  0
   19.6464   -3.4256   -4.5054 H   0  0  0  0  0
   19.6699   -4.6660   -3.2477 H   0  0  0  0  0
   17.6521   -8.3488   -2.4301 H   0  0  0  0  0
   17.5280  -10.6923   -4.2903 H   0  0  0  0  0
   20.1337  -10.2524   -3.1071 H   0  0  0  0  0
   19.5356   -8.7717   -3.9638 H   0  0  0  0  0
   18.5394   -9.4840   -5.9737 H   0  0  0  0  0
   17.2742  -12.3976   -3.3251 H   0  0  0  0  0
  1  2  1  0  0  0
  1  7  1  0  0  0
  2  3  1  0  0  0
  2  5  1  0  0  0
  3  4  2  0  0  0
  3  8  1  0  0  0
  5  6  1  0  0  0
  6  7  1  0  0  0
  8  9  1  0  0  0
  9 10  1  0  0  0
  9 12  1  0  0  0
 10 11  2  0  0  0
 10 14  1  0  0  0
 12 13  1  0  0  0
 14 15  1  0  0  0
 15 16  1  0  0  0
 15 18  1  0  0  0
 16 17  2  0  0  0
 16 23  1  0  0  0
 18 19  1  0  0  0
 19 20  1  0  0  0
 20 21  1  0  0  0
 21 22  1  0  0  0
 23 24  1  0  0  0
 24 25  1  0  0  0
 24 27  1  0  0  0
 25 26  2  0  0  0
 25 32  1  0  0  0
 27 28  1  0  0  0
 28 29  1  0  0  0
 29 30  1  0  0  0
 30 31  1  0  0  0
 32 33  1  0  0  0
 33 34  1  0  0  0
 33 36  1  0  0  0
 34 35  2  0  0  0
 34 43  1  0  0  0
 36 37  1  0  0  0
 37 38  1  0  0  0
 38 39  1  0  0  0
 39 40  1  0  0  0
 40 41  1  0  0  0
 40 42  2  0  0  0
 43 44  1  0  0  0
 44 45  1  0  0  0
 44 47  1  0  0  0
 45 46  2  0  0  0
 45 52  1  0  0  0
 47 48  1  0  0  0
 48 49  1  0  0  0
 49 50  1  0  0  0
 50 51  1  0  0  0
 52 53  1  0  0  0
 53 54  1  0  0  0
 53 56  1  0  0  0
 54 55  2  0  0  0
 54 63  1  0  0  0
 56 57  1  0  0  0
 57 58  1  0  0  0
 58 59  1  0  0  0
 59 60  1  0  0  0
 60 61  1  0  0  0
 60 62  2  0  0  0
 63 64  1  0  0  0
 64 65  1  0  0  0
 64 67  1  0  0  0
 65 66  2  0  0  0
 65 69  1  0  0  0
 67 68  1  0  0  0
 69 70  1  0  0  0
 70 71  1  0  0  0
 70 73  1  0  0  0
 71 72  2  0  0  0
 71 80  1  0  0  0
 73 74  1  0  0  0
 74 75  1  0  0  0
 75 76  1  0  0  0
 76 77  1  0  0  0
 77 78  2  0  0  0
 77 79  1  0  0  0
 80 81  1  0  0  0
 81 82  1  0  0  0
 81 84  1  0  0  0
 82 83  2  0  0  0
 82 94  1  0  0  0
 84 85  1  0  0  0
 85 86  4  0  0  0
 85 87  4  0  0  0
 86 88  4  0  0  0
 87 89  4  0  0  0
 87 90  4  0  0  0
 88 89  4  0  0  0
 89 91  4  0  0  0
 90 92  4  0  0  0
 91 93  4  0  0  0
 92 93  4  0  0  0
 94 95  1  0  0  0
 95 96  1  0  0  0
 95 98  1  0  0  0
 96 97  2  0  0  0
 96102  1  0  0  0
 98 99  1  0  0  0
 99100  2  0  0  0
 99101  1  0  0  0
102103  1  0  0  0
103104  1  0  0  0
103106  1  0  0  0
104105  2  0  0  0
104111  1  0  0  0
106107  1  0  0  0
107108  1  0  0  0
108109  2  0  0  0
108110  1  0  0  0
111112  1  0  0  0
112113  1  0  0  0
112115  1  0  0  0
113114  2  0  0  0
113119  1  0  0  0
115116  1  0  0  0
116117  1  0  0  0
116118  2  0  0  0
  1120  1  0  0  0
  1121  1  0  0  0
  2122  1  0  0  0
  5123  1  0  0  0
  5124  1  0  0  0
  6125  1  0  0  0
  6126  1  0  0  0
  7127  1  0  0  0
  7128  1  0  0  0
  8129  1  0  0  0
  9130  1  0  0  0
 12131  1  0  0  0
 12132  1  0  0  0
 13133  1  0  0  0
 14134  1  0  0  0
 15135  1  0  0  0
 18136  1  0  0  0
 18137  1  0  0  0
 19138  1  0  0  0
 19139  1  0  0  0
 20140  1  0  0  0
 20141  1  0  0  0
 21142  1  0  0  0
 21143  1  0  0  0
 22144  1  0  0  0
 22145  1  0  0  0
 22146  1  0  0  0
 23147  1  0  0  0
 24148  1  0  0  0
 27149  1  0  0  0
 27150  1  0  0  0
 28151  1  0  0  0
 28152  1  0  0  0
 29153  1  0  0  0
 29154  1  0  0  0
 30155  1  0  0  0
 30156  1  0  0  0
 31157  1  0  0  0
 31158  1  0  0  0
 31159  1  0  0  0
 32160  1  0  0  0
 33161  1  0  0  0
 36162  1  0  0  0
 36163  1  0  0  0
 37164  1  0  0  0
 37165  1  0  0  0
 38166  1  0  0  0
 38167  1  0  0  0
 39168  1  0  0  0
 41169  1  0  0  0
 41170  1  0  0  0
 42171  1  0  0  0
 43172  1  0  0  0
 44173  1  0  0  0
 47174  1  0  0  0
 47175  1  0  0  0
 48176  1  0  0  0
 48177  1  0  0  0
 49178  1  0  0  0
 49179  1  0  0  0
 50180  1  0  0  0
 50181  1  0  0  0
 51182  1  0  0  0
 51183  1  0  0  0
 51184  1  0  0  0
 52185  1  0  0  0
 53186  1  0  0  0
 56187  1  0  0  0
 56188  1  0  0  0
 57189  1  0  0  0
 57190  1  0  0  0
 58191  1  0  0  0
 58192  1  0  0  0
 59193  1  0  0  0
 61194  1  0  0  0
 61195  1  0  0  0
 62196  1  0  0  0
 63197  1  0  0  0
 64198  1  0  0  0
 67199  1  0  0  0
 67200  1  0  0  0
 68201  1  0  0  0
 69202  1  0  0  0
 70203  1  0  0  0
 73204  1  0  0  0
 73205  1  0  0  0
 74206  1  0  0  0
 74207  1  0  0  0
 75208  1  0  0  0
 75209  1  0  0  0
 76210  1  0  0  0
 78211  1  0  0  0
 79212  1  0  0  0
 79213  1  0  0  0
 80214  1  0  0  0
 81215  1  0  0  0
 84216  1  0  0  0
 84217  1  0  0  0
 86218  1  0  0  0
 90219  1  0  0  0
 91220  1  0  0  0
 92221  1  0  0  0
 93222  1  0  0  0
 94223  1  0  0  0
 95224  1  0  0  0
 98225  1  0  0  0
 98226  1  0  0  0
101227  1  0  0  0
101228  1  0  0  0
102229  1  0  0  0
103230  1  0  0  0
106231  1  0  0  0
106232  1  0  0  0
107233  1  0  0  0
107234  1  0  0  0
110235  1  0  0  0
110236  1  0  0  0
111237  1  0  0  0
112238  1  0  0  0
115239  1  0  0  0
115240  1  0  0  0
117241  1  0  0  0
119242  1  0  0  0
M  END
$$$$
