3n1c_ligand
  -I-interpret- 

 29 29  0  0  0  0  0  0  0  0999 V2000
   37.5560  -26.3590   38.6480 O   0  0  0  0  0
   37.6030  -25.4960   39.7420 C   0  0  0  0  0
   39.0320  -25.5600   40.3670 C   0  0  0  0  0
   40.0070  -26.5460   39.9590 O   0  0  0  0  0
   39.4510  -24.5020   41.3980 C   0  0  0  0  0
   39.2660  -24.8110   42.7460 O   0  0  0  0  0
   40.5570  -23.6490   40.8960 C   0  0  0  0  0
   41.1300  -22.5640   41.5750 O   0  0  0  0  0
   40.5330  -23.8030   39.3950 C   0  0  0  0  0
   39.4590  -24.7790   39.1580 O   0  0  0  0  0
   41.8790  -24.2870   38.8310 C   0  0  0  0  0
   41.7710  -24.3240   37.4300 O   0  0  0  0  0
   42.9090  -25.0560   36.4780 P   0  0  0  0  0
   43.0780  -26.6500   36.8770 O   0  0  0  0  0
   44.3740  -24.3300   36.6540 O   0  0  0  0  0
   42.4730  -24.9830   35.0890 O   0  0  0  0  0
   36.6807  -26.3281   38.2549 H   0  0  0  0  0
   36.8608  -25.7949   40.4822 H   0  0  0  0  0
   37.3841  -24.4777   39.4207 H   0  0  0  0  0
   40.0034  -27.2753   40.5832 H   0  0  0  0  0
   38.6789  -23.7390   41.4970 H   0  0  0  0  0
   38.4936  -25.3731   42.8412 H   0  0  0  0  0
   41.5077  -23.9104   41.3606 H   0  0  0  0  0
   41.0231  -22.6874   42.5210 H   0  0  0  0  0
   40.3586  -22.8533   38.8893 H   0  0  0  0  0
   42.1165  -25.2779   39.2180 H   0  0  0  0  0
   42.6794  -23.6105   39.1306 H   0  0  0  0  0
   43.3653  -26.7214   37.7902 H   0  0  0  0  0
   44.6490  -24.3852   37.5721 H   0  0  0  0  0
  1  2  1  0  0  0
  2  3  1  0  0  0
  3  4  1  0  0  0
  3  5  1  0  0  0
  3 10  1  0  0  0
  5  6  1  0  0  0
  5  7  1  0  0  0
  7  8  1  0  0  0
  7  9  1  0  0  0
  9 10  1  0  0  0
  9 11  1  0  0  0
 11 12  1  0  0  0
 12 13  1  0  0  0
 13 14  1  0  0  0
 13 15  1  0  0  0
 13 16  2  0  0  0
  1 17  1  0  0  0
  2 18  1  0  0  0
  2 19  1  0  0  0
  4 20  1  0  0  0
  5 21  1  0  0  0
  6 22  1  0  0  0
  7 23  1  0  0  0
  8 24  1  0  0  0
  9 25  1  0  0  0
 11 26  1  0  0  0
 11 27  1  0  0  0
 14 28  1  0  0  0
 15 29  1  0  0  0
M  END
$$$$
