4q07_ligand
  -I-interpret- 

 51 52  0  0  0  0  0  0  0  0999 V2000
   -5.7730    3.3400   15.4860 F   0  0  0  0  0
   -5.1850    2.4580   14.6070 C   0  0  0  0  0
   -4.9840    1.1660   15.0790 C   0  0  0  0  0
   -5.6400    0.6900   16.6890 S   0  0  0  0  0
   -7.0350    1.1060   16.6540 O   0  0  0  0  0
   -5.5670   -0.8590   16.7040 N   0  0  0  0  0
   -4.7720    1.2660   17.7230 O   0  0  0  0  0
   -4.4190    0.3030   14.1520 C   0  0  0  0  0
   -4.1220   -0.9920   14.4900 F   0  0  0  0  0
   -4.2010    0.6320   12.8610 C   0  0  0  0  0
   -3.7480   -0.3180   12.0260 F   0  0  0  0  0
   -4.9380    2.8820   13.2980 C   0  0  0  0  0
   -4.4410    1.9360   12.3800 C   0  0  0  0  0
   -4.2030    2.1750   10.6600 S   0  0  0  0  0
   -4.4510    3.6240   10.3750 O   0  0  0  0  0
   -5.1460    1.2390    9.9650 O   0  0  0  0  0
   -2.5940    1.7930   10.2120 C   0  0  0  0  0
   -1.7200    2.5870   11.1450 C   0  0  0  0  0
   -0.4230    2.4140   10.7170 O   0  0  0  0  0
   -5.2420    4.2000   12.9500 N   0  0  0  0  0
   -5.0200    5.3880   13.7520 C   0  0  0  0  0
   -3.6510    5.3610   14.4620 C   0  0  0  0  0
   -2.4480    5.6920   13.6000 C   0  0  0  0  0
   -1.9700    7.1100   13.8530 C   0  0  0  0  0
   -2.7720    8.1810   13.1180 C   0  0  0  0  0
   -3.9720    8.6010   13.9070 C   0  0  0  0  0
   -5.2630    7.9670   13.4050 C   0  0  0  0  0
   -5.2510    6.5540   12.8150 C   0  0  0  0  0
   -6.4251   -1.4102   16.6894 H   0  0  0  0  0
   -4.6609   -1.3266   16.7284 H   0  0  0  0  0
   -2.3985    2.0442    9.1695 H   0  0  0  0  0
   -2.3989    0.7237   10.2937 H   0  0  0  0  0
   -1.8383    2.2446   12.1730 H   0  0  0  0  0
   -1.9956    3.6415   11.1316 H   0  0  0  0  0
    0.1699    2.9071   11.2888 H   0  0  0  0  0
   -5.6657    4.3425   12.0332 H   0  0  0  0  0
   -5.7082    5.4663   14.5937 H   0  0  0  0  0
   -3.5065    4.3379   14.8091 H   0  0  0  0  0
   -3.6927    6.1271   15.2362 H   0  0  0  0  0
   -2.7336    5.6014   12.5520 H   0  0  0  0  0
   -1.6410    5.0021   13.8467 H   0  0  0  0  0
   -0.9434    7.1726   13.4921 H   0  0  0  0  0
   -2.0807    7.3011   14.9204 H   0  0  0  0  0
   -3.1095    7.7693   12.1669 H   0  0  0  0  0
   -2.1330    9.0515   12.9696 H   0  0  0  0  0
   -4.0724    9.6820   13.8103 H   0  0  0  0  0
   -3.8220    8.2795   14.9377 H   0  0  0  0  0
   -5.5718    8.6034   12.5757 H   0  0  0  0  0
   -5.8865    7.8828   14.2951 H   0  0  0  0  0
   -6.2520    6.4033   12.4108 H   0  0  0  0  0
   -4.4078    6.5386   12.1244 H   0  0  0  0  0
  1  2  1  0  0  0
  2  3  4  0  0  0
  2 12  4  0  0  0
  3  4  1  0  0  0
  3  8  4  0  0  0
  4  5  2  0  0  0
  4  6  1  0  0  0
  4  7  2  0  0  0
  8  9  1  0  0  0
  8 10  4  0  0  0
 10 11  1  0  0  0
 10 13  4  0  0  0
 12 13  4  0  0  0
 12 20  1  0  0  0
 13 14  1  0  0  0
 14 15  2  0  0  0
 14 16  2  0  0  0
 14 17  1  0  0  0
 17 18  1  0  0  0
 18 19  1  0  0  0
 20 21  1  0  0  0
 21 22  1  0  0  0
 21 28  1  0  0  0
 22 23  1  0  0  0
 23 24  1  0  0  0
 24 25  1  0  0  0
 25 26  1  0  0  0
 26 27  1  0  0  0
 27 28  1  0  0  0
  6 29  1  0  0  0
  6 30  1  0  0  0
 17 31  1  0  0  0
 17 32  1  0  0  0
 18 33  1  0  0  0
 18 34  1  0  0  0
 19 35  1  0  0  0
 20 36  1  0  0  0
 21 37  1  0  0  0
 22 38  1  0  0  0
 22 39  1  0  0  0
 23 40  1  0  0  0
 23 41  1  0  0  0
 24 42  1  0  0  0
 24 43  1  0  0  0
 25 44  1  0  0  0
 25 45  1  0  0  0
 26 46  1  0  0  0
 26 47  1  0  0  0
 27 48  1  0  0  0
 27 49  1  0  0  0
 28 50  1  0  0  0
 28 51  1  0  0  0
M  END
$$$$
