2vnp_ligand
  -I-interpret- 

 28 27  0  0  0  0  0  0  0  0999 V2000
   -1.6720    0.6250   21.3870 O   0  0  0  0  0
   -3.7210    1.0690   19.9630 O   0  0  0  0  0
   -1.5470    0.2950   18.9090 O   0  0  0  0  0
   -2.4380    0.2670   20.0930 P   0  0  0  0  0
   -2.7330   -1.3280   20.2100 O   0  0  0  0  0
   -5.0170   -1.5140   19.2030 O   0  0  0  0  0
   -3.0500   -2.9650   18.2660 O   0  0  0  0  0
   -3.7260   -2.3000   19.3890 P   0  0  0  0  0
   -4.0540   -3.5270   20.4160 O   0  0  0  0  0
   -4.4590   -3.4010   21.8150 C   0  0  0  0  0
   -4.4040   -4.7010   22.6530 C   0  0  0  0  0
   -4.6100   -5.9260   21.8220 N   0  3  0  0  0
   -5.8970   -6.5730   22.1070 C   0  0  0  0  0
   -4.3750   -5.9280   20.3750 C   0  0  0  0  0
   -2.2758    0.5979   22.1328 H   0  0  0  0  0
   -4.2293    0.9910   20.7736 H   0  0  0  0  0
   -5.2986   -1.1584   20.0491 H   0  0  0  0  0
   -5.5022   -3.0851   21.8058 H   0  0  0  0  0
   -3.7565   -2.7074   22.2771 H   0  0  0  0  0
   -5.2029   -4.6583   23.3933 H   0  0  0  0  0
   -3.4161   -4.7659   23.1090 H   0  0  0  0  0
   -3.8022   -6.4535   22.1530 H   0  0  0  0  0
   -5.9317   -6.8631   23.1571 H   0  0  0  0  0
   -6.7076   -5.8760   21.8943 H   0  0  0  0  0
   -6.0037   -7.4585   21.4804 H   0  0  0  0  0
   -5.0297   -5.1968   19.9009 H   0  0  0  0  0
   -3.3350   -5.6689   20.1767 H   0  0  0  0  0
   -4.5862   -6.9198   19.9753 H   0  0  0  0  0
  1  4  1  0  0  0
  4  2  1  0  0  0
  4  3  2  0  0  0
  4  5  1  0  0  0
  5  8  1  0  0  0
  8  6  1  0  0  0
  8  7  2  0  0  0
  8  9  1  0  0  0
  9 10  1  0  0  0
 10 11  1  0  0  0
 11 12  1  0  0  0
 12 13  1  0  0  0
 12 14  1  0  0  0
  1 15  1  0  0  0
  2 16  1  0  0  0
  6 17  1  0  0  0
 10 18  1  0  0  0
 10 19  1  0  0  0
 11 20  1  0  0  0
 11 21  1  0  0  0
 12 22  1  0  0  0
 13 23  1  0  0  0
 13 24  1  0  0  0
 13 25  1  0  0  0
 14 26  1  0  0  0
 14 27  1  0  0  0
 14 28  1  0  0  0
M  END
$$$$
