4w9j_ligand
  -I-interpret- 

 84 86  0  0  0  0  0  0  0  0999 V2000
    7.6160   55.7390   96.1890 C   0  0  0  0  0
    8.3460   57.0420   95.8070 C   0  0  0  0  0
    7.3100   58.0320   95.2780 C   0  0  0  0  0
    9.4060   56.8260   94.7260 C   0  0  0  0  0
   10.2880   55.6520   95.1670 C   0  0  0  0  0
   10.9180   55.9660   96.4610 N   0  0  0  0  0
   11.3510   55.0470   97.3580 C   0  0  0  0  0
   11.8800   55.3670   98.4280 O   0  0  0  0  0
   11.1370   53.5680   97.0270 C   0  0  0  0  0
   11.4010   55.3790   94.1280 C   0  0  0  0  0
   12.3280   56.1650   93.9560 O   0  0  0  0  0
   11.2850   54.2200   93.4890 N   0  0  0  0  0
   12.2830   53.7310   92.5490 C   0  0  0  0  0
   12.5310   52.2310   92.8770 C   0  0  0  0  0
   13.1670   52.1450   94.2760 C   0  0  0  0  0
   13.4900   51.5770   91.8560 C   0  0  0  0  0
   11.2120   51.4030   92.9100 C   0  0  0  0  0
   11.7860   53.9760   91.1190 C   0  0  0  0  0
   10.6040   53.8200   90.8760 O   0  0  0  0  0
   12.6850   54.3470   90.1800 N   0  0  0  0  0
   14.1240   54.6630   90.3350 C   0  0  0  0  0
   14.4400   55.6140   89.1830 C   0  0  0  0  0
   14.1400   56.9950   89.5450 O   0  0  0  0  0
   13.5580   55.2290   88.0680 C   0  0  0  0  0
   12.3090   54.6050   88.7430 C   0  0  0  0  0
   11.8960   53.4360   88.0570 C   0  0  0  0  0
   12.3680   52.3520   88.3630 O   0  0  0  0  0
   10.9460   53.5680   87.0830 N   0  0  0  0  0
   10.4850   52.4090   86.3180 C   0  0  0  0  0
   11.3120   52.2370   85.1610 C   0  0  0  0  0
   12.2280   53.2070   84.6850 C   0  0  0  0  0
   13.0330   52.9640   83.5500 C   0  0  0  0  0
   11.2290   51.0340   84.4600 C   0  0  0  0  0
   12.0290   50.7950   83.3210 C   0  0  0  0  0
   12.9420   51.7590   82.8470 C   0  0  0  0  0
   13.7020   51.5690   81.7500 C   0  0  0  0  0
   15.3310   52.1250   81.5140 S   0  0  0  0  0
   15.4530   51.5250   79.9770 C   0  0  0  0  0
   14.3090   50.9400   79.6390 N   0  0  0  0  0
   13.3480   50.9610   80.5940 C   0  0  0  0  0
   11.9880   50.3020   80.2970 C   0  0  0  0  0
    7.1194   55.3308   95.3088 H   0  0  0  0  0
    8.3391   55.0165   96.5676 H   0  0  0  0  0
    6.8752   55.9516   96.9598 H   0  0  0  0  0
    8.8527   57.4158   96.6968 H   0  0  0  0  0
    7.7996   58.9768   95.0418 H   0  0  0  0  0
    6.8477   57.6260   94.3783 H   0  0  0  0  0
    6.5461   58.1972   96.0378 H   0  0  0  0  0
   10.0076   57.7260   94.5991 H   0  0  0  0  0
    8.9328   56.6067   93.7689 H   0  0  0  0  0
    9.6575   54.7674   95.2562 H   0  0  0  0  0
   11.0375   56.9503   96.7002 H   0  0  0  0  0
   12.1000   53.0576   97.0107 H   0  0  0  0  0
   10.4977   53.1161   97.7854 H   0  0  0  0  0
   10.6615   53.4807   96.0501 H   0  0  0  0  0
   10.4596   53.6472   93.6650 H   0  0  0  0  0
   13.2347   54.2556   92.6338 H   0  0  0  0  0
   14.1103   52.6912   94.2791 H   0  0  0  0  0
   12.4897   52.5829   95.0092 H   0  0  0  0  0
   13.3499   51.1002   94.5270 H   0  0  0  0  0
   13.0573   51.6449   90.8579 H   0  0  0  0  0
   14.4478   52.0970   91.8743 H   0  0  0  0  0
   13.6387   50.5296   92.1184 H   0  0  0  0  0
   10.5484   51.8093   93.6733 H   0  0  0  0  0
   10.7251   51.4587   91.9364 H   0  0  0  0  0
   11.4428   50.3636   93.1433 H   0  0  0  0  0
   14.7425   53.7661   90.3024 H   0  0  0  0  0
   14.3387   55.1136   91.3040 H   0  0  0  0  0
   15.4973   55.5488   88.9263 H   0  0  0  0  0
   14.3471   57.5707   88.8052 H   0  0  0  0  0
   14.0449   54.5271   87.3910 H   0  0  0  0  0
   13.2962   56.0846   87.4454 H   0  0  0  0  0
   11.4492   55.2738   88.7050 H   0  0  0  0  0
   10.5525   54.4883   86.8865 H   0  0  0  0  0
    9.4532   52.5687   86.0051 H   0  0  0  0  0
   10.5442   51.5168   86.9413 H   0  0  0  0  0
   12.3135   54.1609   85.2055 H   0  0  0  0  0
   13.7359   53.7277   83.2172 H   0  0  0  0  0
   10.5344   50.2647   84.7973 H   0  0  0  0  0
   11.9385   49.8438   82.7965 H   0  0  0  0  0
   16.3349   51.5983   79.3406 H   0  0  0  0  0
   11.8116   49.4980   81.0115 H   0  0  0  0  0
   11.1976   51.0475   80.3845 H   0  0  0  0  0
   11.9957   49.8958   79.2855 H   0  0  0  0  0
  1  2  1  0  0  0
  2  3  1  0  0  0
  2  4  1  0  0  0
  4  5  1  0  0  0
  5  6  1  0  0  0
  5 10  1  0  0  0
  6  7  1  0  0  0
  7  8  2  0  0  0
  7  9  1  0  0  0
 10 11  2  0  0  0
 10 12  1  0  0  0
 12 13  1  0  0  0
 13 14  1  0  0  0
 13 18  1  0  0  0
 14 15  1  0  0  0
 14 16  1  0  0  0
 14 17  1  0  0  0
 18 19  2  0  0  0
 18 20  1  0  0  0
 20 21  1  0  0  0
 20 25  1  0  0  0
 21 22  1  0  0  0
 22 23  1  0  0  0
 22 24  1  0  0  0
 24 25  1  0  0  0
 25 26  1  0  0  0
 26 27  2  0  0  0
 26 28  1  0  0  0
 28 29  1  0  0  0
 29 30  1  0  0  0
 30 31  4  0  0  0
 30 33  4  0  0  0
 31 32  4  0  0  0
 32 35  4  0  0  0
 33 34  4  0  0  0
 34 35  4  0  0  0
 35 36  1  0  0  0
 36 37  4  0  0  0
 36 40  4  0  0  0
 37 38  4  0  0  0
 38 39  4  0  0  0
 39 40  4  0  0  0
 40 41  1  0  0  0
  1 42  1  0  0  0
  1 43  1  0  0  0
  1 44  1  0  0  0
  2 45  1  0  0  0
  3 46  1  0  0  0
  3 47  1  0  0  0
  3 48  1  0  0  0
  4 49  1  0  0  0
  4 50  1  0  0  0
  5 51  1  0  0  0
  6 52  1  0  0  0
  9 53  1  0  0  0
  9 54  1  0  0  0
  9 55  1  0  0  0
 12 56  1  0  0  0
 13 57  1  0  0  0
 15 58  1  0  0  0
 15 59  1  0  0  0
 15 60  1  0  0  0
 16 61  1  0  0  0
 16 62  1  0  0  0
 16 63  1  0  0  0
 17 64  1  0  0  0
 17 65  1  0  0  0
 17 66  1  0  0  0
 21 67  1  0  0  0
 21 68  1  0  0  0
 22 69  1  0  0  0
 23 70  1  0  0  0
 24 71  1  0  0  0
 24 72  1  0  0  0
 25 73  1  0  0  0
 28 74  1  0  0  0
 29 75  1  0  0  0
 29 76  1  0  0  0
 31 77  1  0  0  0
 32 78  1  0  0  0
 33 79  1  0  0  0
 34 80  1  0  0  0
 38 81  1  0  0  0
 41 82  1  0  0  0
 41 83  1  0  0  0
 41 84  1  0  0  0
M  END
$$$$
