### 
### Created by X-TOOL on Mon Sep 10 21:13:25 2018
### 

@<TRIPOS>MOLECULE
4y94_ligand
   42    42     1     0     0
SMALL
GAST_HUCK


@<TRIPOS>ATOM
      1 C1          7.7730   14.6600  -38.7600 C.3       1 IHP         0.1556
      2 C2          6.7750   14.0930  -37.7790 C.3       1 IHP         0.1556
      3 C3          7.3050   14.1590  -36.3840 C.3       1 IHP         0.1556
      4 C4          7.8620   15.5290  -35.9760 C.3       1 IHP         0.1556
      5 C5          8.7530   16.1580  -37.0180 C.3       1 IHP         0.1556
      6 C6          8.1360   16.0860  -38.3990 C.3       1 IHP         0.1556
      7 O11         7.1830   14.7460  -40.0220 O.3       1 IHP        -0.2668
      8 P1          7.3630   13.6250  -41.1320 P.3       1 IHP         0.2013
      9 O21         7.4730   14.3610  -42.4370 O.co2     1 IHP        -0.5537
     10 O31         8.5700   12.6400  -40.6480 O.co2     1 IHP        -0.5537
     11 O41         6.0730   12.6580  -40.9490 O.co2     1 IHP        -0.5537
     12 O12         5.6580   14.9440  -37.7790 O.3       1 IHP        -0.2668
     13 P2          4.2030   14.5410  -38.4150 P.3       1 IHP         0.2013
     14 O22         3.9040   15.4520  -39.5900 O.co2     1 IHP        -0.5537
     15 O32         4.2490   12.9000  -38.7070 O.co2     1 IHP        -0.5537
     16 O42         3.1780   14.7020  -37.1640 O.co2     1 IHP        -0.5537
     17 O13         6.1130   14.0040  -35.6780 O.3       1 IHP        -0.2668
     18 P3          5.6670   12.6870  -34.8460 P.3       1 IHP         0.2013
     19 O23         6.2180   11.4170  -35.4660 O.co2     1 IHP        -0.5537
     20 O33         3.9810   12.6930  -34.8840 O.co2     1 IHP        -0.5537
     21 O43         6.0610   13.1240  -33.2400 O.co2     1 IHP        -0.5537
     22 O14         8.7340   15.2920  -34.8900 O.3       1 IHP        -0.2668
     23 P4          8.7780   16.1050  -33.4590 P.3       1 IHP         0.2013
     24 O24        10.1820   16.1910  -32.9550 O.co2     1 IHP        -0.5537
     25 O34         7.9460   17.4850  -33.6030 O.co2     1 IHP        -0.5537
     26 O44         7.8730   15.1390  -32.5620 O.co2     1 IHP        -0.5537
     27 O15         9.0580   17.5250  -36.6830 O.3       1 IHP        -0.2668
     28 P5         10.6280   17.9900  -36.6890 P.3       1 IHP         0.2013
     29 O25        11.3550   17.5000  -37.9000 O.co2     1 IHP        -0.5537
     30 O35        11.2160   17.5320  -35.3250 O.co2     1 IHP        -0.5537
     31 O45        10.5050   19.5590  -36.6250 O.co2     1 IHP        -0.5537
     32 O16         9.0480   16.5280  -39.3650 O.3       1 IHP        -0.2668
     33 P6          8.7470   17.9040  -40.1020 P.3       1 IHP         0.2013
     34 O26         9.0050   19.1330  -39.3260 O.co2     1 IHP        -0.5537
     35 O36         7.2520   17.7760  -40.5150 O.co2     1 IHP        -0.5537
     36 O46         9.6070   17.6750  -41.4120 O.co2     1 IHP        -0.5537
     37 H1          8.6711   14.0255  -38.7871 H         1 IHP         0.0710
     38 H2          6.5049   13.0624  -38.0526 H         1 IHP         0.0710
     39 H3          8.0423   13.3667  -36.1877 H         1 IHP         0.0710
     40 H4          7.0392   16.2082  -35.7083 H         1 IHP         0.0710
     41 H5          9.6965   15.5929  -37.0381 H         1 IHP         0.0710
     42 H6          7.2341   16.7154  -38.4214 H         1 IHP         0.0710
@<TRIPOS>BOND
     1    1    2 1  
     2    1    6 1  
     3    1    7 1  
     4    2    3 1  
     5    2   12 1  
     6    3    4 1  
     7    3   17 1  
     8    4    5 1  
     9    4   22 1  
    10    5    6 1  
    11    5   27 1  
    12    6   32 1  
    13    7    8 1  
    14    8    9 ar 
    15    8   10 ar 
    16    8   11 ar 
    17   12   13 1  
    18   13   14 ar 
    19   13   15 ar 
    20   13   16 ar 
    21   17   18 1  
    22   18   19 ar 
    23   18   20 ar 
    24   18   21 ar 
    25   22   23 1  
    26   23   24 ar 
    27   23   25 ar 
    28   23   26 ar 
    29   27   28 1  
    30   28   29 ar 
    31   28   30 ar 
    32   28   31 ar 
    33   32   33 1  
    34   33   34 ar 
    35   33   35 ar 
    36   33   36 ar 
    37    1   37 1  
    38    2   38 1  
    39    3   39 1  
    40    4   40 1  
    41    5   41 1  
    42    6   42 1  
@<TRIPOS>SUBSTRUCTURE
     1 IHP         1

