6b3v_ligand
  -I-interpret- 

 49 51  0  0  0  0  0  0  0  0999 V2000
  -35.5100   -6.9760  -17.8150 C   0  0  0  0  0
  -34.1850   -7.4010  -17.6800 C   0  0  0  0  0
  -33.8340   -8.0680  -16.4940 C   0  0  0  0  0
  -33.1590   -9.0540  -13.8400 C   0  0  0  0  0
  -31.9880  -12.0760   -6.6430 C   0  0  0  0  0
  -30.6370  -15.2390   -5.5770 C   0  0  0  0  0
  -31.8590  -14.3290   -5.5090 C   0  0  0  0  0
  -33.1510  -15.1160   -5.3310 C   0  0  0  0  0
  -31.9770  -13.4620   -6.7620 C   0  0  0  0  0
  -32.0940  -14.0490   -8.0180 C   0  0  0  0  0
  -32.2280  -13.2400   -9.1320 C   0  0  0  0  0
  -32.2250  -11.8560   -9.0130 C   0  0  0  0  0
  -32.3540  -10.9870  -10.2540 C   0  0  0  0  0
  -33.8000  -10.8810  -10.7090 C   0  0  0  0  0
  -35.3730  -10.4070  -12.5480 C   0  0  0  0  0
  -35.5710   -9.0780  -13.2360 C   0  0  0  0  0
  -34.8510   -8.2440  -15.5490 C   0  0  0  0  0
  -35.9430   -6.2640  -19.0770 C   0  0  0  0  0
  -32.9870  -10.2700  -12.9520 C   0  0  0  0  0
  -32.1130  -11.2710   -7.7610 C   0  0  0  0  0
  -34.0540  -10.5170  -12.0630 N   0  0  0  0  0
  -34.5540   -8.9170  -14.3150 N   0  0  0  0  0
  -36.0570   -7.8070  -15.7550 N   0  0  0  0  0
  -36.3910   -7.1850  -16.8810 N   0  0  0  0  0
  -36.2410   -5.7320  -20.0200 N   0  0  0  0  0
  -34.7170  -11.0960  -10.0000 O   0  0  0  0  0
  -33.4512   -7.2216  -18.4658 H   0  0  0  0  0
  -32.8209   -8.4300  -16.3190 H   0  0  0  0  0
  -32.5099   -9.1678  -14.7082 H   0  0  0  0  0
  -32.9044   -8.1665  -13.2606 H   0  0  0  0  0
  -31.8971  -11.6191   -5.6576 H   0  0  0  0  0
  -30.5610  -15.8127   -4.6533 H   0  0  0  0  0
  -30.7393  -15.9200   -6.4219 H   0  0  0  0  0
  -29.7404  -14.6323   -5.7042 H   0  0  0  0  0
  -31.7141  -13.6918   -4.6366 H   0  0  0  0  0
  -33.9853  -14.4228   -5.2233 H   0  0  0  0  0
  -33.3129  -15.7485   -6.2039 H   0  0  0  0  0
  -33.0761  -15.7379   -4.4390 H   0  0  0  0  0
  -32.0802  -15.1338   -8.1230 H   0  0  0  0  0
  -32.3374  -13.6947  -10.1166 H   0  0  0  0  0
  -31.7712  -11.4401  -11.0559 H   0  0  0  0  0
  -31.9921   -9.9869  -10.0153 H   0  0  0  0  0
  -35.5562  -11.2083  -13.2638 H   0  0  0  0  0
  -36.0667  -10.4802  -11.7104 H   0  0  0  0  0
  -35.4585   -8.2735  -12.5092 H   0  0  0  0  0
  -36.5697   -9.0405  -13.6710 H   0  0  0  0  0
  -32.1036  -10.0892  -12.3396 H   0  0  0  0  0
  -32.9222  -11.1346  -13.6126 H   0  0  0  0  0
  -32.1234  -10.1859   -7.6585 H   0  0  0  0  0
  2  1  4  0  0  0
  1 18  1  0  0  0
  1 24  4  0  0  0
  3  2  4  0  0  0
 17  3  4  0  0  0
  4 19  1  0  0  0
 22  4  1  0  0  0
  5  9  4  0  0  0
 20  5  4  0  0  0
  7  6  1  0  0  0
  7  8  1  0  0  0
  9  7  1  0  0  0
 10  9  4  0  0  0
 11 10  4  0  0  0
 12 11  4  0  0  0
 13 12  1  0  0  0
 12 20  4  0  0  0
 14 13  1  0  0  0
 21 14  1  0  0  0
 14 26  2  0  0  0
 16 15  1  0  0  0
 15 21  1  0  0  0
 22 16  1  0  0  0
 17 22  1  0  0  0
 17 23  4  0  0  0
 18 25  3  0  0  0
 19 21  1  0  0  0
 23 24  4  0  0  0
  2 27  1  0  0  0
  3 28  1  0  0  0
  4 29  1  0  0  0
  4 30  1  0  0  0
  5 31  1  0  0  0
  6 32  1  0  0  0
  6 33  1  0  0  0
  6 34  1  0  0  0
  7 35  1  0  0  0
  8 36  1  0  0  0
  8 37  1  0  0  0
  8 38  1  0  0  0
 10 39  1  0  0  0
 11 40  1  0  0  0
 13 41  1  0  0  0
 13 42  1  0  0  0
 15 43  1  0  0  0
 15 44  1  0  0  0
 16 45  1  0  0  0
 16 46  1  0  0  0
 19 47  1  0  0  0
 19 48  1  0  0  0
 20 49  1  0  0  0
M  END
$$$$
