5l8y_ligand
  -I-interpret- 

 82 86  0  0  0  0  0  0  0  0999 V2000
   36.7560   33.1750   26.3610 O   0  0  0  0  0
   36.4180   32.1500   26.9300 C   0  0  0  0  0
   37.3170   31.2560   27.4560 N   0  0  0  0  0
   38.7900   31.3820   27.3790 C   0  0  0  0  0
   39.4210   31.4500   28.8220 C   0  0  0  0  0
   40.9060   31.3190   29.1130 C   0  0  0  0  0
   41.7840   31.0390   27.9400 C   0  0  0  0  0
   41.6280   29.6410   27.3820 C   0  0  0  0  0
   40.2190   29.2180   27.0330 C   0  0  0  0  0
   39.3480   30.3020   26.4130 C   0  0  0  0  0
   36.9840   30.1190   28.1790 N   0  0  0  0  0
   34.9560   31.7850   27.1300 C   0  0  0  0  0
   34.7500   31.1150   28.5170 C   0  0  0  0  0
   34.7980   32.1210   29.6840 C   0  0  0  0  0
   34.4090   33.5260   29.2970 C   0  0  0  0  0
   34.0920   33.9330   28.0750 C   0  0  0  0  0
   34.0060   32.9790   26.9370 C   0  0  0  0  0
   35.8010   30.0290   28.6860 C   0  0  0  0  0
   35.5290   28.7770   29.4350 C   0  0  0  0  0
   34.5570   28.7310   30.4350 C   0  0  0  0  0
   34.3350   27.5700   31.1540 C   0  0  0  0  0
   36.2590   27.6250   29.1490 C   0  0  0  0  0
   36.0210   26.4270   29.8240 C   0  0  0  0  0
   35.0660   26.4170   30.8490 C   0  0  0  0  0
   34.8980   25.2220   31.4900 O   0  0  0  0  0
   33.6230   24.9530   32.0860 C   0  0  0  0  0
   36.6700   25.2000   29.2810 C   0  0  0  0  0
   36.4350   24.8020   27.9650 C   0  0  0  0  0
   37.1800   23.7980   27.3730 C   0  0  0  0  0
   38.1930   23.1510   28.0820 C   0  0  0  0  0
   38.3900   23.5070   29.4180 C   0  0  0  0  0
   37.6400   24.5110   30.0020 C   0  0  0  0  0
   39.1690   22.2050   27.4400 C   0  0  0  0  0
   40.3060   22.0920   27.8890 O   0  0  0  0  0
   38.7660   21.5230   26.3600 N   0  0  0  0  0
   39.2240   20.1710   26.1060 C   0  0  0  0  0
   38.4770   19.1100   26.8980 C   0  0  0  0  0
   38.5030   19.1010   28.1290 O   0  0  0  0  0
   37.8030   18.2140   26.1740 N   0  0  0  0  0
   37.7750   16.7880   26.4760 C   0  0  0  0  0
   36.5210   16.1190   25.9760 C   0  0  0  0  0
   35.5120   16.0280   26.9640 O   0  0  0  0  0
   39.0926   32.3304   26.9350 H   0  0  0  0  0
   39.0046   30.5665   29.3059 H   0  0  0  0  0
   39.2080   32.4745   29.1270 H   0  0  0  0  0
   41.0111   30.4655   29.7828 H   0  0  0  0  0
   41.2250   32.2831   29.5091 H   0  0  0  0  0
   42.8164   31.1429   28.2739 H   0  0  0  0  0
   41.5055   31.7374   27.1509 H   0  0  0  0  0
   41.9664   28.9607   28.1635 H   0  0  0  0  0
   42.1930   29.6193   26.4501 H   0  0  0  0  0
   39.7393   28.9296   27.9683 H   0  0  0  0  0
   40.3065   28.4254   26.2899 H   0  0  0  0  0
   39.9850   30.8317   25.7047 H   0  0  0  0  0
   38.4791   29.7902   25.9993 H   0  0  0  0  0
   34.6968   31.0677   26.3513 H   0  0  0  0  0
   33.7499   30.6826   28.5454 H   0  0  0  0  0
   35.8279   32.1562   30.0392 H   0  0  0  0  0
   34.0831   31.7818   30.4337 H   0  0  0  0  0
   34.3864   34.2723   30.0911 H   0  0  0  0  0
   33.8901   34.9899   27.9009 H   0  0  0  0  0
   32.9849   32.6021   26.8786 H   0  0  0  0  0
   34.2908   33.5031   26.0247 H   0  0  0  0  0
   33.9655   29.6204   30.6523 H   0  0  0  0  0
   33.5946   27.5538   31.9537 H   0  0  0  0  0
   37.0324   27.6604   28.3817 H   0  0  0  0  0
   33.4076   25.7119   32.8381 H   0  0  0  0  0
   32.8518   24.9736   31.3160 H   0  0  0  0  0
   33.6431   23.9696   32.5557 H   0  0  0  0  0
   35.6483   25.2921   27.3914 H   0  0  0  0  0
   36.9737   23.5093   26.3424 H   0  0  0  0  0
   39.1446   22.9867   30.0078 H   0  0  0  0  0
   37.8120   24.7676   31.0473 H   0  0  0  0  0
   38.1232   21.9641   25.7022 H   0  0  0  0  0
   40.2712   20.1216   26.4043 H   0  0  0  0  0
   39.0567   19.9648   25.0488 H   0  0  0  0  0
   37.2784   18.5453   25.3644 H   0  0  0  0  0
   37.8099   16.6721   27.5593 H   0  0  0  0  0
   38.6264   16.3217   25.9803 H   0  0  0  0  0
   36.7831   15.1049   25.6743 H   0  0  0  0  0
   36.1289   16.7192   25.1549 H   0  0  0  0  0
   34.7398   15.5955   26.5922 H   0  0  0  0  0
  1  2  2  0  0  0
  2  3  1  0  0  0
  2 12  1  0  0  0
  3  4  1  0  0  0
  3 11  1  0  0  0
  4  5  1  0  0  0
  4 10  1  0  0  0
  5  6  1  0  0  0
  6  7  1  0  0  0
  7  8  1  0  0  0
  8  9  1  0  0  0
  9 10  1  0  0  0
 11 18  2  0  0  0
 12 13  1  0  0  0
 12 17  1  0  0  0
 13 14  1  0  0  0
 13 18  1  0  0  0
 14 15  1  0  0  0
 15 16  2  0  0  0
 16 17  1  0  0  0
 18 19  1  0  0  0
 19 20  4  0  0  0
 19 22  4  0  0  0
 20 21  4  0  0  0
 21 24  4  0  0  0
 22 23  4  0  0  0
 23 24  4  0  0  0
 23 27  1  0  0  0
 24 25  1  0  0  0
 25 26  1  0  0  0
 27 28  4  0  0  0
 27 32  4  0  0  0
 28 29  4  0  0  0
 29 30  4  0  0  0
 30 31  4  0  0  0
 30 33  1  0  0  0
 31 32  4  0  0  0
 33 34  2  0  0  0
 33 35  1  0  0  0
 35 36  1  0  0  0
 36 37  1  0  0  0
 37 38  2  0  0  0
 37 39  1  0  0  0
 39 40  1  0  0  0
 40 41  1  0  0  0
 41 42  1  0  0  0
  4 43  1  0  0  0
  5 44  1  0  0  0
  5 45  1  0  0  0
  6 46  1  0  0  0
  6 47  1  0  0  0
  7 48  1  0  0  0
  7 49  1  0  0  0
  8 50  1  0  0  0
  8 51  1  0  0  0
  9 52  1  0  0  0
  9 53  1  0  0  0
 10 54  1  0  0  0
 10 55  1  0  0  0
 12 56  1  0  0  0
 13 57  1  0  0  0
 14 58  1  0  0  0
 14 59  1  0  0  0
 15 60  1  0  0  0
 16 61  1  0  0  0
 17 62  1  0  0  0
 17 63  1  0  0  0
 20 64  1  0  0  0
 21 65  1  0  0  0
 22 66  1  0  0  0
 26 67  1  0  0  0
 26 68  1  0  0  0
 26 69  1  0  0  0
 28 70  1  0  0  0
 29 71  1  0  0  0
 31 72  1  0  0  0
 32 73  1  0  0  0
 35 74  1  0  0  0
 36 75  1  0  0  0
 36 76  1  0  0  0
 39 77  1  0  0  0
 40 78  1  0  0  0
 40 79  1  0  0  0
 41 80  1  0  0  0
 41 81  1  0  0  0
 42 82  1  0  0  0
M  END
$$$$
