5enb_ligand
  -I-interpret- 

 21 21  0  0  0  0  0  0  0  0999 V2000
  -21.5150    3.5070   -8.5720 N   0  0  0  0  0
  -25.5740    1.8050   -7.1200 C   0  0  0  0  0
  -24.7270    1.8300   -8.2100 C   0  0  0  0  0
  -24.3350    3.0550   -8.7480 C   0  0  0  0  0
  -22.0740    3.1930   -9.7470 C   0  0  0  0  0
  -21.1460    2.7910  -11.0960 S   0  0  0  0  0
  -23.4050    3.0700   -9.8070 N   0  0  0  0  0
  -24.8010    4.2630   -8.2160 C   0  0  0  0  0
  -24.3280    5.5950   -8.7310 C   0  0  0  0  0
  -26.0510    2.9840   -6.5850 C   0  0  0  0  0
  -25.6760    4.1970   -7.1340 C   0  0  0  0  0
  -20.4997    3.5075   -8.4742 H   0  0  0  0  0
  -22.1043    3.7457   -7.7744 H   0  0  0  0  0
  -25.8667    0.8513   -6.6809 H   0  0  0  0  0
  -24.3673    0.8984   -8.6469 H   0  0  0  0  0
  -23.7988    2.9744  -10.7431 H   0  0  0  0  0
  -23.2485    5.6708   -8.6009 H   0  0  0  0  0
  -24.5748    5.6825   -9.7891 H   0  0  0  0  0
  -24.8192    6.3934   -8.1748 H   0  0  0  0  0
  -26.7245    2.9595   -5.7283 H   0  0  0  0  0
  -26.0732    5.1199   -6.7114 H   0  0  0  0  0
  5  1  1  0  0  0
  3  2  4  0  0  0
  2 10  4  0  0  0
  4  3  4  0  0  0
  7  4  1  0  0  0
  4  8  4  0  0  0
  5  6  2  0  0  0
  5  7  1  0  0  0
  8  9  1  0  0  0
  8 11  4  0  0  0
 10 11  4  0  0  0
  1 12  1  0  0  0
  1 13  1  0  0  0
  2 14  1  0  0  0
  3 15  1  0  0  0
  7 16  1  0  0  0
  9 17  1  0  0  0
  9 18  1  0  0  0
  9 19  1  0  0  0
 10 20  1  0  0  0
 11 21  1  0  0  0
M  END
$$$$
