5edd_ligand
  -I-interpret- 

 44 45  0  0  0  0  0  0  0  0999 V2000
   21.5640   -7.0770    1.0060 O   0  0  0  0  0
   20.3760   -6.6920    0.5090 C   0  0  0  0  0
   19.5110   -7.6380   -0.0090 C   0  0  0  0  0
   18.3100   -7.2420   -0.5560 C   0  0  0  0  0
   20.0410   -5.3920    0.4560 N   0  0  0  0  0
   18.8870   -5.0240   -0.1330 C   0  0  0  0  0
   18.5840   -3.7020   -0.1940 O   0  0  0  0  0
   18.0200   -5.9430   -0.6130 N   0  0  0  0  0
   16.7520   -5.4940   -1.2190 C   0  0  0  0  0
   16.8830   -5.5930   -2.7450 C   0  0  0  0  0
   16.1440   -6.8680   -3.1100 C   0  0  0  0  0
   15.6840   -6.8930   -4.4670 O   0  0  0  0  0
   15.6610   -6.3380   -0.8750 O   0  0  0  0  0
   15.0510   -6.8740   -2.0450 C   0  0  0  0  0
   14.4950   -8.2390   -1.6830 C   0  0  0  0  0
   15.5920   -9.0560   -1.1880 O   0  0  0  0  0
   15.2300  -10.5390   -0.6600 P   0  0  0  0  0
   14.3820  -11.1440   -1.7280 O   0  0  0  0  0
   16.5690  -11.1970   -0.3030 O   0  0  0  0  0
   14.3170  -10.2430    0.6950 N   0  0  0  0  0
   12.8130  -10.8340    1.1100 P   0  0  0  0  0
   12.6390  -12.1700    0.3720 O   0  0  0  0  0
   12.7860  -10.8390    2.6480 O   0  0  0  0  0
   11.6830   -9.7770    0.6040 O   0  0  0  0  0
   10.7740   -9.8000   -0.7670 P   0  0  0  0  0
   11.5120  -10.5800   -1.8440 O   0  0  0  0  0
    9.5270  -10.4800   -0.2540 O   0  0  0  0  0
   10.7580   -8.2900   -1.0620 O   0  0  0  0  0
   19.7785   -8.6944    0.0153 H   0  0  0  0  0
   17.6063   -7.9820   -0.9372 H   0  0  0  0  0
   20.6577   -4.6871    0.8599 H   0  0  0  0  0
   16.5655   -4.4819   -0.8599 H   0  0  0  0  0
   17.9249   -5.6199   -3.0640 H   0  0  0  0  0
   16.4647   -4.7210   -3.2477 H   0  0  0  0  0
   16.7523   -7.7724   -3.1005 H   0  0  0  0  0
   15.2274   -7.7208   -4.6337 H   0  0  0  0  0
   14.2054   -6.3099   -2.4386 H   0  0  0  0  0
   14.0440   -8.7056   -2.5588 H   0  0  0  0  0
   13.7246   -8.1405   -0.9182 H   0  0  0  0  0
   16.9945  -10.6953    0.3962 H   0  0  0  0  0
   14.7371   -9.6069    1.3727 H   0  0  0  0  0
   12.9056   -9.9433    2.9719 H   0  0  0  0  0
   12.2889  -10.0875   -2.1186 H   0  0  0  0  0
   11.6226   -8.0177   -1.3781 H   0  0  0  0  0
  1  2  2  0  0  0
  2  3  1  0  0  0
  2  5  1  0  0  0
  3  4  2  0  0  0
  4  8  1  0  0  0
  5  6  1  0  0  0
  6  7  2  0  0  0
  6  8  1  0  0  0
  8  9  1  0  0  0
  9 10  1  0  0  0
  9 13  1  0  0  0
 10 11  1  0  0  0
 11 12  1  0  0  0
 11 14  1  0  0  0
 13 14  1  0  0  0
 14 15  1  0  0  0
 15 16  1  0  0  0
 16 17  1  0  0  0
 17 18  2  0  0  0
 17 19  1  0  0  0
 17 20  1  0  0  0
 20 21  1  0  0  0
 21 22  2  0  0  0
 21 23  1  0  0  0
 21 24  1  0  0  0
 24 25  1  0  0  0
 25 26  1  0  0  0
 25 27  2  0  0  0
 25 28  1  0  0  0
  3 29  1  0  0  0
  4 30  1  0  0  0
  5 31  1  0  0  0
  9 32  1  0  0  0
 10 33  1  0  0  0
 10 34  1  0  0  0
 11 35  1  0  0  0
 12 36  1  0  0  0
 14 37  1  0  0  0
 15 38  1  0  0  0
 15 39  1  0  0  0
 19 40  1  0  0  0
 20 41  1  0  0  0
 23 42  1  0  0  0
 26 43  1  0  0  0
 28 44  1  0  0  0
M  END
$$$$
