5fl0_ligand
  -I-interpret- 

 38 39  0  0  0  0  0  0  0  0999 V2000
   26.5130   50.8720  251.3460 O   0  0  0  0  0
   26.0700   50.5380  250.0110 C   0  0  0  0  0
   27.1770   50.9210  249.0440 C   0  0  0  0  0
   27.4460   52.3130  249.1720 O   0  0  0  0  0
   28.4470   50.1690  249.3630 C   0  0  0  0  0
   28.2530   48.7530  249.4060 O   0  0  0  0  0
   29.4360   50.5040  248.2720 C   0  0  0  0  0
   30.6500   49.7930  248.4930 O   0  0  0  0  0
   29.7010   51.9880  248.2550 C   0  0  0  0  0
   28.4150   52.8090  248.2410 C   0  0  0  0  0
   30.3080   52.2600  246.9480 N   0  0  0  0  0
   29.4990   52.5670  246.0140 C   0  0  0  0  0
   27.9120   52.7920  246.5160 S   0  0  0  0  0
   29.9360   52.7020  244.7740 N   0  0  0  0  0
   29.1470   53.0650  243.6370 C   0  0  0  0  0
   30.0840   52.9650  242.4360 C   0  0  0  0  0
   29.2860   52.9490  241.1400 C   0  0  0  0  0
   28.8790   54.3440  240.7820 C   0  0  0  0  0
   25.8282   50.6385  251.9770 H   0  0  0  0  0
   25.1542   51.0780  249.7704 H   0  0  0  0  0
   25.8574   49.4714  249.9390 H   0  0  0  0  0
   26.8522   50.6755  248.0329 H   0  0  0  0  0
   28.7990   50.4648  250.3513 H   0  0  0  0  0
   27.6245   48.5382  250.0991 H   0  0  0  0  0
   29.0205   50.2110  247.3078 H   0  0  0  0  0
   30.4702   48.8500  248.5020 H   0  0  0  0  0
   30.2967   52.2449  249.1309 H   0  0  0  0  0
   28.5453   53.8346  248.5862 H   0  0  0  0  0
   30.9286   52.5314  244.6125 H   0  0  0  0  0
   28.7390   54.0704  243.7406 H   0  0  0  0  0
   28.2849   52.4075  243.5248 H   0  0  0  0  0
   30.6589   52.0419  242.5102 H   0  0  0  0  0
   30.7496   53.8281  242.4323 H   0  0  0  0  0
   28.3951   52.3348  241.2714 H   0  0  0  0  0
   29.9018   52.5357  240.3412 H   0  0  0  0  0
   28.2640   54.7581  241.5810 H   0  0  0  0  0
   29.7696   54.9588  240.6515 H   0  0  0  0  0
   28.3080   54.3276  239.8537 H   0  0  0  0  0
  1  2  1  0  0  0
  2  3  1  0  0  0
  3  4  1  0  0  0
  3  5  1  0  0  0
  4 10  1  0  0  0
  5  6  1  0  0  0
  5  7  1  0  0  0
  7  8  1  0  0  0
  7  9  1  0  0  0
  9 10  1  0  0  0
  9 11  1  0  0  0
 10 13  1  0  0  0
 11 12  2  0  0  0
 12 13  1  0  0  0
 12 14  1  0  0  0
 14 15  1  0  0  0
 15 16  1  0  0  0
 16 17  1  0  0  0
 17 18  1  0  0  0
  1 19  1  0  0  0
  2 20  1  0  0  0
  2 21  1  0  0  0
  3 22  1  0  0  0
  5 23  1  0  0  0
  6 24  1  0  0  0
  7 25  1  0  0  0
  8 26  1  0  0  0
  9 27  1  0  0  0
 10 28  1  0  0  0
 14 29  1  0  0  0
 15 30  1  0  0  0
 15 31  1  0  0  0
 16 32  1  0  0  0
 16 33  1  0  0  0
 17 34  1  0  0  0
 17 35  1  0  0  0
 18 36  1  0  0  0
 18 37  1  0  0  0
 18 38  1  0  0  0
M  END
$$$$
