6fgc_ligand
  -I-interpret- 

 55 58  0  0  0  0  0  0  0  0999 V2000
  -13.3760   19.4570   66.6980 C   0  0  0  0  0
  -14.5920   19.1270   65.8450 C   0  0  0  0  0
  -15.7020   18.6090   66.7390 C   0  0  0  0  0
  -16.9220   18.3470   65.8770 C   0  0  0  0  0
  -16.6210   17.2660   64.8800 C   0  0  0  0  0
  -17.8350   16.9550   64.0190 C   0  0  0  0  0
  -18.1270   18.1350   63.1370 C   0  0  0  0  0
  -15.8630   18.7060   62.9930 C   0  0  0  0  0
  -15.4120   17.6520   63.9640 C   0  0  0  0  0
  -14.2580   18.0170   64.8660 C   0  0  0  0  0
  -13.1280   18.5200   63.9980 C   0  0  0  0  0
  -12.9480   17.7120   62.7080 C   0  0  0  0  0
  -14.0890   17.8550   61.6920 C   0  0  0  0  0
  -13.5130   18.0250   60.3180 C   0  0  0  0  0
  -19.9700   18.8430   61.8100 C   0  0  0  0  0
  -21.2050   18.4520   61.0250 C   0  0  0  0  0
  -21.9530   19.6790   60.5730 C   0  0  0  0  0
  -21.1130   20.4200   59.5570 C   0  0  0  0  0
  -19.0800   16.6440   64.8370 C   0  0  0  0  0
  -17.0520   18.3500   62.2880 O   0  0  0  0  0
  -14.8910   19.0020   62.0200 O   0  0  0  0  0
  -14.8990   16.7210   61.7660 O   0  0  0  0  0
  -15.2360   16.4220   63.1890 O   0  0  0  0  0
  -19.2320   17.7770   62.3300 O   0  0  0  0  0
  -19.6180   20.0060   61.9830 O   0  0  0  0  0
  -21.2560   21.6590   59.4260 O   0  0  0  0  0
  -20.2910   19.7930   58.8380 O   0  0  0  0  0
  -13.0716   18.5697   67.2532 H   0  0  0  0  0
  -12.5591   19.7819   66.0536 H   0  0  0  0  0
  -13.6292   20.2549   67.3961 H   0  0  0  0  0
  -14.8947   20.0290   65.3131 H   0  0  0  0  0
  -15.9377   19.3447   67.5080 H   0  0  0  0  0
  -15.3873   17.6893   67.2322 H   0  0  0  0  0
  -17.1901   19.2607   65.3465 H   0  0  0  0  0
  -17.7493   18.0300   66.5120 H   0  0  0  0  0
  -16.3563   16.3751   65.4495 H   0  0  0  0  0
  -17.5930   16.0669   63.4353 H   0  0  0  0  0
  -18.3168   19.0251   63.7369 H   0  0  0  0  0
  -16.0484   19.5743   63.6253 H   0  0  0  0  0
  -14.0012   17.1249   65.4372 H   0  0  0  0  0
  -12.2064   18.4315   64.5733 H   0  0  0  0  0
  -13.3625   19.5459   63.7140 H   0  0  0  0  0
  -12.9117   16.6614   62.9961 H   0  0  0  0  0
  -12.0458   18.0864   62.2243 H   0  0  0  0  0
  -12.8896   18.9188   60.2948 H   0  0  0  0  0
  -12.9091   17.1527   60.0681 H   0  0  0  0  0
  -14.3231   18.1266   59.5958 H   0  0  0  0  0
  -21.8564   17.8553   61.6635 H   0  0  0  0  0
  -20.9011   17.8795   60.1486 H   0  0  0  0  0
  -22.1509   20.3251   61.4282 H   0  0  0  0  0
  -22.9017   19.3866   60.1230 H   0  0  0  0  0
  -19.3384   17.5099   65.4465 H   0  0  0  0  0
  -19.9061   16.4116   64.1649 H   0  0  0  0  0
  -18.8841   15.7885   65.4834 H   0  0  0  0  0
  -20.3105   18.8615   59.0695 H   0  0  0  0  0
  2  1  1  0  0  0
  3  2  1  0  0  0
 10  2  1  0  0  0
  4  3  1  0  0  0
  5  4  1  0  0  0
  6  5  1  0  0  0
  5  9  1  0  0  0
  7  6  1  0  0  0
  6 19  1  0  0  0
  7 20  1  0  0  0
 24  7  1  0  0  0
  8  9  1  0  0  0
 20  8  1  0  0  0
  8 21  1  0  0  0
  9 10  1  0  0  0
  9 23  1  0  0  0
 10 11  1  0  0  0
 12 11  1  0  0  0
 13 12  1  0  0  0
 13 14  1  0  0  0
 21 13  1  0  0  0
 13 22  1  0  0  0
 15 16  1  0  0  0
 15 24  1  0  0  0
 15 25  2  0  0  0
 16 17  1  0  0  0
 17 18  1  0  0  0
 18 26  2  0  0  0
 18 27  1  0  0  0
 22 23  1  0  0  0
  1 28  1  0  0  0
  1 29  1  0  0  0
  1 30  1  0  0  0
  2 31  1  0  0  0
  3 32  1  0  0  0
  3 33  1  0  0  0
  4 34  1  0  0  0
  4 35  1  0  0  0
  5 36  1  0  0  0
  6 37  1  0  0  0
  7 38  1  0  0  0
  8 39  1  0  0  0
 10 40  1  0  0  0
 11 41  1  0  0  0
 11 42  1  0  0  0
 12 43  1  0  0  0
 12 44  1  0  0  0
 14 45  1  0  0  0
 14 46  1  0  0  0
 14 47  1  0  0  0
 16 48  1  0  0  0
 16 49  1  0  0  0
 17 50  1  0  0  0
 17 51  1  0  0  0
 19 52  1  0  0  0
 19 53  1  0  0  0
 19 54  1  0  0  0
 27 55  1  0  0  0
M  END
$$$$
