3n1v_ligand
  -I-interpret- 

 24 25  0  0  0  0  0  0  0  0999 V2000
   -0.1650   77.9230   28.9120 Cl  0  0  0  0  0
    1.5040   78.0890   28.5960 C   0  0  0  0  0
    2.3460   76.9620   28.6930 C   0  0  0  0  0
    3.6950   77.1810   28.4450 C   0  0  0  0  0
    4.1810   78.4370   28.1120 C   0  0  0  0  0
    5.9200   78.5420   27.8050 S   0  0  0  0  0
    5.9750   76.7620   28.1520 C   0  0  0  0  0
    4.8010   76.1820   28.4740 C   0  0  0  0  0
    4.5890   74.7150   28.8210 C   0  0  0  0  0
    7.2460   75.9870   28.0770 C   0  0  0  0  0
    7.5280   75.6680   26.6240 C   0  0  0  0  0
    8.6580   75.7440   26.1730 O   0  0  0  0  0
    6.4840   75.3040   25.8640 O   0  0  0  0  0
    3.3370   79.5540   28.0130 C   0  0  0  0  0
    1.9810   79.3660   28.2630 C   0  0  0  0  0
    1.9601   75.9750   28.9481 H   0  0  0  0  0
    4.1788   74.6367   29.8278 H   0  0  0  0  0
    3.8937   74.2712   28.1085 H   0  0  0  0  0
    5.5433   74.1903   28.7743 H   0  0  0  0  0
    7.1539   75.0642   28.6498 H   0  0  0  0  0
    8.0646   76.5727   28.4954 H   0  0  0  0  0
    5.6859   75.3040   26.3975 H   0  0  0  0  0
    3.7304   80.5357   27.7492 H   0  0  0  0  0
    1.2916   80.2080   28.2004 H   0  0  0  0  0
  1  2  1  0  0  0
  2  3  4  0  0  0
  2 15  4  0  0  0
  3  4  4  0  0  0
  4  5  4  0  0  0
  4  8  4  0  0  0
  5  6  4  0  0  0
  5 14  4  0  0  0
  6  7  4  0  0  0
  7  8  4  0  0  0
  7 10  1  0  0  0
  8  9  1  0  0  0
 10 11  1  0  0  0
 11 12  2  0  0  0
 11 13  1  0  0  0
 14 15  4  0  0  0
  3 16  1  0  0  0
  9 17  1  0  0  0
  9 18  1  0  0  0
  9 19  1  0  0  0
 10 20  1  0  0  0
 10 21  1  0  0  0
 13 22  1  0  0  0
 14 23  1  0  0  0
 15 24  1  0  0  0
M  END
$$$$
