2pzi_ligand
  -I-interpret- 

 34 36  0  0  0  0  0  0  0  0999 V2000
   19.0850   -9.2450   -3.5240 O   0  0  0  0  0
   19.7770   -9.5920   -2.5650 C   0  0  0  0  0
   19.2850   -9.4500   -1.1400 C   0  0  0  0  0
   17.8680  -10.0160   -1.0820 C   0  0  0  0  0
   18.0840   -8.5070   -1.0200 C   0  0  0  0  0
   20.9900  -10.1370   -2.6880 N   0  0  0  0  0
   21.6850  -10.2130   -3.8520 C   0  0  0  0  0
   21.1860   -9.6150   -5.3790 S   0  0  0  0  0
   22.6330  -10.1400   -6.1760 C   0  0  0  0  0
   22.7630   -9.8720   -7.6470 C   0  0  0  0  0
   24.2540   -9.9470   -7.9610 C   0  0  0  0  0
   24.9120  -11.1980   -7.3740 C   0  0  0  0  0
   24.8280  -11.3200   -5.8510 C   0  0  0  0  0
   23.5100  -10.7990   -5.3290 C   0  0  0  0  0
   23.0100  -10.8400   -4.0050 C   0  0  0  0  0
   23.6740  -11.4560   -2.8350 C   0  0  0  0  0
   23.0170  -11.5090   -1.8100 O   0  0  0  0  0
   24.9140  -11.9240   -2.9420 N   0  0  0  0  0
   20.2178   -9.5517   -0.5854 H   0  0  0  0  0
   17.3182  -10.7842   -0.5382 H   0  0  0  0  0
   17.2519  -10.7299   -1.6287 H   0  0  0  0  0
   17.7008   -7.6054   -1.4979 H   0  0  0  0  0
   17.7668   -7.6594   -0.4124 H   0  0  0  0  0
   21.4244  -10.5228   -1.8496 H   0  0  0  0  0
   22.3546   -8.8954   -7.9069 H   0  0  0  0  0
   22.2005  -10.6004   -8.2311 H   0  0  0  0  0
   24.7357   -9.0743   -7.5201 H   0  0  0  0  0
   24.3690   -9.9824   -9.0443 H   0  0  0  0  0
   25.9709  -11.1444   -7.6271 H   0  0  0  0  0
   24.3816  -12.0557   -7.7877 H   0  0  0  0  0
   25.6323  -10.7301   -5.4114 H   0  0  0  0  0
   24.9151  -12.3728   -5.5825 H   0  0  0  0  0
   25.3668  -12.3572   -2.1372 H   0  0  0  0  0
   25.4124  -11.8498   -3.8289 H   0  0  0  0  0
  1  2  2  0  0  0
  2  3  1  0  0  0
  2  6  1  0  0  0
  3  4  1  0  0  0
  3  5  1  0  0  0
  4  5  1  0  0  0
  6  7  1  0  0  0
  7  8  4  0  0  0
  7 15  4  0  0  0
  8  9  4  0  0  0
  9 10  1  0  0  0
  9 14  4  0  0  0
 10 11  1  0  0  0
 11 12  1  0  0  0
 12 13  1  0  0  0
 13 14  1  0  0  0
 14 15  4  0  0  0
 15 16  1  0  0  0
 16 17  2  0  0  0
 16 18  1  0  0  0
  3 19  1  0  0  0
  4 20  1  0  0  0
  4 21  1  0  0  0
  5 22  1  0  0  0
  5 23  1  0  0  0
  6 24  1  0  0  0
 10 25  1  0  0  0
 10 26  1  0  0  0
 11 27  1  0  0  0
 11 28  1  0  0  0
 12 29  1  0  0  0
 12 30  1  0  0  0
 13 31  1  0  0  0
 13 32  1  0  0  0
 18 33  1  0  0  0
 18 34  1  0  0  0
M  END
$$$$
