3gy3_ligand
  -I-interpret- 

 49 50  0  0  0  0  0  0  0  0999 V2000
   -9.6230   21.1830   50.0110 C   0  0  0  0  0
   -9.6360   19.9500   49.3440 C   0  0  0  0  0
   -9.1680   18.8130   49.9850 C   0  0  0  0  0
   -8.6880   18.9130   51.2910 C   0  0  0  0  0
   -8.6590   20.1490   51.9470 C   0  0  0  0  0
   -9.1160   21.2900   51.3060 C   0  0  0  0  0
  -10.6310   22.3540   48.1270 C   0  0  0  0  0
  -11.3130   23.7070   47.9560 C   0  0  0  0  0
   -8.1870   17.7040   52.0120 C   0  0  0  0  0
  -12.5790   23.8290   48.8010 C   0  0  0  0  0
  -13.3640   25.5950   51.6180 C   0  0  0  0  0
  -14.5970   26.2610   51.5370 C   0  0  0  0  0
  -15.6400   25.9190   52.3850 C   0  0  0  0  0
  -15.4450   24.9150   53.3170 C   0  0  0  0  0
  -14.2130   24.2490   53.4130 C   0  0  0  0  0
  -13.1620   24.5850   52.5550 C   0  0  0  0  0
  -12.5390   26.3230   49.4130 C   0  0  0  0  0
  -13.1980   25.2060   48.5920 C   0  0  0  0  0
  -16.5630   24.5160   54.2220 C   0  0  0  0  0
  -10.0520   22.3380   49.4220 O   0  0  0  0  0
  -12.3390   25.9400   50.7820 O   0  0  0  0  0
   -8.5890   16.5530   51.6950 N   0  0  0  0  0
   -7.3320   17.8570   53.0220 N   0  0  0  0  0
  -17.3890   25.3750   54.6390 N   0  0  0  0  0
  -16.6890   23.2220   54.5320 N   0  0  0  0  0
  -10.0133   19.8852   48.3234 H   0  0  0  0  0
   -9.1751   17.8505   49.4734 H   0  0  0  0  0
   -8.2758   20.2146   52.9653 H   0  0  0  0  0
   -9.0796   22.2574   51.8070 H   0  0  0  0  0
   -9.8673   22.2093   47.3628 H   0  0  0  0  0
  -11.3520   21.5438   48.0184 H   0  0  0  0  0
  -11.5942   23.8139   46.9083 H   0  0  0  0  0
  -10.6156   24.4803   48.2782 H   0  0  0  0  0
  -12.3273   23.6996   49.8536 H   0  0  0  0  0
  -13.2917   23.0608   48.5010 H   0  0  0  0  0
  -14.7360   27.0535   50.8016 H   0  0  0  0  0
  -16.5987   26.4333   52.3182 H   0  0  0  0  0
  -14.0755   23.4668   54.1595 H   0  0  0  0  0
  -12.2048   24.0675   52.6180 H   0  0  0  0  0
  -13.1971   27.1917   49.3954 H   0  0  0  0  0
  -11.5648   26.5383   48.9741 H   0  0  0  0  0
  -14.2382   25.1429   48.9114 H   0  0  0  0  0
  -13.0684   25.4606   47.5401 H   0  0  0  0  0
   -8.2598   15.7375   52.2118 H   0  0  0  0  0
   -7.0025   17.0419   53.5392 H   0  0  0  0  0
   -7.0069   18.7892   53.2782 H   0  0  0  0  0
  -17.2955   26.3510   54.3578 H   0  0  0  0  0
  -17.4646   22.9108   55.1168 H   0  0  0  0  0
  -16.0095   22.5456   54.1838 H   0  0  0  0  0
  1  2  4  0  0  0
  1  6  4  0  0  0
 20  1  1  0  0  0
  2  3  4  0  0  0
  3  4  4  0  0  0
  5  4  4  0  0  0
  4  9  1  0  0  0
  6  5  4  0  0  0
  8  7  1  0  0  0
  7 20  1  0  0  0
 10  8  1  0  0  0
  9 22  2  0  0  0
  9 23  1  0  0  0
 18 10  1  0  0  0
 11 12  4  0  0  0
 11 16  4  0  0  0
 21 11  1  0  0  0
 12 13  4  0  0  0
 13 14  4  0  0  0
 15 14  4  0  0  0
 14 19  1  0  0  0
 16 15  4  0  0  0
 17 18  1  0  0  0
 17 21  1  0  0  0
 19 24  2  0  0  0
 19 25  1  0  0  0
  2 26  1  0  0  0
  3 27  1  0  0  0
  5 28  1  0  0  0
  6 29  1  0  0  0
  7 30  1  0  0  0
  7 31  1  0  0  0
  8 32  1  0  0  0
  8 33  1  0  0  0
 10 34  1  0  0  0
 10 35  1  0  0  0
 12 36  1  0  0  0
 13 37  1  0  0  0
 15 38  1  0  0  0
 16 39  1  0  0  0
 17 40  1  0  0  0
 17 41  1  0  0  0
 18 42  1  0  0  0
 18 43  1  0  0  0
 22 44  1  0  0  0
 23 45  1  0  0  0
 23 46  1  0  0  0
 24 47  1  0  0  0
 25 48  1  0  0  0
 25 49  1  0  0  0
M  END
$$$$
