### 
### Created by X-TOOL on Mon Sep 10 21:13:10 2018
### 

@<TRIPOS>MOLECULE
4dn0_ligand
   68    74     1     0     0
SMALL
GAST_HUCK


@<TRIPOS>ATOM
      1 P1          7.2170    6.4960   -8.2110 P.3       1 C2E         0.2557
      2 O2P         5.9200    7.0830   -7.7960 O.co2     1 C2E        -0.6177
      3 O1P         7.8900    7.5550   -9.0700 O.co2     1 C2E        -0.6177
      4 O5'         8.2700    6.2540   -7.0580 O.3       1 C2E        -0.2514
      5 C5'         9.4280    5.6120   -7.3080 C.3       1 C2E         0.1128
      6 C4'        10.1050    5.0990   -6.1480 C.3       1 C2E         0.1242
      7 O4'        10.0840    6.0770   -5.1570 O.3       1 C2E        -0.3359
      8 C3'         9.3220    3.9570   -5.5380 C.3       1 C2E         0.1540
      9 O3'         9.7050    2.7050   -6.0630 O.3       1 C2E        -0.2453
     10 C2'         9.6340    4.0140   -4.2030 C.3       1 C2E         0.1440
     11 O2'        10.8500    3.3100   -3.8860 O.3       1 C2E        -0.3832
     12 C1'         9.8140    5.4250   -3.9410 C.3       1 C2E         0.1996
     13 N9          8.6110    6.0240   -3.4000 N.pl3     1 C2E        -0.2101
     14 C8          7.7420    6.8230   -4.0300 C.2       1 C2E         0.0957
     15 N7          6.7560    7.1510   -3.1740 N.2       1 C2E        -0.3235
     16 C5          7.0070    6.5510   -1.9930 C.2       1 C2E         0.0926
     17 C6          6.3750    6.5140   -0.7530 C.2       1 C2E         0.2135
     18 O6          5.2420    7.1910   -0.5420 O.2       1 C2E        -0.4091
     19 N1          6.9190    5.7990    0.2330 N.am      1 C2E        -0.1839
     20 C2          8.0530    5.1220    0.0390 C.2       1 C2E         0.2340
     21 N2          8.5900    4.3700    1.1500 N.pl3     1 C2E        -0.2807
     22 N3          8.7030    5.1150   -1.1350 N.2       1 C2E        -0.2765
     23 C4          8.1830    5.8260   -2.1480 C.2       1 C2E         0.1159
     24 P11         8.5960    1.5680   -6.0800 P.3       1 C2E         0.2557
     25 O21         8.1830    1.0590   -4.7230 O.co2     1 C2E        -0.6177
     26 O11         9.2760    0.4260   -6.7130 O.co2     1 C2E        -0.6177
     27 O5A         7.3760    1.9690   -6.9870 O.3       1 C2E        -0.2514
     28 C5A         7.6460    2.3050   -8.3540 C.3       1 C2E         0.1128
     29 C4A         6.6070    2.9200   -9.1050 C.3       1 C2E         0.1242
     30 O4A         5.3500    2.1290   -8.9880 O.3       1 C2E        -0.3359
     31 C3A         6.2640    4.2330   -8.5330 C.3       1 C2E         0.1540
     32 O3A         7.0380    5.2320   -9.0670 O.3       1 C2E        -0.2453
     33 C2A         4.8730    4.4120   -8.9550 C.3       1 C2E         0.1440
     34 O2A         4.8240    4.8700  -10.2500 O.3       1 C2E        -0.3832
     35 C1A         4.2980    3.0430   -8.8630 C.3       1 C2E         0.1996
     36 N91         3.5650    2.7910   -7.5780 N.pl3     1 C2E        -0.2101
     37 C81         3.9710    2.0240   -6.5690 C.2       1 C2E         0.0957
     38 N71         3.0450    2.0690   -5.5810 N.2       1 C2E        -0.3235
     39 C51         2.0560    2.8750   -5.9690 C.2       1 C2E         0.0926
     40 C61         0.8610    3.3000   -5.4010 C.2       1 C2E         0.2135
     41 O61         0.4670    2.8400   -4.0900 O.2       1 C2E        -0.4091
     42 N11         0.0830    4.1460   -6.0890 N.am      1 C2E        -0.1839
     43 C21         0.4330    4.5740   -7.3070 C.2       1 C2E         0.2340
     44 N21        -0.3890    5.4450   -8.0010 N.pl3     1 C2E        -0.2807
     45 N31         1.5730    4.1730   -7.8770 N.2       1 C2E        -0.2765
     46 C41         2.3890    3.3370   -7.2380 C.2       1 C2E         0.1159
     47 H1         10.1052    6.3158   -7.8140 H         1 C2E         0.0647
     48 H2          9.2110    4.7665   -7.9773 H         1 C2E         0.0647
     49 H3         11.1306    4.7939   -6.4029 H         1 C2E         0.0655
     50 H4          8.2434    4.1034   -5.6965 H         1 C2E         0.0712
     51 H5          8.8097    3.6039   -3.6010 H         1 C2E         0.0681
     52 H6         10.7565    2.3953   -4.1248 H         1 C2E         0.2102
     53 H7         10.6483    5.5638   -3.2377 H         1 C2E         0.0998
     54 H8          7.8196    7.1535   -5.0647 H         1 C2E         0.1179
     55 H9          6.4724    5.7698    1.1273 H         1 C2E         0.2515
     56 H10         9.4633    3.8359    1.0362 H         1 C2E         0.1897
     57 H11         8.0995    4.3681    2.0557 H         1 C2E         0.1897
     58 H12         7.9182    1.3740   -8.8727 H         1 C2E         0.0647
     59 H13         8.5049    2.9922   -8.3591 H         1 C2E         0.0647
     60 H14         6.9154    3.0175  -10.1564 H         1 C2E         0.0655
     61 H15         6.3598    4.2291   -7.4372 H         1 C2E         0.0712
     62 H16         4.3425    5.1106   -8.2914 H         1 C2E         0.0681
     63 H17         5.2762    5.7035  -10.3073 H         1 C2E         0.2102
     64 H18         3.5923    2.9026   -9.6950 H         1 C2E         0.0998
     65 H19         4.8977    1.4526   -6.5419 H         1 C2E         0.1179
     66 H20        -0.7749    4.4633   -5.6848 H         1 C2E         0.2515
     67 H21        -0.1170    5.7730   -8.9387 H         1 C2E         0.1897
     68 H22        -1.2727    5.7652   -7.5797 H         1 C2E         0.1897
@<TRIPOS>BOND
     1    1    2 ar 
     2    1    3 ar 
     3    1    4 1  
     4    1   32 1  
     5    4    5 1  
     6    5    6 1  
     7    6    7 1  
     8    6    8 1  
     9    7   12 1  
    10    8    9 1  
    11    8   10 1  
    12    9   24 1  
    13   10   11 1  
    14   10   12 1  
    15   12   13 1  
    16   13   14 1  
    17   13   23 1  
    18   14   15 2  
    19   15   16 1  
    20   16   17 1  
    21   16   23 2  
    22   17   18 2  
    23   17   19 am 
    24   19   20 am 
    25   20   21 1  
    26   20   22 2  
    27   22   23 1  
    28   24   25 ar 
    29   24   26 ar 
    30   24   27 1  
    31   27   28 1  
    32   28   29 1  
    33   29   30 1  
    34   29   31 1  
    35   30   35 1  
    36   31   32 1  
    37   31   33 1  
    38   33   34 1  
    39   33   35 1  
    40   35   36 1  
    41   36   37 1  
    42   36   46 1  
    43   37   38 2  
    44   38   39 1  
    45   39   40 1  
    46   39   46 2  
    47   40   41 2  
    48   40   42 am 
    49   42   43 am 
    50   43   44 1  
    51   43   45 2  
    52   45   46 1  
    53    5   47 1  
    54    5   48 1  
    55    6   49 1  
    56    8   50 1  
    57   10   51 1  
    58   11   52 1  
    59   12   53 1  
    60   14   54 1  
    61   19   55 1  
    62   21   56 1  
    63   21   57 1  
    64   28   58 1  
    65   28   59 1  
    66   29   60 1  
    67   31   61 1  
    68   33   62 1  
    69   34   63 1  
    70   35   64 1  
    71   37   65 1  
    72   42   66 1  
    73   44   67 1  
    74   44   68 1  
@<TRIPOS>SUBSTRUCTURE
     1 C2E         1

