4dn0_ligand
  -I-interpret- 

 70 76  0  0  0  0  0  0  0  0999 V2000
    7.2170    6.4960   -8.2110 P   0  0  0  0  0
    5.9200    7.0830   -7.7960 O   0  0  0  0  0
    7.8900    7.5550   -9.0700 O   0  0  0  0  0
    8.2700    6.2540   -7.0580 O   0  0  0  0  0
    9.4280    5.6120   -7.3080 C   0  0  0  0  0
   10.1050    5.0990   -6.1480 C   0  0  0  0  0
   10.0840    6.0770   -5.1570 O   0  0  0  0  0
    9.3220    3.9570   -5.5380 C   0  0  0  0  0
    9.7050    2.7050   -6.0630 O   0  0  0  0  0
    9.6340    4.0140   -4.2030 C   0  0  0  0  0
   10.8500    3.3100   -3.8860 O   0  0  0  0  0
    9.8140    5.4250   -3.9410 C   0  0  0  0  0
    8.6110    6.0240   -3.4000 N   0  0  0  0  0
    7.7420    6.8230   -4.0300 C   0  0  0  0  0
    6.7560    7.1510   -3.1740 N   0  0  0  0  0
    7.0070    6.5510   -1.9930 C   0  0  0  0  0
    6.3750    6.5140   -0.7530 C   0  0  0  0  0
    5.2420    7.1910   -0.5420 O   0  0  0  0  0
    6.9190    5.7990    0.2330 N   0  0  0  0  0
    8.0530    5.1220    0.0390 C   0  0  0  0  0
    8.5900    4.3700    1.1500 N   0  0  0  0  0
    8.7030    5.1150   -1.1350 N   0  0  0  0  0
    8.1830    5.8260   -2.1480 C   0  0  0  0  0
    8.5960    1.5680   -6.0800 P   0  0  0  0  0
    8.1830    1.0590   -4.7230 O   0  0  0  0  0
    9.2760    0.4260   -6.7130 O   0  0  0  0  0
    7.3760    1.9690   -6.9870 O   0  0  0  0  0
    7.6460    2.3050   -8.3540 C   0  0  0  0  0
    6.6070    2.9200   -9.1050 C   0  0  0  0  0
    5.3500    2.1290   -8.9880 O   0  0  0  0  0
    6.2640    4.2330   -8.5330 C   0  0  0  0  0
    7.0380    5.2320   -9.0670 O   0  0  0  0  0
    4.8730    4.4120   -8.9550 C   0  0  0  0  0
    4.8240    4.8700  -10.2500 O   0  0  0  0  0
    4.2980    3.0430   -8.8630 C   0  0  0  0  0
    3.5650    2.7910   -7.5780 N   0  0  0  0  0
    3.9710    2.0240   -6.5690 C   0  0  0  0  0
    3.0450    2.0690   -5.5810 N   0  0  0  0  0
    2.0560    2.8750   -5.9690 C   0  0  0  0  0
    0.8610    3.3000   -5.4010 C   0  0  0  0  0
    0.4670    2.8400   -4.0900 O   0  0  0  0  0
    0.0830    4.1460   -6.0890 N   0  0  0  0  0
    0.4330    4.5740   -7.3070 C   0  0  0  0  0
   -0.3890    5.4450   -8.0010 N   0  0  0  0  0
    1.5730    4.1730   -7.8770 N   0  0  0  0  0
    2.3890    3.3370   -7.2380 C   0  0  0  0  0
    8.7414    7.2284   -9.3701 H   0  0  0  0  0
   10.0978    6.3404   -7.7652 H   0  0  0  0  0
    9.1817    4.7532   -7.9325 H   0  0  0  0  0
   11.1058    4.7954   -6.4552 H   0  0  0  0  0
    8.2562    4.0527   -5.7452 H   0  0  0  0  0
    8.8546    3.5458   -3.6019 H   0  0  0  0  0
   11.0227    3.3800   -2.9443 H   0  0  0  0  0
   10.6278    5.5299   -3.2235 H   0  0  0  0  0
    7.8196    7.1538   -5.0657 H   0  0  0  0  0
    6.4635    5.7692    1.1452 H   0  0  0  0  0
    9.4548    3.8410    1.0373 H   0  0  0  0  0
    8.1043    4.3682    2.0469 H   0  0  0  0  0
    7.7280    1.7567   -4.2457 H   0  0  0  0  0
    7.8420    1.3559   -8.8529 H   0  0  0  0  0
    8.4518    3.0382   -8.3189 H   0  0  0  0  0
    6.9641    2.9942  -10.1322 H   0  0  0  0  0
    6.4185    4.2747   -7.4548 H   0  0  0  0  0
    4.3325    5.1386   -8.3483 H   0  0  0  0  0
    3.9079    4.9829  -10.5138 H   0  0  0  0  0
    3.5632    2.9310   -9.6602 H   0  0  0  0  0
    4.8985    1.4521   -6.5419 H   0  0  0  0  0
   -0.7920    4.4696   -5.6767 H   0  0  0  0  0
   -0.1202    5.7689   -8.9301 H   0  0  0  0  0
   -1.2636    5.7629   -7.5833 H   0  0  0  0  0
  1  2  2  0  0  0
  1  3  1  0  0  0
  1  4  1  0  0  0
  1 32  1  0  0  0
  4  5  1  0  0  0
  5  6  1  0  0  0
  6  7  1  0  0  0
  6  8  1  0  0  0
  7 12  1  0  0  0
  8  9  1  0  0  0
  8 10  1  0  0  0
  9 24  1  0  0  0
 10 11  1  0  0  0
 10 12  1  0  0  0
 12 13  1  0  0  0
 13 14  4  0  0  0
 13 23  4  0  0  0
 14 15  4  0  0  0
 15 16  4  0  0  0
 16 17  1  0  0  0
 16 23  4  0  0  0
 17 18  2  0  0  0
 17 19  1  0  0  0
 19 20  1  0  0  0
 20 21  1  0  0  0
 20 22  2  0  0  0
 22 23  1  0  0  0
 24 25  1  0  0  0
 24 26  2  0  0  0
 24 27  1  0  0  0
 27 28  1  0  0  0
 28 29  1  0  0  0
 29 30  1  0  0  0
 29 31  1  0  0  0
 30 35  1  0  0  0
 31 32  1  0  0  0
 31 33  1  0  0  0
 33 34  1  0  0  0
 33 35  1  0  0  0
 35 36  1  0  0  0
 36 37  4  0  0  0
 36 46  4  0  0  0
 37 38  4  0  0  0
 38 39  4  0  0  0
 39 40  1  0  0  0
 39 46  4  0  0  0
 40 41  2  0  0  0
 40 42  1  0  0  0
 42 43  1  0  0  0
 43 44  1  0  0  0
 43 45  2  0  0  0
 45 46  1  0  0  0
  3 47  1  0  0  0
  5 48  1  0  0  0
  5 49  1  0  0  0
  6 50  1  0  0  0
  8 51  1  0  0  0
 10 52  1  0  0  0
 11 53  1  0  0  0
 12 54  1  0  0  0
 14 55  1  0  0  0
 19 56  1  0  0  0
 21 57  1  0  0  0
 21 58  1  0  0  0
 25 59  1  0  0  0
 28 60  1  0  0  0
 28 61  1  0  0  0
 29 62  1  0  0  0
 31 63  1  0  0  0
 33 64  1  0  0  0
 34 65  1  0  0  0
 35 66  1  0  0  0
 37 67  1  0  0  0
 42 68  1  0  0  0
 44 69  1  0  0  0
 44 70  1  0  0  0
M  END
$$$$
