3krr_ligand
  -I-interpret- 

 66 71  0  0  0  0  0  0  0  0999 V2000
   15.6240   13.8380    6.2080 F   0  0  0  0  0
   15.2240   13.9820    4.9430 C   0  0  0  0  0
   15.6170   15.0900    4.1660 C   0  0  0  0  0
   15.1630   15.1950    2.8400 C   0  0  0  0  0
   14.3130   14.2140    2.3220 C   0  0  0  0  0
   13.9130   13.1210    3.1030 C   0  0  0  0  0
   14.3760   12.9990    4.4180 C   0  0  0  0  0
   13.0180   12.1310    2.4400 C   0  0  0  0  0
   13.2670   10.7450    2.4630 C   0  0  0  0  0
   14.3420   10.2190    3.1290 N   0  0  0  0  0
   14.5550    8.8780    3.1390 C   0  0  0  0  0
   13.6670    8.0440    2.4520 C   0  0  0  0  0
   12.6140    8.5490    1.7810 N   0  0  0  0  0
   12.3880    9.8820    1.7770 C   0  0  0  0  0
   11.2770   10.3830    1.0780 C   0  0  0  0  0
   11.0400   11.7620    1.0530 C   0  0  0  0  0
   11.9020   12.6340    1.7400 C   0  0  0  0  0
   15.7410    8.3270    3.9100 C   0  0  0  0  0
   16.1190    7.0420    4.1570 C   0  0  0  0  0
   17.2160    7.0980    4.8710 N   0  0  0  0  0
   17.5490    8.3880    5.1070 N   0  0  0  0  0
   16.7230    9.1880    4.5690 C   0  0  0  0  0
   18.0400    6.0360    5.4360 C   0  0  0  0  0
   17.3120    5.3920    6.6550 C   0  0  0  0  0
   18.1470    4.2500    7.2880 C   0  0  0  0  0
   18.5180    3.2990    6.2190 N   0  3  0  0  0
   19.3800    3.8830    5.1530 C   0  0  0  0  0
   18.5790    5.0000    4.4120 C   0  0  0  0  0
   15.5210   16.2170    2.0500 F   0  0  0  0  0
   16.5270   16.1840    4.7540 C   0  0  0  0  0
   15.6890   17.2740    5.3750 N   0  3  0  0  0
   14.9950   16.8690    6.6390 C   0  0  0  0  0
   14.1470   18.0090    7.2630 C   0  0  0  0  0
   13.2910   18.5970    6.2630 O   0  0  0  0  0
   14.0570   19.1950    5.2000 C   0  0  0  0  0
   14.8380   18.0840    4.4450 C   0  0  0  0  0
   13.9559   14.3001    1.2957 H   0  0  0  0  0
   14.0791   12.1461    5.0284 H   0  0  0  0  0
   13.8300    6.9663    2.4597 H   0  0  0  0  0
   10.6036    9.7016    0.5582 H   0  0  0  0  0
   10.1879   12.1593    0.5014 H   0  0  0  0  0
   11.7065   13.7063    1.7316 H   0  0  0  0  0
   15.6066    6.1394    3.8242 H   0  0  0  0  0
   16.7415   10.2776    4.5929 H   0  0  0  0  0
   18.9569    6.5068    5.7906 H   0  0  0  0  0
   16.3676    4.9732    6.3074 H   0  0  0  0  0
   17.1602    6.1637    7.4097 H   0  0  0  0  0
   17.5634    3.7411    8.0552 H   0  0  0  0  0
   19.0442    4.6570    7.7543 H   0  0  0  0  0
   17.6524    2.9953    5.7730 H   0  0  0  0  0
   19.0496    2.5467    6.6570 H   0  0  0  0  0
   19.6697    3.1058    4.4458 H   0  0  0  0  0
   20.2800    4.3077    5.5977 H   0  0  0  0  0
   19.2376    5.5042    3.7048 H   0  0  0  0  0
   17.7396    4.5484    3.8833 H   0  0  0  0  0
   17.1361   16.6103    3.9569 H   0  0  0  0  0
   17.1676   15.7447    5.5187 H   0  0  0  0  0
   16.3996   17.9495    5.6563 H   0  0  0  0  0
   15.7617   16.5934    7.3631 H   0  0  0  0  0
   14.3189   16.0492    6.3965 H   0  0  0  0  0
   14.8143   18.7755    7.6570 H   0  0  0  0  0
   13.5312   17.5987    8.0633 H   0  0  0  0  0
   14.7593   19.9169    5.6168 H   0  0  0  0  0
   13.3865   19.7051    4.5084 H   0  0  0  0  0
   14.1162   17.4178    3.9724 H   0  0  0  0  0
   15.4886   18.5600    3.7114 H   0  0  0  0  0
  1  2  1  0  0  0
  2  3  4  0  0  0
  2  7  4  0  0  0
  3  4  4  0  0  0
  3 30  1  0  0  0
  4  5  4  0  0  0
  4 29  1  0  0  0
  5  6  4  0  0  0
  6  7  4  0  0  0
  6  8  1  0  0  0
  8  9  4  0  0  0
  8 17  4  0  0  0
  9 10  4  0  0  0
  9 14  4  0  0  0
 10 11  4  0  0  0
 11 12  4  0  0  0
 11 18  1  0  0  0
 12 13  4  0  0  0
 13 14  4  0  0  0
 14 15  4  0  0  0
 15 16  4  0  0  0
 16 17  4  0  0  0
 18 19  4  0  0  0
 18 22  4  0  0  0
 19 20  4  0  0  0
 20 21  4  0  0  0
 20 23  1  0  0  0
 21 22  4  0  0  0
 23 24  1  0  0  0
 23 28  1  0  0  0
 24 25  1  0  0  0
 25 26  1  0  0  0
 26 27  1  0  0  0
 27 28  1  0  0  0
 30 31  1  0  0  0
 31 32  1  0  0  0
 31 36  1  0  0  0
 32 33  1  0  0  0
 33 34  1  0  0  0
 34 35  1  0  0  0
 35 36  1  0  0  0
  5 37  1  0  0  0
  7 38  1  0  0  0
 12 39  1  0  0  0
 15 40  1  0  0  0
 16 41  1  0  0  0
 17 42  1  0  0  0
 19 43  1  0  0  0
 22 44  1  0  0  0
 23 45  1  0  0  0
 24 46  1  0  0  0
 24 47  1  0  0  0
 25 48  1  0  0  0
 25 49  1  0  0  0
 26 50  1  0  0  0
 26 51  1  0  0  0
 27 52  1  0  0  0
 27 53  1  0  0  0
 28 54  1  0  0  0
 28 55  1  0  0  0
 30 56  1  0  0  0
 30 57  1  0  0  0
 31 58  1  0  0  0
 32 59  1  0  0  0
 32 60  1  0  0  0
 33 61  1  0  0  0
 33 62  1  0  0  0
 35 63  1  0  0  0
 35 64  1  0  0  0
 36 65  1  0  0  0
 36 66  1  0  0  0
M  END
$$$$
