### 
### Created by X-TOOL on Mon Sep 10 21:13:02 2018
### 

@<TRIPOS>MOLECULE
3krr_ligand
   65    70     1     0     0
SMALL
GAST_HUCK


@<TRIPOS>ATOM
      1 F1         15.6240   13.8380    6.2080 F         1 DQX        -0.1898
      2 C2         15.2240   13.9820    4.9430 C.ar      1 DQX         0.1315
      3 C3         15.6170   15.0900    4.1660 C.ar      1 DQX         0.0060
      4 C4         15.1630   15.1950    2.8400 C.ar      1 DQX         0.1315
      5 C5         14.3130   14.2140    2.3220 C.ar      1 DQX        -0.0298
      6 C7         13.9130   13.1210    3.1030 C.ar      1 DQX        -0.0242
      7 C8         14.3760   12.9990    4.4180 C.ar      1 DQX        -0.0298
      8 C10        13.0180   12.1310    2.4400 C.ar      1 DQX         0.0031
      9 C11        13.2670   10.7450    2.4630 C.ar      1 DQX         0.0693
     10 N12        14.3420   10.2190    3.1290 N.ar      1 DQX        -0.2812
     11 C13        14.5550    8.8780    3.1390 C.ar      1 DQX         0.0642
     12 C14        13.6670    8.0440    2.4520 C.ar      1 DQX         0.0427
     13 N16        12.6140    8.5490    1.7810 N.ar      1 DQX        -0.2736
     14 C17        12.3880    9.8820    1.7770 C.ar      1 DQX         0.0689
     15 C18        11.2770   10.3830    1.0780 C.ar      1 DQX        -0.0354
     16 C20        11.0400   11.7620    1.0530 C.ar      1 DQX        -0.0546
     17 C22        11.9020   12.6340    1.7400 C.ar      1 DQX        -0.0480
     18 C24        15.7410    8.3270    3.9100 C.2       1 DQX         0.0297
     19 C25        16.1190    7.0420    4.1570 C.2       1 DQX         0.0743
     20 N27        17.2160    7.0980    4.8710 N.pl3     1 DQX        -0.1939
     21 N28        17.5490    8.3880    5.1070 N.2       1 DQX        -0.2093
     22 C29        16.7230    9.1880    4.5690 C.2       1 DQX         0.0123
     23 C31        18.0400    6.0360    5.4360 C.3       1 DQX         0.0943
     24 C33        17.3120    5.3920    6.6550 C.3       1 DQX         0.0207
     25 C36        18.1470    4.2500    7.2880 C.3       1 DQX        -0.0306
     26 N39        18.5180    3.2990    6.2190 N.4       1 DQX         0.2271
     27 C41        19.3800    3.8830    5.1530 C.3       1 DQX        -0.0306
     28 C44        18.5790    5.0000    4.4120 C.3       1 DQX         0.0207
     29 F47        15.5210   16.2170    2.0500 F         1 DQX        -0.1898
     30 C48        16.5270   16.1840    4.7540 C.3       1 DQX        -0.0739
     31 N51        15.6890   17.2740    5.3750 N.4       1 DQX         0.4105
     32 C52        14.9950   16.8690    6.6390 C.3       1 DQX        -0.0864
     33 C55        14.1470   18.0090    7.2630 C.3       1 DQX         0.0294
     34 O58        13.2910   18.5970    6.2630 O.3       1 DQX        -0.3837
     35 C59        14.0570   19.1950    5.2000 C.3       1 DQX         0.0294
     36 C62        14.8380   18.0840    4.4450 C.3       1 DQX        -0.0864
     37 H          13.9559   14.3001    1.2957 H         1 DQX         0.0563
     38 H          14.0791   12.1461    5.0284 H         1 DQX         0.0563
     39 H          13.8300    6.9663    2.4597 H         1 DQX         0.0930
     40 H          10.6036    9.7016    0.5582 H         1 DQX         0.0652
     41 H          10.1879   12.1593    0.5014 H         1 DQX         0.0649
     42 H          11.7065   13.7063    1.7316 H         1 DQX         0.0656
     43 H          15.6066    6.1394    3.8242 H         1 DQX         0.1108
     44 H          16.7415   10.2776    4.5929 H         1 DQX         0.0693
     45 H          18.9569    6.5068    5.7906 H         1 DQX         0.0687
     46 H          16.3676    4.9732    6.3074 H         1 DQX         0.0349
     47 H          17.1602    6.1637    7.4097 H         1 DQX         0.0349
     48 H          17.5634    3.7411    8.0552 H         1 DQX         0.0815
     49 H          19.0442    4.6570    7.7543 H         1 DQX         0.0815
     50 H          17.6524    2.9953    5.7730 H         1 DQX         0.2013
     51 H          19.0496    2.5467    6.6570 H         1 DQX         0.2013
     52 H          19.6697    3.1058    4.4458 H         1 DQX         0.0815
     53 H          20.2800    4.3077    5.5977 H         1 DQX         0.0815
     54 H          19.2376    5.5042    3.7048 H         1 DQX         0.0349
     55 H          17.7396    4.5484    3.8833 H         1 DQX         0.0349
     56 H          17.1361   16.6103    3.9569 H         1 DQX         0.0172
     57 H          17.1676   15.7447    5.5187 H         1 DQX         0.0172
     58 H          15.7617   16.5934    7.3631 H         1 DQX         0.0042
     59 H          14.3189   16.0492    6.3965 H         1 DQX         0.0042
     60 H          14.8143   18.7755    7.6570 H         1 DQX         0.0539
     61 H          13.5312   17.5987    8.0633 H         1 DQX         0.0539
     62 H          14.7593   19.9169    5.6168 H         1 DQX         0.0539
     63 H          13.3865   19.7051    4.5084 H         1 DQX         0.0539
     64 H          14.1162   17.4178    3.9724 H         1 DQX         0.0042
     65 H          15.4886   18.5600    3.7114 H         1 DQX         0.0042
@<TRIPOS>BOND
     1    1    2 1  
     2    2    3 ar 
     3    2    7 ar 
     4    3    4 ar 
     5    3   30 1  
     6    4    5 ar 
     7    4   29 1  
     8    5    6 ar 
     9    6    7 ar 
    10    6    8 1  
    11    8    9 ar 
    12    8   17 ar 
    13    9   10 ar 
    14    9   14 ar 
    15   10   11 ar 
    16   11   12 ar 
    17   11   18 1  
    18   12   13 ar 
    19   13   14 ar 
    20   14   15 ar 
    21   15   16 ar 
    22   16   17 ar 
    23   18   19 2  
    24   18   22 1  
    25   19   20 1  
    26   20   21 1  
    27   20   23 1  
    28   21   22 2  
    29   23   24 1  
    30   23   28 1  
    31   24   25 1  
    32   25   26 1  
    33   26   27 1  
    34   27   28 1  
    35   30   31 1  
    36   31   32 1  
    37   31   36 1  
    38   32   33 1  
    39   33   34 1  
    40   34   35 1  
    41   35   36 1  
    42    5   37 1  
    43    7   38 1  
    44   12   39 1  
    45   15   40 1  
    46   16   41 1  
    47   17   42 1  
    48   19   43 1  
    49   22   44 1  
    50   23   45 1  
    51   24   46 1  
    52   24   47 1  
    53   25   48 1  
    54   25   49 1  
    55   26   50 1  
    56   26   51 1  
    57   27   52 1  
    58   27   53 1  
    59   28   54 1  
    60   28   55 1  
    61   30   56 1  
    62   30   57 1  
    63   32   58 1  
    64   32   59 1  
    65   33   60 1  
    66   33   61 1  
    67   35   62 1  
    68   35   63 1  
    69   36   64 1  
    70   36   65 1  
@<TRIPOS>SUBSTRUCTURE
     1 DQX         1

