4n8r_ligand
  -I-interpret- 

 50 53  0  0  0  0  0  0  0  0999 V2000
   47.0390   -6.8110  113.2700 C   0  0  0  0  0
   48.5300   -6.9920  113.1040 C   0  0  0  0  0
   49.3990   -6.2380  112.1840 C   0  0  0  0  0
   50.8380   -6.7530  112.3570 C   0  0  0  0  0
   50.8220   -7.7920  113.3530 C   0  0  0  0  0
   49.3600   -7.9600  113.8410 C   0  0  0  0  0
   48.8320   -8.8070  114.7590 C   0  0  0  0  0
   49.5330   -9.9910  115.3840 C   0  0  0  0  0
   49.4360  -10.1610  116.7550 C   0  0  0  0  0
   50.0570  -11.2310  117.3650 C   0  0  0  0  0
   50.7710  -12.1420  116.6060 C   0  0  0  0  0
   50.8520  -11.9860  115.2310 C   0  0  0  0  0
   50.2270  -10.9150  114.6130 C   0  0  0  0  0
   51.4330  -13.3190  117.2970 C   0  0  0  0  0
   52.9420  -13.2630  117.2860 C   0  0  0  0  0
   50.9270  -14.6370  116.7600 C   0  0  0  0  0
   52.0270   -8.4240  113.6860 C   0  0  0  0  0
   53.2300   -8.0480  113.0570 C   0  0  0  0  0
   53.2270   -7.0190  112.0720 C   0  0  0  0  0
   52.0260   -6.3790  111.7290 C   0  0  0  0  0
   48.9620   -5.1330  111.2550 C   0  0  0  0  0
   49.4590   -3.7950  111.7750 C   0  0  0  0  0
   49.0620   -3.5720  113.2200 C   0  0  0  0  0
   49.8440   -3.7360  114.2990 N   0  0  0  0  0
   49.1120   -3.4480  115.3870 N   0  0  0  0  0
   47.8870   -3.1060  115.0070 N   0  0  0  0  0
   47.8460   -3.1810  113.6620 N   0  0  0  0  0
   46.8315   -5.7893  113.5881 H   0  0  0  0  0
   46.5427   -7.0048  112.3191 H   0  0  0  0  0
   46.6711   -7.5088  114.0222 H   0  0  0  0  0
   47.8066   -8.6161  115.0755 H   0  0  0  0  0
   48.8681   -9.4482  117.3529 H   0  0  0  0  0
   49.9854  -11.3592  118.4451 H   0  0  0  0  0
   51.4091  -12.7081  114.6342 H   0  0  0  0  0
   50.2794  -10.7984  113.5305 H   0  0  0  0  0
   51.1413  -13.2427  118.3445 H   0  0  0  0  0
   53.2964  -13.2513  116.2553 H   0  0  0  0  0
   53.2745  -12.3590  117.7962 H   0  0  0  0  0
   53.3405  -14.1385  117.7986 H   0  0  0  0  0
   49.8510  -14.7043  116.9206 H   0  0  0  0  0
   51.1410  -14.6994  115.6930 H   0  0  0  0  0
   51.4251  -15.4551  117.2802 H   0  0  0  0  0
   52.0338   -9.2131  114.4379 H   0  0  0  0  0
   54.1630   -8.5443  113.3240 H   0  0  0  0  0
   54.1577   -6.7286  111.5846 H   0  0  0  0  0
   52.0216   -5.5924  110.9745 H   0  0  0  0  0
   47.8734   -5.1167  111.2021 H   0  0  0  0  0
   49.3782   -5.3108  110.2634 H   0  0  0  0  0
   49.0131   -3.0050  111.1708 H   0  0  0  0  0
   50.5472   -3.7854  111.7127 H   0  0  0  0  0
  1  2  1  0  0  0
  2  3  2  0  0  0
  2  6  1  0  0  0
  3  4  1  0  0  0
  3 21  1  0  0  0
  4  5  4  0  0  0
  4 20  4  0  0  0
  5  6  1  0  0  0
  5 17  4  0  0  0
  6  7  2  0  0  0
  7  8  1  0  0  0
  8  9  4  0  0  0
  8 13  4  0  0  0
  9 10  4  0  0  0
 10 11  4  0  0  0
 11 12  4  0  0  0
 11 14  1  0  0  0
 12 13  4  0  0  0
 14 15  1  0  0  0
 14 16  1  0  0  0
 17 18  4  0  0  0
 18 19  4  0  0  0
 19 20  4  0  0  0
 21 22  1  0  0  0
 22 23  1  0  0  0
 23 24  4  0  0  0
 23 27  4  0  0  0
 24 25  4  0  0  0
 25 26  4  0  0  0
 26 27  4  0  0  0
  1 28  1  0  0  0
  1 29  1  0  0  0
  1 30  1  0  0  0
  7 31  1  0  0  0
  9 32  1  0  0  0
 10 33  1  0  0  0
 12 34  1  0  0  0
 13 35  1  0  0  0
 14 36  1  0  0  0
 15 37  1  0  0  0
 15 38  1  0  0  0
 15 39  1  0  0  0
 16 40  1  0  0  0
 16 41  1  0  0  0
 16 42  1  0  0  0
 17 43  1  0  0  0
 18 44  1  0  0  0
 19 45  1  0  0  0
 20 46  1  0  0  0
 21 47  1  0  0  0
 21 48  1  0  0  0
 22 49  1  0  0  0
 22 50  1  0  0  0
M  END
$$$$
