### 
### Created by X-TOOL on Mon Sep 10 21:13:28 2018
### 

@<TRIPOS>MOLECULE
5icv_ligand
  146   148     1     0     0
SMALL
GAST_HUCK


@<TRIPOS>ATOM
      1 N          12.6910   59.0290   12.0050 N.am      1 MET        -0.2649
      2 CA         13.2990   58.6510   10.7540 C.3       1 MET         0.1317
      3 C          14.6790   58.1220   11.0690 C.2       1 MET         0.2039
      4 O          15.5840   58.8820   11.4010 O.2       1 MET        -0.3944
      5 CB         13.3250   59.8620    9.8130 C.3       1 MET        -0.0034
      6 CG         14.3010   59.8290    8.6790 C.3       1 MET        -0.0024
      7 SD         13.9780   61.2770    7.6120 S.3       1 MET        -0.1639
      8 CE         13.2630   62.4090    8.8450 C.3       1 MET        -0.0181
      9 N          14.8280   56.8030   11.0570 N.am      1 LYS        -0.2637
     10 CA         16.1130   56.2240   11.3980 C.3       1 LYS         0.1310
     11 C          17.1090   56.5060   10.2770 C.2       1 LYS         0.2039
     12 O          16.7260   56.6340    9.1110 O.2       1 LYS        -0.3944
     13 CB         15.9930   54.7250   11.6680 C.3       1 LYS        -0.0122
     14 CG         15.9750   53.8540   10.4430 C.3       1 LYS        -0.0440
     15 CD         15.9520   52.3910   10.8530 C.3       1 LYS        -0.0124
     16 CE         16.9670   52.1180   11.9550 C.3       1 LYS        -0.0354
     17 NZ         18.3670   52.3170   11.4790 N.4       1 LYS         0.2185
     18 N          18.3740   56.6510   10.6550 N.am      1 ALA        -0.2640
     19 CA         19.4350   56.8680    9.6850 C.3       1 ALA         0.1282
     20 C          19.8790   55.5240    9.1290 C.2       1 ALA         0.2031
     21 O          19.6190   54.4870    9.7290 O.2       1 ALA        -0.3944
     22 CB         20.6030   57.6010   10.3250 C.3       1 ALA        -0.0244
     23 N          20.5520   55.5440    7.9870 N.am      1 VAL        -0.2692
     24 CA         21.0680   54.3170    7.3850 C.3       1 VAL         0.0967
     25 C          22.5790   54.1860    7.5770 C.2       1 VAL         0.0603
     26 O          23.3280   55.1400    7.3660 O.co2     1 VAL        -0.5666
     27 CB         20.7350   54.2550    5.8850 C.3       1 VAL        -0.0118
     28 CG1        21.7140   53.3460    5.1470 C.3       1 VAL        -0.0590
     29 CG2        19.3190   53.7830    5.6920 C.3       1 VAL        -0.0590
     30 OXT        23.0790   53.1240    7.9470 O.co2     1 VAL        -0.5666
     31 N1A        -7.5900   68.1110   13.8260 N.ar      1 1XE        -0.2675
     32 C2A        -6.4160   67.6520   14.2830 C.ar      1 1XE         0.0562
     33 N3A        -5.2750   68.3440   14.1060 N.ar      1 1XE        -0.2653
     34 C4A        -5.3160   69.5350   13.4550 C.ar      1 1XE         0.1847
     35 C5A        -6.4830   70.0610   12.9620 C.ar      1 1XE         0.1114
     36 C6A        -7.6690   69.2840   13.1740 C.ar      1 1XE         0.1319
     37 N6A        -8.9530   69.7440   12.6970 N.pl3     1 1XE        -0.3147
     38 N7A        -6.1410   71.2510   12.3660 N.2       1 1XE        -0.2894
     39 C8A        -4.8070   71.4590   12.4900 C.2       1 1XE         0.1346
     40 N9A        -4.3240   70.4130   13.1670 N.pl3     1 1XE        -0.1365
     41 C1B        -3.0790   70.0040   13.5990 C.2       1 1XE         0.3120
     42 C2B        -2.4450   70.3400   14.7930 C.2       1 1XE         0.1943
     43 O2B        -2.8840   71.2690   15.7960 O.3       1 1XE        -0.3426
     44 C3B        -1.2240   69.5780   14.7690 C.2       1 1XE         0.1898
     45 O3B        -0.2040   69.4920   15.6480 O.3       1 1XE        -0.2517
     46 P3B         0.9120   70.5430   15.9630 P.3       1 1XE         0.1038
     47 O7A         2.2660   70.1080   15.2530 O.co2     1 1XE        -0.6708
     48 O8A         1.0280   70.4360   17.4320 O.co2     1 1XE        -0.6708
     49 O9A         0.5400   71.9070   15.5830 O.co2     1 1XE        -0.6708
     50 C4B        -1.2810   68.8720   13.5710 C.2       1 1XE         0.1976
     51 O4B        -2.3850   69.1070   12.9390 O.3       1 1XE        -0.1930
     52 C5B        -0.3020   67.8740   13.1460 C.3       1 1XE         0.1606
     53 O5B        -0.8220   66.7330   13.8840 O.3       1 1XE        -0.2295
     54 P1A        -1.4450   65.3810   13.2440 P.3       1 1XE         0.3000
     55 O1A        -2.5380   65.6840   12.1770 O.co2     1 1XE        -0.6126
     56 O2A        -1.9470   64.5370   14.3310 O.co2     1 1XE        -0.6126
     57 O3A        -0.1360   64.7770   12.5550 O.3       1 1XE        -0.1317
     58 P2A         0.0180   64.4650   11.0100 P.3       1 1XE         0.2971
     59 O4A        -0.1060   65.8160   10.2050 O.co2     1 1XE        -0.6127
     60 O5A        -0.9760   63.3470   10.6180 O.co2     1 1XE        -0.6127
     61 O6A         1.4830   63.8490   10.9640 O.3       1 1XE        -0.2496
     62 CBP         3.8750   64.1180   10.7660 C.3       1 1XE         0.0367
     63 CCP         2.6140   64.5690   11.4820 C.3       1 1XE         0.0936
     64 CDP         5.0840   64.7180   11.3540 C.3       1 1XE        -0.0528
     65 CEP         3.9950   62.5980   10.8600 C.3       1 1XE        -0.0528
     66 CAP         3.6860   64.5260    9.2790 C.3       1 1XE         0.1510
     67 OAP         3.9310   65.9200    9.1870 O.3       1 1XE        -0.3708
     68 C9P         4.5470   63.8150    8.2680 C.2       1 1XE         0.2057
     69 O9P         4.2670   62.6620    7.8540 O.2       1 1XE        -0.3942
     70 N8P         5.7420   64.5180    7.7850 N.am      1 1XE        -0.2826
     71 C7P         6.6080   63.8820    6.7890 C.3       1 1XE         0.0477
     72 C6P         7.3920   62.7340    7.2920 C.3       1 1XE         0.0574
     73 C5P         8.1680   63.0430    8.5430 C.2       1 1XE         0.1779
     74 O5P         8.9750   64.0280    8.5650 O.2       1 1XE        -0.3970
     75 N4P         7.9600   62.1870    9.7110 N.am      1 1XE        -0.2861
     76 C3P         8.6970   62.4540   10.9740 C.3       1 1XE         0.0400
     77 C2P        10.1500   62.1490   10.8930 C.3       1 1XE         0.0162
     78 S1P        10.9590   62.0470   12.4190 S.3       1 1XE        -0.1371
     79 C1         10.7730   60.4180   13.0510 C.3       1 1XE         0.0834
     80 C2         11.2990   59.3030   12.1260 C.2       1 1XE         0.1882
     81 O21        10.5230   58.7820   11.1460 O.2       1 1XE        -0.3960
     82 H1         13.2683   59.1015   12.8183 H         1 MET         0.1883
     83 H2         12.7086   57.8524   10.2810 H         1 MET         0.0800
     84 H3         13.5557   60.7487   10.4218 H         1 MET         0.0320
     85 H4         12.3191   59.9659    9.3802 H         1 MET         0.0320
     86 H5         14.1697   58.9026    8.1005 H         1 MET         0.0378
     87 H6         15.3283   59.8750    9.0694 H         1 MET         0.0378
     88 H7         13.0019   63.3614    8.3605 H         1 MET         0.0340
     89 H8         13.9972   62.5929    9.6432 H         1 MET         0.0340
     90 H9         12.3578   61.9569    9.2764 H         1 MET         0.0340
     91 H10        14.0586   56.2121   10.8142 H         1 LYS         0.1883
     92 H11        16.4782   56.7068   12.3164 H         1 LYS         0.0800
     93 H12        15.0584   54.5526   12.2219 H         1 LYS         0.0312
     94 H13        16.8487   54.4214   12.2890 H         1 LYS         0.0312
     95 H14        16.8748   54.0507    9.8416 H         1 LYS         0.0269
     96 H15        15.0787   54.0804    9.8469 H         1 LYS         0.0269
     97 H16        16.1936   51.7684    9.9789 H         1 LYS         0.0317
     98 H17        14.9465   52.1354   11.2185 H         1 LYS         0.0317
     99 H18        16.8512   51.0788   12.2966 H         1 LYS         0.0813
    100 H19        16.7752   52.8032   12.7938 H         1 LYS         0.0813
    101 H20        19.0084   52.1278   12.2332 H         1 LYS         0.1994
    102 H21        18.4844   53.2689   11.1690 H         1 LYS         0.1994
    103 H22        18.5541   51.6887   10.7133 H         1 LYS         0.1994
    104 H23        18.6016   56.6100   11.6279 H         1 ALA         0.1883
    105 H24        19.0448   57.4831    8.8607 H         1 ALA         0.0797
    106 H25        21.3938   57.7552    9.5761 H         1 ALA         0.0277
    107 H26        20.9992   57.0025   11.1585 H         1 ALA         0.0277
    108 H27        20.2613   58.5757   10.7034 H         1 ALA         0.0277
    109 H28        20.7099   56.4181    7.5276 H         1 VAL         0.1875
    110 H29        20.5824   53.4651    7.8833 H         1 VAL         0.0729
    111 H30        20.8239   55.2686    5.4671 H         1 VAL         0.0336
    112 H31        21.4547   53.3188    4.0783 H         1 VAL         0.0234
    113 H32        21.6566   52.3298    5.5642 H         1 VAL         0.0234
    114 H33        22.7362   53.7343    5.2665 H         1 VAL         0.0234
    115 H34        18.6327   54.4521    6.2318 H         1 VAL         0.0234
    116 H35        19.2169   52.7600    6.0831 H         1 VAL         0.0234
    117 H36        19.0723   53.7921    4.6201 H         1 VAL         0.0234
    118 H37        -6.3850   66.7032   14.8063 H         1 1XE         0.1002
    119 H38        -9.0251   70.6412   12.1962 H         1 1XE         0.1822
    120 H39        -9.7962   69.1747   12.8577 H         1 1XE         0.1822
    121 H40        -4.2414   72.3097   12.1127 H         1 1XE         0.1368
    122 H41        -2.2490   71.2945   16.5021 H         1 1XE         0.2403
    123 H42         0.7198   68.1375   13.4565 H         1 1XE         0.0875
    124 H43        -0.3238   67.7090   12.0587 H         1 1XE         0.0875
    125 H44         2.7132   64.3695   12.5592 H         1 1XE         0.0628
    126 H45         2.4670   65.6471   11.3208 H         1 1XE         0.0628
    127 H46         5.9711   64.3658   10.8072 H         1 1XE         0.0238
    128 H47         5.1633   64.4225   12.4106 H         1 1XE         0.0238
    129 H48         5.0210   65.8139   11.2835 H         1 1XE         0.0238
    130 H49         3.0988   62.1319   10.4246 H         1 1XE         0.0238
    131 H50         4.0862   62.3019   11.9155 H         1 1XE         0.0238
    132 H51         4.8863   62.2657   10.3076 H         1 1XE         0.0238
    133 H52         2.6377   64.3265    9.0121 H         1 1XE         0.0844
    134 H53         3.3157   66.3858    9.7410 H         1 1XE         0.2133
    135 H54         5.9642   65.4281    8.1348 H         1 MET         0.1853
    136 H55         7.3122   64.6394    6.4142 H         1 MET         0.0545
    137 H56         5.9755   63.5281    5.9616 H         1 MET         0.0545
    138 H57         8.1008   62.4260    6.5092 H         1 MET         0.0522
    139 H58         6.7000   61.9063    7.5065 H         1 MET         0.0522
    140 H59         7.3202   61.4201    9.6596 H         1 MET         0.1851
    141 H60         8.2563   61.8366   11.7706 H         1 MET         0.0528
    142 H61         8.5789   63.5180   11.2269 H         1 MET         0.0528
    143 H62        10.6331   62.9414   10.3025 H         1 MET         0.0397
    144 H63        10.2685   61.1841   10.3783 H         1 MET         0.0397
    145 H64         9.7021   60.2395   13.2277 H         1 MET         0.0616
    146 H65        11.3173   60.3566   14.0049 H         1 MET         0.0616
@<TRIPOS>BOND
     1    1    2 1  
     2   80    1 am 
     3    2    3 1  
     4    2    5 1  
     5    3    4 2  
     6    3    9 am 
     7    5    6 1  
     8    6    7 1  
     9    7    8 1  
    10    9   10 1  
    11   10   11 1  
    12   10   13 1  
    13   11   12 2  
    14   11   18 am 
    15   13   14 1  
    16   14   15 1  
    17   15   16 1  
    18   16   17 1  
    19   18   19 1  
    20   19   20 1  
    21   19   22 1  
    22   20   21 2  
    23   20   23 am 
    24   23   24 1  
    25   24   25 1  
    26   24   27 1  
    27   25   26 ar 
    28   25   30 ar 
    29   27   28 1  
    30   27   29 1  
    31   32   31 ar 
    32   36   31 ar 
    33   33   32 ar 
    34   34   33 ar 
    35   34   35 ar 
    36   40   34 1  
    37   35   36 ar 
    38   38   35 1  
    39   36   37 1  
    40   39   38 2  
    41   40   39 1  
    42   41   40 1  
    43   41   42 2  
    44   51   41 1  
    45   42   43 1  
    46   44   42 1  
    47   44   45 1  
    48   50   44 2  
    49   45   46 1  
    50   46   47 ar 
    51   46   48 ar 
    52   46   49 ar 
    53   50   51 1  
    54   52   50 1  
    55   53   52 1  
    56   54   53 1  
    57   54   55 ar 
    58   54   56 ar 
    59   57   54 1  
    60   58   57 1  
    61   58   59 ar 
    62   58   60 ar 
    63   61   58 1  
    64   63   61 1  
    65   62   63 1  
    66   62   64 1  
    67   62   65 1  
    68   66   62 1  
    69   66   67 1  
    70   68   66 1  
    71   68   69 2  
    72   70   68 am 
    73   71   70 1  
    74   72   71 1  
    75   73   72 1  
    76   73   74 2  
    77   75   73 am 
    78   76   75 1  
    79   77   76 1  
    80   78   77 1  
    81   79   78 1  
    82   79   80 1  
    83   80   81 2  
    84    1   82 1  
    85    2   83 1  
    86    5   84 1  
    87    5   85 1  
    88    6   86 1  
    89    6   87 1  
    90    8   88 1  
    91    8   89 1  
    92    8   90 1  
    93    9   91 1  
    94   10   92 1  
    95   13   93 1  
    96   13   94 1  
    97   14   95 1  
    98   14   96 1  
    99   15   97 1  
   100   15   98 1  
   101   16   99 1  
   102   16  100 1  
   103   17  101 1  
   104   17  102 1  
   105   17  103 1  
   106   18  104 1  
   107   19  105 1  
   108   22  106 1  
   109   22  107 1  
   110   22  108 1  
   111   23  109 1  
   112   24  110 1  
   113   27  111 1  
   114   28  112 1  
   115   28  113 1  
   116   28  114 1  
   117   29  115 1  
   118   29  116 1  
   119   29  117 1  
   120   32  118 1  
   121   37  119 1  
   122   37  120 1  
   123   39  121 1  
   124   43  122 1  
   125   52  123 1  
   126   52  124 1  
   127   63  125 1  
   128   63  126 1  
   129   64  127 1  
   130   64  128 1  
   131   64  129 1  
   132   65  130 1  
   133   65  131 1  
   134   65  132 1  
   135   66  133 1  
   136   67  134 1  
   137   70  135 1  
   138   71  136 1  
   139   71  137 1  
   140   72  138 1  
   141   72  139 1  
   142   75  140 1  
   143   76  141 1  
   144   76  142 1  
   145   77  143 1  
   146   77  144 1  
   147   79  145 1  
   148   79  146 1  
@<TRIPOS>SUBSTRUCTURE
     1 MET         1

