5icv_ligand
  -I-interpret- 

151153  0  0  0  0  0  0  0  0999 V2000
   12.6910   59.0290   12.0050 N   0  0  0  0  0
   13.2990   58.6510   10.7540 C   0  0  0  0  0
   14.6790   58.1220   11.0690 C   0  0  0  0  0
   15.5840   58.8820   11.4010 O   0  0  0  0  0
   13.3250   59.8620    9.8130 C   0  0  0  0  0
   14.3010   59.8290    8.6790 C   0  0  0  0  0
   13.9780   61.2770    7.6120 S   0  0  0  0  0
   13.2630   62.4090    8.8450 C   0  0  0  0  0
   14.8280   56.8030   11.0570 N   0  0  0  0  0
   16.1130   56.2240   11.3980 C   0  0  0  0  0
   17.1090   56.5060   10.2770 C   0  0  0  0  0
   16.7260   56.6340    9.1110 O   0  0  0  0  0
   15.9930   54.7250   11.6680 C   0  0  0  0  0
   15.9750   53.8540   10.4430 C   0  0  0  0  0
   15.9520   52.3910   10.8530 C   0  0  0  0  0
   16.9670   52.1180   11.9550 C   0  0  0  0  0
   18.3670   52.3170   11.4790 N   0  3  0  0  0
   18.3740   56.6510   10.6550 N   0  0  0  0  0
   19.4350   56.8680    9.6850 C   0  0  0  0  0
   19.8790   55.5240    9.1290 C   0  0  0  0  0
   19.6190   54.4870    9.7290 O   0  0  0  0  0
   20.6030   57.6010   10.3250 C   0  0  0  0  0
   20.5520   55.5440    7.9870 N   0  0  0  0  0
   21.0680   54.3170    7.3850 C   0  0  0  0  0
   22.5790   54.1860    7.5770 C   0  0  0  0  0
   23.3280   55.1400    7.3660 O   0  0  0  0  0
   20.7350   54.2550    5.8850 C   0  0  0  0  0
   21.7140   53.3460    5.1470 C   0  0  0  0  0
   19.3190   53.7830    5.6920 C   0  0  0  0  0
   23.0790   53.1240    7.9470 O   0  0  0  0  0
   -7.5900   68.1110   13.8260 N   0  0  0  0  0
   -6.4160   67.6520   14.2830 C   0  0  0  0  0
   -5.2750   68.3440   14.1060 N   0  0  0  0  0
   -5.3160   69.5350   13.4550 C   0  0  0  0  0
   -6.4830   70.0610   12.9620 C   0  0  0  0  0
   -7.6690   69.2840   13.1740 C   0  0  0  0  0
   -8.9530   69.7440   12.6970 N   0  0  0  0  0
   -6.1410   71.2510   12.3660 N   0  0  0  0  0
   -4.8070   71.4590   12.4900 C   0  0  0  0  0
   -4.3240   70.4130   13.1670 N   0  0  0  0  0
   -3.0790   70.0040   13.5990 C   0  0  0  0  0
   -2.4450   70.3400   14.7930 C   0  0  0  0  0
   -2.8840   71.2690   15.7960 O   0  0  0  0  0
   -1.2240   69.5780   14.7690 C   0  0  0  0  0
   -0.2040   69.4920   15.6480 O   0  0  0  0  0
    0.9120   70.5430   15.9630 P   0  0  0  0  0
    2.2660   70.1080   15.2530 O   0  0  0  0  0
    1.0280   70.4360   17.4320 O   0  0  0  0  0
    0.5400   71.9070   15.5830 O   0  0  0  0  0
   -1.2810   68.8720   13.5710 C   0  0  0  0  0
   -2.3850   69.1070   12.9390 O   0  0  0  0  0
   -0.3020   67.8740   13.1460 C   0  0  0  0  0
   -0.8220   66.7330   13.8840 O   0  0  0  0  0
   -1.4450   65.3810   13.2440 P   0  0  0  0  0
   -2.5380   65.6840   12.1770 O   0  0  0  0  0
   -1.9470   64.5370   14.3310 O   0  0  0  0  0
   -0.1360   64.7770   12.5550 O   0  0  0  0  0
    0.0180   64.4650   11.0100 P   0  0  0  0  0
   -0.1060   65.8160   10.2050 O   0  0  0  0  0
   -0.9760   63.3470   10.6180 O   0  0  0  0  0
    1.4830   63.8490   10.9640 O   0  0  0  0  0
    3.8750   64.1180   10.7660 C   0  0  0  0  0
    2.6140   64.5690   11.4820 C   0  0  0  0  0
    5.0840   64.7180   11.3540 C   0  0  0  0  0
    3.9950   62.5980   10.8600 C   0  0  0  0  0
    3.6860   64.5260    9.2790 C   0  0  0  0  0
    3.9310   65.9200    9.1870 O   0  0  0  0  0
    4.5470   63.8150    8.2680 C   0  0  0  0  0
    4.2670   62.6620    7.8540 O   0  0  0  0  0
    5.7420   64.5180    7.7850 N   0  0  0  0  0
    6.6080   63.8820    6.7890 C   0  0  0  0  0
    7.3920   62.7340    7.2920 C   0  0  0  0  0
    8.1680   63.0430    8.5430 C   0  0  0  0  0
    8.9750   64.0280    8.5650 O   0  0  0  0  0
    7.9600   62.1870    9.7110 N   0  0  0  0  0
    8.6970   62.4540   10.9740 C   0  0  0  0  0
   10.1500   62.1490   10.8930 C   0  0  0  0  0
   10.9590   62.0470   12.4190 S   0  0  0  0  0
   10.7730   60.4180   13.0510 C   0  0  0  0  0
   11.2990   59.3030   12.1260 C   0  0  0  0  0
   10.5230   58.7820   11.1460 O   0  0  0  0  0
   13.2799   59.1030   12.8345 H   0  0  0  0  0
   12.7349   57.8724   10.2404 H   0  0  0  0  0
   13.6196   60.7099   10.4313 H   0  0  0  0  0
   12.3380   59.8987    9.3519 H   0  0  0  0  0
   14.1838   58.9077    8.1085 H   0  0  0  0  0
   15.3217   59.8626    9.0600 H   0  0  0  0  0
   12.3662   61.9599    9.2717 H   0  0  0  0  0
   13.9914   62.5904    9.6353 H   0  0  0  0  0
   13.0048   63.3523    8.3637 H   0  0  0  0  0
   14.0432   56.2003   10.8094 H   0  0  0  0  0
   16.4746   56.6843   12.3175 H   0  0  0  0  0
   15.0396   54.5733   12.1741 H   0  0  0  0  0
   16.8738   54.4388   12.2428 H   0  0  0  0  0
   16.8682   54.0482    9.8492 H   0  0  0  0  0
   15.0853   54.0777    9.8544 H   0  0  0  0  0
   16.2040   51.7805    9.9859 H   0  0  0  0  0
   14.9570   52.1475   11.2254 H   0  0  0  0  0
   16.8571   51.0814   12.2735 H   0  0  0  0  0
   16.7807   52.8138   12.7730 H   0  0  0  0  0
   19.0151   52.1253   12.2430 H   0  0  0  0  0
   18.5551   51.6808   10.7042 H   0  0  0  0  0
   18.4845   53.2805   11.1655 H   0  0  0  0  0
   18.6061   56.6092   11.6474 H   0  0  0  0  0
   19.0624   57.4891    8.8704 H   0  0  0  0  0
   20.2631   58.5665   10.6995 H   0  0  0  0  0
   20.9946   57.0070   11.1508 H   0  0  0  0  0
   21.3859   57.7532    9.5820 H   0  0  0  0  0
   20.7131   56.4356    7.5184 H   0  0  0  0  0
   20.5806   53.4859    7.8947 H   0  0  0  0  0
   22.8087   55.8972    7.0857 H   0  0  0  0  0
   20.8305   55.2566    5.4658 H   0  0  0  0  0
   22.7265   53.7318    5.2662 H   0  0  0  0  0
   21.6562   52.3395    5.5613 H   0  0  0  0  0
   21.4561   53.3198    4.0883 H   0  0  0  0  0
   19.2060   52.7899    6.1267 H   0  0  0  0  0
   18.6362   54.4760    6.1835 H   0  0  0  0  0
   19.0929   53.7425    4.6265 H   0  0  0  0  0
   -6.3848   66.6979   14.8092 H   0  0  0  0  0
   -9.7880   69.1802   12.8562 H   0  0  0  0  0
   -9.0244   70.6325   12.2011 H   0  0  0  0  0
   -4.2408   72.3105   12.1124 H   0  0  0  0  0
   -2.2422   71.2948   16.5095 H   0  0  0  0  0
    2.4904   69.2124   15.5158 H   0  0  0  0  0
    1.2720   69.5380   17.6680 H   0  0  0  0  0
    0.7379   68.1262   13.3538 H   0  0  0  0  0
   -0.2220   67.7321   12.0682 H   0  0  0  0  0
   -2.1652   66.2377   11.4870 H   0  0  0  0  0
    0.5516   66.4386   10.5237 H   0  0  0  0  0
    2.7123   64.3705   12.5493 H   0  0  0  0  0
    2.4683   65.6372   11.3215 H   0  0  0  0  0
    5.0203   65.8039   11.2835 H   0  0  0  0  0
    5.1614   64.4245   12.4009 H   0  0  0  0  0
    5.9623   64.3683   10.8114 H   0  0  0  0  0
    4.0452   62.3029   11.9081 H   0  0  0  0  0
    3.1251   62.1365   10.3925 H   0  0  0  0  0
    4.9000   62.2738   10.3462 H   0  0  0  0  0
    2.6684   64.2344    9.0191 H   0  0  0  0  0
    3.8216   66.2036    8.2764 H   0  0  0  0  0
    5.9686   65.4463    8.1418 H   0  0  0  0  0
    7.3244   64.6367    6.4645 H   0  0  0  0  0
    5.9578   63.5006    6.0017 H   0  0  0  0  0
    8.1103   62.4624    6.5184 H   0  0  0  0  0
    6.6895   61.9353    7.5299 H   0  0  0  0  0
    7.3075   61.4048    9.6586 H   0  0  0  0  0
    8.2708   61.8097   11.7429 H   0  0  0  0  0
    8.5985   63.5177   11.1906 H   0  0  0  0  0
   10.6143   62.9681   10.3438 H   0  0  0  0  0
   10.2412   61.1705   10.4214 H   0  0  0  0  0
    9.7039   60.2472   13.1769 H   0  0  0  0  0
   11.3548   60.3669   13.9713 H   0  0  0  0  0
  1  2  1  0  0  0
 80  1  1  0  0  0
  2  3  1  0  0  0
  2  5  1  0  0  0
  3  4  2  0  0  0
  3  9  1  0  0  0
  5  6  1  0  0  0
  6  7  1  0  0  0
  7  8  1  0  0  0
  9 10  1  0  0  0
 10 11  1  0  0  0
 10 13  1  0  0  0
 11 12  2  0  0  0
 11 18  1  0  0  0
 13 14  1  0  0  0
 14 15  1  0  0  0
 15 16  1  0  0  0
 16 17  1  0  0  0
 18 19  1  0  0  0
 19 20  1  0  0  0
 19 22  1  0  0  0
 20 21  2  0  0  0
 20 23  1  0  0  0
 23 24  1  0  0  0
 24 25  1  0  0  0
 24 27  1  0  0  0
 25 26  1  0  0  0
 25 30  2  0  0  0
 27 28  1  0  0  0
 27 29  1  0  0  0
 32 31  4  0  0  0
 36 31  4  0  0  0
 33 32  4  0  0  0
 34 33  4  0  0  0
 34 35  4  0  0  0
 40 34  4  0  0  0
 35 36  4  0  0  0
 38 35  4  0  0  0
 36 37  1  0  0  0
 39 38  4  0  0  0
 40 39  4  0  0  0
 41 40  1  0  0  0
 41 42  4  0  0  0
 51 41  4  0  0  0
 42 43  1  0  0  0
 44 42  4  0  0  0
 44 45  1  0  0  0
 50 44  4  0  0  0
 45 46  1  0  0  0
 46 47  1  0  0  0
 46 48  1  0  0  0
 46 49  2  0  0  0
 50 51  4  0  0  0
 52 50  1  0  0  0
 53 52  1  0  0  0
 54 53  1  0  0  0
 54 55  1  0  0  0
 54 56  2  0  0  0
 57 54  1  0  0  0
 58 57  1  0  0  0
 58 59  1  0  0  0
 58 60  2  0  0  0
 61 58  1  0  0  0
 63 61  1  0  0  0
 62 63  1  0  0  0
 62 64  1  0  0  0
 62 65  1  0  0  0
 66 62  1  0  0  0
 66 67  1  0  0  0
 68 66  1  0  0  0
 68 69  2  0  0  0
 70 68  1  0  0  0
 71 70  1  0  0  0
 72 71  1  0  0  0
 73 72  1  0  0  0
 73 74  2  0  0  0
 75 73  1  0  0  0
 76 75  1  0  0  0
 77 76  1  0  0  0
 78 77  1  0  0  0
 79 78  1  0  0  0
 79 80  1  0  0  0
 80 81  2  0  0  0
  1 82  1  0  0  0
  2 83  1  0  0  0
  5 84  1  0  0  0
  5 85  1  0  0  0
  6 86  1  0  0  0
  6 87  1  0  0  0
  8 88  1  0  0  0
  8 89  1  0  0  0
  8 90  1  0  0  0
  9 91  1  0  0  0
 10 92  1  0  0  0
 13 93  1  0  0  0
 13 94  1  0  0  0
 14 95  1  0  0  0
 14 96  1  0  0  0
 15 97  1  0  0  0
 15 98  1  0  0  0
 16 99  1  0  0  0
 16100  1  0  0  0
 17101  1  0  0  0
 17102  1  0  0  0
 17103  1  0  0  0
 18104  1  0  0  0
 19105  1  0  0  0
 22106  1  0  0  0
 22107  1  0  0  0
 22108  1  0  0  0
 23109  1  0  0  0
 24110  1  0  0  0
 26111  1  0  0  0
 27112  1  0  0  0
 28113  1  0  0  0
 28114  1  0  0  0
 28115  1  0  0  0
 29116  1  0  0  0
 29117  1  0  0  0
 29118  1  0  0  0
 32119  1  0  0  0
 37120  1  0  0  0
 37121  1  0  0  0
 39122  1  0  0  0
 43123  1  0  0  0
 47124  1  0  0  0
 48125  1  0  0  0
 52126  1  0  0  0
 52127  1  0  0  0
 55128  1  0  0  0
 59129  1  0  0  0
 63130  1  0  0  0
 63131  1  0  0  0
 64132  1  0  0  0
 64133  1  0  0  0
 64134  1  0  0  0
 65135  1  0  0  0
 65136  1  0  0  0
 65137  1  0  0  0
 66138  1  0  0  0
 67139  1  0  0  0
 70140  1  0  0  0
 71141  1  0  0  0
 71142  1  0  0  0
 72143  1  0  0  0
 72144  1  0  0  0
 75145  1  0  0  0
 76146  1  0  0  0
 76147  1  0  0  0
 77148  1  0  0  0
 77149  1  0  0  0
 79150  1  0  0  0
 79151  1  0  0  0
M  END
$$$$
