1uef_ligand
  -I-interpret- 

176178  0  0  0  0  0  0  0  0999 V2000
   18.4030   -8.3010   -1.8220 N   0  3  0  0  0
   17.9740   -6.8750   -1.7930 C   0  0  0  0  0
   16.7720   -6.6620   -0.9020 C   0  0  0  0  0
   16.8630   -5.8940    0.0610 O   0  0  0  0  0
   17.5700   -6.2570   -3.2220 C   0  0  0  0  0
   17.3260   -7.3010   -4.1620 O   0  0  0  0  0
   18.6340   -5.2950   -3.7890 C   0  0  0  0  0
   15.6680   -7.3530   -1.1820 N   0  0  0  0  0
   14.4190   -7.1170   -0.4450 C   0  0  0  0  0
   13.8730   -8.1010    0.5950 C   0  0  0  0  0
   14.2880   -9.2510    0.6650 O   0  0  0  0  0
   13.2900   -6.8690   -1.4560 C   0  0  0  0  0
   13.4660   -5.6390   -2.3710 C   0  0  0  0  0
   14.4050   -5.4620   -3.3570 C   0  0  0  0  0
   12.6370   -4.4630   -2.4010 C   0  0  0  0  0
   14.2140   -4.2630   -3.9970 N   0  0  0  0  0
   13.1350   -3.6280   -3.4430 C   0  0  0  0  0
   11.5260   -4.0420   -1.6590 C   0  0  0  0  0
   12.5570   -2.4020   -3.7600 C   0  0  0  0  0
   10.9480   -2.8170   -1.9740 C   0  0  0  0  0
   11.4650   -2.0110   -3.0200 C   0  0  0  0  0
   12.9540   -7.6190    1.4360 N   0  0  0  0  0
   12.2670   -8.4920    2.3900 C   0  0  0  0  0
   10.8570   -7.9380    2.5630 C   0  0  0  0  0
   10.6400   -6.7430    2.4440 O   0  0  0  0  0
   12.9700   -8.6240    3.8240 C   0  0  0  0  0
   12.9240   -7.3090    4.5710 C   0  0  0  0  0
   14.4160   -9.0990    3.6990 C   0  0  0  0  0
   11.7330   -7.2260    5.3930 C   0  0  0  0  0
    9.8950   -8.8220    2.7850 N   0  0  0  0  0
    8.5220   -8.4030    3.0250 C   0  0  0  0  0
    8.4930   -7.9940    4.4860 C   0  0  0  0  0
    9.1920   -8.5840    5.3040 O   0  0  0  0  0
    7.5530   -9.5590    2.7920 C   0  0  0  0  0
    6.7050   -9.4460    1.5450 C   0  0  0  0  0
    7.5260   -9.4460    0.2780 C   0  0  0  0  0
    8.3810   -8.5530    0.1070 O   0  0  0  0  0
    7.3100  -10.3460   -0.5630 O   0  0  0  0  0
    7.6890   -6.9850    4.8070 N   0  0  0  0  0
    7.5810   -6.4650    6.1780 C   0  0  0  0  0
    6.3900   -7.0620    6.9520 C   0  0  0  0  0
    5.2930   -6.5380    6.9130 O   0  0  0  0  0
    7.4810   -4.9310    6.1200 C   0  0  0  0  0
    7.3500   -4.2970    7.4760 C   0  0  0  0  0
    7.9040   -4.7750    8.4640 O   0  0  0  0  0
    6.6350   -3.1920    7.5260 N   0  0  0  0  0
    6.6190   -8.1570    7.6670 N   0  0  0  0  0
    5.5450   -8.8240    8.4210 C   0  0  0  0  0
    4.6920   -7.8600    9.2710 C   0  0  0  0  0
    3.4820   -8.0490    9.4170 O   0  0  0  0  0
    6.1490   -9.9300    9.3130 C   0  0  0  0  0
    6.4040  -11.2910    8.6150 C   0  0  0  0  0
    7.1260  -11.1650    7.2860 C   0  0  0  0  0
    6.3340  -11.8480    6.1570 C   0  0  0  0  0
    4.9440  -11.3200    5.9940 N   0  3  0  0  0
    5.3300   -6.8200    9.8040 N   0  0  0  0  0
    4.6790   -5.8250   10.6540 C   0  0  0  0  0
    3.6400   -4.9970    9.8970 C   0  0  0  0  0
    3.0050   -4.1160   10.4520 O   0  0  0  0  0
    5.7650   -4.9190   11.2550 C   0  0  0  0  0
    5.5250   -4.1900   12.5680 C   0  0  0  0  0
    5.1260   -2.7750   12.2650 C   0  0  0  0  0
    4.4850   -4.9150   13.4240 C   0  0  0  0  0
    3.4670   -5.3040    8.6220 N   0  0  0  0  0
    2.5380   -4.5870    7.7750 C   0  0  0  0  0
    1.0470   -4.8190    8.0250 C   0  0  0  0  0
    0.5270   -5.9060    7.7830 O   0  0  0  0  0
    2.8280   -4.9100    6.3210 C   0  0  0  0  0
    2.0720   -4.0050    5.4240 C   0  0  0  0  0
    2.4940   -2.6870    5.2620 C   0  0  0  0  0
    0.8380   -4.3920    4.8750 C   0  0  0  0  0
    1.7180   -1.7720    4.6010 C   0  0  0  0  0
    0.0430   -3.4800    4.2070 C   0  0  0  0  0
    0.5020   -2.1630    4.0900 C   0  0  0  0  0
   -0.2540   -1.1930    3.5190 O   0  0  0  0  0
    0.3590   -3.7760    8.4740 N   0  0  0  0  0
   -1.0630   -3.8750    8.7250 C   0  0  0  0  0
   -1.4350   -4.3400   10.1180 C   0  0  0  0  0
   -2.5820   -4.7140   10.3450 O   0  0  0  0  0
   -0.4890   -4.3220   11.0580 N   0  0  0  0  0
   -0.7840   -4.7510   12.4300 C   0  0  0  0  0
   -0.9410   -3.5690   13.4170 C   0  0  0  0  0
   -2.0840   -3.0900   13.6750 O   0  0  0  0  0
    0.3250   -5.6710   12.9510 C   0  0  0  0  0
    0.7570   -6.7480   11.9880 C   0  0  0  0  0
    1.3310   -8.2180   12.8350 S   0  0  0  0  0
    3.1290   -7.9240   12.9650 C   0  0  0  0  0
    0.1364   -3.0512   14.0002 O   0  0  0  0  0
   19.2139   -8.3985   -2.4330 H   0  0  0  0  0
   18.6489   -8.6001   -0.8783 H   0  0  0  0  0
   17.6390   -8.8776   -2.1745 H   0  0  0  0  0
   18.8637   -6.3679   -1.4196 H   0  0  0  0  0
   16.6623   -5.6761   -3.0588 H   0  0  0  0  0
   16.6638   -7.8996   -3.8089 H   0  0  0  0  0
   19.5577   -5.8440   -3.9719 H   0  0  0  0  0
   18.2732   -4.8666   -4.7241 H   0  0  0  0  0
   18.8204   -4.4970   -3.0703 H   0  0  0  0  0
   15.6901   -8.0571   -1.9197 H   0  0  0  0  0
   14.7333   -6.2822    0.1814 H   0  0  0  0  0
   12.3872   -6.6913   -0.8717 H   0  0  0  0  0
   13.2672   -7.7395   -2.1116 H   0  0  0  0  0
   15.1932   -6.1752   -3.5981 H   0  0  0  0  0
   11.1247   -4.6590   -0.8550 H   0  0  0  0  0
   12.9530   -1.7778   -4.5610 H   0  0  0  0  0
   10.0835   -2.4707   -1.4077 H   0  0  0  0  0
   10.9853   -1.0580   -3.2433 H   0  0  0  0  0
   12.7267   -6.6249    1.4133 H   0  0  0  0  0
   12.2864   -9.5015    1.9793 H   0  0  0  0  0
   12.4122   -9.3717    4.3879 H   0  0  0  0  0
   12.9095   -6.4939    3.8475 H   0  0  0  0  0
   13.8010   -7.2392    5.2145 H   0  0  0  0  0
   14.4359  -10.0750    3.2140 H   0  0  0  0  0
   14.9818   -8.3837    3.1021 H   0  0  0  0  0
   14.8588   -9.1762    4.6920 H   0  0  0  0  0
   10.8496   -7.3021    4.7591 H   0  0  0  0  0
   11.7344   -8.0418    6.1159 H   0  0  0  0  0
   11.7226   -6.2719    5.9200 H   0  0  0  0  0
   10.1215   -9.8165    2.7877 H   0  0  0  0  0
    8.2215   -7.5975    2.3550 H   0  0  0  0  0
    6.8660   -9.5673    3.6382 H   0  0  0  0  0
    8.1592  -10.4577    2.6782 H   0  0  0  0  0
    6.1648   -8.5005    1.5930 H   0  0  0  0  0
    6.0413  -10.3100    1.5130 H   0  0  0  0  0
    6.6179  -10.9266   -0.2381 H   0  0  0  0  0
    7.1252   -6.5550    4.0737 H   0  0  0  0  0
    8.4750   -6.7644    6.7250 H   0  0  0  0  0
    6.5876   -4.6787    5.5488 H   0  0  0  0  0
    8.3986   -4.5562    5.6665 H   0  0  0  0  0
    6.5233   -2.6964    8.4105 H   0  0  0  0  0
    6.1930   -2.8318    6.6802 H   0  0  0  0  0
    7.5618   -8.5454    7.6945 H   0  0  0  0  0
    4.8670   -9.2559    7.6848 H   0  0  0  0  0
    5.4235  -10.1196   10.1041 H   0  0  0  0  0
    7.1217   -9.5646    9.6423 H   0  0  0  0  0
    5.4327  -11.7448    8.4180 H   0  0  0  0  0
    7.0360  -11.8843    9.2758 H   0  0  0  0  0
    8.0991  -11.6487    7.3709 H   0  0  0  0  0
    7.2324  -10.1070    7.0462 H   0  0  0  0  0
    6.2538  -12.9056    6.4084 H   0  0  0  0  0
    6.8661  -11.6589    5.2247 H   0  0  0  0  0
    4.4805  -11.8155    5.2324 H   0  0  0  0  0
    4.4239  -11.4620    6.8599 H   0  0  0  0  0
    4.9831  -10.3237    5.7790 H   0  0  0  0  0
    6.3253   -6.7120    9.6089 H   0  0  0  0  0
    4.1348   -6.3435   11.4433 H   0  0  0  0  0
    5.8826   -4.1201   10.5228 H   0  0  0  0  0
    6.5897   -5.5977   11.4724 H   0  0  0  0  0
    6.4423   -4.1776   13.1566 H   0  0  0  0  0
    5.9249   -2.2848   11.7086 H   0  0  0  0  0
    4.2137   -2.7759   11.6685 H   0  0  0  0  0
    4.9507   -2.2404   13.1986 H   0  0  0  0  0
    3.5423   -4.9695   12.8795 H   0  0  0  0  0
    4.8370   -5.9226   13.6453 H   0  0  0  0  0
    4.3372   -4.3677   14.3550 H   0  0  0  0  0
    4.0065   -6.0719    8.2224 H   0  0  0  0  0
    2.7104   -3.5413    8.0298 H   0  0  0  0  0
    2.5261   -5.9381    6.1210 H   0  0  0  0  0
    3.8943   -4.7797    6.1365 H   0  0  0  0  0
    3.4575   -2.3790    5.6680 H   0  0  0  0  0
    0.5035   -5.4244    4.9772 H   0  0  0  0  0
    2.0606   -0.7442    4.4811 H   0  0  0  0  0
   -0.9157   -3.7784    3.7827 H   0  0  0  0  0
    0.2291   -0.3635    3.5313 H   0  0  0  0  0
    0.8393   -2.8925    8.6445 H   0  0  0  0  0
   -1.4548   -4.6174    8.0298 H   0  0  0  0  0
   -1.4744   -2.8725    8.6070 H   0  0  0  0  0
    0.4513   -4.0061   10.8203 H   0  0  0  0  0
   -1.7368   -5.2781   12.3806 H   0  0  0  0  0
   -0.0700   -6.1749   13.8331 H   0  0  0  0  0
    1.1966   -5.0431   13.1356 H   0  0  0  0  0
    1.5794   -6.3580   11.3883 H   0  0  0  0  0
   -0.1025   -7.0218   11.3761 H   0  0  0  0  0
    3.5519   -7.8189   11.9659 H   0  0  0  0  0
    3.3064   -7.0113   13.5339 H   0  0  0  0  0
    3.5979   -8.7670   13.4726 H   0  0  0  0  0
    0.9179   -3.5220   13.7016 H   0  0  0  0  0
  2  1  1  0  0  0
  2  5  1  0  0  0
  3  2  1  0  0  0
  3  4  2  0  0  0
  5  7  1  0  0  0
  5  6  1  0  0  0
  9  8  1  0  0  0
  9 12  1  0  0  0
 10  9  1  0  0  0
 10 11  2  0  0  0
 12 13  1  0  0  0
 13 14  4  0  0  0
 13 15  4  0  0  0
 15 18  4  0  0  0
 15 17  4  0  0  0
 17 19  4  0  0  0
 17 16  4  0  0  0
 14 16  4  0  0  0
 19 21  4  0  0  0
 20 21  4  0  0  0
 18 20  4  0  0  0
  8  3  1  0  0  0
 23 22  1  0  0  0
 23 26  1  0  0  0
 24 23  1  0  0  0
 24 25  2  0  0  0
 26 28  1  0  0  0
 26 27  1  0  0  0
 27 29  1  0  0  0
 22 10  1  0  0  0
 31 30  1  0  0  0
 31 34  1  0  0  0
 32 31  1  0  0  0
 32 33  2  0  0  0
 34 35  1  0  0  0
 35 36  1  0  0  0
 36 38  1  0  0  0
 36 37  2  0  0  0
 30 24  1  0  0  0
 40 39  1  0  0  0
 40 43  1  0  0  0
 41 40  1  0  0  0
 41 42  2  0  0  0
 43 44  1  0  0  0
 44 46  1  0  0  0
 44 45  2  0  0  0
 39 32  1  0  0  0
 48 47  1  0  0  0
 48 51  1  0  0  0
 49 48  1  0  0  0
 49 50  2  0  0  0
 51 52  1  0  0  0
 52 53  1  0  0  0
 53 54  1  0  0  0
 54 55  1  0  0  0
 47 41  1  0  0  0
 57 56  1  0  0  0
 57 60  1  0  0  0
 58 57  1  0  0  0
 58 59  2  0  0  0
 60 61  1  0  0  0
 61 62  1  0  0  0
 61 63  1  0  0  0
 56 49  1  0  0  0
 65 64  1  0  0  0
 65 68  1  0  0  0
 66 65  1  0  0  0
 66 67  2  0  0  0
 68 69  1  0  0  0
 69 70  4  0  0  0
 69 71  4  0  0  0
 71 73  4  0  0  0
 73 74  4  0  0  0
 74 75  1  0  0  0
 72 74  4  0  0  0
 70 72  4  0  0  0
 64 58  1  0  0  0
 77 76  1  0  0  0
 78 77  1  0  0  0
 78 79  2  0  0  0
 76 66  1  0  0  0
 80 81  1  0  0  0
 81 84  1  0  0  0
 81 82  1  0  0  0
 82 83  2  0  0  0
 84 85  1  0  0  0
 85 86  1  0  0  0
 86 87  1  0  0  0
 78 80  1  0  0  0
 82 88  1  0  0  0
  1 89  1  0  0  0
  1 90  1  0  0  0
  1 91  1  0  0  0
  2 92  1  0  0  0
  5 93  1  0  0  0
  6 94  1  0  0  0
  7 95  1  0  0  0
  7 96  1  0  0  0
  7 97  1  0  0  0
  8 98  1  0  0  0
  9 99  1  0  0  0
 12100  1  0  0  0
 12101  1  0  0  0
 14102  1  0  0  0
 18103  1  0  0  0
 19104  1  0  0  0
 20105  1  0  0  0
 21106  1  0  0  0
 22107  1  0  0  0
 23108  1  0  0  0
 26109  1  0  0  0
 27110  1  0  0  0
 27111  1  0  0  0
 28112  1  0  0  0
 28113  1  0  0  0
 28114  1  0  0  0
 29115  1  0  0  0
 29116  1  0  0  0
 29117  1  0  0  0
 30118  1  0  0  0
 31119  1  0  0  0
 34120  1  0  0  0
 34121  1  0  0  0
 35122  1  0  0  0
 35123  1  0  0  0
 38124  1  0  0  0
 39125  1  0  0  0
 40126  1  0  0  0
 43127  1  0  0  0
 43128  1  0  0  0
 46129  1  0  0  0
 46130  1  0  0  0
 47131  1  0  0  0
 48132  1  0  0  0
 51133  1  0  0  0
 51134  1  0  0  0
 52135  1  0  0  0
 52136  1  0  0  0
 53137  1  0  0  0
 53138  1  0  0  0
 54139  1  0  0  0
 54140  1  0  0  0
 55141  1  0  0  0
 55142  1  0  0  0
 55143  1  0  0  0
 56144  1  0  0  0
 57145  1  0  0  0
 60146  1  0  0  0
 60147  1  0  0  0
 61148  1  0  0  0
 62149  1  0  0  0
 62150  1  0  0  0
 62151  1  0  0  0
 63152  1  0  0  0
 63153  1  0  0  0
 63154  1  0  0  0
 64155  1  0  0  0
 65156  1  0  0  0
 68157  1  0  0  0
 68158  1  0  0  0
 70159  1  0  0  0
 71160  1  0  0  0
 72161  1  0  0  0
 73162  1  0  0  0
 75163  1  0  0  0
 76164  1  0  0  0
 77165  1  0  0  0
 77166  1  0  0  0
 80167  1  0  0  0
 81168  1  0  0  0
 84169  1  0  0  0
 84170  1  0  0  0
 85171  1  0  0  0
 85172  1  0  0  0
 87173  1  0  0  0
 87174  1  0  0  0
 87175  1  0  0  0
 88176  1  0  0  0
M  END
$$$$
