### 
### Created by X-TOOL on Mon Sep 10 21:12:51 2018
### 

@<TRIPOS>MOLECULE
1uef_ligand
  176   178     1     0     0
SMALL
GAST_HUCK


@<TRIPOS>ATOM
      1 N          18.4030   -8.3010   -1.8220 N.4       1 THR         0.2398
      2 CA         17.9740   -6.8750   -1.7930 C.3       1 THR         0.0910
      3 C          16.7720   -6.6620   -0.9020 C.2       1 THR         0.2293
      4 O          16.8630   -5.8940    0.0610 O.2       1 THR        -0.3906
      5 CB         17.5700   -6.2570   -3.2220 C.3       1 THR         0.1120
      6 OG1        17.3260   -7.3010   -4.1620 O.3       1 THR        -0.3840
      7 CG2        18.6340   -5.2950   -3.7890 C.3       1 THR        -0.0314
      8 N          15.6680   -7.3530   -1.1820 N.am      1 TRP        -0.2599
      9 CA         14.4190   -7.1170   -0.4450 C.3       1 TRP         0.1353
     10 C          13.8730   -8.1010    0.5950 C.2       1 TRP         0.2052
     11 O          14.2880   -9.2510    0.6650 O.2       1 TRP        -0.3942
     12 CB         13.2900   -6.8690   -1.4560 C.3       1 TRP         0.0042
     13 CG         13.4660   -5.6390   -2.3710 C.2       1 TRP        -0.0418
     14 CD1        14.4050   -5.4620   -3.3570 C.2       1 TRP         0.0167
     15 CD2        12.6370   -4.4630   -2.4010 C.ar      1 TRP        -0.0214
     16 NE1        14.2140   -4.2630   -3.9970 N.pl3     1 TRP        -0.2890
     17 CE2        13.1350   -3.6280   -3.4430 C.ar      1 TRP         0.0603
     18 CE3        11.5260   -4.0420   -1.6590 C.ar      1 TRP        -0.0747
     19 CZ2        12.5570   -2.4020   -3.7600 C.ar      1 TRP        -0.0443
     20 CZ3        10.9480   -2.8170   -1.9740 C.ar      1 TRP        -0.0792
     21 CH2        11.4650   -2.0110   -3.0200 C.ar      1 TRP        -0.0768
     22 N          12.9540   -7.6190    1.4360 N.am      1 ILE        -0.2634
     23 CA         12.2670   -8.4920    2.3900 C.3       1 ILE         0.1335
     24 C          10.8570   -7.9380    2.5630 C.2       1 ILE         0.2042
     25 O          10.6400   -6.7430    2.4440 O.2       1 ILE        -0.3944
     26 CB         12.9700   -8.6240    3.8240 C.3       1 ILE        -0.0037
     27 CG1        12.9240   -7.3090    4.5710 C.3       1 ILE        -0.0491
     28 CG2        14.4160   -9.0990    3.6990 C.3       1 ILE        -0.0582
     29 CD1        11.7330   -7.2260    5.3930 C.3       1 ILE        -0.0648
     30 N           9.8950   -8.8220    2.7850 N.am      1 GLU        -0.2636
     31 CA          8.5220   -8.4030    3.0250 C.3       1 GLU         0.1325
     32 C           8.4930   -7.9940    4.4860 C.2       1 GLU         0.2041
     33 O           9.1920   -8.5840    5.3040 O.2       1 GLU        -0.3944
     34 CB          7.5530   -9.5590    2.7920 C.3       1 GLU        -0.0008
     35 CG          6.7050   -9.4460    1.5450 C.3       1 GLU         0.0044
     36 CD          7.5260   -9.4460    0.2780 C.2       1 GLU         0.0350
     37 OE1         8.3810   -8.5530    0.1070 O.co2     1 GLU        -0.5690
     38 OE2         7.3100  -10.3460   -0.5630 O.co2     1 GLU        -0.5690
     39 N           7.6890   -6.9850    4.8070 N.am      1 ASN        -0.2616
     40 CA          7.5810   -6.4650    6.1780 C.3       1 ASN         0.1476
     41 C           6.3900   -7.0620    6.9520 C.2       1 ASN         0.2063
     42 O           5.2930   -6.5380    6.9130 O.2       1 ASN        -0.3942
     43 CB          7.4810   -4.9310    6.1200 C.3       1 ASN         0.0773
     44 CG          7.3500   -4.2970    7.4760 C.2       1 ASN         0.1780
     45 OD1         7.9040   -4.7750    8.4640 O.2       1 ASN        -0.3970
     46 ND2         6.6350   -3.1920    7.5260 N.am      1 ASN        -0.3007
     47 N           6.6190   -8.1570    7.6670 N.am      1 LYS        -0.2636
     48 CA          5.5450   -8.8240    8.4210 C.3       1 LYS         0.1310
     49 C           4.6920   -7.8600    9.2710 C.2       1 LYS         0.2039
     50 O           3.4820   -8.0490    9.4170 O.2       1 LYS        -0.3944
     51 CB          6.1490   -9.9300    9.3130 C.3       1 LYS        -0.0122
     52 CG          6.4040  -11.2910    8.6150 C.3       1 LYS        -0.0440
     53 CD          7.1260  -11.1650    7.2860 C.3       1 LYS        -0.0124
     54 CE          6.3340  -11.8480    6.1570 C.3       1 LYS        -0.0354
     55 NZ          4.9440  -11.3200    5.9940 N.4       1 LYS         0.2185
     56 N           5.3300   -6.8200    9.8040 N.am      1 LEU        -0.2637
     57 CA          4.6790   -5.8250   10.6540 C.3       1 LEU         0.1312
     58 C           3.6400   -4.9970    9.8970 C.2       1 LEU         0.2040
     59 O           3.0050   -4.1160   10.4520 O.2       1 LEU        -0.3944
     60 CB          5.7650   -4.9190   11.2550 C.3       1 LEU        -0.0101
     61 CG          5.5250   -4.1900   12.5680 C.3       1 LEU        -0.0425
     62 CD1         5.1260   -2.7750   12.2650 C.3       1 LEU        -0.0625
     63 CD2         4.4850   -4.9150   13.4240 C.3       1 LEU        -0.0625
     64 N           3.4670   -5.3040    8.6220 N.am      1 PTR        -0.2621
     65 CA          2.5380   -4.5870    7.7750 C.3       1 PTR         0.1390
     66 C           1.0470   -4.8190    8.0250 C.2       1 PTR         0.2055
     67 O           0.5270   -5.9060    7.7830 O.2       1 PTR        -0.3942
     68 CB          2.8280   -4.9100    6.3210 C.3       1 PTR         0.0163
     69 CG          2.0720   -4.0050    5.4240 C.ar      1 PTR        -0.0493
     70 CD1         2.4940   -2.6870    5.2620 C.ar      1 PTR        -0.0685
     71 CD2         0.8380   -4.3920    4.8750 C.ar      1 PTR        -0.0685
     72 CE1         1.7180   -1.7720    4.6010 C.ar      1 PTR        -0.0398
     73 CE2         0.0430   -3.4800    4.2070 C.ar      1 PTR        -0.0398
     74 CZ          0.5020   -2.1630    4.0900 C.ar      1 PTR         0.0805
     75 OH         -0.2540   -1.1930    3.5190 O.3       1 PTR        -0.3376
     76 N           0.3590   -3.7760    8.4740 N.am      1 GLY        -0.2663
     77 CA         -1.0630   -3.8750    8.7250 C.3       1 GLY         0.1201
     78 C          -1.4350   -4.3400   10.1180 C.2       1 GLY         0.2008
     79 O          -2.5820   -4.7140   10.3450 O.2       1 GLY        -0.3947
     80 N          -0.4890   -4.3220   11.0580 N.am      1 MET        -0.2626
     81 CA         -0.7840   -4.7510   12.4300 C.3       1 MET         0.1427
     82 C          -0.9410   -3.5690   13.4170 C.2       1 MET         0.2571
     83 O          -2.0840   -3.0900   13.6750 O.2       1 MET        -0.3680
     84 CB          0.3250   -5.6710   12.9510 C.3       1 MET        -0.0020
     85 CG          0.7570   -6.7480   11.9880 C.3       1 MET        -0.0023
     86 SD          1.3310   -8.2180   12.8350 S.3       1 MET        -0.1639
     87 CE          3.1290   -7.9240   12.9650 C.3       1 MET        -0.0181
     88 O1          0.1364   -3.0512   14.0002 O.3       1 MET        -0.2910
     89 H1         19.2044   -8.3985   -2.4256 H         1 THR         0.2016
     90 H2         17.6487   -8.8718   -2.1702 H         1 THR         0.2016
     91 H3         18.6463   -8.5977   -0.8899 H         1 THR         0.2016
     92 H4         18.8184   -6.2939   -1.3939 H         1 THR         0.1125
     93 H5         16.6388   -5.6872   -3.0874 H         1 THR         0.0674
     94 H6         16.6706   -7.8934   -3.8126 H         1 THR         0.2102
     95 H7         18.2979   -4.9094   -4.7628 H         1 THR         0.0258
     96 H8         19.5847   -5.8335   -3.9162 H         1 THR         0.0258
     97 H9         18.7782   -4.4560   -3.0924 H         1 THR         0.0258
     98 H10        15.6897   -8.0433   -1.9052 H         1 TRP         0.1886
     99 H11        14.5916   -6.1816    0.1075 H         1 TRP         0.0815
    100 H12        12.3545   -6.7390   -0.8921 H         1 TRP         0.0397
    101 H13        13.2105   -7.7586   -2.0981 H         1 TRP         0.0397
    102 H14        15.1925   -6.1745   -3.5979 H         1 TRP         0.0795
    103 H15        14.7898   -3.8994   -4.7698 H         1 TRP         0.2216
    104 H16        11.1269   -4.6556   -0.8595 H         1 TRP         0.0540
    105 H17        12.9508   -1.7812   -4.5566 H         1 TRP         0.0541
    106 H18        10.0882   -2.4726   -1.4108 H         1 TRP         0.0510
    107 H19        10.9880   -1.0633   -3.2420 H         1 TRP         0.0530
    108 H20        12.7311   -6.6444    1.4137 H         1 ILE         0.1883
    109 H21        12.2104   -9.4997    1.9526 H         1 ILE         0.0803
    110 H22        12.4127   -9.3719    4.4072 H         1 ILE         0.0345
    111 H23        12.9200   -6.4820    3.8457 H         1 ILE         0.0267
    112 H24        13.8126   -7.2283    5.2143 H         1 ILE         0.0267
    113 H25        14.4422  -10.0549    3.1553 H         1 ILE         0.0235
    114 H26        14.8450   -9.2362    4.7026 H         1 ILE         0.0235
    115 H27        15.0024   -8.3482    3.1491 H         1 ILE         0.0235
    116 H28        11.7213   -6.2635    5.9254 H         1 ILE         0.0230
    117 H29        11.7332   -8.0488    6.1230 H         1 ILE         0.0230
    118 H30        10.8406   -7.3026    4.7544 H         1 ILE         0.0230
    119 H31        10.1170   -9.7970    2.7877 H         1 GLU         0.1883
    120 H32         8.2539   -7.5572    2.3748 H         1 GLU         0.0801
    121 H33         6.8780   -9.6173    3.6585 H         1 GLU         0.0330
    122 H34         8.1402  -10.4865    2.7215 H         1 GLU         0.0330
    123 H35         6.1325   -8.5079    1.5929 H         1 GLU         0.0433
    124 H36         6.0104  -10.2983    1.5138 H         1 GLU         0.0433
    125 H37         7.1363   -6.5634    4.0881 H         1 ASN         0.1885
    126 H38         8.5001   -6.7346    6.7189 H         1 ASN         0.0826
    127 H39         6.5995   -4.6601    5.5203 H         1 ASN         0.0551
    128 H40         8.3880   -4.5391    5.6365 H         1 ASN         0.0551
    129 H41         6.5072   -2.7182    8.3973 H         1 ASN         0.1814
    130 H42         6.2200   -2.8269    6.6927 H         1 ASN         0.1814
    131 H43         7.5433   -8.5378    7.6940 H         1 LYS         0.1883
    132 H44         4.8739   -9.2996    7.6906 H         1 LYS         0.0800
    133 H45         5.4577  -10.1040   10.1507 H         1 LYS         0.0312
    134 H46         7.1108   -9.5637    9.7012 H         1 LYS         0.0312
    135 H47         5.4340  -11.7790    8.4391 H         1 LYS         0.0269
    136 H48         7.0132  -11.9165    9.2840 H         1 LYS         0.0269
    137 H49         8.1151  -11.6392    7.3683 H         1 LYS         0.0317
    138 H50         7.2493  -10.0991    7.0440 H         1 LYS         0.0317
    139 H51         6.2733  -12.9241    6.3770 H         1 LYS         0.0813
    140 H52         6.8760  -11.6970    5.2118 H         1 LYS         0.0813
    141 H53         4.4849  -11.8090    5.2415 H         1 LYS         0.1994
    142 H54         4.9813  -10.3354    5.7814 H         1 LYS         0.1994
    143 H55         4.4290  -11.4599    6.8491 H         1 LYS         0.1994
    144 H56         6.3058   -6.7141    9.6127 H         1 LEU         0.1883
    145 H57         4.1634   -6.3501   11.4716 H         1 LEU         0.0800
    146 H58         5.9835   -4.1475   10.5020 H         1 LEU         0.0315
    147 H59         6.6543   -5.5492   11.4029 H         1 LEU         0.0315
    148 H60         6.4687   -4.1691   13.1328 H         1 LEU         0.0298
    149 H61         4.9488   -2.2344   13.2065 H         1 LEU         0.0232
    150 H62         4.2053   -2.7745   11.6631 H         1 LEU         0.0232
    151 H63         5.9315   -2.2791   11.7035 H         1 LEU         0.0232
    152 H64         4.8224   -5.9439   13.6177 H         1 LEU         0.0232
    153 H65         3.5233   -4.9388   12.8906 H         1 LEU         0.0232
    154 H66         4.3615   -4.3837   14.3792 H         1 LEU         0.0232
    155 H67         3.9959   -6.0568    8.2302 H         1 PTR         0.1885
    156 H68         2.7263   -3.5155    7.9374 H         1 PTR         0.0821
    157 H69         2.5340   -5.9500    6.1163 H         1 PTR         0.0453
    158 H70         3.9049   -4.7894    6.1319 H         1 PTR         0.0453
    159 H71         3.4522   -2.3807    5.6657 H         1 PTR         0.0530
    160 H72         0.5053   -5.4187    4.9766 H         1 PTR         0.0530
    161 H73         2.0587   -0.7499    4.4817 H         1 PTR         0.0525
    162 H74        -0.9104   -3.7767    3.7850 H         1 PTR         0.0525
    163 H75         0.2241   -0.3722    3.5312 H         1 PTR         0.2458
    164 H76         0.8299   -2.9098    8.6411 H         1 GLY         0.1881
    165 H77        -1.4886   -4.5868    8.0024 H         1 GLY         0.0763
    166 H78        -1.5078   -2.8815    8.5665 H         1 GLY         0.0763
    167 H79         0.4328   -4.0123   10.8249 H         1 MET         0.1884
    168 H80        -1.7301   -5.3118   12.4116 H         1 MET         0.0816
    169 H81        -0.0369   -6.1576   13.8688 H         1 MET         0.0321
    170 H82         1.2022   -5.0504   13.1864 H         1 MET         0.0321
    171 H83         1.5731   -6.3578   11.3622 H         1 MET         0.0378
    172 H84        -0.0977   -7.0172   11.3501 H         1 MET         0.0378
    173 H85         3.6034   -8.7741   13.4771 H         1 MET         0.0340
    174 H86         3.3094   -7.0031   13.5390 H         1 MET         0.0340
    175 H87         3.5570   -7.8178   11.9573 H         1 MET         0.0340
    176 H88         0.0558   -3.1349   14.9431 H         1 MET         0.2540
@<TRIPOS>BOND
     1    2    1 1  
     2    2    5 1  
     3    3    2 1  
     4    3    4 2  
     5    5    7 1  
     6    5    6 1  
     7    9    8 1  
     8    9   12 1  
     9   10    9 1  
    10   10   11 2  
    11   12   13 1  
    12   13   14 2  
    13   13   15 1  
    14   15   18 ar 
    15   15   17 ar 
    16   17   19 ar 
    17   17   16 1  
    18   14   16 1  
    19   19   21 ar 
    20   20   21 ar 
    21   18   20 ar 
    22    8    3 am 
    23   23   22 1  
    24   23   26 1  
    25   24   23 1  
    26   24   25 2  
    27   26   28 1  
    28   26   27 1  
    29   27   29 1  
    30   22   10 am 
    31   31   30 1  
    32   31   34 1  
    33   32   31 1  
    34   32   33 2  
    35   34   35 1  
    36   35   36 1  
    37   36   38 ar 
    38   36   37 ar 
    39   30   24 am 
    40   40   39 1  
    41   40   43 1  
    42   41   40 1  
    43   41   42 2  
    44   43   44 1  
    45   44   46 am 
    46   44   45 2  
    47   39   32 am 
    48   48   47 1  
    49   48   51 1  
    50   49   48 1  
    51   49   50 2  
    52   51   52 1  
    53   52   53 1  
    54   53   54 1  
    55   54   55 1  
    56   47   41 am 
    57   57   56 1  
    58   57   60 1  
    59   58   57 1  
    60   58   59 2  
    61   60   61 1  
    62   61   62 1  
    63   61   63 1  
    64   56   49 am 
    65   65   64 1  
    66   65   68 1  
    67   66   65 1  
    68   66   67 2  
    69   68   69 1  
    70   69   70 ar 
    71   69   71 ar 
    72   71   73 ar 
    73   73   74 ar 
    74   74   75 1  
    75   72   74 ar 
    76   70   72 ar 
    77   64   58 am 
    78   77   76 1  
    79   78   77 1  
    80   78   79 2  
    81   76   66 am 
    82   80   81 1  
    83   81   84 1  
    84   81   82 1  
    85   82   83 2  
    86   84   85 1  
    87   85   86 1  
    88   86   87 1  
    89   78   80 am 
    90   82   88 1  
    91    1   89 1  
    92    1   90 1  
    93    1   91 1  
    94    2   92 1  
    95    5   93 1  
    96    6   94 1  
    97    7   95 1  
    98    7   96 1  
    99    7   97 1  
   100    8   98 1  
   101    9   99 1  
   102   12  100 1  
   103   12  101 1  
   104   14  102 1  
   105   16  103 1  
   106   18  104 1  
   107   19  105 1  
   108   20  106 1  
   109   21  107 1  
   110   22  108 1  
   111   23  109 1  
   112   26  110 1  
   113   27  111 1  
   114   27  112 1  
   115   28  113 1  
   116   28  114 1  
   117   28  115 1  
   118   29  116 1  
   119   29  117 1  
   120   29  118 1  
   121   30  119 1  
   122   31  120 1  
   123   34  121 1  
   124   34  122 1  
   125   35  123 1  
   126   35  124 1  
   127   39  125 1  
   128   40  126 1  
   129   43  127 1  
   130   43  128 1  
   131   46  129 1  
   132   46  130 1  
   133   47  131 1  
   134   48  132 1  
   135   51  133 1  
   136   51  134 1  
   137   52  135 1  
   138   52  136 1  
   139   53  137 1  
   140   53  138 1  
   141   54  139 1  
   142   54  140 1  
   143   55  141 1  
   144   55  142 1  
   145   55  143 1  
   146   56  144 1  
   147   57  145 1  
   148   60  146 1  
   149   60  147 1  
   150   61  148 1  
   151   62  149 1  
   152   62  150 1  
   153   62  151 1  
   154   63  152 1  
   155   63  153 1  
   156   63  154 1  
   157   64  155 1  
   158   65  156 1  
   159   68  157 1  
   160   68  158 1  
   161   70  159 1  
   162   71  160 1  
   163   72  161 1  
   164   73  162 1  
   165   75  163 1  
   166   76  164 1  
   167   77  165 1  
   168   77  166 1  
   169   80  167 1  
   170   81  168 1  
   171   84  169 1  
   172   84  170 1  
   173   85  171 1  
   174   85  172 1  
   175   87  173 1  
   176   87  174 1  
   177   87  175 1  
   178   88  176 1  
@<TRIPOS>SUBSTRUCTURE
     1 THR         1

