3fu3_ligand
  -I-interpret- 

 21 22  0  0  0  0  0  0  0  0999 V2000
   -9.5380   21.5230   10.8300 O   0  0  0  0  0
   -9.7540   23.9700   13.5300 C   0  0  0  0  0
   -9.2780   23.2740   12.4260 C   0  0  0  0  0
  -10.0040   22.2050   11.9120 C   0  0  0  0  0
  -11.6820   22.5300   13.6090 C   0  0  0  0  0
  -11.2060   21.8330   12.5040 C   0  0  0  0  0
  -10.9560   23.5980   14.1220 C   0  0  0  0  0
  -11.4650   24.3450   15.3060 C   0  0  0  0  0
  -12.3320   24.5540   17.4020 C   0  0  0  0  0
  -11.5240   25.7530   15.3370 C   0  0  0  0  0
  -12.1890   26.2530   16.9200 S   0  0  0  0  0
  -11.9100   23.7030   16.4420 N   0  0  0  0  0
  -12.8110   24.1520   18.6040 N   0  0  0  0  0
  -10.1538   20.8215   10.6058 H   0  0  0  0  0
   -9.1850   24.8081   13.9324 H   0  0  0  0  0
   -8.3355   23.5657   11.9626 H   0  0  0  0  0
  -12.6244   22.2387   14.0727 H   0  0  0  0  0
  -11.7751   20.9949   12.1018 H   0  0  0  0  0
  -11.2168   26.4225   14.5336 H   0  0  0  0  0
  -13.1136   24.8439   19.2897 H   0  0  0  0  0
  -12.8690   23.1575   18.8232 H   0  0  0  0  0
  4  1  1  0  0  0
  2  3  4  0  0  0
  7  2  4  0  0  0
  3  4  4  0  0  0
  6  4  4  0  0  0
  5  6  4  0  0  0
  7  5  4  0  0  0
  8  7  1  0  0  0
  8 10  4  0  0  0
 12  8  4  0  0  0
  9 11  4  0  0  0
  9 12  4  0  0  0
  9 13  1  0  0  0
 10 11  4  0  0  0
  1 14  1  0  0  0
  2 15  1  0  0  0
  3 16  1  0  0  0
  5 17  1  0  0  0
  6 18  1  0  0  0
 10 19  1  0  0  0
 13 20  1  0  0  0
 13 21  1  0  0  0
M  END
$$$$
