3k83_ligand
  -I-interpret- 

 50 53  0  0  0  0  0  0  0  0999 V2000
   54.5160  -14.5640   -6.3070 C   0  0  0  0  0
   53.0230  -14.4190   -6.5880 C   0  0  0  0  0
   52.6230  -15.1920   -7.7380 O   0  0  0  0  0
   52.6600  -12.9470   -6.8550 C   0  0  0  0  0
   51.5870  -12.2090   -6.6290 N   0  0  0  0  0
   51.8460  -10.9880   -7.0830 C   0  0  0  0  0
   53.0740  -10.9730   -7.5920 C   0  0  0  0  0
   53.6130  -12.2080   -7.4570 O   0  0  0  0  0
   53.7450   -9.7970   -8.1980 C   0  0  0  0  0
   53.0190   -8.7040   -8.4890 N   0  0  0  0  0
   53.6020   -7.6190   -9.0350 C   0  0  0  0  0
   54.9640   -7.6110   -9.3110 C   0  0  0  0  0
   55.7270   -8.7290   -9.0170 C   0  0  0  0  0
   55.1100   -9.8330   -8.4520 C   0  0  0  0  0
   52.7690   -6.4110   -9.3500 C   0  0  0  0  0
   51.5350   -6.4740   -9.1840 O   0  0  0  0  0
   53.3340   -5.3730   -9.7660 O   0  0  0  0  0
   55.0190  -16.0130   -6.1950 C   0  0  0  0  0
   56.5060  -15.9740   -6.4990 C   0  0  0  0  0
   57.5060  -16.1960   -5.5420 C   0  0  0  0  0
   58.8570  -16.1240   -5.9400 C   0  0  0  0  0
   59.2120  -15.8310   -7.2640 C   0  0  0  0  0
   58.2020  -15.6130   -8.1950 C   0  0  0  0  0
   56.8660  -15.6810   -7.8120 C   0  0  0  0  0
   60.6500  -15.7570   -7.6890 C   0  0  0  0  0
   61.0400  -16.2140   -8.9460 C   0  0  0  0  0
   62.3790  -16.1470   -9.3480 C   0  0  0  0  0
   63.3470  -15.6150   -8.4910 C   0  0  0  0  0
   62.9660  -15.1550   -7.2360 C   0  0  0  0  0
   61.6220  -15.2250   -6.8360 C   0  0  0  0  0
   54.7019  -14.0911   -5.3427 H   0  0  0  0  0
   55.0399  -14.1135   -7.1500 H   0  0  0  0  0
   52.5003  -14.7844   -5.7040 H   0  0  0  0  0
   52.8406  -16.1157   -7.5927 H   0  0  0  0  0
   51.1642  -10.1384   -7.0446 H   0  0  0  0  0
   55.4286   -6.7310   -9.7558 H   0  0  0  0  0
   56.7965   -8.7399   -9.2270 H   0  0  0  0  0
   55.6909  -10.7226   -8.2087 H   0  0  0  0  0
   54.2798   -5.5266   -9.8252 H   0  0  0  0  0
   54.4936  -16.6649   -6.8929 H   0  0  0  0  0
   54.8333  -16.4161   -5.1994 H   0  0  0  0  0
   57.2439  -16.4204   -4.5081 H   0  0  0  0  0
   59.6409  -16.2997   -5.2033 H   0  0  0  0  0
   58.4584  -15.3877   -9.2302 H   0  0  0  0  0
   56.0871  -15.5017   -8.5531 H   0  0  0  0  0
   60.2939  -16.6284   -9.6240 H   0  0  0  0  0
   62.6684  -16.5113  -10.3337 H   0  0  0  0  0
   64.3898  -15.5615   -8.8038 H   0  0  0  0  0
   63.7130  -14.7386   -6.5602 H   0  0  0  0  0
   61.3332  -14.8608   -5.8501 H   0  0  0  0  0
  1  2  1  0  0  0
  1 18  1  0  0  0
  2  3  1  0  0  0
  2  4  1  0  0  0
  4  5  4  0  0  0
  4  8  4  0  0  0
  5  6  4  0  0  0
  6  7  4  0  0  0
  7  8  4  0  0  0
  7  9  1  0  0  0
  9 10  4  0  0  0
  9 14  4  0  0  0
 10 11  4  0  0  0
 11 12  4  0  0  0
 11 15  1  0  0  0
 12 13  4  0  0  0
 13 14  4  0  0  0
 15 16  2  0  0  0
 15 17  1  0  0  0
 18 19  1  0  0  0
 19 20  4  0  0  0
 19 24  4  0  0  0
 20 21  4  0  0  0
 21 22  4  0  0  0
 22 23  4  0  0  0
 22 25  1  0  0  0
 23 24  4  0  0  0
 25 26  4  0  0  0
 25 30  4  0  0  0
 26 27  4  0  0  0
 27 28  4  0  0  0
 28 29  4  0  0  0
 29 30  4  0  0  0
  1 31  1  0  0  0
  1 32  1  0  0  0
  2 33  1  0  0  0
  3 34  1  0  0  0
  6 35  1  0  0  0
 12 36  1  0  0  0
 13 37  1  0  0  0
 14 38  1  0  0  0
 17 39  1  0  0  0
 18 40  1  0  0  0
 18 41  1  0  0  0
 20 42  1  0  0  0
 21 43  1  0  0  0
 23 44  1  0  0  0
 24 45  1  0  0  0
 26 46  1  0  0  0
 27 47  1  0  0  0
 28 48  1  0  0  0
 29 49  1  0  0  0
 30 50  1  0  0  0
M  END
$$$$
