3dxk_ligand
  -I-interpret- 

 35 37  0  0  0  0  0  0  0  0999 V2000
    2.0170   15.5410   38.1230 C   0  0  0  0  0
    0.8470   15.6960   37.1510 C   0  0  0  0  0
    0.2830   14.7030   36.4600 N   0  0  0  0  0
   -0.7580   15.1930   35.7940 C   0  0  0  0  0
   -1.6630   14.5680   34.9400 C   0  0  0  0  0
   -2.6870   15.3020   34.3570 C   0  0  0  0  0
   -2.8180   16.6590   34.6550 C   0  0  0  0  0
   -1.9280   17.2890   35.5130 C   0  0  0  0  0
   -0.8870   16.5520   36.0720 C   0  0  0  0  0
    0.1460   16.8760   36.9440 C   0  0  0  0  0
    0.5060   18.2740   37.4520 C   0  0  0  0  0
   -0.2480   18.5770   38.7470 C   0  0  0  0  0
    0.0990   17.5440   39.7360 N   0  0  0  0  0
    0.9630   17.7870   40.7100 C   0  0  0  0  0
    1.5260   18.8720   40.8850 O   0  0  0  0  0
    1.2040   16.5970   41.6400 C   0  0  0  0  0
    0.5270   15.4550   41.5750 C   0  0  0  0  0
    0.7970   14.5920   42.5620 C   0  0  0  0  0
    1.7040   14.9660   43.4650 C   0  0  0  0  0
    2.2280   16.5250   43.0090 S   0  0  0  0  0
    1.7332   14.8602   38.9255 H   0  0  0  0  0
    2.8788   15.1383   37.5909 H   0  0  0  0  0
    2.2701   16.5144   38.5431 H   0  0  0  0  0
   -1.5674   13.5028   34.7293 H   0  0  0  0  0
   -3.3843   14.8214   33.6708 H   0  0  0  0  0
   -3.6304   17.2317   34.2077 H   0  0  0  0  0
   -2.0422   18.3475   35.7466 H   0  0  0  0  0
    0.2281   19.0098   36.6974 H   0  0  0  0  0
    1.5779   18.3179   37.6452 H   0  0  0  0  0
   -1.3225   18.5733   38.5637 H   0  0  0  0  0
    0.0319   19.5618   39.1210 H   0  0  0  0  0
   -0.3343   16.6230   39.6701 H   0  0  0  0  0
   -0.1896   15.2389   40.7826 H   0  0  0  0  0
    0.2971   13.6254   42.6248 H   0  0  0  0  0
    2.0440   14.3894   44.3253 H   0  0  0  0  0
  1  2  1  0  0  0
  2  3  4  0  0  0
  2 10  4  0  0  0
  3  4  4  0  0  0
  4  5  4  0  0  0
  4  9  4  0  0  0
  5  6  4  0  0  0
  6  7  4  0  0  0
  7  8  4  0  0  0
  8  9  4  0  0  0
  9 10  4  0  0  0
 10 11  1  0  0  0
 11 12  1  0  0  0
 12 13  1  0  0  0
 13 14  1  0  0  0
 14 15  2  0  0  0
 14 16  1  0  0  0
 16 17  4  0  0  0
 16 20  4  0  0  0
 17 18  4  0  0  0
 18 19  4  0  0  0
 19 20  4  0  0  0
  1 21  1  0  0  0
  1 22  1  0  0  0
  1 23  1  0  0  0
  5 24  1  0  0  0
  6 25  1  0  0  0
  7 26  1  0  0  0
  8 27  1  0  0  0
 11 28  1  0  0  0
 11 29  1  0  0  0
 12 30  1  0  0  0
 12 31  1  0  0  0
 13 32  1  0  0  0
 17 33  1  0  0  0
 18 34  1  0  0  0
 19 35  1  0  0  0
M  END
$$$$
