1cw2_ligand
  -I-interpret- 

 32 32  0  0  0  0  0  0  0  0999 V2000
   46.9560   30.2100    9.7290 O   0  0  0  0  0
   48.4690   28.7120    8.5800 O   0  0  0  0  0
   47.7130   26.3180   16.1920 O   0  0  0  0  0
   49.6490   24.6200   15.6400 C   0  0  0  0  0
   50.1260   25.9330   15.7100 C   0  0  0  0  0
   51.4640   26.2280   15.3170 C   0  0  0  0  0
   52.2950   25.1950   14.8580 C   0  0  0  0  0
   51.8110   23.8760   14.7890 C   0  0  0  0  0
   50.4920   23.5920   15.1780 C   0  0  0  0  0
   51.9530   27.5050   15.3800 O   0  0  0  0  0
   49.0580   27.2410   16.3030 S   0  0  0  0  0
   49.0490   28.4950   14.9860 C   0  0  0  0  0
   48.6040   27.8780   13.6700 C   0  0  0  0  0
   48.5950   28.9230   12.5610 C   0  0  0  0  0
   48.1530   28.2930   11.2330 C   0  0  0  0  0
   48.2270   29.3870    9.9100 P   0  0  0  0  0
   49.3350   30.4200   10.0340 O   0  0  0  0  0
   46.7513   30.6651   10.5491 H   0  0  0  0  0
   48.6266   24.3934   15.9426 H   0  0  0  0  0
   53.3184   25.4151   14.5541 H   0  0  0  0  0
   52.4594   23.0750   14.4338 H   0  0  0  0  0
   50.1188   22.5694   15.1218 H   0  0  0  0  0
   52.8643   27.5127   15.0782 H   0  0  0  0  0
   50.0566   28.8937   14.8685 H   0  0  0  0  0
   48.3551   29.2904   15.2578 H   0  0  0  0  0
   47.5954   27.4824   13.7895 H   0  0  0  0  0
   49.2999   27.0837   13.4001 H   0  0  0  0  0
   49.6015   29.3250   12.4448 H   0  0  0  0  0
   47.8960   29.7159   12.8270 H   0  0  0  0  0
   47.1154   27.9784   11.3449 H   0  0  0  0  0
   48.8298   27.4662   11.0173 H   0  0  0  0  0
   49.2406   30.8907   10.8653 H   0  0  0  0  0
 16  1  1  0  0  0
 16  2  2  0  0  0
 11  3  2  0  0  0
  5  4  4  0  0  0
  4  9  4  0  0  0
  5  6  4  0  0  0
 11  5  1  0  0  0
  6  7  4  0  0  0
  6 10  1  0  0  0
  7  8  4  0  0  0
  9  8  4  0  0  0
 12 11  1  0  0  0
 13 12  1  0  0  0
 14 13  1  0  0  0
 15 14  1  0  0  0
 15 16  1  0  0  0
 16 17  1  0  0  0
  1 18  1  0  0  0
  4 19  1  0  0  0
  7 20  1  0  0  0
  8 21  1  0  0  0
  9 22  1  0  0  0
 10 23  1  0  0  0
 12 24  1  0  0  0
 12 25  1  0  0  0
 13 26  1  0  0  0
 13 27  1  0  0  0
 14 28  1  0  0  0
 14 29  1  0  0  0
 15 30  1  0  0  0
 15 31  1  0  0  0
 17 32  1  0  0  0
M  END
$$$$
