### 
### Created by X-TOOL on Mon Sep 10 21:12:47 2018
### 

@<TRIPOS>MOLECULE
1cw2_ligand
   30    30     1     0     0
SMALL
GAST_HUCK


@<TRIPOS>ATOM
      1 O1         46.9560   30.2100    9.7290 O.co2     1 HSP        -0.5623
      2 O2         48.4690   28.7120    8.5800 O.co2     1 HSP        -0.5623
      3 O3         47.7130   26.3180   16.1920 O.2       1 HSP        -0.2539
      4 C1         49.6490   24.6200   15.6400 C.ar      1 HSP        -0.0548
      5 C2         50.1260   25.9330   15.7100 C.ar      1 HSP         0.0668
      6 C3         51.4640   26.2280   15.3170 C.ar      1 HSP         0.1033
      7 C4         52.2950   25.1950   14.8580 C.ar      1 HSP        -0.0322
      8 C5         51.8110   23.8760   14.7890 C.ar      1 HSP        -0.0706
      9 C6         50.4920   23.5920   15.1780 C.ar      1 HSP        -0.0718
     10 O4         51.9530   27.5050   15.3800 O.3       1 HSP        -0.3319
     11 S1         49.0580   27.2410   16.3030 S.o       1 HSP         0.0503
     12 C7         49.0490   28.4950   14.9860 C.3       1 HSP         0.0265
     13 C8         48.6040   27.8780   13.6700 C.3       1 HSP        -0.0402
     14 C9         48.5950   28.9230   12.5610 C.3       1 HSP        -0.0372
     15 C10        48.1530   28.2930   11.2330 C.3       1 HSP         0.0196
     16 P1         48.2270   29.3870    9.9100 P.3       1 HSP         0.0579
     17 O5         49.3350   30.4200   10.0340 O.co2     1 HSP        -0.5623
     18 H1         48.6323   24.3947   15.9409 H         1 HSP         0.0600
     19 H2         53.3127   25.4139   14.5557 H         1 HSP         0.0542
     20 H3         52.4558   23.0794   14.4358 H         1 HSP         0.0589
     21 H4         50.1209   22.5750   15.1221 H         1 HSP         0.0523
     22 H5         52.2187   27.7844   14.5118 H         1 HSP         0.2481
     23 H6         50.0629   28.9054   14.8693 H         1 HSP         0.0403
     24 H7         48.3554   29.3035   15.2601 H         1 HSP         0.0403
     25 H8         47.5901   27.4680   13.7880 H         1 HSP         0.0274
     26 H9         49.2975   27.0687   13.3978 H         1 HSP         0.0274
     27 H10        49.6074   29.3375   12.4458 H         1 HSP         0.0279
     28 H11        47.8968   29.7296   12.8292 H         1 HSP         0.0279
     29 H12        47.1158   27.9426   11.3398 H         1 HSP         0.0451
     30 H13        48.8088   27.4369   11.0163 H         1 HSP         0.0451
@<TRIPOS>BOND
     1   16    1 ar 
     2   16    2 ar 
     3   11    3 2  
     4    5    4 ar 
     5    4    9 ar 
     6    5    6 ar 
     7   11    5 1  
     8    6    7 ar 
     9    6   10 1  
    10    7    8 ar 
    11    9    8 ar 
    12   12   11 1  
    13   13   12 1  
    14   14   13 1  
    15   15   14 1  
    16   15   16 1  
    17   16   17 ar 
    18    4   18 1  
    19    7   19 1  
    20    8   20 1  
    21    9   21 1  
    22   10   22 1  
    23   12   23 1  
    24   12   24 1  
    25   13   25 1  
    26   13   26 1  
    27   14   27 1  
    28   14   28 1  
    29   15   29 1  
    30   15   30 1  
@<TRIPOS>SUBSTRUCTURE
     1 HSP         1

