2n1g_ligand
  -I-interpret- 

248249  0  0  0  0  0  0  0  0999 V2000
   -7.4020  -22.7820   -1.5870 N   0  3  0  0  0
   -7.6090  -21.4790   -0.9600 C   0  0  0  0  0
   -6.6900  -20.4390   -1.6270 C   0  0  0  0  0
   -5.5270  -20.2650   -1.2230 O   0  0  0  0  0
   -7.3590  -21.5670    0.5740 C   0  0  0  0  0
   -8.2210  -22.6250    1.2950 C   0  0  0  0  0
   -7.8390  -22.8000    2.7810 C   0  0  0  0  0
   -8.6000  -23.9550    3.4480 C   0  0  0  0  0
   -8.3700  -25.2580    2.7570 N   0  3  0  0  0
   -7.2120  -19.7950   -2.6890 N   0  0  0  0  0
   -6.4470  -18.8300   -3.4810 C   0  0  0  0  0
   -5.4090  -19.5070   -4.3750 C   0  0  0  0  0
   -5.4240  -20.7340   -4.5210 O   0  0  0  0  0
   -4.5490  -18.6910   -5.0160 N   0  0  0  0  0
   -3.3730  -19.1400   -5.8150 C   0  0  0  0  0
   -3.7440  -19.6580   -7.2250 C   0  0  0  0  0
   -2.9170  -19.5610   -8.1430 O   0  0  0  0  0
   -2.4910  -20.1910   -5.0490 C   0  0  0  0  0
   -1.7090  -19.6300   -3.8440 C   0  0  0  0  0
   -0.6520  -20.1530   -3.4940 O   0  0  0  0  0
   -2.1780  -18.5480   -3.2300 N   0  0  0  0  0
   -4.9860  -20.1830   -7.3750 N   0  0  0  0  0
   -5.5100  -20.8160   -8.6110 C   0  0  0  0  0
   -4.6040  -21.9800   -9.0790 C   0  0  0  0  0
   -4.8890  -23.1500   -8.8000 O   0  0  0  0  0
   -5.7390  -19.7820   -9.7520 C   0  0  0  0  0
   -6.6800  -18.6110   -9.4140 C   0  0  0  0  0
   -5.9500  -17.4120   -8.2710 S   0  0  0  0  0
   -7.1950  -16.1170   -8.2520 C   0  0  0  0  0
   -3.5020  -21.6380   -9.7810 N   0  0  0  0  0
   -2.4550  -22.5870  -10.1900 C   0  0  0  0  0
   -1.0920  -22.0890   -9.6720 C   0  0  0  0  0
   -0.2450  -21.6220  -10.4410 O   0  0  0  0  0
   -2.4460  -22.7950  -11.7350 C   0  0  0  0  0
   -3.6570  -23.5690  -12.2800 C   0  0  0  0  0
   -3.5350  -23.9360  -14.0500 S   0  0  0  0  0
   -2.0290  -24.9180  -14.1220 C   0  0  0  0  0
   -0.9630  -22.1290   -8.3300 N   0  0  0  0  0
    0.2920  -21.9020   -7.5880 C   0  0  0  0  0
    0.8840  -20.4910   -7.8280 C   0  0  0  0  0
    1.7170  -20.3060   -8.7310 O   0  0  0  0  0
    1.3120  -23.0290   -7.9160 C   0  0  0  0  0
    2.4030  -23.0330   -7.0120 O   0  0  0  0  0
    0.3750  -19.5010   -7.0500 N   0  0  0  0  0
    0.8740  -18.0980   -7.0150 C   0  0  0  0  0
    2.3940  -17.9820   -7.0440 C   0  0  0  0  0
    3.1100  -18.7750   -6.4310 O   0  0  0  0  0
    0.2880  -17.2870   -5.8120 C   0  0  0  0  0
   -0.8910  -16.3950   -6.2140 C   0  0  0  0  0
   -1.5890  -16.6650   -7.1900 O   0  0  0  0  0
   -1.1470  -15.3510   -5.4470 N   0  0  0  0  0
    2.8510  -16.9710   -7.7770 N   0  0  0  0  0
    4.2620  -16.7220   -8.0250 C   0  0  0  0  0
    4.7400  -15.5510   -7.1390 C   0  0  0  0  0
    5.8670  -15.5540   -6.6370 O   0  0  0  0  0
    4.4470  -16.4400   -9.5440 C   0  0  0  0  0
    5.8650  -16.6550  -10.0620 C   0  0  0  0  0
    6.5560  -17.8410   -9.7960 C   0  0  0  0  0
    6.5020  -15.6940  -10.8240 C   0  0  0  0  0
    7.8370  -18.0310  -10.2790 C   0  0  0  0  0
    7.7730  -15.8980  -11.3020 C   0  0  0  0  0
    8.4370  -17.0600  -11.0290 C   0  0  0  0  0
    3.8550  -14.5470   -6.9620 N   0  0  0  0  0
    4.0810  -13.3930   -6.0630 C   0  0  0  0  0
    3.4670  -13.6770   -4.7000 C   0  0  0  0  0
    4.0880  -13.4480   -3.6690 O   0  0  0  0  0
    3.4490  -12.0920   -6.6370 C   0  0  0  0  0
    4.0640  -11.5640   -7.9270 C   0  0  0  0  0
    4.9110  -12.3110   -8.7090 C   0  0  0  0  0
    3.7490  -10.3100   -8.3650 C   0  0  0  0  0
    5.4150  -11.8260   -9.8640 C   0  0  0  0  0
    4.2660   -9.8100   -9.5250 C   0  0  0  0  0
    5.0970  -10.5690  -10.2750 C   0  0  0  0  0
    2.2140  -14.1440   -4.7240 N   0  0  0  0  0
    1.5030  -14.5240   -3.4980 C   0  0  0  0  0
    2.1460  -15.6720   -2.6930 C   0  0  0  0  0
    1.8160  -15.8550   -1.5160 O   0  0  0  0  0
    3.0400  -16.4670   -3.3280 N   0  0  0  0  0
    3.8670  -17.4630   -2.6010 C   0  0  0  0  0
    4.9920  -16.7120   -1.8620 C   0  0  0  0  0
    5.2950  -17.0010   -0.7030 O   0  0  0  0  0
    4.4390  -18.5320   -3.5840 C   0  0  0  0  0
    4.8990  -19.8830   -2.9530 C   0  0  0  0  0
    6.2130  -19.7910   -2.1320 C   0  0  0  0  0
    6.6340  -21.1220   -1.4850 C   0  0  0  0  0
    7.8900  -20.9760   -0.6940 N   0  3  0  0  0
    5.5790  -15.7160   -2.5440 N   0  0  0  0  0
    6.6270  -14.8420   -1.9750 C   0  0  0  0  0
    6.0100  -13.6310   -1.2260 C   0  0  0  0  0
    6.6910  -12.6220   -1.0030 O   0  0  0  0  0
    7.5590  -14.3730   -3.1090 C   0  0  0  0  0
    4.7190  -13.7530   -0.8250 N   0  0  0  0  0
    3.9720  -12.6860   -0.1230 C   0  0  0  0  0
    4.5150  -12.4340    1.2920 C   0  0  0  0  0
    5.4500  -13.1120    1.7420 O   0  0  0  0  0
    2.4730  -13.0270   -0.0710 C   0  0  0  0  0
    3.9260  -11.4450    1.9890 N   0  0  0  0  0
    4.2930  -11.1210    3.3700 C   0  0  0  0  0
    3.7400  -12.2250    4.3100 C   0  0  0  0  0
    2.6420  -12.1020    4.8730 O   0  0  0  0  0
    3.7810   -9.7020    3.7580 C   0  0  0  0  0
    4.2130   -9.2060    5.1530 C   0  0  0  0  0
    3.6350   -7.5300    5.5190 S   0  0  0  0  0
    4.4270   -6.5770    4.2190 C   0  0  0  0  0
    4.5110  -13.3280    4.4120 N   0  0  0  0  0
    4.0840  -14.5820    5.0620 C   0  0  0  0  0
    5.3220  -15.4410    5.3950 C   0  0  0  0  0
    5.9800  -15.9590    4.4850 O   0  0  0  0  0
    3.1110  -15.3640    4.1230 C   0  0  0  0  0
    2.6750  -16.7580    4.6260 C   0  0  0  0  0
    2.4680  -17.6690    3.8240 O   0  0  0  0  0
    2.5030  -16.9390    5.9320 N   0  0  0  0  0
    5.6350  -15.5530    6.6990 N   0  0  0  0  0
    6.7320  -16.3980    7.2210 C   0  0  0  0  0
    6.5400  -16.6200    8.7510 C   0  0  0  0  0
    6.5890  -17.7830    9.2060 O   0  0  0  0  0
    8.1420  -15.7980    6.8970 C   0  0  0  0  0
    8.3590  -14.3400    7.3560 C   0  0  0  0  0
    9.7880  -13.8170    7.0750 C   0  0  0  0  0
    9.9820  -12.3600    7.5480 C   0  0  0  0  0
   11.3790  -11.8900    7.3780 N   0  3  0  0  0
    6.2770  -15.6380    9.4840 O   0  0  0  0  0
   -7.5698  -22.7057   -2.5902 H   0  0  0  0  0
   -6.4427  -23.0880   -1.4238 H   0  0  0  0  0
   -8.0494  -23.4590   -1.1833 H   0  0  0  0  0
   -8.6431  -21.1649   -1.1015 H   0  0  0  0  0
   -7.6180  -20.5971    0.9985 H   0  0  0  0  0
   -6.3162  -21.8514    0.7144 H   0  0  0  0  0
   -8.0620  -23.5807    0.7955 H   0  0  0  0  0
   -9.2584  -22.2930    1.2548 H   0  0  0  0  0
   -8.0947  -21.8796    3.3059 H   0  0  0  0  0
   -6.7735  -23.0241    2.8315 H   0  0  0  0  0
   -9.6655  -23.7303    3.4005 H   0  0  0  0  0
   -8.2426  -24.0481    4.4735 H   0  0  0  0  0
   -8.8938  -25.9917    3.2342 H   0  0  0  0  0
   -8.6847  -25.1885    1.7893 H   0  0  0  0  0
   -7.3749  -25.4811    2.7770 H   0  0  0  0  0
   -8.1786  -19.9874   -2.9518 H   0  0  0  0  0
   -5.9207  -18.1689   -2.7925 H   0  0  0  0  0
   -7.1442  -18.2898   -4.1215 H   0  0  0  0  0
   -4.7158  -17.6870   -4.9492 H   0  0  0  0  0
   -2.7746  -18.2403   -5.9585 H   0  0  0  0  0
   -1.7517  -20.5597   -5.7601 H   0  0  0  0  0
   -3.1712  -20.9478   -4.6583 H   0  0  0  0  0
   -1.6593  -18.1369   -2.4539 H   0  0  0  0  0
   -3.0565  -18.1290   -3.5351 H   0  0  0  0  0
   -5.6121  -20.1390   -6.5710 H   0  0  0  0  0
   -6.4855  -21.2333   -8.3613 H   0  0  0  0  0
   -6.2066  -20.3265  -10.5724 H   0  0  0  0  0
   -4.7656  -19.3425   -9.9698 H   0  0  0  0  0
   -7.5648  -19.0279   -8.9330 H   0  0  0  0  0
   -6.9009  -18.0871  -10.3440 H   0  0  0  0  0
   -7.3245  -15.7245   -9.2606 H   0  0  0  0  0
   -8.1398  -16.5283   -7.8967 H   0  0  0  0  0
   -6.8734  -15.3153   -7.5872 H   0  0  0  0  0
   -3.3885  -20.6592  -10.0444 H   0  0  0  0  0
   -2.6637  -23.5621   -9.7499 H   0  0  0  0  0
   -1.5586  -23.3815  -11.9731 H   0  0  0  0  0
   -2.4683  -21.8051  -12.1906 H   0  0  0  0  0
   -4.5395  -22.9465  -12.1326 H   0  0  0  0  0
   -3.7067  -24.5196  -11.7490 H   0  0  0  0  0
   -1.1930  -24.3267  -13.7484 H   0  0  0  0  0
   -2.1485  -25.8098  -13.5068 H   0  0  0  0  0
   -1.8364  -25.2103  -15.1543 H   0  0  0  0  0
   -1.8003  -22.3325   -7.7842 H   0  0  0  0  0
    0.0621  -21.9417   -6.5233 H   0  0  0  0  0
    1.7003  -22.8572   -8.9199 H   0  0  0  0  0
    0.7993  -23.9877   -7.8375 H   0  0  0  0  0
    3.0087  -23.7400   -7.2463 H   0  0  0  0  0
   -0.4098  -19.7365   -6.4426 H   0  0  0  0  0
    0.5076  -17.6549   -7.9410 H   0  0  0  0  0
    1.0784  -16.6420   -5.4282 H   0  0  0  0  0
   -0.0718  -18.0017   -5.0718 H   0  0  0  0  0
   -1.9401  -14.7454   -5.6580 H   0  0  0  0  0
   -0.5516  -15.1502   -4.6435 H   0  0  0  0  0
    2.1714  -16.3322   -8.1898 H   0  0  0  0  0
    4.8720  -17.5868   -7.7639 H   0  0  0  0  0
    4.2060  -15.3891   -9.7039 H   0  0  0  0  0
    3.8040  -17.1397  -10.0779 H   0  0  0  0  0
    6.0806  -18.6222   -9.2029 H   0  0  0  0  0
    5.9876  -14.7597  -11.0490 H   0  0  0  0  0
    8.3691  -18.9570  -10.0611 H   0  0  0  0  0
    8.2553  -15.1274  -11.9034 H   0  0  0  0  0
    9.4468  -17.2125  -11.4101 H   0  0  0  0  0
    2.9769  -14.5860   -7.4794 H   0  0  0  0  0
    5.1575  -13.2473   -5.9730 H   0  0  0  0  0
    3.6041  -11.3185   -5.8848 H   0  0  0  0  0
    2.4112  -12.3319   -6.8683 H   0  0  0  0  0
    5.1822  -13.3174   -8.3901 H   0  0  0  0  0
    3.0696   -9.6945   -7.7753 H   0  0  0  0  0
    6.0788  -12.4437  -10.4689 H   0  0  0  0  0
    4.0095   -8.8005   -9.8464 H   0  0  0  0  0
    5.5097  -10.1755  -11.2039 H   0  0  0  0  0
    1.7384  -14.2388   -5.6214 H   0  0  0  0  0
    0.5163  -14.8715   -3.8041 H   0  0  0  0  0
    1.5072  -13.6475   -2.8500 H   0  0  0  0  0
    3.1486  -16.3786   -4.3383 H   0  0  0  0  0
    3.2555  -17.9994   -1.8754 H   0  0  0  0  0
    5.3297  -18.0876   -4.0281 H   0  0  0  0  0
    3.6264  -18.7792   -4.2671 H   0  0  0  0  0
    5.0827  -20.5745   -3.7753 H   0  0  0  0  0
    4.1138  -20.1998   -2.2665 H   0  0  0  0  0
    6.0440  -19.0765   -1.3263 H   0  0  0  0  0
    7.0065  -19.4979   -2.8195 H   0  0  0  0  0
    6.8092  -21.8495   -2.2775 H   0  0  0  0  0
    5.8392  -21.4441   -0.8122 H   0  0  0  0  0
    8.1371  -21.8755   -0.2815 H   0  0  0  0  0
    8.6425  -20.6638   -1.3077 H   0  0  0  0  0
    7.7463  -20.2891    0.0463 H   0  0  0  0  0
    5.2861  -15.5532   -3.5074 H   0  0  0  0  0
    7.2026  -15.4083   -1.2428 H   0  0  0  0  0
    8.0196  -15.2407   -3.5813 H   0  0  0  0  0
    6.9797  -13.8200   -3.8484 H   0  0  0  0  0
    8.3347  -13.7277   -2.6966 H   0  0  0  0  0
    4.2362  -14.6304   -1.0187 H   0  0  0  0  0
    4.1094  -11.7657   -0.6906 H   0  0  0  0  0
    2.0879  -13.1221   -1.0863 H   0  0  0  0  0
    2.3340  -13.9680    0.4613 H   0  0  0  0  0
    1.9386  -12.2317    0.4487 H   0  0  0  0  0
    3.1933  -10.8980    1.5370 H   0  0  0  0  0
    5.3780  -11.0960    3.4717 H   0  0  0  0  0
    2.6923   -9.7543    3.7680 H   0  0  0  0  0
    4.2061   -9.0073    3.0336 H   0  0  0  0  0
    5.3026   -9.1941    5.1782 H   0  0  0  0  0
    3.7767   -9.8765    5.8934 H   0  0  0  0  0
    5.5087   -6.6851    4.2986 H   0  0  0  0  0
    4.0945   -6.9433    3.2477 H   0  0  0  0  0
    4.1568   -5.5263    4.3244 H   0  0  0  0  0
    5.4495  -13.2925    4.0141 H   0  0  0  0  0
    3.5584  -14.3494    5.9881 H   0  0  0  0  0
    3.6467  -15.5259    3.1876 H   0  0  0  0  0
    2.2040  -14.7642    4.0482 H   0  0  0  0  0
    2.1944  -17.8448    6.2851 H   0  0  0  0  0
    2.6796  -16.1720    6.5808 H   0  0  0  0  0
    5.0808  -15.0216    7.3704 H   0  0  0  0  0
    6.6895  -17.3641    6.7181 H   0  0  0  0  0
    8.2412  -15.8018    5.8115 H   0  0  0  0  0
    8.8709  -16.4060    7.4329 H   0  0  0  0  0
    8.2018  -14.3069    8.4341 H   0  0  0  0  0
    7.6628  -13.7122    6.7999 H   0  0  0  0  0
    9.9539  -13.8480    5.9981 H   0  0  0  0  0
   10.4917  -14.4461    7.6200 H   0  0  0  0  0
    9.7385  -12.3153    8.6095 H   0  0  0  0  0
    9.3362  -11.7215    6.9453 H   0  0  0  0  0
   11.4543  -10.9263    7.7037 H   0  0  0  0  0
   12.0048  -12.4839    7.9221 H   0  0  0  0  0
   11.6349  -11.9378    6.3918 H   0  0  0  0  0
    6.2854  -14.8355    8.9572 H   0  0  0  0  0
  1  2  1  0  0  0
  2  3  1  0  0  0
  2  5  1  0  0  0
  3  4  2  0  0  0
  3 10  1  0  0  0
  5  6  1  0  0  0
  6  7  1  0  0  0
  7  8  1  0  0  0
  8  9  1  0  0  0
 10 11  1  0  0  0
 11 12  1  0  0  0
 12 13  2  0  0  0
 12 14  1  0  0  0
 14 15  1  0  0  0
 15 16  1  0  0  0
 15 18  1  0  0  0
 16 17  2  0  0  0
 16 22  1  0  0  0
 18 19  1  0  0  0
 19 20  2  0  0  0
 19 21  1  0  0  0
 22 23  1  0  0  0
 23 24  1  0  0  0
 23 26  1  0  0  0
 24 25  2  0  0  0
 24 30  1  0  0  0
 26 27  1  0  0  0
 27 28  1  0  0  0
 28 29  1  0  0  0
 30 31  1  0  0  0
 31 32  1  0  0  0
 31 34  1  0  0  0
 32 33  2  0  0  0
 32 38  1  0  0  0
 34 35  1  0  0  0
 35 36  1  0  0  0
 36 37  1  0  0  0
 38 39  1  0  0  0
 39 40  1  0  0  0
 39 42  1  0  0  0
 40 41  2  0  0  0
 40 44  1  0  0  0
 42 43  1  0  0  0
 44 45  1  0  0  0
 45 46  1  0  0  0
 45 48  1  0  0  0
 46 47  2  0  0  0
 46 52  1  0  0  0
 48 49  1  0  0  0
 49 50  2  0  0  0
 49 51  1  0  0  0
 52 53  1  0  0  0
 53 54  1  0  0  0
 53 56  1  0  0  0
 54 55  2  0  0  0
 54 63  1  0  0  0
 56 57  1  0  0  0
 57 58  4  0  0  0
 57 59  4  0  0  0
 58 60  4  0  0  0
 59 61  4  0  0  0
 60 62  4  0  0  0
 61 62  4  0  0  0
 63 64  1  0  0  0
 64 65  1  0  0  0
 64 67  1  0  0  0
 65 66  2  0  0  0
 65 74  1  0  0  0
 67 68  1  0  0  0
 68 69  4  0  0  0
 68 70  4  0  0  0
 69 71  4  0  0  0
 70 72  4  0  0  0
 71 73  4  0  0  0
 72 73  4  0  0  0
 74 75  1  0  0  0
 75 76  1  0  0  0
 76 77  2  0  0  0
 76 78  1  0  0  0
 78 79  1  0  0  0
 79 80  1  0  0  0
 79 82  1  0  0  0
 80 81  2  0  0  0
 80 87  1  0  0  0
 82 83  1  0  0  0
 83 84  1  0  0  0
 84 85  1  0  0  0
 85 86  1  0  0  0
 87 88  1  0  0  0
 88 89  1  0  0  0
 88 91  1  0  0  0
 89 90  2  0  0  0
 89 92  1  0  0  0
 92 93  1  0  0  0
 93 94  1  0  0  0
 93 96  1  0  0  0
 94 95  2  0  0  0
 94 97  1  0  0  0
 97 98  1  0  0  0
 98 99  1  0  0  0
 98101  1  0  0  0
 99100  2  0  0  0
 99105  1  0  0  0
101102  1  0  0  0
102103  1  0  0  0
103104  1  0  0  0
105106  1  0  0  0
106107  1  0  0  0
106109  1  0  0  0
107108  2  0  0  0
107113  1  0  0  0
109110  1  0  0  0
110111  2  0  0  0
110112  1  0  0  0
113114  1  0  0  0
114115  1  0  0  0
114117  1  0  0  0
115116  2  0  0  0
115122  1  0  0  0
117118  1  0  0  0
118119  1  0  0  0
119120  1  0  0  0
120121  1  0  0  0
  1123  1  0  0  0
  1124  1  0  0  0
  1125  1  0  0  0
  2126  1  0  0  0
  5127  1  0  0  0
  5128  1  0  0  0
  6129  1  0  0  0
  6130  1  0  0  0
  7131  1  0  0  0
  7132  1  0  0  0
  8133  1  0  0  0
  8134  1  0  0  0
  9135  1  0  0  0
  9136  1  0  0  0
  9137  1  0  0  0
 10138  1  0  0  0
 11139  1  0  0  0
 11140  1  0  0  0
 14141  1  0  0  0
 15142  1  0  0  0
 18143  1  0  0  0
 18144  1  0  0  0
 21145  1  0  0  0
 21146  1  0  0  0
 22147  1  0  0  0
 23148  1  0  0  0
 26149  1  0  0  0
 26150  1  0  0  0
 27151  1  0  0  0
 27152  1  0  0  0
 29153  1  0  0  0
 29154  1  0  0  0
 29155  1  0  0  0
 30156  1  0  0  0
 31157  1  0  0  0
 34158  1  0  0  0
 34159  1  0  0  0
 35160  1  0  0  0
 35161  1  0  0  0
 37162  1  0  0  0
 37163  1  0  0  0
 37164  1  0  0  0
 38165  1  0  0  0
 39166  1  0  0  0
 42167  1  0  0  0
 42168  1  0  0  0
 43169  1  0  0  0
 44170  1  0  0  0
 45171  1  0  0  0
 48172  1  0  0  0
 48173  1  0  0  0
 51174  1  0  0  0
 51175  1  0  0  0
 52176  1  0  0  0
 53177  1  0  0  0
 56178  1  0  0  0
 56179  1  0  0  0
 58180  1  0  0  0
 59181  1  0  0  0
 60182  1  0  0  0
 61183  1  0  0  0
 62184  1  0  0  0
 63185  1  0  0  0
 64186  1  0  0  0
 67187  1  0  0  0
 67188  1  0  0  0
 69189  1  0  0  0
 70190  1  0  0  0
 71191  1  0  0  0
 72192  1  0  0  0
 73193  1  0  0  0
 74194  1  0  0  0
 75195  1  0  0  0
 75196  1  0  0  0
 78197  1  0  0  0
 79198  1  0  0  0
 82199  1  0  0  0
 82200  1  0  0  0
 83201  1  0  0  0
 83202  1  0  0  0
 84203  1  0  0  0
 84204  1  0  0  0
 85205  1  0  0  0
 85206  1  0  0  0
 86207  1  0  0  0
 86208  1  0  0  0
 86209  1  0  0  0
 87210  1  0  0  0
 88211  1  0  0  0
 91212  1  0  0  0
 91213  1  0  0  0
 91214  1  0  0  0
 92215  1  0  0  0
 93216  1  0  0  0
 96217  1  0  0  0
 96218  1  0  0  0
 96219  1  0  0  0
 97220  1  0  0  0
 98221  1  0  0  0
101222  1  0  0  0
101223  1  0  0  0
102224  1  0  0  0
102225  1  0  0  0
104226  1  0  0  0
104227  1  0  0  0
104228  1  0  0  0
105229  1  0  0  0
106230  1  0  0  0
109231  1  0  0  0
109232  1  0  0  0
112233  1  0  0  0
112234  1  0  0  0
113235  1  0  0  0
114236  1  0  0  0
117237  1  0  0  0
117238  1  0  0  0
118239  1  0  0  0
118240  1  0  0  0
119241  1  0  0  0
119242  1  0  0  0
120243  1  0  0  0
120244  1  0  0  0
121245  1  0  0  0
121246  1  0  0  0
121247  1  0  0  0
122248  1  0  0  0
M  END
$$$$
