### 
### Created by X-TOOL on Mon Sep 10 21:13:30 2018
### 

@<TRIPOS>MOLECULE
2n1g_ligand
  247   248     1     0     0
SMALL
GAST_HUCK


@<TRIPOS>ATOM
      1 N          -7.4020  -22.7820   -1.5870 N.4       1 LYS         0.2379
      2 CA         -7.6090  -21.4790   -0.9600 C.3       1 LYS         0.0650
      3 C          -6.6900  -20.4390   -1.6270 C.2       1 LYS         0.2265
      4 O          -5.5270  -20.2650   -1.2230 O.2       1 LYS        -0.3907
      5 CB         -7.3590  -21.5670    0.5740 C.3       1 LYS         0.0080
      6 CG         -8.2210  -22.6250    1.2950 C.3       1 LYS        -0.0410
      7 CD         -7.8390  -22.8000    2.7810 C.3       1 LYS        -0.0123
      8 CE         -8.6000  -23.9550    3.4480 C.3       1 LYS        -0.0354
      9 NZ         -8.3700  -25.2580    2.7570 N.4       1 LYS         0.2185
     10 N          -7.2120  -19.7950   -2.6890 N.am      1 GLY        -0.2637
     11 CA         -6.4470  -18.8300   -3.4810 C.3       1 GLY         0.1202
     12 C          -5.4090  -19.5070   -4.3750 C.2       1 GLY         0.2009
     13 O          -5.4240  -20.7340   -4.5210 O.2       1 GLY        -0.3947
     14 N          -4.5490  -18.6910   -5.0160 N.am      1 ASN        -0.2618
     15 CA         -3.3730  -19.1400   -5.8150 C.3       1 ASN         0.1476
     16 C          -3.7440  -19.6580   -7.2250 C.2       1 ASN         0.2063
     17 O          -2.9170  -19.5610   -8.1430 O.2       1 ASN        -0.3942
     18 CB         -2.4910  -20.1910   -5.0490 C.3       1 ASN         0.0773
     19 CG         -1.7090  -19.6300   -3.8440 C.2       1 ASN         0.1780
     20 OD1        -0.6520  -20.1530   -3.4940 O.2       1 ASN        -0.3970
     21 ND2        -2.1780  -18.5480   -3.2300 N.am      1 ASN        -0.3007
     22 N          -4.9860  -20.1830   -7.3750 N.am      1 MET        -0.2636
     23 CA         -5.5100  -20.8160   -8.6110 C.3       1 MET         0.1317
     24 C          -4.6040  -21.9800   -9.0790 C.2       1 MET         0.2039
     25 O          -4.8890  -23.1500   -8.8000 O.2       1 MET        -0.3944
     26 CB         -5.7390  -19.7820   -9.7520 C.3       1 MET        -0.0034
     27 CG         -6.6800  -18.6110   -9.4140 C.3       1 MET        -0.0024
     28 SD         -5.9500  -17.4120   -8.2710 S.3       1 MET        -0.1639
     29 CE         -7.1950  -16.1170   -8.2520 C.3       1 MET        -0.0181
     30 N          -3.5020  -21.6380   -9.7810 N.am      1 MET        -0.2637
     31 CA         -2.4550  -22.5870  -10.1900 C.3       1 MET         0.1317
     32 C          -1.0920  -22.0890   -9.6720 C.2       1 MET         0.2040
     33 O          -0.2450  -21.6220  -10.4410 O.2       1 MET        -0.3944
     34 CB         -2.4460  -22.7950  -11.7350 C.3       1 MET        -0.0034
     35 CG         -3.6570  -23.5690  -12.2800 C.3       1 MET        -0.0024
     36 SD         -3.5350  -23.9360  -14.0500 S.3       1 MET        -0.1639
     37 CE         -2.0290  -24.9180  -14.1220 C.3       1 MET        -0.0181
     38 N          -0.9630  -22.1290   -8.3300 N.am      1 SER        -0.2616
     39 CA          0.2920  -21.9020   -7.5880 C.3       1 SER         0.1539
     40 C           0.8840  -20.4910   -7.8280 C.2       1 SER         0.2063
     41 O           1.7170  -20.3060   -8.7310 O.2       1 SER        -0.3943
     42 CB          1.3120  -23.0290   -7.9160 C.3       1 SER         0.0843
     43 OG          2.4030  -23.0330   -7.0120 O.3       1 SER        -0.3903
     44 N           0.3750  -19.5010   -7.0500 N.am      1 ASN        -0.2615
     45 CA          0.8740  -18.0980   -7.0150 C.3       1 ASN         0.1476
     46 C           2.3940  -17.9820   -7.0440 C.2       1 ASN         0.2064
     47 O           3.1100  -18.7750   -6.4310 O.2       1 ASN        -0.3942
     48 CB          0.2880  -17.2870   -5.8120 C.3       1 ASN         0.0773
     49 CG         -0.8910  -16.3950   -6.2140 C.2       1 ASN         0.1780
     50 OD1        -1.5890  -16.6650   -7.1900 O.2       1 ASN        -0.3970
     51 ND2        -1.1470  -15.3510   -5.4470 N.am      1 ASN        -0.3007
     52 N           2.8510  -16.9710   -7.7770 N.am      1 PHE        -0.2618
     53 CA          4.2620  -16.7220   -8.0250 C.3       1 PHE         0.1404
     54 C           4.7400  -15.5510   -7.1390 C.2       1 PHE         0.2061
     55 O           5.8670  -15.5540   -6.6370 O.2       1 PHE        -0.3942
     56 CB          4.4470  -16.4400   -9.5440 C.3       1 PHE         0.0214
     57 CG          5.8650  -16.6550  -10.0620 C.ar      1 PHE        -0.0386
     58 CD1         6.5560  -17.8410   -9.7960 C.ar      1 PHE        -0.0601
     59 CD2         6.5020  -15.6940  -10.8240 C.ar      1 PHE        -0.0601
     60 CE1         7.8370  -18.0310  -10.2790 C.ar      1 PHE        -0.0686
     61 CE2         7.7730  -15.8980  -11.3020 C.ar      1 PHE        -0.0686
     62 CZ          8.4370  -17.0600  -11.0290 C.ar      1 PHE        -0.0687
     63 N           3.8550  -14.5470   -6.9620 N.am      1 PHE        -0.2618
     64 CA          4.0810  -13.3930   -6.0630 C.3       1 PHE         0.1404
     65 C           3.4670  -13.6770   -4.7000 C.2       1 PHE         0.2058
     66 O           4.0880  -13.4480   -3.6690 O.2       1 PHE        -0.3942
     67 CB          3.4490  -12.0920   -6.6370 C.3       1 PHE         0.0214
     68 CG          4.0640  -11.5640   -7.9270 C.ar      1 PHE        -0.0386
     69 CD1         4.9110  -12.3110   -8.7090 C.ar      1 PHE        -0.0601
     70 CD2         3.7490  -10.3100   -8.3650 C.ar      1 PHE        -0.0601
     71 CE1         5.4150  -11.8260   -9.8640 C.ar      1 PHE        -0.0686
     72 CE2         4.2660   -9.8100   -9.5250 C.ar      1 PHE        -0.0686
     73 CZ          5.0970  -10.5690  -10.2750 C.ar      1 PHE        -0.0687
     74 N           2.2140  -14.1440   -4.7240 N.am      1 GLY        -0.2663
     75 CA          1.5030  -14.5240   -3.4980 C.3       1 GLY         0.1201
     76 C           2.1460  -15.6720   -2.6930 C.2       1 GLY         0.2007
     77 O           1.8160  -15.8550   -1.5160 O.2       1 GLY        -0.3947
     78 N           3.0400  -16.4670   -3.3280 N.am      1 LYS        -0.2640
     79 CA          3.8670  -17.4630   -2.6010 C.3       1 LYS         0.1310
     80 C           4.9920  -16.7120   -1.8620 C.2       1 LYS         0.2039
     81 O           5.2950  -17.0010   -0.7030 O.2       1 LYS        -0.3944
     82 CB          4.4390  -18.5320   -3.5840 C.3       1 LYS        -0.0122
     83 CG          4.8990  -19.8830   -2.9530 C.3       1 LYS        -0.0440
     84 CD          6.2130  -19.7910   -2.1320 C.3       1 LYS        -0.0124
     85 CE          6.6340  -21.1220   -1.4850 C.3       1 LYS        -0.0354
     86 NZ          7.8900  -20.9760   -0.6940 N.4       1 LYS         0.2185
     87 N           5.5790  -15.7160   -2.5440 N.am      1 ALA        -0.2640
     88 CA          6.6270  -14.8420   -1.9750 C.3       1 ALA         0.1282
     89 C           6.0100  -13.6310   -1.2260 C.2       1 ALA         0.2036
     90 O           6.6910  -12.6220   -1.0030 O.2       1 ALA        -0.3944
     91 CB          7.5590  -14.3730   -3.1090 C.3       1 ALA        -0.0244
     92 N           4.7190  -13.7530   -0.8250 N.am      1 ALA        -0.2640
     93 CA          3.9720  -12.6860   -0.1230 C.3       1 ALA         0.1282
     94 C           4.5150  -12.4340    1.2920 C.2       1 ALA         0.2036
     95 O           5.4500  -13.1120    1.7420 O.2       1 ALA        -0.3944
     96 CB          2.4730  -13.0270   -0.0710 C.3       1 ALA        -0.0244
     97 N           3.9260  -11.4450    1.9890 N.am      1 MET        -0.2637
     98 CA          4.2930  -11.1210    3.3700 C.3       1 MET         0.1317
     99 C           3.7400  -12.2250    4.3100 C.2       1 MET         0.2040
    100 O           2.6420  -12.1020    4.8730 O.2       1 MET        -0.3944
    101 CB          3.7810   -9.7020    3.7580 C.3       1 MET        -0.0034
    102 CG          4.2130   -9.2060    5.1530 C.3       1 MET        -0.0024
    103 SD          3.6350   -7.5300    5.5190 S.3       1 MET        -0.1639
    104 CE          4.4270   -6.5770    4.2190 C.3       1 MET        -0.0181
    105 N           4.5110  -13.3280    4.4120 N.am      1 ASN        -0.2616
    106 CA          4.0840  -14.5820    5.0620 C.3       1 ASN         0.1475
    107 C           5.3220  -15.4410    5.3950 C.2       1 ASN         0.2057
    108 O           5.9800  -15.9590    4.4850 O.2       1 ASN        -0.3942
    109 CB          3.1110  -15.3640    4.1230 C.3       1 ASN         0.0773
    110 CG          2.6750  -16.7580    4.6260 C.2       1 ASN         0.1780
    111 OD1         2.4680  -17.6690    3.8240 O.2       1 ASN        -0.3970
    112 ND2         2.5030  -16.9390    5.9320 N.am      1 ASN        -0.3007
    113 N           5.6350  -15.5530    6.6990 N.am      1 LYS        -0.2694
    114 CA          6.7320  -16.3980    7.2210 C.3       1 LYS         0.0944
    115 C           6.5400  -16.6200    8.7510 C.2       1 LYS         0.0601
    116 O           6.5890  -17.7830    9.2060 O.co2     1 LYS        -0.5666
    117 CB          8.1420  -15.7980    6.8970 C.3       1 LYS        -0.0177
    118 CG          8.3590  -14.3400    7.3560 C.3       1 LYS        -0.0446
    119 CD          9.7880  -13.8170    7.0750 C.3       1 LYS        -0.0125
    120 CE          9.9820  -12.3600    7.5480 C.3       1 LYS        -0.0354
    121 NZ         11.3790  -11.8900    7.3780 N.4       1 LYS         0.2185
    122 OXT         6.2770  -15.6380    9.4840 O.co2     1 LYS        -0.5666
    123 H1         -8.0031  -23.4638   -1.1512 H         1 LYS         0.2015
    124 H2         -6.4400  -23.0607   -1.4732 H         1 LYS         0.2015
    125 H3         -7.6201  -22.7207   -2.5692 H         1 LYS         0.2015
    126 H4         -8.6534  -21.1734   -1.1207 H         1 LYS         0.1098
    127 H5         -7.5778  -20.5839    1.0163 H         1 LYS         0.0346
    128 H6         -6.2999  -21.8151    0.7374 H         1 LYS         0.0346
    129 H7         -8.0925  -23.5903    0.7836 H         1 LYS         0.0270
    130 H8         -9.2755  -22.3171    1.2376 H         1 LYS         0.0270
    131 H9         -8.0703  -21.8680    3.3175 H         1 LYS         0.0317
    132 H10        -6.7599  -23.0030    2.8470 H         1 LYS         0.0317
    133 H11        -9.6762  -23.7285    3.4270 H         1 LYS         0.0813
    134 H12        -8.2643  -24.0439    4.4917 H         1 LYS         0.0813
    135 H13        -8.8872  -25.9839    3.2278 H         1 LYS         0.1994
    136 H14        -7.3868  -25.4796    2.7761 H         1 LYS         0.1994
    137 H15        -8.6807  -25.1905    1.8005 H         1 LYS         0.1994
    138 H16        -8.1597  -19.9836   -2.9466 H         1 GLY         0.1882
    139 H17        -5.9294  -18.1418   -2.7966 H         1 GLY         0.0763
    140 H18        -7.1433  -18.2617   -4.1152 H         1 GLY         0.0763
    141 H19        -4.7126  -17.7066   -4.9506 H         1 ASN         0.1885
    142 H20        -2.7455  -18.2489   -5.9643 H         1 ASN         0.0826
    143 H21        -1.7655  -20.6114   -5.7609 H         1 ASN         0.0551
    144 H22        -3.1524  -20.9907   -4.6843 H         1 ASN         0.0551
    145 H23        -1.6882  -18.1660   -2.4463 H         1 ASN         0.1814
    146 H24        -3.0206  -18.1162   -3.5518 H         1 ASN         0.1814
    147 H25        -5.5998  -20.1399   -6.5867 H         1 MET         0.1883
    148 H26        -6.4915  -21.2460   -8.3625 H         1 MET         0.0800
    149 H27        -6.1631  -20.3182  -10.6137 H         1 MET         0.0320
    150 H28        -4.7609  -19.3607  -10.0274 H         1 MET         0.0320
    151 H29        -7.5935  -19.0182   -8.9561 H         1 MET         0.0378
    152 H30        -6.9386  -18.0903  -10.3478 H         1 MET         0.0378
    153 H31        -6.8715  -15.3073   -7.5814 H         1 MET         0.0340
    154 H32        -8.1491  -16.5308   -7.8935 H         1 MET         0.0340
    155 H33        -7.3267  -15.7199   -9.2693 H         1 MET         0.0340
    156 H34        -3.3907  -20.6783  -10.0392 H         1 MET         0.1883
    157 H35        -2.6673  -23.5592   -9.7213 H         1 MET         0.0800
    158 H36        -1.5347  -23.3503  -12.0018 H         1 MET         0.0320
    159 H37        -2.4262  -21.8055  -12.2150 H         1 MET         0.0320
    160 H38        -4.5617  -22.9669  -12.1098 H         1 MET         0.0378
    161 H39        -3.7401  -24.5188  -11.7314 H         1 MET         0.0378
    162 H40        -1.8335  -25.2136  -15.1633 H         1 MET         0.0340
    163 H41        -2.1483  -25.8184  -13.5015 H         1 MET         0.0340
    164 H42        -1.1845  -24.3223  -13.7453 H         1 MET         0.0340
    165 H43        -1.7839  -22.3285   -7.7949 H         1 SER         0.1884
    166 H44         0.0562  -21.9718   -6.5158 H         1 SER         0.0823
    167 H45         1.6955  -22.8761   -8.9356 H         1 SER         0.0606
    168 H46         0.7993  -24.0005   -7.8590 H         1 SER         0.0606
    169 H47         3.0024  -23.7327   -7.2438 H         1 SER         0.2097
    170 H48        -0.3945  -19.7319   -6.4545 H         1 ASN         0.1885
    171 H49         0.5051  -17.6182   -7.9335 H         1 ASN         0.0826
    172 H50         1.0836  -16.6513   -5.3962 H         1 ASN         0.0551
    173 H51        -0.0540  -17.9960   -5.0437 H         1 ASN         0.0551
    174 H52        -1.9069  -14.7407   -5.6706 H         1 ASN         0.1814
    175 H53        -0.5809  -15.1707   -4.6426 H         1 ASN         0.1814
    176 H54         2.1847  -16.3447   -8.1817 H         1 PHE         0.1885
    177 H55         4.8421  -17.6182   -7.7600 H         1 PHE         0.0823
    178 H56         4.1670  -15.3936   -9.7352 H         1 PHE         0.0474
    179 H57         3.7734  -17.1075  -10.1013 H         1 PHE         0.0474
    180 H58         6.0832  -18.6179   -9.2061 H         1 PHE         0.0557
    181 H59         5.9904  -14.7649  -11.0478 H         1 PHE         0.0557
    182 H60         8.3662  -18.9519  -10.0623 H         1 PHE         0.0599
    183 H61         8.2527  -15.1316  -11.9001 H         1 PHE         0.0599
    184 H62         9.4412  -17.2117  -11.4080 H         1 PHE         0.0559
    185 H63         2.9941  -14.5853   -7.4693 H         1 PHE         0.1885
    186 H64         5.1645  -13.2419   -5.9482 H         1 PHE         0.0823
    187 H65         3.5434  -11.3064   -5.8729 H         1 PHE         0.0474
    188 H66         2.3843  -12.2911   -6.8286 H         1 PHE         0.0474
    189 H67         5.1807  -13.3119   -8.3919 H         1 PHE         0.0557
    190 H68         3.0734   -9.6979   -7.7786 H         1 PHE         0.0557
    191 H69         6.0751  -12.4403  -10.4656 H         1 PHE         0.0599
    192 H70         4.0109   -8.8061   -9.8447 H         1 PHE         0.0599
    193 H71         5.5075  -10.1776  -11.1988 H         1 PHE         0.0559
    194 H72         1.7478  -14.2370   -5.6038 H         1 GLY         0.1881
    195 H73         0.4850  -14.8333   -3.7773 H         1 GLY         0.0763
    196 H74         1.4517  -13.6392   -2.8465 H         1 GLY         0.0763
    197 H75         3.1465  -16.3803   -4.3185 H         1 LYS         0.1883
    198 H76         3.2377  -17.9771   -1.8596 H         1 LYS         0.0800
    199 H77         5.3075  -18.0878   -4.0923 H         1 LYS         0.0312
    200 H78         3.6571  -18.7579   -4.3239 H         1 LYS         0.0312
    201 H79         5.0509  -20.6086   -3.7657 H         1 LYS         0.0269
    202 H80         4.1008  -20.2411   -2.2862 H         1 LYS         0.0269
    203 H81         6.0725  -19.0466   -1.3344 H         1 LYS         0.0317
    204 H82         7.0194  -19.4612   -2.8035 H         1 LYS         0.0317
    205 H83         6.7958  -21.8682   -2.2768 H         1 LYS         0.0813
    206 H84         5.8297  -21.4643   -0.8173 H         1 LYS         0.0813
    207 H85         8.1352  -21.8645   -0.2858 H         1 LYS         0.1994
    208 H86         7.7492  -20.2974    0.0380 H         1 LYS         0.1994
    209 H87         8.6345  -20.6675   -1.2995 H         1 LYS         0.1994
    210 H88         5.2918  -15.5564   -3.4885 H         1 ALA         0.1883
    211 H89         7.2171  -15.4267   -1.2540 H         1 ALA         0.0797
    212 H90         8.3423  -13.7217   -2.6940 H         1 ALA         0.0277
    213 H91         6.9756  -13.8147   -3.8559 H         1 ALA         0.0277
    214 H92         8.0245  -15.2478   -3.5865 H         1 ALA         0.0277
    215 H93         4.2457  -14.6132   -1.0149 H         1 ALA         0.1883
    216 H94         4.0918  -11.7567   -0.6992 H         1 ALA         0.0797
    217 H95         1.9325  -12.2251    0.4533 H         1 ALA         0.0277
    218 H96         2.3313  -13.9765    0.4660 H         1 ALA         0.0277
    219 H97         2.0831  -13.1232   -1.0951 H         1 ALA         0.0277
    220 H98         3.2077  -10.9087    1.5458 H         1 MET         0.1883
    221 H99         5.3901  -11.1182    3.4497 H         1 MET         0.0800
    222 H100        2.6815   -9.7170    3.7278 H         1 MET         0.0320
    223 H101        4.1586   -8.9881    3.0112 H         1 MET         0.0320
    224 H102        5.3118   -9.2166    5.2039 H         1 MET         0.0378
    225 H103        3.8042   -9.8908    5.9105 H         1 MET         0.0378
    226 H104        4.1551   -5.5164    4.3243 H         1 MET         0.0340
    227 H105        4.0922   -6.9457    3.2382 H         1 MET         0.0340
    228 H106        5.5188   -6.6852    4.2983 H         1 MET         0.0340
    229 H107        5.4311  -13.2932    4.0219 H         1 ASN         0.1885
    230 H108        3.5570  -14.3396    5.9966 H         1 ASN         0.0826
    231 H109        3.6105  -15.4956    3.1519 H         1 ASN         0.0551
    232 H110        2.2055  -14.7538    3.9899 H         1 ASN         0.0551
    233 H111        2.2210  -17.8331    6.2800 H         1 ASN         0.1814
    234 H112        2.6556  -16.1810    6.5662 H         1 ASN         0.1814
    235 H113        5.0916  -15.0320    7.3573 H         1 LYS         0.1875
    236 H114        6.6682  -17.3780    6.7255 H         1 LYS         0.0726
    237 H115        8.2855  -15.8362    5.8071 H         1 LYS         0.0305
    238 H116        8.8998  -16.4256    7.3888 H         1 LYS         0.0305
    239 H117        8.1729  -14.2832    8.4387 H         1 LYS         0.0269
    240 H118        7.6411  -13.6965    6.8263 H         1 LYS         0.0269
    241 H119        9.9760  -13.8654    5.9923 H         1 LYS         0.0317
    242 H120       10.5096  -14.4589    7.6015 H         1 LYS         0.0317
    243 H121        9.7153  -12.2962    8.6133 H         1 LYS         0.0813
    244 H122        9.3165  -11.7076    6.9637 H         1 LYS         0.0813
    245 H123       11.4546  -10.9377    7.6996 H         1 LYS         0.1994
    246 H124       11.6331  -11.9368    6.4037 H         1 LYS         0.1994
    247 H125       11.9985  -12.4762    7.9153 H         1 LYS         0.1994
@<TRIPOS>BOND
     1    1    2 1  
     2    2    3 1  
     3    2    5 1  
     4    3    4 2  
     5    3   10 am 
     6    5    6 1  
     7    6    7 1  
     8    7    8 1  
     9    8    9 1  
    10   10   11 1  
    11   11   12 1  
    12   12   13 2  
    13   12   14 am 
    14   14   15 1  
    15   15   16 1  
    16   15   18 1  
    17   16   17 2  
    18   16   22 am 
    19   18   19 1  
    20   19   20 2  
    21   19   21 am 
    22   22   23 1  
    23   23   24 1  
    24   23   26 1  
    25   24   25 2  
    26   24   30 am 
    27   26   27 1  
    28   27   28 1  
    29   28   29 1  
    30   30   31 1  
    31   31   32 1  
    32   31   34 1  
    33   32   33 2  
    34   32   38 am 
    35   34   35 1  
    36   35   36 1  
    37   36   37 1  
    38   38   39 1  
    39   39   40 1  
    40   39   42 1  
    41   40   41 2  
    42   40   44 am 
    43   42   43 1  
    44   44   45 1  
    45   45   46 1  
    46   45   48 1  
    47   46   47 2  
    48   46   52 am 
    49   48   49 1  
    50   49   50 2  
    51   49   51 am 
    52   52   53 1  
    53   53   54 1  
    54   53   56 1  
    55   54   55 2  
    56   54   63 am 
    57   56   57 1  
    58   57   58 ar 
    59   57   59 ar 
    60   58   60 ar 
    61   59   61 ar 
    62   60   62 ar 
    63   61   62 ar 
    64   63   64 1  
    65   64   65 1  
    66   64   67 1  
    67   65   66 2  
    68   65   74 am 
    69   67   68 1  
    70   68   69 ar 
    71   68   70 ar 
    72   69   71 ar 
    73   70   72 ar 
    74   71   73 ar 
    75   72   73 ar 
    76   74   75 1  
    77   75   76 1  
    78   76   77 2  
    79   76   78 am 
    80   78   79 1  
    81   79   80 1  
    82   79   82 1  
    83   80   81 2  
    84   80   87 am 
    85   82   83 1  
    86   83   84 1  
    87   84   85 1  
    88   85   86 1  
    89   87   88 1  
    90   88   89 1  
    91   88   91 1  
    92   89   90 2  
    93   89   92 am 
    94   92   93 1  
    95   93   94 1  
    96   93   96 1  
    97   94   95 2  
    98   94   97 am 
    99   97   98 1  
   100   98   99 1  
   101   98  101 1  
   102   99  100 2  
   103   99  105 am 
   104  101  102 1  
   105  102  103 1  
   106  103  104 1  
   107  105  106 1  
   108  106  107 1  
   109  106  109 1  
   110  107  108 2  
   111  107  113 am 
   112  109  110 1  
   113  110  111 2  
   114  110  112 am 
   115  113  114 1  
   116  114  115 1  
   117  114  117 1  
   118  115  116 ar 
   119  115  122 ar 
   120  117  118 1  
   121  118  119 1  
   122  119  120 1  
   123  120  121 1  
   124    1  123 1  
   125    1  124 1  
   126    1  125 1  
   127    2  126 1  
   128    5  127 1  
   129    5  128 1  
   130    6  129 1  
   131    6  130 1  
   132    7  131 1  
   133    7  132 1  
   134    8  133 1  
   135    8  134 1  
   136    9  135 1  
   137    9  136 1  
   138    9  137 1  
   139   10  138 1  
   140   11  139 1  
   141   11  140 1  
   142   14  141 1  
   143   15  142 1  
   144   18  143 1  
   145   18  144 1  
   146   21  145 1  
   147   21  146 1  
   148   22  147 1  
   149   23  148 1  
   150   26  149 1  
   151   26  150 1  
   152   27  151 1  
   153   27  152 1  
   154   29  153 1  
   155   29  154 1  
   156   29  155 1  
   157   30  156 1  
   158   31  157 1  
   159   34  158 1  
   160   34  159 1  
   161   35  160 1  
   162   35  161 1  
   163   37  162 1  
   164   37  163 1  
   165   37  164 1  
   166   38  165 1  
   167   39  166 1  
   168   42  167 1  
   169   42  168 1  
   170   43  169 1  
   171   44  170 1  
   172   45  171 1  
   173   48  172 1  
   174   48  173 1  
   175   51  174 1  
   176   51  175 1  
   177   52  176 1  
   178   53  177 1  
   179   56  178 1  
   180   56  179 1  
   181   58  180 1  
   182   59  181 1  
   183   60  182 1  
   184   61  183 1  
   185   62  184 1  
   186   63  185 1  
   187   64  186 1  
   188   67  187 1  
   189   67  188 1  
   190   69  189 1  
   191   70  190 1  
   192   71  191 1  
   193   72  192 1  
   194   73  193 1  
   195   74  194 1  
   196   75  195 1  
   197   75  196 1  
   198   78  197 1  
   199   79  198 1  
   200   82  199 1  
   201   82  200 1  
   202   83  201 1  
   203   83  202 1  
   204   84  203 1  
   205   84  204 1  
   206   85  205 1  
   207   85  206 1  
   208   86  207 1  
   209   86  208 1  
   210   86  209 1  
   211   87  210 1  
   212   88  211 1  
   213   91  212 1  
   214   91  213 1  
   215   91  214 1  
   216   92  215 1  
   217   93  216 1  
   218   96  217 1  
   219   96  218 1  
   220   96  219 1  
   221   97  220 1  
   222   98  221 1  
   223  101  222 1  
   224  101  223 1  
   225  102  224 1  
   226  102  225 1  
   227  104  226 1  
   228  104  227 1  
   229  104  228 1  
   230  105  229 1  
   231  106  230 1  
   232  109  231 1  
   233  109  232 1  
   234  112  233 1  
   235  112  234 1  
   236  113  235 1  
   237  114  236 1  
   238  117  237 1  
   239  117  238 1  
   240  118  239 1  
   241  118  240 1  
   242  119  241 1  
   243  119  242 1  
   244  120  243 1  
   245  120  244 1  
   246  121  245 1  
   247  121  246 1  
   248  121  247 1  
@<TRIPOS>SUBSTRUCTURE
     1 LYS         1

