### 
### Created by X-TOOL on Mon Sep 10 21:12:45 2018
### 

@<TRIPOS>MOLECULE
1mik_ligand
  200   200     1     0     0
SMALL
GAST_HUCK


@<TRIPOS>ATOM
      1 N           5.2230   34.7960   19.6180 N.am      1 BMT        -0.2503
      2 CN          4.6420   36.1740   19.7570 C.3       1 BMT         0.0255
      3 CA          6.4490   34.6830   18.8150 C.3       1 BMT         0.1594
      4 C           7.6700   35.4780   19.3440 C.2       1 BMT         0.2067
      5 O           7.6040   36.1030   20.4030 O.2       1 BMT        -0.3943
      6 CB          6.2090   35.0270   17.3290 C.3       1 BMT         0.0994
      7 OG1         6.0170   36.4390   17.2010 O.3       1 BMT        -0.3867
      8 CG2         4.9880   34.2830   16.7320 C.3       1 BMT        -0.0069
      9 CD1         5.1140   32.7520   16.9180 C.3       1 BMT        -0.0583
     10 CD2         4.8670   34.6170   15.2350 C.3       1 BMT        -0.0313
     11 CE          6.0540   34.1690   14.3740 C.2       1 BMT        -0.0986
     12 CZ          6.7270   35.0620   13.6440 C.2       1 BMT        -0.1017
     13 CH          7.8910   34.6010   12.7990 C.3       1 BMT        -0.0486
     14 N           8.8190   35.2840   18.6960 N.am      1 AA4        -0.2636
     15 CA         10.0770   35.9290   19.0920 C.3       1 AA4         0.1312
     16 CB         11.1670   34.8750   19.3310 C.3       1 AA4        -0.0103
     17 CG         10.7790   33.7180   20.2320 C.3       1 AA4        -0.0255
     18 CD         11.8350   32.6220   20.2050 C.3       1 AA4         0.0444
     19 OG         13.1010   33.0490   20.6740 O.3       1 AA4        -0.3950
     20 C          10.5610   36.8430   17.9670 C.2       1 AA4         0.2059
     21 O          11.3700   36.4030   17.1520 O.2       1 AA4        -0.3942
     22 N          10.2300   38.1280   17.9980 N.am      1 SAR        -0.2556
     23 CA         10.6900   38.9890   16.9130 C.3       1 SAR         0.1227
     24 C           9.5450   39.7030   16.2070 C.2       1 SAR         0.2032
     25 O           9.5220   40.9400   16.2360 O.2       1 SAR        -0.3945
     26 CN          9.2890   38.8380   18.9440 C.3       1 SAR         0.0252
     27 N           8.8180   38.9980   15.3320 N.am      1 MLE        -0.2531
     28 CN          9.0770   37.5910   14.8770 C.3       1 MLE         0.0254
     29 CA          7.6690   39.6140   14.6520 C.3       1 MLE         0.1336
     30 CB          7.6170   39.2430   13.1620 C.3       1 MLE        -0.0099
     31 CG          8.2030   40.1980   12.1200 C.3       1 MLE        -0.0425
     32 CD1         7.6520   41.6300   12.3140 C.3       1 MLE        -0.0625
     33 CD2         9.7180   40.1750   12.2230 C.3       1 MLE        -0.0625
     34 C           6.3570   39.1650   15.3160 C.2       1 MLE         0.2041
     35 O           5.8490   38.0770   15.0210 O.2       1 MLE        -0.3944
     36 N           5.8270   39.9930   16.2160 N.am      1 VAL        -0.2635
     37 CA          4.5820   39.6790   16.9160 C.3       1 VAL         0.1334
     38 C           3.4250   39.8840   15.9390 C.2       1 VAL         0.2064
     39 O           3.3150   40.9640   15.3350 O.2       1 VAL        -0.3942
     40 CB          4.3920   40.6000   18.1230 C.3       1 VAL        -0.0062
     41 CG1         3.1430   40.1980   18.8900 C.3       1 VAL        -0.0584
     42 CG2         5.6020   40.5420   19.0030 C.3       1 VAL        -0.0584
     43 N           2.6330   38.8360   15.6970 N.am      1 MLE        -0.2529
     44 CN          2.5390   37.5910   16.5310 C.3       1 MLE         0.0254
     45 CA          1.5380   38.9610   14.7360 C.3       1 MLE         0.1336
     46 CB          1.4490   37.7310   13.8120 C.3       1 MLE        -0.0099
     47 CG          2.7270   37.2280   13.1170 C.3       1 MLE        -0.0425
     48 CD1         2.4020   36.0070   12.2600 C.3       1 MLE        -0.0625
     49 CD2         3.3810   38.3190   12.2940 C.3       1 MLE        -0.0625
     50 C           0.1930   39.2210   15.4040 C.2       1 MLE         0.2041
     51 O           0.1400   39.5360   16.5950 O.2       1 MLE        -0.3944
     52 N          -0.7770   39.5200   14.5480 N.am      1 ALA        -0.2640
     53 CA         -2.1360   39.7920   14.9890 C.3       1 ALA         0.1282
     54 C          -2.7080   38.5650   15.6840 C.2       1 ALA         0.2036
     55 O          -2.4750   37.4370   15.2320 O.2       1 ALA        -0.3944
     56 CB         -3.0180   40.1610   13.7740 C.3       1 ALA        -0.0244
     57 N          -3.7510   38.8280   16.4650 N.am      1 DAL        -0.2640
     58 CA         -4.4600   37.7830   17.1800 C.3       1 DAL         0.1284
     59 CB         -5.9150   38.1910   17.3850 C.3       1 DAL        -0.0244
     60 C          -3.8040   37.5150   18.5130 C.2       1 DAL         0.2059
     61 O          -3.4170   38.4460   19.2100 O.2       1 DAL        -0.3942
     62 N          -3.6370   36.2430   18.8410 N.am      1 MLE        -0.2529
     63 CN         -4.0740   35.0450   18.0280 C.3       1 MLE         0.0254
     64 CA         -3.0320   35.9080   20.1180 C.3       1 MLE         0.1338
     65 CB         -4.0930   35.3520   21.0750 C.3       1 MLE        -0.0099
     66 CG         -5.2140   36.3140   21.4750 C.3       1 MLE        -0.0425
     67 CD1        -6.2380   35.5760   22.2920 C.3       1 MLE        -0.0625
     68 CD2        -4.6480   37.4920   22.2550 C.3       1 MLE        -0.0625
     69 C          -1.9140   34.9100   19.9450 C.2       1 MLE         0.2064
     70 O          -2.0640   33.7460   20.2960 O.2       1 MLE        -0.3942
     71 N          -0.7640   35.3650   19.4690 N.am      1 MLE        -0.2529
     72 CN         -0.5390   36.7780   19.0100 C.3       1 MLE         0.0254
     73 CA          0.3370   34.4200   19.2860 C.3       1 MLE         0.1338
     74 CB          0.8240   34.4390   17.8340 C.3       1 MLE        -0.0099
     75 CG         -0.1100   33.9550   16.7140 C.3       1 MLE        -0.0425
     76 CD1         0.7290   33.9500   15.4480 C.3       1 MLE        -0.0625
     77 CD2        -0.6730   32.5680   16.9410 C.3       1 MLE        -0.0625
     78 C           1.4950   34.7110   20.2310 C.2       1 MLE         0.2064
     79 O           1.4070   35.6550   21.0220 O.2       1 MLE        -0.3942
     80 N           2.3990   33.7380   20.3760 N.am      1 MVA        -0.2526
     81 CN          2.2560   32.2960   19.8770 C.3       1 MVA         0.0254
     82 CA          3.5730   33.9620   21.2360 C.3       1 MVA         0.1359
     83 CB          3.5910   33.0140   22.4970 C.3       1 MVA        -0.0061
     84 CG1         4.6790   33.4730   23.4790 C.3       1 MVA        -0.0584
     85 CG2         2.2120   33.0250   23.2220 C.3       1 MVA        -0.0584
     86 C           4.8700   33.7910   20.4230 C.2       1 MVA         0.2067
     87 O           5.4600   32.7050   20.4180 O.2       1 MVA        -0.3942
     88 H1          5.0765   36.8340   18.9918 H         1 BMT         0.0488
     89 H2          4.8729   36.5702   20.7569 H         1 BMT         0.0488
     90 H3          3.5511   36.1271   19.6241 H         1 BMT         0.0488
     91 H4          6.7338   33.6212   18.8544 H         1 BMT         0.0828
     92 H5          7.1026   34.7348   16.7581 H         1 BMT         0.0646
     93 H6          5.8689   36.6558   16.2880 H         1 BMT         0.2101
     94 H7          4.0798   34.6255   17.2494 H         1 BMT         0.0345
     95 H8          4.2331   32.2562   16.4841 H         1 BMT         0.0235
     96 H9          5.1758   32.5168   17.9908 H         1 BMT         0.0235
     97 H10         6.0226   32.3946   16.4113 H         1 BMT         0.0235
     98 H11         4.7657   35.7078   15.1357 H         1 BMT         0.0391
     99 H12         3.9609   34.1278   14.8482 H         1 BMT         0.0391
    100 H13         6.3487   33.1208   14.3578 H         1 BMT         0.0450
    101 H14         6.4394   36.1123   13.6578 H         1 BMT         0.0447
    102 H15         8.3238   35.4627   12.2697 H         1 BMT         0.0353
    103 H16         7.5411   33.8588   12.0664 H         1 BMT         0.0353
    104 H17         8.6559   34.1459   13.4454 H         1 BMT         0.0353
    105 H18         8.8241   34.6720   17.9052 H         1 AA4         0.1883
    106 H19         9.9154   36.5141   20.0093 H         1 AA4         0.0800
    107 H20        12.0321   35.3807   19.7846 H         1 AA4         0.0313
    108 H21        11.4555   34.4601   18.3540 H         1 AA4         0.0313
    109 H22         9.8206   33.3014   19.8887 H         1 AA4         0.0289
    110 H23        10.6705   34.0865   21.2627 H         1 AA4         0.0289
    111 H24        11.9473   32.2715   19.1684 H         1 AA4         0.0557
    112 H25        11.4910   31.7907   20.8379 H         1 AA4         0.0557
    113 H26        13.7137   32.3242   20.6327 H         1 AA4         0.2094
    114 H27        11.2276   38.3724   16.1776 H         1 SAR         0.0765
    115 H28        11.3736   39.7442   17.3281 H         1 SAR         0.0765
    116 H29         8.9755   38.1446   19.7383 H         1 SAR         0.0488
    117 H30         8.4043   39.1846   18.3897 H         1 SAR         0.0488
    118 H31         9.8023   39.7014   19.3925 H         1 SAR         0.0488
    119 H32         9.9441   37.1844   15.4181 H         1 MLE         0.0488
    120 H33         9.2843   37.5872   13.7967 H         1 MLE         0.0488
    121 H34         8.1925   36.9704   15.0828 H         1 MLE         0.0488
    122 H35         7.7595   40.7067   14.7397 H         1 MLE         0.0802
    123 H36         6.5566   39.1033   12.9053 H         1 MLE         0.0315
    124 H37         8.1497   38.2868   13.0530 H         1 MLE         0.0315
    125 H38         7.9129   39.8488   11.1181 H         1 MLE         0.0298
    126 H39         8.0872   42.2963   11.5546 H         1 MLE         0.0232
    127 H40         7.9198   41.9932   13.3172 H         1 MLE         0.0232
    128 H41         6.5572   41.6191   12.2081 H         1 MLE         0.0232
    129 H42        10.0795   39.1458   12.0811 H         1 MLE         0.0232
    130 H43        10.0236   40.5374   13.2156 H         1 MLE         0.0232
    131 H44        10.1482   40.8250   11.4468 H         1 MLE         0.0232
    132 H45         6.2941   40.8537   16.4184 H         1 VAL         0.1883
    133 H46         4.6038   38.6330   17.2558 H         1 VAL         0.0803
    134 H47         4.2671   41.6327   17.7653 H         1 VAL         0.0343
    135 H48         3.0138   40.8645   19.7555 H         1 VAL         0.0234
    136 H49         3.2452   39.1598   19.2389 H         1 VAL         0.0234
    137 H50         2.2660   40.2788   18.2309 H         1 VAL         0.0234
    138 H51         6.4902   40.8369   18.4250 H         1 VAL         0.0234
    139 H52         5.7331   39.5166   19.3791 H         1 VAL         0.0234
    140 H53         5.4717   41.2299   19.8514 H         1 VAL         0.0234
    141 H54         3.3865   37.5539   17.2312 H         1 MLE         0.0488
    142 H55         2.5659   36.7078   15.8758 H         1 MLE         0.0488
    143 H56         1.5958   37.5991   17.0970 H         1 MLE         0.0488
    144 H57         1.7625   39.8331   14.1044 H         1 MLE         0.0802
    145 H58         0.7253   37.9740   13.0200 H         1 MLE         0.0315
    146 H59         1.0628   36.8988   14.4188 H         1 MLE         0.0315
    147 H60         3.4408   36.9205   13.8954 H         1 MLE         0.0298
    148 H61         3.3182   35.6516   11.7657 H         1 MLE         0.0232
    149 H62         1.6573   36.2813   11.4983 H         1 MLE         0.0232
    150 H63         1.9964   35.2083   12.8984 H         1 MLE         0.0232
    151 H64         3.6018   39.1823   12.9390 H         1 MLE         0.0232
    152 H65         2.6997   38.6285   11.4878 H         1 MLE         0.0232
    153 H66         4.3163   37.9385   11.8578 H         1 MLE         0.0232
    154 H67        -0.5669   39.5593   13.5711 H         1 ALA         0.1883
    155 H68        -2.1240   40.6348   15.6958 H         1 ALA         0.0797
    156 H69        -4.0439   40.3654   14.1143 H         1 ALA         0.0277
    157 H70        -3.0283   39.3238   13.0606 H         1 ALA         0.0277
    158 H71        -2.6094   41.0564   13.2827 H         1 ALA         0.0277
    159 H72        -4.0565   39.7752   16.5629 H         1 DAL         0.1883
    160 H73        -4.4304   36.8613   16.5804 H         1 DAL         0.0797
    161 H74        -6.4461   37.3948   17.9272 H         1 DAL         0.0277
    162 H75        -6.3926   38.3500   16.4069 H         1 DAL         0.0277
    163 H76        -5.9559   39.1224   17.9688 H         1 DAL         0.0277
    164 H77        -4.5189   35.3866   17.0817 H         1 MLE         0.0488
    165 H78        -4.8187   34.4682   18.5961 H         1 MLE         0.0488
    166 H79        -3.2023   34.4089   17.8147 H         1 MLE         0.0488
    167 H80        -2.6127   36.8263   20.5549 H         1 MLE         0.0802
    168 H81        -3.5809   35.0328   21.9947 H         1 MLE         0.0315
    169 H82        -4.5565   34.4794   20.5916 H         1 MLE         0.0315
    170 H83        -5.6967   36.6964   20.5635 H         1 MLE         0.0298
    171 H84        -7.0443   36.2666   22.5800 H         1 MLE         0.0232
    172 H85        -5.7621   35.1703   23.1969 H         1 MLE         0.0232
    173 H86        -6.6569   34.7513   21.6968 H         1 MLE         0.0232
    174 H87        -3.9025   38.0157   21.6385 H         1 MLE         0.0232
    175 H88        -4.1705   37.1265   23.1761 H         1 MLE         0.0232
    176 H89        -5.4618   38.1853   22.5140 H         1 MLE         0.0232
    177 H90        -1.4415   37.3754   19.2065 H         1 MLE         0.0488
    178 H91        -0.3235   36.7832   17.9313 H         1 MLE         0.0488
    179 H92         0.3126   37.2098   19.5562 H         1 MLE         0.0488
    180 H93        -0.0405   33.4115   19.5105 H         1 MLE         0.0802
    181 H94         1.7261   33.8110   17.7913 H         1 MLE         0.0315
    182 H95         1.0906   35.4802   17.6000 H         1 MLE         0.0315
    183 H96        -0.9477   34.6605   16.6114 H         1 MLE         0.0298
    184 H97         0.1138   33.6102   14.6018 H         1 MLE         0.0232
    185 H98         1.5833   33.2691   15.5769 H         1 MLE         0.0232
    186 H99         1.0975   34.9670   15.2483 H         1 MLE         0.0232
    187 H100       -1.2820   32.5649   17.8570 H         1 MLE         0.0232
    188 H101        0.1533   31.8498   17.0477 H         1 MLE         0.0232
    189 H102       -1.2994   32.2816   16.0833 H         1 MLE         0.0232
    190 H103        1.3594   32.2139   19.2450 H         1 MVA         0.0488
    191 H104        2.1611   31.6178   20.7378 H         1 MVA         0.0488
    192 H105        3.1447   32.0213   19.2899 H         1 MVA         0.0488
    193 H106        3.5293   34.9998   21.5981 H         1 MVA         0.0804
    194 H107        3.8123   31.9885   22.1664 H         1 MVA         0.0343
    195 H108        4.6861   32.8082   24.3553 H         1 MVA         0.0234
    196 H109        4.4701   34.5035   23.8023 H         1 MVA         0.0234
    197 H110        5.6600   33.4361   22.9828 H         1 MVA         0.0234
    198 H111        1.4280   32.6970   22.5236 H         1 MVA         0.0234
    199 H112        1.9893   34.0441   23.5709 H         1 MVA         0.0234
    200 H113        2.2451   32.3416   24.0833 H         1 MVA         0.0234
@<TRIPOS>BOND
     1    1    2 1  
     2    1    3 1  
     3    1   86 am 
     4    3    4 1  
     5    3    6 1  
     6    4    5 2  
     7    4   14 am 
     8    6    7 1  
     9    6    8 1  
    10    8    9 1  
    11    8   10 1  
    12   10   11 1  
    13   11   12 2  
    14   12   13 1  
    15   14   15 1  
    16   15   16 1  
    17   15   20 1  
    18   16   17 1  
    19   17   18 1  
    20   18   19 1  
    21   20   21 2  
    22   20   22 am 
    23   22   23 1  
    24   22   26 1  
    25   23   24 1  
    26   24   25 2  
    27   24   27 am 
    28   27   28 1  
    29   27   29 1  
    30   29   30 1  
    31   29   34 1  
    32   30   31 1  
    33   31   32 1  
    34   31   33 1  
    35   34   35 2  
    36   34   36 am 
    37   36   37 1  
    38   37   38 1  
    39   37   40 1  
    40   38   39 2  
    41   38   43 am 
    42   40   41 1  
    43   40   42 1  
    44   43   44 1  
    45   43   45 1  
    46   45   46 1  
    47   45   50 1  
    48   46   47 1  
    49   47   48 1  
    50   47   49 1  
    51   50   51 2  
    52   50   52 am 
    53   52   53 1  
    54   53   54 1  
    55   53   56 1  
    56   54   55 2  
    57   54   57 am 
    58   57   58 1  
    59   58   59 1  
    60   58   60 1  
    61   60   61 2  
    62   60   62 am 
    63   62   63 1  
    64   62   64 1  
    65   64   65 1  
    66   64   69 1  
    67   65   66 1  
    68   66   67 1  
    69   66   68 1  
    70   69   70 2  
    71   69   71 am 
    72   71   72 1  
    73   71   73 1  
    74   73   74 1  
    75   73   78 1  
    76   74   75 1  
    77   75   76 1  
    78   75   77 1  
    79   78   79 2  
    80   78   80 am 
    81   80   81 1  
    82   80   82 1  
    83   82   83 1  
    84   82   86 1  
    85   83   84 1  
    86   83   85 1  
    87   86   87 2  
    88    2   88 1  
    89    2   89 1  
    90    2   90 1  
    91    3   91 1  
    92    6   92 1  
    93    7   93 1  
    94    8   94 1  
    95    9   95 1  
    96    9   96 1  
    97    9   97 1  
    98   10   98 1  
    99   10   99 1  
   100   11  100 1  
   101   12  101 1  
   102   13  102 1  
   103   13  103 1  
   104   13  104 1  
   105   14  105 1  
   106   15  106 1  
   107   16  107 1  
   108   16  108 1  
   109   17  109 1  
   110   17  110 1  
   111   18  111 1  
   112   18  112 1  
   113   19  113 1  
   114   23  114 1  
   115   23  115 1  
   116   26  116 1  
   117   26  117 1  
   118   26  118 1  
   119   28  119 1  
   120   28  120 1  
   121   28  121 1  
   122   29  122 1  
   123   30  123 1  
   124   30  124 1  
   125   31  125 1  
   126   32  126 1  
   127   32  127 1  
   128   32  128 1  
   129   33  129 1  
   130   33  130 1  
   131   33  131 1  
   132   36  132 1  
   133   37  133 1  
   134   40  134 1  
   135   41  135 1  
   136   41  136 1  
   137   41  137 1  
   138   42  138 1  
   139   42  139 1  
   140   42  140 1  
   141   44  141 1  
   142   44  142 1  
   143   44  143 1  
   144   45  144 1  
   145   46  145 1  
   146   46  146 1  
   147   47  147 1  
   148   48  148 1  
   149   48  149 1  
   150   48  150 1  
   151   49  151 1  
   152   49  152 1  
   153   49  153 1  
   154   52  154 1  
   155   53  155 1  
   156   56  156 1  
   157   56  157 1  
   158   56  158 1  
   159   57  159 1  
   160   58  160 1  
   161   59  161 1  
   162   59  162 1  
   163   59  163 1  
   164   63  164 1  
   165   63  165 1  
   166   63  166 1  
   167   64  167 1  
   168   65  168 1  
   169   65  169 1  
   170   66  170 1  
   171   67  171 1  
   172   67  172 1  
   173   67  173 1  
   174   68  174 1  
   175   68  175 1  
   176   68  176 1  
   177   72  177 1  
   178   72  178 1  
   179   72  179 1  
   180   73  180 1  
   181   74  181 1  
   182   74  182 1  
   183   75  183 1  
   184   76  184 1  
   185   76  185 1  
   186   76  186 1  
   187   77  187 1  
   188   77  188 1  
   189   77  189 1  
   190   81  190 1  
   191   81  191 1  
   192   81  192 1  
   193   82  193 1  
   194   83  194 1  
   195   84  195 1  
   196   84  196 1  
   197   84  197 1  
   198   85  198 1  
   199   85  199 1  
   200   85  200 1  
@<TRIPOS>SUBSTRUCTURE
     1 BMT         1

