1mik_ligand
  -I-interpret- 

200200  0  0  0  0  0  0  0  0999 V2000
    5.2230   34.7960   19.6180 N   0  0  0  0  0
    4.6420   36.1740   19.7570 C   0  0  0  0  0
    6.4490   34.6830   18.8150 C   0  0  0  0  0
    7.6700   35.4780   19.3440 C   0  0  0  0  0
    7.6040   36.1030   20.4030 O   0  0  0  0  0
    6.2090   35.0270   17.3290 C   0  0  0  0  0
    6.0170   36.4390   17.2010 O   0  0  0  0  0
    4.9880   34.2830   16.7320 C   0  0  0  0  0
    5.1140   32.7520   16.9180 C   0  0  0  0  0
    4.8670   34.6170   15.2350 C   0  0  0  0  0
    6.0540   34.1690   14.3740 C   0  0  0  0  0
    6.7270   35.0620   13.6440 C   0  0  0  0  0
    7.8910   34.6010   12.7990 C   0  0  0  0  0
    8.8190   35.2840   18.6960 N   0  0  0  0  0
   10.0770   35.9290   19.0920 C   0  0  0  0  0
   11.1670   34.8750   19.3310 C   0  0  0  0  0
   10.7790   33.7180   20.2320 C   0  0  0  0  0
   11.8350   32.6220   20.2050 C   0  0  0  0  0
   13.1010   33.0490   20.6740 O   0  0  0  0  0
   10.5610   36.8430   17.9670 C   0  0  0  0  0
   11.3700   36.4030   17.1520 O   0  0  0  0  0
   10.2300   38.1280   17.9980 N   0  0  0  0  0
   10.6900   38.9890   16.9130 C   0  0  0  0  0
    9.5450   39.7030   16.2070 C   0  0  0  0  0
    9.5220   40.9400   16.2360 O   0  0  0  0  0
    9.2890   38.8380   18.9440 C   0  0  0  0  0
    8.8180   38.9980   15.3320 N   0  0  0  0  0
    9.0770   37.5910   14.8770 C   0  0  0  0  0
    7.6690   39.6140   14.6520 C   0  0  0  0  0
    7.6170   39.2430   13.1620 C   0  0  0  0  0
    8.2030   40.1980   12.1200 C   0  0  0  0  0
    7.6520   41.6300   12.3140 C   0  0  0  0  0
    9.7180   40.1750   12.2230 C   0  0  0  0  0
    6.3570   39.1650   15.3160 C   0  0  0  0  0
    5.8490   38.0770   15.0210 O   0  0  0  0  0
    5.8270   39.9930   16.2160 N   0  0  0  0  0
    4.5820   39.6790   16.9160 C   0  0  0  0  0
    3.4250   39.8840   15.9390 C   0  0  0  0  0
    3.3150   40.9640   15.3350 O   0  0  0  0  0
    4.3920   40.6000   18.1230 C   0  0  0  0  0
    3.1430   40.1980   18.8900 C   0  0  0  0  0
    5.6020   40.5420   19.0030 C   0  0  0  0  0
    2.6330   38.8360   15.6970 N   0  0  0  0  0
    2.5390   37.5910   16.5310 C   0  0  0  0  0
    1.5380   38.9610   14.7360 C   0  0  0  0  0
    1.4490   37.7310   13.8120 C   0  0  0  0  0
    2.7270   37.2280   13.1170 C   0  0  0  0  0
    2.4020   36.0070   12.2600 C   0  0  0  0  0
    3.3810   38.3190   12.2940 C   0  0  0  0  0
    0.1930   39.2210   15.4040 C   0  0  0  0  0
    0.1400   39.5360   16.5950 O   0  0  0  0  0
   -0.7770   39.5200   14.5480 N   0  0  0  0  0
   -2.1360   39.7920   14.9890 C   0  0  0  0  0
   -2.7080   38.5650   15.6840 C   0  0  0  0  0
   -2.4750   37.4370   15.2320 O   0  0  0  0  0
   -3.0180   40.1610   13.7740 C   0  0  0  0  0
   -3.7510   38.8280   16.4650 N   0  0  0  0  0
   -4.4600   37.7830   17.1800 C   0  0  0  0  0
   -5.9150   38.1910   17.3850 C   0  0  0  0  0
   -3.8040   37.5150   18.5130 C   0  0  0  0  0
   -3.4170   38.4460   19.2100 O   0  0  0  0  0
   -3.6370   36.2430   18.8410 N   0  0  0  0  0
   -4.0740   35.0450   18.0280 C   0  0  0  0  0
   -3.0320   35.9080   20.1180 C   0  0  0  0  0
   -4.0930   35.3520   21.0750 C   0  0  0  0  0
   -5.2140   36.3140   21.4750 C   0  0  0  0  0
   -6.2380   35.5760   22.2920 C   0  0  0  0  0
   -4.6480   37.4920   22.2550 C   0  0  0  0  0
   -1.9140   34.9100   19.9450 C   0  0  0  0  0
   -2.0640   33.7460   20.2960 O   0  0  0  0  0
   -0.7640   35.3650   19.4690 N   0  0  0  0  0
   -0.5390   36.7780   19.0100 C   0  0  0  0  0
    0.3370   34.4200   19.2860 C   0  0  0  0  0
    0.8240   34.4390   17.8340 C   0  0  0  0  0
   -0.1100   33.9550   16.7140 C   0  0  0  0  0
    0.7290   33.9500   15.4480 C   0  0  0  0  0
   -0.6730   32.5680   16.9410 C   0  0  0  0  0
    1.4950   34.7110   20.2310 C   0  0  0  0  0
    1.4070   35.6550   21.0220 O   0  0  0  0  0
    2.3990   33.7380   20.3760 N   0  0  0  0  0
    2.2560   32.2960   19.8770 C   0  0  0  0  0
    3.5730   33.9620   21.2360 C   0  0  0  0  0
    3.5910   33.0140   22.4970 C   0  0  0  0  0
    4.6790   33.4730   23.4790 C   0  0  0  0  0
    2.2120   33.0250   23.2220 C   0  0  0  0  0
    4.8700   33.7910   20.4230 C   0  0  0  0  0
    5.4600   32.7050   20.4180 O   0  0  0  0  0
    3.5611   36.1262   19.6251 H   0  0  0  0  0
    4.8714   36.5654   20.7481 H   0  0  0  0  0
    5.0733   36.8270   18.9983 H   0  0  0  0  0
    6.7107   33.6293   18.9120 H   0  0  0  0  0
    7.0869   34.7019   16.7707 H   0  0  0  0  0
    6.7741   36.8986   17.5712 H   0  0  0  0  0
    4.0938   34.6133   17.2606 H   0  0  0  0  0
    4.2295   32.2636   16.5091 H   0  0  0  0  0
    6.0017   32.3956   16.3954 H   0  0  0  0  0
    5.1993   32.5221   17.9801 H   0  0  0  0  0
    4.8140   35.7030   15.1578 H   0  0  0  0  0
    3.9904   34.0861   14.8637 H   0  0  0  0  0
    6.3490   33.1198   14.3578 H   0  0  0  0  0
    6.4392   36.1132   13.6578 H   0  0  0  0  0
    8.6481   34.1502   13.4407 H   0  0  0  0  0
    7.5430   33.8656   12.0736 H   0  0  0  0  0
    8.3190   35.4557   12.2751 H   0  0  0  0  0
    8.8242   34.6598   17.8893 H   0  0  0  0  0
    9.8945   36.4958   20.0050 H   0  0  0  0  0
   11.9897   35.3896   19.8273 H   0  0  0  0  0
   11.3971   34.4433   18.3569 H   0  0  0  0  0
    9.8360   33.3017   19.8775 H   0  0  0  0  0
   10.6870   34.0877   21.2532 H   0  0  0  0  0
   11.9573   32.3091   19.1681 H   0  0  0  0  0
   11.4944   31.8214   20.8616 H   0  0  0  0  0
   13.7202   32.3165   20.6323 H   0  0  0  0  0
   11.1978   38.3625   16.1797 H   0  0  0  0  0
   11.3452   39.7475   17.3413 H   0  0  0  0  0
    8.2934   38.4026   18.8589 H   0  0  0  0  0
    9.6501   38.7253   19.9663 H   0  0  0  0  0
    9.2473   39.8964   18.6866 H   0  0  0  0  0
   10.0575   37.5382   14.4038 H   0  0  0  0  0
    9.0507   36.9218   15.7370 H   0  0  0  0  0
    8.3102   37.2951   14.1611 H   0  0  0  0  0
    7.7889   40.6940   14.7376 H   0  0  0  0  0
    6.5535   39.1998   12.9271 H   0  0  0  0  0
    8.2262   38.3426   13.0821 H   0  0  0  0  0
    7.9084   39.8711   11.1228 H   0  0  0  0  0
    6.5672   41.6178   12.2089 H   0  0  0  0  0
    7.9179   41.9886   13.3084 H   0  0  0  0  0
    8.0839   42.2892   11.5610 H   0  0  0  0  0
   10.0178   40.4918   13.2219 H   0  0  0  0  0
   10.0781   39.1630   12.0380 H   0  0  0  0  0
   10.1416   40.8538   11.4828 H   0  0  0  0  0
    6.3035   40.8709   16.4225 H   0  0  0  0  0
    4.6145   38.6494   17.2724 H   0  0  0  0  0
    4.2667   41.6266   17.7787 H   0  0  0  0  0
    2.2748   40.2784   18.2358 H   0  0  0  0  0
    3.2455   39.1691   19.2351 H   0  0  0  0  0
    3.0161   40.8591   19.7473 H   0  0  0  0  0
    5.7488   39.5191   19.3498 H   0  0  0  0  0
    6.4765   40.8644   18.4378 H   0  0  0  0  0
    5.4585   41.2004   19.8597 H   0  0  0  0  0
    3.5141   37.1052   16.5675 H   0  0  0  0  0
    2.2250   37.8546   17.5409 H   0  0  0  0  0
    1.8100   36.9126   16.0879 H   0  0  0  0  0
    1.7726   39.8349   14.1283 H   0  0  0  0  0
    0.7886   38.0360   13.0002 H   0  0  0  0  0
    1.1414   36.9121   14.4623 H   0  0  0  0  0
    3.4451   36.9377   13.8839 H   0  0  0  0  0
    2.0002   35.2164   12.8937 H   0  0  0  0  0
    1.6640   36.2801   11.5057 H   0  0  0  0  0
    3.3105   35.6558   11.7708 H   0  0  0  0  0
    2.6847   38.6618   11.5286 H   0  0  0  0  0
    3.6475   39.1524   12.9440 H   0  0  0  0  0
    4.2796   37.9250   11.8193 H   0  0  0  0  0
   -0.5627   39.5601   13.5516 H   0  0  0  0  0
   -2.1227   40.6274   15.6890 H   0  0  0  0  0
   -2.6121   41.0483   13.2881 H   0  0  0  0  0
   -3.0273   39.3307   13.0679 H   0  0  0  0  0
   -4.0342   40.3633   14.1124 H   0  0  0  0  0
   -4.0626   39.7941   16.5648 H   0  0  0  0  0
   -4.4250   36.8686   16.5878 H   0  0  0  0  0
   -5.9541   39.1140   17.9635 H   0  0  0  0  0
   -6.3870   38.3483   16.4152 H   0  0  0  0  0
   -6.4402   37.4013   17.9223 H   0  0  0  0  0
   -5.1547   35.0761   17.8896 H   0  0  0  0  0
   -3.5811   35.0678   17.0561 H   0  0  0  0  0
   -3.8000   34.1307   18.5544 H   0  0  0  0  0
   -2.6101   36.8189   20.5426 H   0  0  0  0  0
   -3.5683   35.0969   21.9957 H   0  0  0  0  0
   -4.5736   34.5266   20.5498 H   0  0  0  0  0
   -5.6925   36.7045   20.5769 H   0  0  0  0  0
   -6.6523   34.7591   21.7011 H   0  0  0  0  0
   -5.7651   35.1745   23.1883 H   0  0  0  0  0
   -7.0363   36.2613   22.5768 H   0  0  0  0  0
   -4.1545   37.1264   23.1555 H   0  0  0  0  0
   -3.9269   38.0241   21.6346 H   0  0  0  0  0
   -5.4586   38.1661   22.5316 H   0  0  0  0  0
   -1.2228   37.0063   18.1924 H   0  0  0  0  0
   -0.7212   37.4614   19.8394 H   0  0  0  0  0
    0.4896   36.8876   18.6664 H   0  0  0  0  0
   -0.0437   33.4264   19.5225 H   0  0  0  0  0
    1.6619   33.7421   17.8149 H   0  0  0  0  0
    0.9953   35.4928   17.6142 H   0  0  0  0  0
   -0.9742   34.6175   16.6644 H   0  0  0  0  0
    1.0936   34.9582   15.2513 H   0  0  0  0  0
    1.5751   33.2751   15.5770 H   0  0  0  0  0
    0.1184   33.6132   14.6103 H   0  0  0  0  0
    0.1458   31.8519   17.0111 H   0  0  0  0  0
   -1.2469   32.5574   17.8676 H   0  0  0  0  0
   -1.3217   32.2997   16.1072 H   0  0  0  0  0
    1.3849   31.8361   20.3437 H   0  0  0  0  0
    2.1309   32.2983   18.7942 H   0  0  0  0  0
    3.1508   31.7316   20.1395 H   0  0  0  0  0
    3.5065   34.9851   21.6062 H   0  0  0  0  0
    3.8012   32.0004   22.1556 H   0  0  0  0  0
    5.6505   33.4360   22.9862 H   0  0  0  0  0
    4.4709   34.4941   23.7985 H   0  0  0  0  0
    4.6850   32.8135   24.3468 H   0  0  0  0  0
    1.9830   34.0392   23.5491 H   0  0  0  0  0
    1.4391   32.6802   22.5351 H   0  0  0  0  0
    2.2525   32.3633   24.0872 H   0  0  0  0  0
  1  2  1  0  0  0
  1  3  1  0  0  0
  1 86  1  0  0  0
  3  4  1  0  0  0
  3  6  1  0  0  0
  4  5  2  0  0  0
  4 14  1  0  0  0
  6  7  1  0  0  0
  6  8  1  0  0  0
  8  9  1  0  0  0
  8 10  1  0  0  0
 10 11  1  0  0  0
 11 12  2  0  0  0
 12 13  1  0  0  0
 14 15  1  0  0  0
 15 16  1  0  0  0
 15 20  1  0  0  0
 16 17  1  0  0  0
 17 18  1  0  0  0
 18 19  1  0  0  0
 20 21  2  0  0  0
 20 22  1  0  0  0
 22 23  1  0  0  0
 22 26  1  0  0  0
 23 24  1  0  0  0
 24 25  2  0  0  0
 24 27  1  0  0  0
 27 28  1  0  0  0
 27 29  1  0  0  0
 29 30  1  0  0  0
 29 34  1  0  0  0
 30 31  1  0  0  0
 31 32  1  0  0  0
 31 33  1  0  0  0
 34 35  2  0  0  0
 34 36  1  0  0  0
 36 37  1  0  0  0
 37 38  1  0  0  0
 37 40  1  0  0  0
 38 39  2  0  0  0
 38 43  1  0  0  0
 40 41  1  0  0  0
 40 42  1  0  0  0
 43 44  1  0  0  0
 43 45  1  0  0  0
 45 46  1  0  0  0
 45 50  1  0  0  0
 46 47  1  0  0  0
 47 48  1  0  0  0
 47 49  1  0  0  0
 50 51  2  0  0  0
 50 52  1  0  0  0
 52 53  1  0  0  0
 53 54  1  0  0  0
 53 56  1  0  0  0
 54 55  2  0  0  0
 54 57  1  0  0  0
 57 58  1  0  0  0
 58 59  1  0  0  0
 58 60  1  0  0  0
 60 61  2  0  0  0
 60 62  1  0  0  0
 62 63  1  0  0  0
 62 64  1  0  0  0
 64 65  1  0  0  0
 64 69  1  0  0  0
 65 66  1  0  0  0
 66 67  1  0  0  0
 66 68  1  0  0  0
 69 70  2  0  0  0
 69 71  1  0  0  0
 71 72  1  0  0  0
 71 73  1  0  0  0
 73 74  1  0  0  0
 73 78  1  0  0  0
 74 75  1  0  0  0
 75 76  1  0  0  0
 75 77  1  0  0  0
 78 79  2  0  0  0
 78 80  1  0  0  0
 80 81  1  0  0  0
 80 82  1  0  0  0
 82 83  1  0  0  0
 82 86  1  0  0  0
 83 84  1  0  0  0
 83 85  1  0  0  0
 86 87  2  0  0  0
  2 88  1  0  0  0
  2 89  1  0  0  0
  2 90  1  0  0  0
  3 91  1  0  0  0
  6 92  1  0  0  0
  7 93  1  0  0  0
  8 94  1  0  0  0
  9 95  1  0  0  0
  9 96  1  0  0  0
  9 97  1  0  0  0
 10 98  1  0  0  0
 10 99  1  0  0  0
 11100  1  0  0  0
 12101  1  0  0  0
 13102  1  0  0  0
 13103  1  0  0  0
 13104  1  0  0  0
 14105  1  0  0  0
 15106  1  0  0  0
 16107  1  0  0  0
 16108  1  0  0  0
 17109  1  0  0  0
 17110  1  0  0  0
 18111  1  0  0  0
 18112  1  0  0  0
 19113  1  0  0  0
 23114  1  0  0  0
 23115  1  0  0  0
 26116  1  0  0  0
 26117  1  0  0  0
 26118  1  0  0  0
 28119  1  0  0  0
 28120  1  0  0  0
 28121  1  0  0  0
 29122  1  0  0  0
 30123  1  0  0  0
 30124  1  0  0  0
 31125  1  0  0  0
 32126  1  0  0  0
 32127  1  0  0  0
 32128  1  0  0  0
 33129  1  0  0  0
 33130  1  0  0  0
 33131  1  0  0  0
 36132  1  0  0  0
 37133  1  0  0  0
 40134  1  0  0  0
 41135  1  0  0  0
 41136  1  0  0  0
 41137  1  0  0  0
 42138  1  0  0  0
 42139  1  0  0  0
 42140  1  0  0  0
 44141  1  0  0  0
 44142  1  0  0  0
 44143  1  0  0  0
 45144  1  0  0  0
 46145  1  0  0  0
 46146  1  0  0  0
 47147  1  0  0  0
 48148  1  0  0  0
 48149  1  0  0  0
 48150  1  0  0  0
 49151  1  0  0  0
 49152  1  0  0  0
 49153  1  0  0  0
 52154  1  0  0  0
 53155  1  0  0  0
 56156  1  0  0  0
 56157  1  0  0  0
 56158  1  0  0  0
 57159  1  0  0  0
 58160  1  0  0  0
 59161  1  0  0  0
 59162  1  0  0  0
 59163  1  0  0  0
 63164  1  0  0  0
 63165  1  0  0  0
 63166  1  0  0  0
 64167  1  0  0  0
 65168  1  0  0  0
 65169  1  0  0  0
 66170  1  0  0  0
 67171  1  0  0  0
 67172  1  0  0  0
 67173  1  0  0  0
 68174  1  0  0  0
 68175  1  0  0  0
 68176  1  0  0  0
 72177  1  0  0  0
 72178  1  0  0  0
 72179  1  0  0  0
 73180  1  0  0  0
 74181  1  0  0  0
 74182  1  0  0  0
 75183  1  0  0  0
 76184  1  0  0  0
 76185  1  0  0  0
 76186  1  0  0  0
 77187  1  0  0  0
 77188  1  0  0  0
 77189  1  0  0  0
 81190  1  0  0  0
 81191  1  0  0  0
 81192  1  0  0  0
 82193  1  0  0  0
 83194  1  0  0  0
 84195  1  0  0  0
 84196  1  0  0  0
 84197  1  0  0  0
 85198  1  0  0  0
 85199  1  0  0  0
 85200  1  0  0  0
M  END
$$$$
