4q6e_ligand
  -I-interpret- 

 40 41  0  0  0  0  0  0  0  0999 V2000
   -1.4630    7.6290   14.8130 O   0  0  0  0  0
   -1.9260    7.7880   13.7050 C   0  0  0  0  0
   -1.9000    9.1550   13.3270 N   0  0  0  0  0
   -1.2400   10.1920   14.1090 C   0  0  0  0  0
   -0.3690    9.8220   15.2700 C   0  0  0  0  0
   -1.4110   11.4470   13.4700 C   0  0  0  0  0
   -2.2640   11.1650   12.3590 C   0  0  0  0  0
   -2.8250   12.1260   11.3810 C   0  0  0  0  0
   -2.5550    9.8190   12.3020 N   0  0  0  0  0
   -2.2660    6.8360   12.6570 C   0  0  0  0  0
   -2.6070    5.5220   13.2770 C   0  0  0  0  0
   -3.9710    5.5230   13.8660 N   0  0  0  0  0
   -4.4150    4.3960   14.5740 C   0  0  0  0  0
   -3.5530    3.3960   14.9500 C   0  0  0  0  0
   -4.0390    2.2740   15.6610 C   0  0  0  0  0
   -5.7780    4.3380   14.8900 C   0  0  0  0  0
   -6.2510    3.2340   15.5850 C   0  0  0  0  0
   -5.4030    2.1930   15.9700 C   0  0  0  0  0
   -6.0160    0.7940   16.8330 S   0  0  0  0  0
   -7.4090    0.8390   16.6960 O   0  0  0  0  0
   -5.4580    0.8760   18.1760 O   0  0  0  0  0
   -5.4490   -0.5260   16.0910 N   0  0  0  0  0
   -0.9590    9.2752   16.0055 H   0  0  0  0  0
    0.4516    9.1948   14.9216 H   0  0  0  0  0
    0.0321   10.7277   15.7248 H   0  0  0  0  0
   -0.9876   12.4084   13.7607 H   0  0  0  0  0
   -3.4388   12.8588   11.9047 H   0  0  0  0  0
   -2.0106   12.6346   10.8651 H   0  0  0  0  0
   -3.4370   11.5892   10.6561 H   0  0  0  0  0
   -1.4163    6.7133   11.9854 H   0  0  0  0  0
   -3.1212    7.2057   12.0913 H   0  0  0  0  0
   -1.8909    5.3251   14.0748 H   0  0  0  0  0
   -2.5714    4.7585   12.4999 H   0  0  0  0  0
   -4.5786    6.3350   13.7567 H   0  0  0  0  0
   -2.4942    3.4666   14.7007 H   0  0  0  0  0
   -3.3581    1.4793   15.9659 H   0  0  0  0  0
   -6.4525    5.1423   14.5965 H   0  0  0  0  0
   -7.3101    3.1778   15.8366 H   0  0  0  0  0
   -6.0927   -1.1645   15.6236 H   0  0  0  0  0
   -4.4477   -0.7202   16.0903 H   0  0  0  0  0
  1  2  2  0  0  0
  2  3  1  0  0  0
  2 10  1  0  0  0
  3  4  4  0  0  0
  3  9  4  0  0  0
  4  5  1  0  0  0
  4  6  4  0  0  0
  6  7  4  0  0  0
  7  8  1  0  0  0
  7  9  4  0  0  0
 10 11  1  0  0  0
 11 12  1  0  0  0
 12 13  1  0  0  0
 13 14  4  0  0  0
 13 16  4  0  0  0
 14 15  4  0  0  0
 15 18  4  0  0  0
 16 17  4  0  0  0
 17 18  4  0  0  0
 18 19  1  0  0  0
 19 20  2  0  0  0
 19 21  2  0  0  0
 19 22  1  0  0  0
  5 23  1  0  0  0
  5 24  1  0  0  0
  5 25  1  0  0  0
  6 26  1  0  0  0
  8 27  1  0  0  0
  8 28  1  0  0  0
  8 29  1  0  0  0
 10 30  1  0  0  0
 10 31  1  0  0  0
 11 32  1  0  0  0
 11 33  1  0  0  0
 12 34  1  0  0  0
 14 35  1  0  0  0
 15 36  1  0  0  0
 16 37  1  0  0  0
 17 38  1  0  0  0
 22 39  1  0  0  0
 22 40  1  0  0  0
M  END
$$$$
