4ciz_ligand
  -I-interpret- 

 38 38  0  0  0  0  0  0  0  0999 V2000
   -6.0680   15.1820   12.2900 C   0  0  0  0  0
   -7.0930   14.7590   13.3540 C   0  0  0  0  0
   -8.3320   15.6390   13.3020 C   0  0  0  0  0
   -9.0470   15.4750   11.9710 C   0  0  0  0  0
   -8.1150   15.2210   10.8230 C   0  0  0  0  0
   -6.7730   15.2830   10.9550 C   0  0  0  0  0
   -5.9060   15.0910    9.7990 C   0  0  0  0  0
   -4.9770   15.9210    9.3220 C   0  0  0  0  0
   -4.2970   15.6730    8.0490 C   0  0  0  0  0
   -2.9560   15.8420    7.9310 C   0  0  0  0  0
   -5.4290   16.5350   12.6740 C   0  0  0  0  0
   -4.9340   14.1430   12.2510 C   0  0  0  0  0
   -8.7580   14.5520    9.6580 C   0  0  0  0  0
   -5.1520   15.2250    6.8950 C   0  0  0  0  0
   -6.6353   14.8593   14.3382 H   0  0  0  0  0
   -7.3895   13.7279   13.1618 H   0  0  0  0  0
   -8.0313   16.6805   13.4161 H   0  0  0  0  0
   -9.0080   15.3460   14.1052 H   0  0  0  0  0
   -9.5768   16.4051   11.7652 H   0  0  0  0  0
   -9.7071   14.6118   12.0562 H   0  0  0  0  0
   -7.8632   16.2235   10.4771 H   0  0  0  0  0
   -7.0593   16.3341   10.9916 H   0  0  0  0  0
   -6.0324   14.1535    9.2575 H   0  0  0  0  0
   -4.7164   16.8098    9.8966 H   0  0  0  0  0
   -2.3698   16.1665    8.7908 H   0  0  0  0  0
   -2.4648   15.6532    6.9764 H   0  0  0  0  0
   -4.9535   16.4466   13.6508 H   0  0  0  0  0
   -4.6822   16.8073   11.9282 H   0  0  0  0  0
   -6.2021   17.3024   12.7130 H   0  0  0  0  0
   -4.1930   14.4434   11.5102 H   0  0  0  0  0
   -4.4643   14.0827   13.2328 H   0  0  0  0  0
   -5.3441   13.1694   11.9825 H   0  0  0  0  0
   -8.4423   15.0443    8.7382 H   0  0  0  0  0
   -8.4590   13.5041    9.6319 H   0  0  0  0  0
   -9.8416   14.6197    9.7543 H   0  0  0  0  0
   -5.0690   15.9458    6.0816 H   0  0  0  0  0
   -4.8135   14.2474    6.5518 H   0  0  0  0  0
   -6.1908   15.1583    7.2185 H   0  0  0  0  0
  1  2  1  0  0  0
  1  6  1  0  0  0
  1 11  1  0  0  0
  1 12  1  0  0  0
  2  3  1  0  0  0
  3  4  1  0  0  0
  4  5  1  0  0  0
  5  6  1  0  0  0
  5 13  1  0  0  0
  6  7  1  0  0  0
  7  8  2  0  0  0
  8  9  1  0  0  0
  9 10  2  0  0  0
  9 14  1  0  0  0
  2 15  1  0  0  0
  2 16  1  0  0  0
  3 17  1  0  0  0
  3 18  1  0  0  0
  4 19  1  0  0  0
  4 20  1  0  0  0
  5 21  1  0  0  0
  6 22  1  0  0  0
  7 23  1  0  0  0
  8 24  1  0  0  0
 10 25  1  0  0  0
 10 26  1  0  0  0
 11 27  1  0  0  0
 11 28  1  0  0  0
 11 29  1  0  0  0
 12 30  1  0  0  0
 12 31  1  0  0  0
 12 32  1  0  0  0
 13 33  1  0  0  0
 13 34  1  0  0  0
 13 35  1  0  0  0
 14 36  1  0  0  0
 14 37  1  0  0  0
 14 38  1  0  0  0
M  END
$$$$
