6aol_ligand
  -I-interpret- 

 49 51  0  0  0  0  0  0  0  0999 V2000
 -120.6450  122.9650   60.1230 O   0  0  0  0  0
 -120.8460  124.2110   59.6150 C   0  0  0  0  0
 -121.2300  124.3600   58.2670 C   0  0  0  0  0
 -121.4420  125.6410   57.7390 C   0  0  0  0  0
 -121.8170  125.8140   56.4120 O   0  0  0  0  0
 -121.2540  126.7320   58.6130 C   0  0  0  0  0
 -121.5210  128.3560   57.9790 Cl  0  0  0  0  0
 -120.8940  126.6190   59.9570 C   0  0  0  0  0
 -120.7180  127.9050   60.7310 C   0  0  0  0  0
 -119.4120  128.6570   60.4050 C   0  0  0  0  0
 -118.8420  129.6030   61.3860 C   0  0  0  0  0
 -118.6600  130.9780   61.1220 C   0  0  0  0  0
 -119.0780  131.6690   59.7780 C   0  0  0  0  0
 -119.1960  133.1450   59.8920 C   0  0  0  0  0
 -118.0560  133.9490   59.8360 C   0  0  0  0  0
 -118.0710  135.3160   59.9850 C   0  0  0  0  0
 -119.3070  135.9390   60.2220 C   0  0  0  0  0
 -119.3540  137.2040   60.3630 F   0  0  0  0  0
 -120.4800  135.1640   60.3110 C   0  0  0  0  0
 -120.4010  133.7970   60.1530 C   0  0  0  0  0
 -118.0880  131.7670   62.1620 C   0  0  0  0  0
 -117.6860  131.2310   63.3970 C   0  0  0  0  0
 -117.8590  129.8670   63.6340 C   0  0  0  0  0
 -118.4310  129.0700   62.6290 C   0  0  0  0  0
 -120.6630  125.3080   60.4830 C   0  0  0  0  0
 -120.2480  125.0980   61.9540 C   0  0  0  0  0
 -119.4030  126.0030   62.6020 O   0  0  0  0  0
 -118.3060  125.4970   63.3690 C   0  0  0  0  0
 -120.6160  124.1630   62.6310 O   0  0  0  0  0
 -120.3902  123.0342   61.0460 H   0  0  0  0  0
 -121.3618  123.4808   57.6364 H   0  0  0  0  0
 -121.9162  126.7510   56.2282 H   0  0  0  0  0
 -120.6867  127.6448   61.7890 H   0  0  0  0  0
 -121.5457  128.5612   60.4617 H   0  0  0  0  0
 -119.6607  129.2750   59.5422 H   0  0  0  0  0
 -118.6607  127.8726   60.3135 H   0  0  0  0  0
 -120.0565  131.2799   59.4966 H   0  0  0  0  0
 -118.3035  131.4552   59.0415 H   0  0  0  0  0
 -117.0954  133.4635   59.6637 H   0  0  0  0  0
 -117.1517  135.8981   59.9211 H   0  0  0  0  0
 -121.4411  135.6409   60.5030 H   0  0  0  0  0
 -121.3123  133.2047   60.2349 H   0  0  0  0  0
 -117.9563  132.8355   61.9914 H   0  0  0  0  0
 -117.2448  131.8724   64.1599 H   0  0  0  0  0
 -117.5551  129.4270   64.5838 H   0  0  0  0  0
 -118.5625  128.0039   62.8138 H   0  0  0  0  0
 -118.6857  124.8566   64.1651 H   0  0  0  0  0
 -117.6463  124.9204   62.7206 H   0  0  0  0  0
 -117.7533  126.3300   63.8035 H   0  0  0  0  0
  1  2  1  0  0  0
  2  3  4  0  0  0
  2 25  4  0  0  0
  3  4  4  0  0  0
  4  5  1  0  0  0
  4  6  4  0  0  0
  6  7  1  0  0  0
  6  8  4  0  0  0
  8  9  1  0  0  0
  8 25  4  0  0  0
  9 10  1  0  0  0
 10 11  1  0  0  0
 11 12  4  0  0  0
 11 24  4  0  0  0
 12 13  1  0  0  0
 12 21  4  0  0  0
 13 14  1  0  0  0
 14 15  4  0  0  0
 14 20  4  0  0  0
 15 16  4  0  0  0
 16 17  4  0  0  0
 17 18  1  0  0  0
 17 19  4  0  0  0
 19 20  4  0  0  0
 21 22  4  0  0  0
 22 23  4  0  0  0
 23 24  4  0  0  0
 25 26  1  0  0  0
 26 27  1  0  0  0
 26 29  2  0  0  0
 27 28  1  0  0  0
  1 30  1  0  0  0
  3 31  1  0  0  0
  5 32  1  0  0  0
  9 33  1  0  0  0
  9 34  1  0  0  0
 10 35  1  0  0  0
 10 36  1  0  0  0
 13 37  1  0  0  0
 13 38  1  0  0  0
 15 39  1  0  0  0
 16 40  1  0  0  0
 19 41  1  0  0  0
 20 42  1  0  0  0
 21 43  1  0  0  0
 22 44  1  0  0  0
 23 45  1  0  0  0
 24 46  1  0  0  0
 28 47  1  0  0  0
 28 48  1  0  0  0
 28 49  1  0  0  0
M  END
$$$$
