3rqe_ligand
  -I-interpret- 

148147  0  0  0  0  0  0  0  0999 V2000
   16.4850    6.6210   69.2150 N   0  3  0  0  0
   17.7060    5.9570   69.7510 C   0  0  0  0  0
   17.4160    4.4990   70.0840 C   0  0  0  0  0
   18.3000    3.6360   69.9710 O   0  0  0  0  0
   18.2090    6.6890   70.9960 C   0  0  0  0  0
   19.6930    6.4780   71.2350 C   0  0  0  0  0
   20.1050    5.3280   71.5030 O   0  0  0  0  0
   20.4500    7.4700   71.1630 O   0  0  0  0  0
   16.1740    4.2400   70.5010 N   0  0  0  0  0
   15.7120    2.8870   70.8070 C   0  0  0  0  0
   15.9830    1.9220   69.6500 C   0  0  0  0  0
   16.5630    0.8520   69.8540 O   0  0  0  0  0
   14.2270    2.9010   71.1630 C   0  0  0  0  0
   15.5730    2.3180   68.4440 N   0  0  0  0  0
   15.7850    1.5350   67.2200 C   0  0  0  0  0
   17.2650    1.2990   66.9280 C   0  0  0  0  0
   17.6630    0.2080   66.5160 O   0  0  0  0  0
   15.1470    2.2480   66.0240 C   0  0  0  0  0
   13.6340    2.2140   65.7780 C   0  0  0  0  0
   12.8320    2.8540   66.9130 C   0  0  0  0  0
   13.3610    2.9290   64.4700 C   0  0  0  0  0
   18.0640    2.3400   67.1470 N   0  0  0  0  0
   19.4980    2.3200   66.8920 C   0  0  0  0  0
   20.2100    1.2640   67.7290 C   0  0  0  0  0
   20.9200    0.4120   67.1930 O   0  0  0  0  0
   20.0710    3.7090   67.1680 C   0  0  0  0  0
   21.5490    4.0460   66.9970 C   0  0  0  0  0
   22.1210    3.5500   65.6740 C   0  0  0  0  0
   21.6520    5.5500   67.0980 C   0  0  0  0  0
   20.0080    1.3270   69.0410 N   0  0  0  0  0
   20.5830    0.3560   69.9630 C   0  0  0  0  0
   20.1000   -1.0560   69.6430 C   0  0  0  0  0
   20.8540   -2.0190   69.7890 O   0  0  0  0  0
   20.2500    0.7250   71.4010 C   0  0  0  0  0
   18.8480   -1.1620   69.1970 N   0  0  0  0  0
   18.2500   -2.4420   68.8310 C   0  0  0  0  0
   18.9840   -3.0660   67.6470 C   0  0  0  0  0
   19.4030   -4.2260   67.7050 O   0  0  0  0  0
   16.7630   -2.2580   68.5110 C   0  0  0  0  0
   16.0830   -3.5560   68.1230 C   0  0  0  0  0
   15.9860   -4.4650   68.9780 O   0  0  0  0  0
   15.6420   -3.6590   66.9590 O   0  0  0  0  0
   19.1390   -2.2810   66.5830 N   0  0  0  0  0
   19.8930   -2.6920   65.4040 C   0  0  0  0  0
   21.3110   -3.0910   65.7830 C   0  0  0  0  0
   21.8240   -4.1120   65.3140 O   0  0  0  0  0
   19.9240   -1.5570   64.3740 C   0  0  0  0  0
   21.2390   -1.2390   63.6450 C   0  0  0  0  0
   21.5710   -2.2360   62.5350 C   0  0  0  0  0
   21.1920    0.1710   63.0980 C   0  0  0  0  0
   21.9330   -2.2720   66.6310 N   0  0  0  0  0
   23.2980   -2.5020   67.0910 C   0  0  0  0  0
   23.4140   -3.8840   67.7370 C   0  0  0  0  0
   24.3740   -4.6190   67.4870 O   0  0  0  0  0
   23.7290   -1.3890   68.0620 C   0  0  0  0  0
   25.2270   -1.3590   68.3880 C   0  0  0  0  0
   25.6650   -2.5080   69.2900 C   0  0  0  0  0
   24.9540   -2.8080   70.2770 O   0  0  0  0  0
   26.7220   -3.1130   69.0090 O   0  0  0  0  0
   22.4190   -4.2320   68.5500 N   0  0  0  0  0
   22.3830   -5.5190   69.2360 C   0  0  0  0  0
   22.0900   -6.6790   68.2860 C   0  0  0  0  0
   22.6060   -7.7800   68.4720 O   0  0  0  0  0
   21.3670   -5.4940   70.3810 C   0  0  0  0  0
   21.8580   -4.7270   71.4790 O   0  0  0  0  0
   21.2670   -6.4210   67.2720 N   0  0  0  0  0
   20.9540   -7.4070   66.2280 C   0  0  0  0  0
   22.2370   -7.9820   65.6090 C   0  0  0  0  0
   22.2662   -9.1729   65.1986 O   0  0  0  0  0
   20.0720   -6.7660   65.1140 C   0  0  0  0  0
   18.7380   -6.5780   65.6060 O   0  0  0  0  0
   20.0210   -7.6320   63.8490 C   0  0  0  0  0
   23.2647   -7.2595   65.5113 O   0  0  0  0  0
   16.1634    6.1208   68.3863 H   0  0  0  0  0
   15.7534    6.6095   69.9257 H   0  0  0  0  0
   16.7050    7.5857   68.9673 H   0  0  0  0  0
   18.4810    5.9942   68.9854 H   0  0  0  0  0
   17.6704    6.2953   71.8580 H   0  0  0  0  0
   18.0404    7.7559   70.8497 H   0  0  0  0  0
   19.3645    4.7171   71.5081 H   0  0  0  0  0
   15.5220    5.0167   70.6103 H   0  0  0  0  0
   16.2761    2.5291   71.6683 H   0  0  0  0  0
   14.0695    3.5367   72.0343 H   0  0  0  0  0
   13.6562    3.2901   70.3198 H   0  0  0  0  0
   13.8991    1.8862   71.3880 H   0  0  0  0  0
   15.0868    3.2114   68.3681 H   0  0  0  0  0
   15.3154    0.5643   67.3793 H   0  0  0  0  0
   15.5608    1.7260   65.1612 H   0  0  0  0  0
   15.3548    3.3016   66.2105 H   0  0  0  0  0
   13.3119    1.1736   65.7334 H   0  0  0  0  0
   13.0301    2.3198   67.8423 H   0  0  0  0  0
   13.1280    3.8974   67.0219 H   0  0  0  0  0
   11.7685    2.7991   66.6805 H   0  0  0  0  0
   13.7101    3.9591   64.5408 H   0  0  0  0  0
   13.8875    2.4202   63.6625 H   0  0  0  0  0
   12.2897    2.9201   64.2692 H   0  0  0  0  0
   17.6505    3.1976   67.5129 H   0  0  0  0  0
   19.6621    2.0545   65.8476 H   0  0  0  0  0
   19.9093    3.8364   68.2384 H   0  0  0  0  0
   19.5855    4.3319   66.4167 H   0  0  0  0  0
   22.1358    3.5444   67.7665 H   0  0  0  0  0
   22.0183    2.4663   65.6187 H   0  0  0  0  0
   21.5771    4.0103   64.8491 H   0  0  0  0  0
   23.1752    3.8200   65.6114 H   0  0  0  0  0
   21.0512    6.0076   66.3121 H   0  0  0  0  0
   21.2854    5.8734   68.0722 H   0  0  0  0  0
   22.6934    5.8502   66.9823 H   0  0  0  0  0
   19.4311    2.0803   69.4152 H   0  0  0  0  0
   21.6662    0.3750   69.8433 H   0  0  0  0  0
   20.6566    1.7112   71.6252 H   0  0  0  0  0
   19.1677    0.7390   71.5299 H   0  0  0  0  0
   20.6879   -0.0117   72.0745 H   0  0  0  0  0
   18.2861   -0.3154   69.1081 H   0  0  0  0  0
   18.3423   -3.1214   69.6783 H   0  0  0  0  0
   16.6847   -1.5737   67.6662 H   0  0  0  0  0
   16.2724   -1.8781   69.4071 H   0  0  0  0  0
   16.3900   -4.1749   69.7991 H   0  0  0  0  0
   18.7131   -1.3542   66.5927 H   0  0  0  0  0
   19.3969   -3.5575   64.9648 H   0  0  0  0  0
   19.6975   -0.6566   64.9450 H   0  0  0  0  0
   19.2399   -1.8759   63.5877 H   0  0  0  0  0
   22.0402   -1.3259   64.3789 H   0  0  0  0  0
   21.6644   -3.2348   62.9615 H   0  0  0  0  0
   20.7732   -2.2298   61.7923 H   0  0  0  0  0
   22.5113   -1.9519   62.0625 H   0  0  0  0  0
   20.3603    0.2607   62.3992 H   0  0  0  0  0
   21.0551    0.8738   63.9198 H   0  0  0  0  0
   22.1269    0.3906   62.5823 H   0  0  0  0  0
   21.4339   -1.4506   66.9723 H   0  0  0  0  0
   23.9712   -2.4762   66.2342 H   0  0  0  0  0
   23.2058   -1.5701   69.0009 H   0  0  0  0  0
   23.4926   -0.4408   67.5792 H   0  0  0  0  0
   25.4332   -0.4271   68.9144 H   0  0  0  0  0
   25.7726   -1.4484   67.4486 H   0  0  0  0  0
   24.1931   -2.2236   70.3113 H   0  0  0  0  0
   21.6535   -3.5745   68.6988 H   0  0  0  0  0
   23.3781   -5.6858   69.6483 H   0  0  0  0  0
   21.1919   -6.5160   70.7172 H   0  0  0  0  0
   20.4436   -5.0403   70.0210 H   0  0  0  0  0
   21.2060   -4.7252   72.1836 H   0  0  0  0  0
   20.8347   -5.4987   67.2172 H   0  0  0  0  0
   20.3997   -8.2205   66.6961 H   0  0  0  0  0
   20.5223   -5.8091   64.8501 H   0  0  0  0  0
   18.1971   -6.1832   64.9181 H   0  0  0  0  0
   21.0295   -7.7568   63.4547 H   0  0  0  0  0
   19.6024   -8.6079   64.0949 H   0  0  0  0  0
   19.3950   -7.1446   63.1015 H   0  0  0  0  0
   23.0767   -6.3879   65.8669 H   0  0  0  0  0
  1  2  1  0  0  0
  2  3  1  0  0  0
  2  5  1  0  0  0
  3  4  2  0  0  0
  3  9  1  0  0  0
  5  6  1  0  0  0
  6  7  1  0  0  0
  6  8  2  0  0  0
  9 10  1  0  0  0
 10 11  1  0  0  0
 10 13  1  0  0  0
 11 12  2  0  0  0
 11 14  1  0  0  0
 14 15  1  0  0  0
 15 16  1  0  0  0
 15 18  1  0  0  0
 16 17  2  0  0  0
 16 22  1  0  0  0
 18 19  1  0  0  0
 19 20  1  0  0  0
 19 21  1  0  0  0
 22 23  1  0  0  0
 23 24  1  0  0  0
 23 26  1  0  0  0
 24 25  2  0  0  0
 24 30  1  0  0  0
 26 27  1  0  0  0
 27 28  1  0  0  0
 27 29  1  0  0  0
 30 31  1  0  0  0
 31 32  1  0  0  0
 31 34  1  0  0  0
 32 33  2  0  0  0
 32 35  1  0  0  0
 35 36  1  0  0  0
 36 37  1  0  0  0
 36 39  1  0  0  0
 37 38  2  0  0  0
 37 43  1  0  0  0
 39 40  1  0  0  0
 40 41  1  0  0  0
 40 42  2  0  0  0
 43 44  1  0  0  0
 44 45  1  0  0  0
 44 47  1  0  0  0
 45 46  2  0  0  0
 45 51  1  0  0  0
 47 48  1  0  0  0
 48 49  1  0  0  0
 48 50  1  0  0  0
 51 52  1  0  0  0
 52 53  1  0  0  0
 52 55  1  0  0  0
 53 54  2  0  0  0
 53 60  1  0  0  0
 55 56  1  0  0  0
 56 57  1  0  0  0
 57 58  1  0  0  0
 57 59  2  0  0  0
 60 61  1  0  0  0
 61 62  1  0  0  0
 61 64  1  0  0  0
 62 63  2  0  0  0
 62 66  1  0  0  0
 64 65  1  0  0  0
 66 67  1  0  0  0
 67 68  1  0  0  0
 67 70  1  0  0  0
 68 69  2  0  0  0
 70 71  1  0  0  0
 70 72  1  0  0  0
 68 73  1  0  0  0
  1 74  1  0  0  0
  1 75  1  0  0  0
  1 76  1  0  0  0
  2 77  1  0  0  0
  5 78  1  0  0  0
  5 79  1  0  0  0
  7 80  1  0  0  0
  9 81  1  0  0  0
 10 82  1  0  0  0
 13 83  1  0  0  0
 13 84  1  0  0  0
 13 85  1  0  0  0
 14 86  1  0  0  0
 15 87  1  0  0  0
 18 88  1  0  0  0
 18 89  1  0  0  0
 19 90  1  0  0  0
 20 91  1  0  0  0
 20 92  1  0  0  0
 20 93  1  0  0  0
 21 94  1  0  0  0
 21 95  1  0  0  0
 21 96  1  0  0  0
 22 97  1  0  0  0
 23 98  1  0  0  0
 26 99  1  0  0  0
 26100  1  0  0  0
 27101  1  0  0  0
 28102  1  0  0  0
 28103  1  0  0  0
 28104  1  0  0  0
 29105  1  0  0  0
 29106  1  0  0  0
 29107  1  0  0  0
 30108  1  0  0  0
 31109  1  0  0  0
 34110  1  0  0  0
 34111  1  0  0  0
 34112  1  0  0  0
 35113  1  0  0  0
 36114  1  0  0  0
 39115  1  0  0  0
 39116  1  0  0  0
 41117  1  0  0  0
 43118  1  0  0  0
 44119  1  0  0  0
 47120  1  0  0  0
 47121  1  0  0  0
 48122  1  0  0  0
 49123  1  0  0  0
 49124  1  0  0  0
 49125  1  0  0  0
 50126  1  0  0  0
 50127  1  0  0  0
 50128  1  0  0  0
 51129  1  0  0  0
 52130  1  0  0  0
 55131  1  0  0  0
 55132  1  0  0  0
 56133  1  0  0  0
 56134  1  0  0  0
 58135  1  0  0  0
 60136  1  0  0  0
 61137  1  0  0  0
 64138  1  0  0  0
 64139  1  0  0  0
 65140  1  0  0  0
 66141  1  0  0  0
 67142  1  0  0  0
 70143  1  0  0  0
 71144  1  0  0  0
 72145  1  0  0  0
 72146  1  0  0  0
 72147  1  0  0  0
 73148  1  0  0  0
M  END
$$$$
