### 
### Created by X-TOOL on Mon Sep 10 21:13:08 2018
### 

@<TRIPOS>MOLECULE
3rqe_ligand
  144   143     1     0     0
SMALL
GAST_HUCK


@<TRIPOS>ATOM
      1 N          16.4850    6.6210   69.2150 N.4       1 ASP         0.2391
      2 CA         17.7060    5.9570   69.7510 C.3       1 ASP         0.0764
      3 C          17.4160    4.4990   70.0840 C.2       1 ASP         0.2284
      4 O          18.3000    3.6360   69.9710 O.2       1 ASP        -0.3906
      5 CB         18.2090    6.6890   70.9960 C.3       1 ASP         0.0607
      6 CG         19.6930    6.4780   71.2350 C.2       1 ASP         0.0425
      7 OD1        20.1050    5.3280   71.5030 O.co2     1 ASP        -0.5686
      8 OD2        20.4500    7.4700   71.1630 O.co2     1 ASP        -0.5686
      9 N          16.1740    4.2400   70.5010 N.am      1 ALA        -0.2612
     10 CA         15.7120    2.8870   70.8070 C.3       1 ALA         0.1283
     11 C          15.9830    1.9220   69.6500 C.2       1 ALA         0.2036
     12 O          16.5630    0.8520   69.8540 O.2       1 ALA        -0.3944
     13 CB         14.2270    2.9010   71.1630 C.3       1 ALA        -0.0244
     14 N          15.5730    2.3180   68.4440 N.am      1 LEU        -0.2637
     15 CA         15.7850    1.5350   67.2200 C.3       1 LEU         0.1312
     16 C          17.2650    1.2990   66.9280 C.2       1 LEU         0.2039
     17 O          17.6630    0.2080   66.5160 O.2       1 LEU        -0.3944
     18 CB         15.1470    2.2480   66.0240 C.3       1 LEU        -0.0101
     19 CG         13.6340    2.2140   65.7780 C.3       1 LEU        -0.0425
     20 CD1        12.8320    2.8540   66.9130 C.3       1 LEU        -0.0625
     21 CD2        13.3610    2.9290   64.4700 C.3       1 LEU        -0.0625
     22 N          18.0640    2.3400   67.1470 N.am      1 LEU        -0.2637
     23 CA         19.4980    2.3200   66.8920 C.3       1 LEU         0.1312
     24 C          20.2100    1.2640   67.7290 C.2       1 LEU         0.2039
     25 O          20.9200    0.4120   67.1930 O.2       1 LEU        -0.3944
     26 CB         20.0710    3.7090   67.1680 C.3       1 LEU        -0.0101
     27 CG         21.5490    4.0460   66.9970 C.3       1 LEU        -0.0425
     28 CD1        22.1210    3.5500   65.6740 C.3       1 LEU        -0.0625
     29 CD2        21.6520    5.5500   67.0980 C.3       1 LEU        -0.0625
     30 N          20.0080    1.3270   69.0410 N.am      1 ALA        -0.2640
     31 CA         20.5830    0.3560   69.9630 C.3       1 ALA         0.1282
     32 C          20.1000   -1.0560   69.6430 C.2       1 ALA         0.2037
     33 O          20.8540   -2.0190   69.7890 O.2       1 ALA        -0.3944
     34 CB         20.2500    0.7250   71.4010 C.3       1 ALA        -0.0244
     35 N          18.8480   -1.1620   69.1970 N.am      1 ASP        -0.2622
     36 CA         18.2500   -2.4420   68.8310 C.3       1 ASP         0.1423
     37 C          18.9840   -3.0660   67.6470 C.2       1 ASP         0.2056
     38 O          19.4030   -4.2260   67.7050 O.2       1 ASP        -0.3943
     39 CB         16.7630   -2.2580   68.5110 C.3       1 ASP         0.0406
     40 CG         16.0830   -3.5560   68.1230 C.2       1 ASP         0.0393
     41 OD1        15.9860   -4.4650   68.9780 O.co2     1 ASP        -0.5688
     42 OD2        15.6420   -3.6590   66.9590 O.co2     1 ASP        -0.5688
     43 N          19.1390   -2.2810   66.5830 N.am      1 LEU        -0.2636
     44 CA         19.8930   -2.6920   65.4040 C.3       1 LEU         0.1312
     45 C          21.3110   -3.0910   65.7830 C.2       1 LEU         0.2039
     46 O          21.8240   -4.1120   65.3140 O.2       1 LEU        -0.3944
     47 CB         19.9240   -1.5570   64.3740 C.3       1 LEU        -0.0101
     48 CG         21.2390   -1.2390   63.6450 C.3       1 LEU        -0.0425
     49 CD1        21.5710   -2.2360   62.5350 C.3       1 LEU        -0.0625
     50 CD2        21.1920    0.1710   63.0980 C.3       1 LEU        -0.0625
     51 N          21.9330   -2.2720   66.6310 N.am      1 GLU        -0.2636
     52 CA         23.2980   -2.5020   67.0910 C.3       1 GLU         0.1325
     53 C          23.4140   -3.8840   67.7370 C.2       1 GLU         0.2041
     54 O          24.3740   -4.6190   67.4870 O.2       1 GLU        -0.3944
     55 CB         23.7290   -1.3890   68.0620 C.3       1 GLU        -0.0008
     56 CG         25.2270   -1.3590   68.3880 C.3       1 GLU         0.0044
     57 CD         25.6650   -2.5080   69.2900 C.2       1 GLU         0.0350
     58 OE1        24.9540   -2.8080   70.2770 O.co2     1 GLU        -0.5690
     59 OE2        26.7220   -3.1130   69.0090 O.co2     1 GLU        -0.5690
     60 N          22.4190   -4.2320   68.5500 N.am      1 SER        -0.2616
     61 CA         22.3830   -5.5190   69.2360 C.3       1 SER         0.1539
     62 C          22.0900   -6.6790   68.2860 C.2       1 SER         0.2057
     63 O          22.6060   -7.7800   68.4720 O.2       1 SER        -0.3943
     64 CB         21.3670   -5.4940   70.3810 C.3       1 SER         0.0843
     65 OG         21.8580   -4.7270   71.4790 O.3       1 SER        -0.3903
     66 N          21.2670   -6.4210   67.2720 N.am      1 THR        -0.2669
     67 CA         20.9540   -7.4070   66.2280 C.3       1 THR         0.1198
     68 C          22.2370   -7.9820   65.6090 C.2       1 THR         0.0626
     69 O          22.2662   -9.1729   65.1986 O.co2     1 THR        -0.5665
     70 CB         20.0720   -6.7660   65.1140 C.3       1 THR         0.0869
     71 OG1        18.7380   -6.5780   65.6060 O.3       1 THR        -0.3880
     72 CG2        20.0210   -7.6320   63.8490 C.3       1 THR        -0.0352
     73 H          16.1634    6.1208   68.3863 H         1 ASP         0.2016
     74 H          15.7534    6.6095   69.9257 H         1 ASP         0.2016
     75 H          16.7050    7.5857   68.9673 H         1 ASP         0.2016
     76 H          18.4810    5.9942   68.9854 H         1 ASP         0.1117
     77 H          17.6704    6.2953   71.8580 H         1 ASP         0.0512
     78 H          18.0404    7.7559   70.8497 H         1 ASP         0.0512
     79 H          15.5220    5.0167   70.6103 H         1 ALA         0.1884
     80 H          16.2761    2.5291   71.6683 H         1 ALA         0.0797
     81 H          14.0695    3.5367   72.0343 H         1 ALA         0.0277
     82 H          13.6562    3.2901   70.3198 H         1 ALA         0.0277
     83 H          13.8991    1.8862   71.3880 H         1 ALA         0.0277
     84 H          15.0868    3.2114   68.3681 H         1 LEU         0.1883
     85 H          15.3154    0.5643   67.3793 H         1 LEU         0.0800
     86 H          15.5608    1.7260   65.1612 H         1 LEU         0.0315
     87 H          15.3548    3.3016   66.2105 H         1 LEU         0.0315
     88 H          13.3119    1.1736   65.7334 H         1 LEU         0.0298
     89 H          13.0301    2.3198   67.8423 H         1 LEU         0.0232
     90 H          13.1280    3.8974   67.0219 H         1 LEU         0.0232
     91 H          11.7685    2.7991   66.6805 H         1 LEU         0.0232
     92 H          13.7101    3.9591   64.5408 H         1 LEU         0.0232
     93 H          13.8875    2.4202   63.6625 H         1 LEU         0.0232
     94 H          12.2897    2.9201   64.2692 H         1 LEU         0.0232
     95 H          17.6505    3.1976   67.5129 H         1 LEU         0.1883
     96 H          19.6621    2.0545   65.8476 H         1 LEU         0.0800
     97 H          19.9093    3.8364   68.2384 H         1 LEU         0.0315
     98 H          19.5855    4.3319   66.4167 H         1 LEU         0.0315
     99 H          22.1358    3.5444   67.7665 H         1 LEU         0.0298
    100 H          22.0183    2.4663   65.6187 H         1 LEU         0.0232
    101 H          21.5771    4.0103   64.8491 H         1 LEU         0.0232
    102 H          23.1752    3.8200   65.6114 H         1 LEU         0.0232
    103 H          21.0512    6.0076   66.3121 H         1 LEU         0.0232
    104 H          21.2854    5.8734   68.0722 H         1 LEU         0.0232
    105 H          22.6934    5.8502   66.9823 H         1 LEU         0.0232
    106 H          19.4311    2.0803   69.4152 H         1 ALA         0.1883
    107 H          21.6662    0.3750   69.8433 H         1 ALA         0.0797
    108 H          20.6566    1.7112   71.6252 H         1 ALA         0.0277
    109 H          19.1677    0.7390   71.5299 H         1 ALA         0.0277
    110 H          20.6879   -0.0117   72.0745 H         1 ALA         0.0277
    111 H          18.2861   -0.3154   69.1081 H         1 ASP         0.1884
    112 H          18.3423   -3.1214   69.6783 H         1 ASP         0.0819
    113 H          16.6847   -1.5737   67.6662 H         1 ASP         0.0478
    114 H          16.2724   -1.8781   69.4071 H         1 ASP         0.0478
    115 H          18.7131   -1.3542   66.5927 H         1 LEU         0.1883
    116 H          19.3969   -3.5575   64.9648 H         1 LEU         0.0800
    117 H          19.6975   -0.6566   64.9450 H         1 LEU         0.0315
    118 H          19.2399   -1.8759   63.5877 H         1 LEU         0.0315
    119 H          22.0402   -1.3259   64.3789 H         1 LEU         0.0298
    120 H          21.6644   -3.2348   62.9615 H         1 LEU         0.0232
    121 H          20.7732   -2.2298   61.7923 H         1 LEU         0.0232
    122 H          22.5113   -1.9519   62.0625 H         1 LEU         0.0232
    123 H          20.3603    0.2607   62.3992 H         1 LEU         0.0232
    124 H          21.0551    0.8738   63.9198 H         1 LEU         0.0232
    125 H          22.1269    0.3906   62.5823 H         1 LEU         0.0232
    126 H          21.4339   -1.4506   66.9723 H         1 GLU         0.1883
    127 H          23.9712   -2.4762   66.2342 H         1 GLU         0.0801
    128 H          23.2058   -1.5701   69.0009 H         1 GLU         0.0330
    129 H          23.4926   -0.4408   67.5792 H         1 GLU         0.0330
    130 H          25.4332   -0.4271   68.9144 H         1 GLU         0.0433
    131 H          25.7726   -1.4484   67.4486 H         1 GLU         0.0433
    132 H          21.6535   -3.5745   68.6988 H         1 SER         0.1884
    133 H          23.3781   -5.6858   69.6483 H         1 SER         0.0823
    134 H          21.1919   -6.5160   70.7172 H         1 SER         0.0606
    135 H          20.4436   -5.0403   70.0210 H         1 SER         0.0606
    136 H          22.0218   -3.8261   71.1907 H         1 SER         0.2097
    137 H          20.8347   -5.4987   67.2172 H         1 THR         0.1876
    138 H          20.3997   -8.2205   66.6961 H         1 THR         0.0752
    139 O          23.2647   -7.2595   65.5113 O.co2     1 THR        -0.5665
    140 H          20.5223   -5.8091   64.8501 H         1 THR         0.0632
    141 H          18.7589   -5.9979   66.3707 H         1 THR         0.2100
    142 H          21.0295   -7.7568   63.4547 H         1 THR         0.0256
    143 H          19.6024   -8.6079   64.0949 H         1 THR         0.0256
    144 H          19.3950   -7.1446   63.1015 H         1 THR         0.0256
@<TRIPOS>BOND
     1    1    2 1  
     2    2    3 1  
     3    2    5 1  
     4    3    4 2  
     5    3    9 am 
     6    5    6 1  
     7    6    7 ar 
     8    6    8 ar 
     9    9   10 1  
    10   10   11 1  
    11   10   13 1  
    12   11   12 2  
    13   11   14 am 
    14   14   15 1  
    15   15   16 1  
    16   15   18 1  
    17   16   17 2  
    18   16   22 am 
    19   18   19 1  
    20   19   20 1  
    21   19   21 1  
    22   22   23 1  
    23   23   24 1  
    24   23   26 1  
    25   24   25 2  
    26   24   30 am 
    27   26   27 1  
    28   27   28 1  
    29   27   29 1  
    30   30   31 1  
    31   31   32 1  
    32   31   34 1  
    33   32   33 2  
    34   32   35 am 
    35   35   36 1  
    36   36   37 1  
    37   36   39 1  
    38   37   38 2  
    39   37   43 am 
    40   39   40 1  
    41   40   41 ar 
    42   40   42 ar 
    43   43   44 1  
    44   44   45 1  
    45   44   47 1  
    46   45   46 2  
    47   45   51 am 
    48   47   48 1  
    49   48   49 1  
    50   48   50 1  
    51   51   52 1  
    52   52   53 1  
    53   52   55 1  
    54   53   54 2  
    55   53   60 am 
    56   55   56 1  
    57   56   57 1  
    58   57   58 ar 
    59   57   59 ar 
    60   60   61 1  
    61   61   62 1  
    62   61   64 1  
    63   62   63 2  
    64   62   66 am 
    65   64   65 1  
    66   66   67 1  
    67   67   68 1  
    68   67   70 1  
    69   68   69 ar 
    70   70   71 1  
    71   70   72 1  
    72    1   73 1  
    73    1   74 1  
    74    1   75 1  
    75    2   76 1  
    76    5   77 1  
    77    5   78 1  
    78    9   79 1  
    79   10   80 1  
    80   13   81 1  
    81   13   82 1  
    82   13   83 1  
    83   14   84 1  
    84   15   85 1  
    85   18   86 1  
    86   18   87 1  
    87   19   88 1  
    88   20   89 1  
    89   20   90 1  
    90   20   91 1  
    91   21   92 1  
    92   21   93 1  
    93   21   94 1  
    94   22   95 1  
    95   23   96 1  
    96   26   97 1  
    97   26   98 1  
    98   27   99 1  
    99   28  100 1  
   100   28  101 1  
   101   28  102 1  
   102   29  103 1  
   103   29  104 1  
   104   29  105 1  
   105   30  106 1  
   106   31  107 1  
   107   34  108 1  
   108   34  109 1  
   109   34  110 1  
   110   35  111 1  
   111   36  112 1  
   112   39  113 1  
   113   39  114 1  
   114   43  115 1  
   115   44  116 1  
   116   47  117 1  
   117   47  118 1  
   118   48  119 1  
   119   49  120 1  
   120   49  121 1  
   121   49  122 1  
   122   50  123 1  
   123   50  124 1  
   124   50  125 1  
   125   51  126 1  
   126   52  127 1  
   127   55  128 1  
   128   55  129 1  
   129   56  130 1  
   130   56  131 1  
   131   60  132 1  
   132   61  133 1  
   133   64  134 1  
   134   64  135 1  
   135   65  136 1  
   136   66  137 1  
   137   67  138 1  
   138   68  139 ar 
   139   70  140 1  
   140   71  141 1  
   141   72  142 1  
   142   72  143 1  
   143   72  144 1  
@<TRIPOS>SUBSTRUCTURE
     1 ASP         1

