6ek3_ligand
  -I-interpret- 

 31 32  0  0  0  0  0  0  0  0999 V2000
  -33.3580   15.5200  168.1180 C   0  0  0  0  0
  -34.4680   16.2350  167.6390 C   0  0  0  0  0
  -35.7390   16.0560  168.2070 C   0  0  0  0  0
  -36.8420   16.7900  167.6960 C   0  0  0  0  0
  -36.6850   17.6810  166.8530 O   0  0  0  0  0
  -38.0540   16.3640  168.0640 N   0  0  0  0  0
  -35.8960   15.1410  169.2540 C   0  0  0  0  0
  -34.7920   14.4210  169.7410 C   0  0  0  0  0
  -33.5110   14.6160  169.1820 C   0  0  0  0  0
  -32.4360   13.8410  169.6280 O   0  0  0  0  0
  -31.3270   14.2770  170.2810 C   0  0  0  0  0
  -31.4290   15.2720  171.2320 C   0  0  0  0  0
  -30.3110   15.6730  171.9380 C   0  0  0  0  0
  -29.0700   15.0870  171.7060 C   0  0  0  0  0
  -27.9180   15.5440  172.3880 C   0  0  0  0  0
  -26.8120   15.5120  171.8390 O   0  0  0  0  0
  -28.0690   16.0260  173.6170 N   0  0  0  0  0
  -28.9780   14.0740  170.7420 C   0  0  0  0  0
  -30.1140   13.6380  170.0210 C   0  0  0  0  0
  -32.3779   15.6667  167.6640 H   0  0  0  0  0
  -34.3408   16.9379  166.8157 H   0  0  0  0  0
  -38.8881   16.7762  167.6460 H   0  0  0  0  0
  -38.1450   15.6266  168.7629 H   0  0  0  0  0
  -36.8809   14.9858  169.6945 H   0  0  0  0  0
  -34.9257   13.7082  170.5547 H   0  0  0  0  0
  -32.3930   15.7422  171.4264 H   0  0  0  0  0
  -30.4022   16.4594  172.6872 H   0  0  0  0  0
  -27.2609   16.3804  174.1287 H   0  0  0  0  0
  -28.9930   16.0416  174.0487 H   0  0  0  0  0
  -28.0107   13.6124  170.5437 H   0  0  0  0  0
  -30.0446   12.8329  169.2895 H   0  0  0  0  0
  1  2  4  0  0  0
  1  9  4  0  0  0
  2  3  4  0  0  0
  3  4  1  0  0  0
  3  7  4  0  0  0
  4  5  2  0  0  0
  4  6  1  0  0  0
  7  8  4  0  0  0
  8  9  4  0  0  0
  9 10  1  0  0  0
 10 11  1  0  0  0
 11 12  4  0  0  0
 11 19  4  0  0  0
 12 13  4  0  0  0
 13 14  4  0  0  0
 14 15  1  0  0  0
 14 18  4  0  0  0
 15 16  2  0  0  0
 15 17  1  0  0  0
 18 19  4  0  0  0
  1 20  1  0  0  0
  2 21  1  0  0  0
  6 22  1  0  0  0
  6 23  1  0  0  0
  7 24  1  0  0  0
  8 25  1  0  0  0
 12 26  1  0  0  0
 13 27  1  0  0  0
 17 28  1  0  0  0
 17 29  1  0  0  0
 18 30  1  0  0  0
 19 31  1  0  0  0
M  END
$$$$
