3vf8_ligand
  -I-interpret- 

 45 47  0  0  0  0  0  0  0  0999 V2000
    4.5720   -5.0060  -16.7650 C   0  0  0  0  0
    3.2220   -4.5530  -16.2050 C   0  0  0  0  0
    3.3930   -3.1970  -15.7650 O   0  0  0  0  0
    2.2550   -2.5230  -15.4210 C   0  0  0  0  0
    1.0200   -2.7800  -16.0330 C   0  0  0  0  0
    2.3540   -1.5140  -14.4610 C   0  0  0  0  0
    3.5420   -1.2640  -13.8740 F   0  0  0  0  0
    1.2310   -0.7670  -14.1040 C   0  0  0  0  0
    0.0010   -1.0360  -14.7060 C   0  0  0  0  0
   -1.2060   -0.5050  -14.5580 N   0  0  0  0  0
   -0.1040   -2.0300  -15.6740 C   0  0  0  0  0
   -1.3730   -2.0450  -16.0760 N   0  0  0  0  0
   -2.0470   -1.1150  -15.3930 C   0  0  0  0  0
   -3.4030   -0.8210  -15.5420 C   0  0  0  0  0
   -4.3120   -1.4190  -16.3090 N   0  0  0  0  0
   -5.4060   -0.8530  -16.1720 N   0  0  0  0  0
   -5.3230    0.1700  -15.3100 C   0  0  0  0  0
   -4.0630    0.2050  -14.8860 C   0  0  0  0  0
   -3.4790    1.0910  -14.0620 N   0  0  0  0  0
   -3.8440    2.3670  -13.8430 C   0  0  0  0  0
   -4.8560    2.8660  -14.3390 O   0  0  0  0  0
   -3.0630    3.0810  -13.0180 N   0  0  0  0  0
   -1.8470    2.5140  -12.4070 C   0  0  0  0  0
   -0.6280    2.9530  -13.2200 C   0  0  0  0  0
   -3.3850    4.4800  -12.6830 C   0  0  0  0  0
   -2.9330    5.3950  -13.8240 C   0  0  0  0  0
    4.8541   -4.3602  -17.5965 H   0  0  0  0  0
    5.3280   -4.9438  -15.9822 H   0  0  0  0  0
    4.4922   -6.0356  -17.1138 H   0  0  0  0  0
    2.9089   -5.1929  -15.3800 H   0  0  0  0  0
    2.4436   -4.6198  -16.9651 H   0  0  0  0  0
    0.9364   -3.5627  -16.7869 H   0  0  0  0  0
    1.3140    0.0234  -13.3580 H   0  0  0  0  0
   -6.1295    0.8412  -15.0146 H   0  0  0  0  0
   -2.6662    0.7581  -13.5434 H   0  0  0  0  0
   -1.9121    1.4260  -12.4017 H   0  0  0  0  0
   -1.7515    2.8700  -11.3812 H   0  0  0  0  0
   -0.7270    2.5929  -14.2440 H   0  0  0  0  0
   -0.5660    4.0412  -13.2205 H   0  0  0  0  0
    0.2746    2.5366  -12.7727 H   0  0  0  0  0
   -2.8690    4.7618  -11.7652 H   0  0  0  0  0
   -4.4609    4.5811  -12.5407 H   0  0  0  0  0
   -1.8570    5.2930  -13.9653 H   0  0  0  0  0
   -3.4496    5.1122  -14.7412 H   0  0  0  0  0
   -3.1716    6.4290  -13.5751 H   0  0  0  0  0
  1  2  1  0  0  0
  2  3  1  0  0  0
  3  4  1  0  0  0
  4  5  4  0  0  0
  4  6  4  0  0  0
  5 11  4  0  0  0
  6  7  1  0  0  0
  6  8  4  0  0  0
  8  9  4  0  0  0
  9 10  4  0  0  0
  9 11  4  0  0  0
 10 13  4  0  0  0
 11 12  4  0  0  0
 12 13  4  0  0  0
 13 14  1  0  0  0
 14 15  4  0  0  0
 14 18  4  0  0  0
 15 16  4  0  0  0
 16 17  4  0  0  0
 17 18  4  0  0  0
 18 19  1  0  0  0
 19 20  1  0  0  0
 20 21  2  0  0  0
 20 22  1  0  0  0
 22 23  1  0  0  0
 22 25  1  0  0  0
 23 24  1  0  0  0
 25 26  1  0  0  0
  1 27  1  0  0  0
  1 28  1  0  0  0
  1 29  1  0  0  0
  2 30  1  0  0  0
  2 31  1  0  0  0
  5 32  1  0  0  0
  8 33  1  0  0  0
 17 34  1  0  0  0
 19 35  1  0  0  0
 23 36  1  0  0  0
 23 37  1  0  0  0
 24 38  1  0  0  0
 24 39  1  0  0  0
 24 40  1  0  0  0
 25 41  1  0  0  0
 25 42  1  0  0  0
 26 43  1  0  0  0
 26 44  1  0  0  0
 26 45  1  0  0  0
M  END
$$$$
