4xhe_ligand
  -I-interpret- 

112119  0  0  0  0  0  0  0  0999 V2000
    1.7440   -3.0870   51.2470 C   0  0  0  0  0
   -3.0670    0.3370   52.4300 C   0  0  0  0  0
   -0.3310   -1.8680   51.8480 C   0  0  0  0  0
   -1.8000   -0.0870   51.7080 C   0  0  0  0  0
    4.5010   -3.2290   51.6850 O   0  0  0  0  0
    4.4420   -5.3740   51.3740 O   0  0  0  0  0
    3.8720   -4.2740   51.4190 C   0  0  0  0  0
    2.4270   -4.2420   51.1300 C   0  0  0  0  0
    1.7980   -5.5360   50.6950 C   0  0  0  0  0
    0.3420   -5.3710   50.2530 C   0  0  0  0  0
   -0.4340   -4.3480   51.0690 C   0  0  0  0  0
   -0.4490   -4.8250   52.5440 C   0  0  0  0  0
   -1.7730   -4.5900   53.2980 C   0  0  0  0  0
   -1.5440   -4.4500   54.8120 C   0  0  0  0  0
   -2.7600   -5.7130   53.0580 C   0  0  0  0  0
   -4.1980   -5.2280   53.2530 C   0  0  0  0  0
   -2.5880   -6.3750   51.6970 C   0  0  0  0  0
   -2.6460   -5.3180   50.6650 N   0  0  0  0  0
   -1.8120   -4.4070   50.3780 C   0  0  0  0  0
   -2.1610   -3.4640   49.2340 C   0  0  0  0  0
   -3.6420   -3.4120   48.8690 C   0  0  0  0  0
   -4.4500   -2.7740   49.9830 C   0  0  0  0  0
   -5.8760   -2.4130   49.6020 C   0  0  0  0  0
   -6.4550   -2.8970   48.5110 C   0  0  0  0  0
   -6.6500   -1.4880   50.5170 C   0  0  0  0  0
   -6.7300   -1.9660   51.9830 C   0  0  0  0  0
   -7.3890   -3.3260   52.1540 C   0  0  0  0  0
   -7.6340   -3.6550   53.6310 C   0  0  0  0  0
   -8.2360   -2.4660   54.3840 C   0  0  0  0  0
   -8.2760   -2.7640   55.7800 O   0  0  0  0  0
   -9.6490   -2.1630   53.8600 C   0  0  0  0  0
   -7.3400   -0.9560   52.7760 O   0  0  0  0  0
   -7.3560   -1.2670   54.1790 C   0  0  0  0  0
   -6.0020   -1.4890   54.6380 O   0  0  0  0  0
   -7.8770   -0.0090   54.8840 C   0  0  0  0  0
   -6.6270    0.7210   55.3010 C   0  0  0  0  0
   -5.4570   -0.2180   55.0490 C   0  0  0  0  0
   -4.6240    0.2890   54.0100 O   0  0  0  0  0
   -4.7590   -0.3870   56.3660 C   0  0  0  0  0
   -3.5200   -1.2410   56.0260 C   0  0  0  0  0
   -2.6880   -0.6750   54.8480 C   0  0  0  0  0
   -3.5280   -0.5460   53.5960 C   0  0  0  0  0
   -1.6820   -1.5030   51.5070 O   0  0  0  0  0
   -0.6620    0.2900   52.4520 O   0  0  0  0  0
    0.3790   -0.5170   51.9140 C   0  0  0  0  0
    0.7810    0.1030   50.5670 C   0  0  0  0  0
    1.3540    1.3900   50.8080 O   0  0  0  0  0
   -0.4260    0.2630   49.6270 C   0  0  0  0  0
   -0.1730    1.2600   48.4920 C   0  0  0  0  0
   -1.6760    0.6650   50.3820 C   0  0  0  0  0
    0.2580   -2.9600   50.9340 C   0  0  0  0  0
    2.2806   -2.1994   51.5821 H   0  0  0  0  0
   -3.8637    0.2915   51.6875 H   0  0  0  0  0
   -2.8521    1.3144   52.8620 H   0  0  0  0  0
   -0.2209   -2.3874   52.8000 H   0  0  0  0  0
    3.8978   -2.4823   51.6743 H   0  0  0  0  0
    1.8125   -6.2162   51.5466 H   0  0  0  0  0
    2.3643   -5.9117   49.8428 H   0  0  0  0  0
   -0.1498   -6.3345   50.3865 H   0  0  0  0  0
    0.3529   -5.0229   49.2201 H   0  0  0  0  0
    0.3146   -4.2488   53.0665 H   0  0  0  0  0
   -0.2870   -5.9027   52.5255 H   0  0  0  0  0
   -2.1854   -3.6597   52.9075 H   0  0  0  0  0
   -1.0862   -5.3621   55.1948 H   0  0  0  0  0
   -0.8841   -3.6035   55.0016 H   0  0  0  0  0
   -2.5000   -4.2855   55.3091 H   0  0  0  0  0
   -2.5452   -6.4786   53.8035 H   0  0  0  0  0
   -4.3221   -4.8639   54.2729 H   0  0  0  0  0
   -4.4066   -4.4215   52.5500 H   0  0  0  0  0
   -4.8861   -6.0543   53.0745 H   0  0  0  0  0
   -3.3784   -7.1071   51.5314 H   0  0  0  0  0
   -1.6317   -6.8960   51.6495 H   0  0  0  0  0
   -1.6327   -3.8291   48.3533 H   0  0  0  0  0
   -1.8813   -2.4611   49.5567 H   0  0  0  0  0
   -4.0012   -4.4292   48.7129 H   0  0  0  0  0
   -3.7599   -2.8161   47.9640 H   0  0  0  0  0
   -3.9466   -1.8447   50.2495 H   0  0  0  0  0
   -4.5111   -3.5038   50.7903 H   0  0  0  0  0
   -5.9058   -3.5749   47.8576 H   0  0  0  0  0
   -7.4799   -2.6168   48.2680 H   0  0  0  0  0
   -7.6710   -1.4424   50.1382 H   0  0  0  0  0
   -6.1298   -0.5302   50.5197 H   0  0  0  0  0
   -5.7104   -2.1243   52.3342 H   0  0  0  0  0
   -6.7251   -4.0842   51.7386 H   0  0  0  0  0
   -8.3509   -3.3086   51.6417 H   0  0  0  0  0
   -6.6774   -3.9037   54.0906 H   0  0  0  0  0
   -8.3361   -4.4869   53.6855 H   0  0  0  0  0
   -8.6533   -2.0195   56.2543 H   0  0  0  0  0
   -9.5976   -1.9234   52.7979 H   0  0  0  0  0
  -10.2845   -3.0364   54.0064 H   0  0  0  0  0
  -10.0633   -1.3151   54.4055 H   0  0  0  0  0
   -8.5182   -0.2472   55.7326 H   0  0  0  0  0
   -8.5106    0.5953   54.2348 H   0  0  0  0  0
   -6.6770    1.0003   56.3534 H   0  0  0  0  0
   -6.5109    1.6427   54.7309 H   0  0  0  0  0
   -5.3955   -0.8620   57.1126 H   0  0  0  0  0
   -4.4907    0.5685   56.8166 H   0  0  0  0  0
   -3.8725   -2.2303   55.7342 H   0  0  0  0  0
   -2.8774   -1.2533   56.9064 H   0  0  0  0  0
   -1.8636   -1.3585   54.6446 H   0  0  0  0  0
   -2.3219    0.3138   55.1244 H   0  0  0  0  0
   -3.6184   -1.5771   53.2544 H   0  0  0  0  0
    1.3190   -0.6039   52.4589 H   0  0  0  0  0
    1.4967   -0.5633   50.0855 H   0  0  0  0  0
    1.6092    1.7871   49.9720 H   0  0  0  0  0
   -0.5768   -0.7200   49.1809 H   0  0  0  0  0
    0.0509    2.2398   48.9139 H   0  0  0  0  0
    0.6713    0.9196   47.8926 H   0  0  0  0  0
   -1.0618    1.3276   47.8647 H   0  0  0  0  0
   -1.6207    1.7324   50.5956 H   0  0  0  0  0
   -2.5425    0.4228   49.7667 H   0  0  0  0  0
    0.0852   -2.6500   49.9034 H   0  0  0  0  0
  8  1  2  0  0  0
  1 51  1  0  0  0
  4  2  1  0  0  0
  2 42  1  0  0  0
  3 43  1  0  0  0
  3 45  1  0  0  0
 51  3  1  0  0  0
 43  4  1  0  0  0
  4 44  1  0  0  0
  4 50  1  0  0  0
  7  5  1  0  0  0
  7  6  2  0  0  0
  7  8  1  0  0  0
  8  9  1  0  0  0
  9 10  1  0  0  0
 10 11  1  0  0  0
 11 12  1  0  0  0
 11 19  1  0  0  0
 11 51  1  0  0  0
 12 13  1  0  0  0
 13 14  1  0  0  0
 13 15  1  0  0  0
 15 16  1  0  0  0
 15 17  1  0  0  0
 17 18  1  0  0  0
 18 19  2  0  0  0
 19 20  1  0  0  0
 20 21  1  0  0  0
 21 22  1  0  0  0
 22 23  1  0  0  0
 23 24  2  0  0  0
 23 25  1  0  0  0
 25 26  1  0  0  0
 26 27  1  0  0  0
 26 32  1  0  0  0
 27 28  1  0  0  0
 28 29  1  0  0  0
 29 30  1  0  0  0
 29 31  1  0  0  0
 29 33  1  0  0  0
 32 33  1  0  0  0
 33 34  1  0  0  0
 33 35  1  0  0  0
 34 37  1  0  0  0
 35 36  1  0  0  0
 36 37  1  0  0  0
 37 38  1  0  0  0
 37 39  1  0  0  0
 38 42  1  0  0  0
 39 40  1  0  0  0
 40 41  1  0  0  0
 41 42  1  0  0  0
 44 45  1  0  0  0
 45 46  1  0  0  0
 46 47  1  0  0  0
 46 48  1  0  0  0
 48 49  1  0  0  0
 48 50  1  0  0  0
  1 52  1  0  0  0
  2 53  1  0  0  0
  2 54  1  0  0  0
  3 55  1  0  0  0
  5 56  1  0  0  0
  9 57  1  0  0  0
  9 58  1  0  0  0
 10 59  1  0  0  0
 10 60  1  0  0  0
 12 61  1  0  0  0
 12 62  1  0  0  0
 13 63  1  0  0  0
 14 64  1  0  0  0
 14 65  1  0  0  0
 14 66  1  0  0  0
 15 67  1  0  0  0
 16 68  1  0  0  0
 16 69  1  0  0  0
 16 70  1  0  0  0
 17 71  1  0  0  0
 17 72  1  0  0  0
 20 73  1  0  0  0
 20 74  1  0  0  0
 21 75  1  0  0  0
 21 76  1  0  0  0
 22 77  1  0  0  0
 22 78  1  0  0  0
 24 79  1  0  0  0
 24 80  1  0  0  0
 25 81  1  0  0  0
 25 82  1  0  0  0
 26 83  1  0  0  0
 27 84  1  0  0  0
 27 85  1  0  0  0
 28 86  1  0  0  0
 28 87  1  0  0  0
 30 88  1  0  0  0
 31 89  1  0  0  0
 31 90  1  0  0  0
 31 91  1  0  0  0
 35 92  1  0  0  0
 35 93  1  0  0  0
 36 94  1  0  0  0
 36 95  1  0  0  0
 39 96  1  0  0  0
 39 97  1  0  0  0
 40 98  1  0  0  0
 40 99  1  0  0  0
 41100  1  0  0  0
 41101  1  0  0  0
 42102  1  0  0  0
 45103  1  0  0  0
 46104  1  0  0  0
 47105  1  0  0  0
 48106  1  0  0  0
 49107  1  0  0  0
 49108  1  0  0  0
 49109  1  0  0  0
 50110  1  0  0  0
 50111  1  0  0  0
 51112  1  0  0  0
M  END
$$$$
