5gj9_ligand
  -I-interpret- 

 13 13  0  0  0  0  0  0  0  0999 V2000
   12.9100   -6.4070  -35.1010 C   0  0  0  0  0
   10.6630   -6.4240  -35.5670 C   0  0  0  0  0
   10.3820   -6.3520  -34.2010 C   0  0  0  0  0
   14.3590   -6.4350  -35.5630 C   0  0  0  0  0
   12.6320   -6.3350  -33.7350 C   0  0  0  0  0
   14.6520   -6.4170  -36.8020 O   0  0  0  0  0
   15.2510   -6.5020  -34.6790 O   0  0  0  0  0
   11.9200   -6.4450  -35.9820 N   0  0  0  0  0
   11.3730   -6.3130  -33.3190 N   0  0  0  0  0
    9.8486   -6.4629  -36.2905 H   0  0  0  0  0
    9.3474   -6.3278  -33.8587 H   0  0  0  0  0
   13.4472   -6.2970  -33.0125 H   0  0  0  0  0
   13.8453   -6.3638  -37.3197 H   0  0  0  0  0
  1  4  1  0  0  0
  1  5  4  0  0  0
  8  1  4  0  0  0
  2  3  4  0  0  0
  2  8  4  0  0  0
  3  9  4  0  0  0
  4  6  1  0  0  0
  4  7  2  0  0  0
  5  9  4  0  0  0
  2 10  1  0  0  0
  3 11  1  0  0  0
  5 12  1  0  0  0
  6 13  1  0  0  0
M  END
$$$$
