### 
### Created by X-TOOL on Mon Sep 10 21:12:53 2018
### 

@<TRIPOS>MOLECULE
2h5d_ligand
   68    68     1     0     0
SMALL
GAST_HUCK


@<TRIPOS>ATOM
      1 C1         12.0030   41.8080   18.0220 C.2       1 MSU         0.1806
      2 O1         11.7280   41.1780   17.0060 O.2       1 MSU        -0.3968
      3 C2         11.3350   43.1730   18.2350 C.3       1 MSU         0.0555
      4 C3         10.4690   43.5190   17.0560 C.3       1 MSU         0.0655
      5 C4         11.2390   43.7670   15.7640 C.2       1 MSU         0.2357
      6 OT1        12.4520   43.8460   15.7000 O.2       1 MSU        -0.3703
      7 OT2        10.4530   43.8690   14.6090 O.3       1 MSU        -0.2801
      8 CT         11.0430   44.6880   13.5810 C.3       1 MSU         0.0658
      9 N          12.8750   41.4490   18.9540 N.am      1 ALA        -0.2658
     10 CA         13.6860   40.2690   18.6580 C.3       1 ALA         0.1281
     11 C          12.8270   39.0200   18.7220 C.2       1 ALA         0.2036
     12 O          11.9950   38.8650   19.6150 O.2       1 ALA        -0.3944
     13 CB         14.7980   40.1460   19.6830 C.3       1 ALA        -0.0244
     14 N          13.0720   38.0980   17.8260 N.am      1 ALA        -0.2640
     15 CA         12.4190   36.8260   17.7730 C.3       1 ALA         0.1284
     16 C          13.4750   35.7560   17.4670 C.2       1 ALA         0.2061
     17 O          14.3870   36.0250   16.6620 O.2       1 ALA        -0.3942
     18 CB         11.3340   36.7470   16.7070 C.3       1 ALA        -0.0244
     19 N          13.3040   34.6160   18.0430 N.am      1 PRO        -0.2498
     20 CA         14.0830   33.4280   17.6150 C.3       1 PRO         0.1336
     21 C          13.7060   33.0860   16.1690 C.2       1 PRO         0.2010
     22 O          12.5510   33.2550   15.8030 O.2       1 PRO        -0.3946
     23 CB         13.6280   32.3410   18.5960 C.3       1 PRO        -0.0104
     24 CG         12.9650   33.0490   19.7250 C.3       1 PRO        -0.0281
     25 CD         12.3130   34.2340   19.0490 C.3       1 PRO         0.0369
     26 N          14.6750   32.5670   15.4270 N.am      1 B2V        -0.2915
     27 CA         14.5030   32.0300   14.0660 C.3       1 B2V         0.0555
     28 CB         15.2560   32.9000   13.0420 C.3       1 B2V        -0.0325
     29 CG1        14.7040   34.3090   12.9850 C.3       1 B2V        -0.0617
     30 CG2        16.7660   32.8940   13.2340 C.3       1 B2V        -0.0617
     31 B          14.8490   30.4590   14.0470 B         1 B2V         0.7166
     32 O1         14.8550   29.9150   12.6660 O.3       1 B2V        -0.4967
     33 O2         13.8450   29.6500   14.8530 O.3       1 B2V        -0.4967
     34 H1         12.1118   43.9428   18.3531 H         1 MSU         0.0528
     35 H2         10.7146   43.1359   19.1426 H         1 MSU         0.0528
     36 H3          9.9027   44.4300   17.2999 H         1 MSU         0.0543
     37 H4          9.7698   42.6870   16.8861 H         1 MSU         0.0543
     38 H5         10.3729   44.7216   12.7093 H         1 MSU         0.0577
     39 H6         12.0116   44.2607   13.2826 H         1 MSU         0.0577
     40 H7         11.1948   45.7071   13.9661 H         1 MSU         0.0577
     41 H8         12.9724   41.9562   19.8103 H         1 ALA         0.1882
     42 H9         14.1195   40.3669   17.6518 H         1 ALA         0.0797
     43 H10        15.4069   39.2578   19.4586 H         1 ALA         0.0277
     44 H11        14.3613   40.0468   20.6877 H         1 ALA         0.0277
     45 H12        15.4320   41.0441   19.6458 H         1 ALA         0.0277
     46 H13        13.7630   38.2961   17.1308 H         1 ALA         0.1883
     47 H14        11.9625   36.6248   18.7534 H         1 ALA         0.0797
     48 H15        10.8768   35.7466   16.7226 H         1 ALA         0.0277
     49 H16        11.7778   36.9318   15.7176 H         1 ALA         0.0277
     50 H17        10.5637   37.5054   16.9108 H         1 ALA         0.0277
     51 H18        15.1666   33.6017   17.6906 H         1 PRO         0.0802
     52 H19        14.4946   31.7700   18.9607 H         1 PRO         0.0313
     53 H20        12.9188   31.6579   18.1057 H         1 PRO         0.0313
     54 H21        13.7018   33.3770   20.4730 H         1 PRO         0.0287
     55 H22        12.2136   32.4067   20.2075 H         1 PRO         0.0287
     56 H23        11.3606   33.9478   18.5789 H         1 PRO         0.0524
     57 H24        12.1380   35.0515   19.7638 H         1 PRO         0.0524
     58 H25        15.5933   32.5379   15.8219 H         1 B2V         0.1840
     59 H26        13.4358   32.1135   13.8127 H         1 B2V         0.0434
     60 H27        15.0683   32.4484   12.0567 H         1 B2V         0.0305
     61 H28        15.2683   34.8941   12.2440 H         1 B2V         0.0233
     62 H29        14.7994   34.7805   13.9742 H         1 B2V         0.0233
     63 H30        13.6434   34.2759   12.6953 H         1 B2V         0.0233
     64 H31        17.1269   31.8555   13.2702 H         1 B2V         0.0233
     65 H32        17.0179   33.4027   14.1762 H         1 B2V         0.0233
     66 H33        17.2445   33.4194   12.3944 H         1 B2V         0.0233
     67 H34        15.1075   28.9994   12.6886 H         1 B2V         0.1667
     68 H35        13.8195   29.9769   15.7446 H         1 B2V         0.1667
@<TRIPOS>BOND
     1    1    2 2  
     2    1    3 1  
     3    1    9 am 
     4    3    4 1  
     5    4    5 1  
     6    5    6 2  
     7    5    7 1  
     8    7    8 1  
     9    9   10 1  
    10   10   11 1  
    11   10   13 1  
    12   11   12 2  
    13   11   14 am 
    14   14   15 1  
    15   15   16 1  
    16   15   18 1  
    17   16   17 2  
    18   16   19 am 
    19   19   20 1  
    20   19   25 1  
    21   20   21 1  
    22   20   23 1  
    23   21   22 2  
    24   21   26 am 
    25   23   24 1  
    26   24   25 1  
    27   26   27 1  
    28   27   28 1  
    29   27   31 1  
    30   28   29 1  
    31   28   30 1  
    32   31   32 1  
    33   31   33 1  
    34    3   34 1  
    35    3   35 1  
    36    4   36 1  
    37    4   37 1  
    38    8   38 1  
    39    8   39 1  
    40    8   40 1  
    41    9   41 1  
    42   10   42 1  
    43   13   43 1  
    44   13   44 1  
    45   13   45 1  
    46   14   46 1  
    47   15   47 1  
    48   18   48 1  
    49   18   49 1  
    50   18   50 1  
    51   20   51 1  
    52   23   52 1  
    53   23   53 1  
    54   24   54 1  
    55   24   55 1  
    56   25   56 1  
    57   25   57 1  
    58   26   58 1  
    59   27   59 1  
    60   28   60 1  
    61   29   61 1  
    62   29   62 1  
    63   29   63 1  
    64   30   64 1  
    65   30   65 1  
    66   30   66 1  
    67   32   67 1  
    68   33   68 1  
@<TRIPOS>SUBSTRUCTURE
     1 MSU         1

