2h5d_ligand
  -I-interpret- 

 68 68  0  0  0  0  0  0  0  0999 V2000
   12.0030   41.8080   18.0220 C   0  0  0  0  0
   11.7280   41.1780   17.0060 O   0  0  0  0  0
   11.3350   43.1730   18.2350 C   0  0  0  0  0
   10.4690   43.5190   17.0560 C   0  0  0  0  0
   11.2390   43.7670   15.7640 C   0  0  0  0  0
   12.4520   43.8460   15.7000 O   0  0  0  0  0
   10.4530   43.8690   14.6090 O   0  0  0  0  0
   11.0430   44.6880   13.5810 C   0  0  0  0  0
   12.8750   41.4490   18.9540 N   0  0  0  0  0
   13.6860   40.2690   18.6580 C   0  0  0  0  0
   12.8270   39.0200   18.7220 C   0  0  0  0  0
   11.9950   38.8650   19.6150 O   0  0  0  0  0
   14.7980   40.1460   19.6830 C   0  0  0  0  0
   13.0720   38.0980   17.8260 N   0  0  0  0  0
   12.4190   36.8260   17.7730 C   0  0  0  0  0
   13.4750   35.7560   17.4670 C   0  0  0  0  0
   14.3870   36.0250   16.6620 O   0  0  0  0  0
   11.3340   36.7470   16.7070 C   0  0  0  0  0
   13.3040   34.6160   18.0430 N   0  0  0  0  0
   14.0830   33.4280   17.6150 C   0  0  0  0  0
   13.7060   33.0860   16.1690 C   0  0  0  0  0
   12.5510   33.2550   15.8030 O   0  0  0  0  0
   13.6280   32.3410   18.5960 C   0  0  0  0  0
   12.9650   33.0490   19.7250 C   0  0  0  0  0
   12.3130   34.2340   19.0490 C   0  0  0  0  0
   14.6750   32.5670   15.4270 N   0  0  0  0  0
   14.5030   32.0300   14.0660 C   0  0  0  0  0
   15.2560   32.9000   13.0420 C   0  0  0  0  0
   14.7040   34.3090   12.9850 C   0  0  0  0  0
   16.7660   32.8940   13.2340 C   0  0  0  0  0
   14.8490   30.4590   14.0470 B   0  0  0  0  0
   14.8550   29.9150   12.6660 O   0  0  0  0  0
   13.8450   29.6500   14.8530 O   0  0  0  0  0
   12.1074   43.9341   18.3450 H   0  0  0  0  0
   10.7160   43.1305   19.1312 H   0  0  0  0  0
    9.9475   44.4442   17.3014 H   0  0  0  0  0
    9.8119   42.6674   16.8796 H   0  0  0  0  0
   11.1930   45.6975   13.9639 H   0  0  0  0  0
   12.0027   44.2635   13.2862 H   0  0  0  0  0
   10.3781   44.7205   12.7179 H   0  0  0  0  0
   12.9744   41.9664   19.8274 H   0  0  0  0  0
   14.1075   40.3746   17.6584 H   0  0  0  0  0
   15.4254   41.0365   19.6451 H   0  0  0  0  0
   14.3640   40.0479   20.6780 H   0  0  0  0  0
   15.4006   39.2656   19.4596 H   0  0  0  0  0
   13.7768   38.3001   17.1169 H   0  0  0  0  0
   11.9355   36.6698   18.7373 H   0  0  0  0  0
   10.5715   37.4989   16.9101 H   0  0  0  0  0
   11.7750   36.9303   15.7272 H   0  0  0  0  0
   10.8818   35.7554   16.7235 H   0  0  0  0  0
   15.1647   33.5611   17.6302 H   0  0  0  0  0
   14.4740   31.7498   18.9464 H   0  0  0  0  0
   12.9440   31.6410   18.1162 H   0  0  0  0  0
   13.6642   33.3420   20.5082 H   0  0  0  0  0
   12.2503   32.4202   20.2559 H   0  0  0  0  0
   11.3404   33.9957   18.6186 H   0  0  0  0  0
   12.0772   35.0419   19.7417 H   0  0  0  0  0
   15.6117   32.5374   15.8297 H   0  0  0  0  0
   13.4609   32.0899   13.7521 H   0  0  0  0  0
   15.0776   32.4346   12.0726 H   0  0  0  0  0
   13.6530   34.2748   12.6979 H   0  0  0  0  0
   14.7991   34.7751   13.9657 H   0  0  0  0  0
   15.2639   34.8878   12.2504 H   0  0  0  0  0
   17.0063   33.2753   14.2265 H   0  0  0  0  0
   17.1396   31.8748   13.1346 H   0  0  0  0  0
   17.2296   33.5276   12.4779 H   0  0  0  0  0
   15.0644   28.9785   12.6931 H   0  0  0  0  0
   14.0833   28.7207   14.8186 H   0  0  0  0  0
  1  2  2  0  0  0
  1  3  1  0  0  0
  1  9  1  0  0  0
  3  4  1  0  0  0
  4  5  1  0  0  0
  5  6  2  0  0  0
  5  7  1  0  0  0
  7  8  1  0  0  0
  9 10  1  0  0  0
 10 11  1  0  0  0
 10 13  1  0  0  0
 11 12  2  0  0  0
 11 14  1  0  0  0
 14 15  1  0  0  0
 15 16  1  0  0  0
 15 18  1  0  0  0
 16 17  2  0  0  0
 16 19  1  0  0  0
 19 20  1  0  0  0
 19 25  1  0  0  0
 20 21  1  0  0  0
 20 23  1  0  0  0
 21 22  2  0  0  0
 21 26  1  0  0  0
 23 24  1  0  0  0
 24 25  1  0  0  0
 26 27  1  0  0  0
 27 28  1  0  0  0
 27 31  1  0  0  0
 28 29  1  0  0  0
 28 30  1  0  0  0
 31 32  1  0  0  0
 31 33  1  0  0  0
  3 34  1  0  0  0
  3 35  1  0  0  0
  4 36  1  0  0  0
  4 37  1  0  0  0
  8 38  1  0  0  0
  8 39  1  0  0  0
  8 40  1  0  0  0
  9 41  1  0  0  0
 10 42  1  0  0  0
 13 43  1  0  0  0
 13 44  1  0  0  0
 13 45  1  0  0  0
 14 46  1  0  0  0
 15 47  1  0  0  0
 18 48  1  0  0  0
 18 49  1  0  0  0
 18 50  1  0  0  0
 20 51  1  0  0  0
 23 52  1  0  0  0
 23 53  1  0  0  0
 24 54  1  0  0  0
 24 55  1  0  0  0
 25 56  1  0  0  0
 25 57  1  0  0  0
 26 58  1  0  0  0
 27 59  1  0  0  0
 28 60  1  0  0  0
 29 61  1  0  0  0
 29 62  1  0  0  0
 29 63  1  0  0  0
 30 64  1  0  0  0
 30 65  1  0  0  0
 30 66  1  0  0  0
 32 67  1  0  0  0
 33 68  1  0  0  0
M  END
$$$$
