5kit_ligand
  -I-interpret- 

 56 59  0  0  0  0  0  0  0  0999 V2000
   16.4520    0.6760   -5.6580 C   0  0  0  0  0
   14.2850    2.9680   -4.0160 C   0  0  0  0  0
   13.9520    5.4380   -1.7760 C   0  0  0  0  0
   14.8600    2.6330   -1.7470 C   0  0  0  0  0
   15.6030    5.7690    0.3080 C   0  0  0  0  0
   15.9360    8.5290    4.2940 C   0  0  0  0  0
   15.4490    8.7430    5.7300 C   0  0  0  0  0
   15.2080    8.7070    8.0950 C   0  0  0  0  0
   13.6990    9.8770    6.8750 C   0  0  0  0  0
   14.0250    9.8710    4.2290 C   0  0  0  0  0
   14.2240    1.5570   -6.4290 C   0  0  0  0  0
   15.4940    1.8310   -5.6460 C   0  0  0  0  0
   16.1330    3.1020   -6.2160 C   0  0  0  0  0
   15.1880    2.1000   -4.2630 O   0  0  0  0  0
   13.6770    3.5100   -4.8500 O   0  0  0  0  0
   14.0430    3.2800   -2.7410 N   0  0  0  0  0
   13.1070    4.2980   -2.4020 C   0  0  0  0  0
   14.9590    4.8950   -0.7800 C   0  0  0  0  0
   15.7960    3.7060   -1.2110 C   0  0  0  0  0
   14.4210    4.8810    0.6380 C   0  0  0  0  0
   15.4110    7.2880    0.2910 C   0  0  0  0  0
   15.5360    7.8010    1.6500 N   0  0  0  0  0
   14.6490    8.6320    2.1590 C   0  0  0  0  0
   13.7040    9.0600    1.5850 O   0  0  0  0  0
   14.8570    9.0100    3.4400 N   0  0  0  0  0
   15.8930    8.3230    6.9700 C   0  0  0  0  0
   14.1460    9.4370    8.0220 N   0  0  0  0  0
   14.3210    9.5390    5.6860 C   0  0  0  0  0
   15.9720   -0.1971   -5.2160 H   0  0  0  0  0
   16.7380    0.4535   -6.6860 H   0  0  0  0  0
   17.3394    0.9356   -5.0807 H   0  0  0  0  0
   13.2812    6.1204   -1.2540 H   0  0  0  0  0
   14.4930    5.9469   -2.5737 H   0  0  0  0  0
   15.4179    1.8003   -2.1753 H   0  0  0  0  0
   14.2499    2.2073   -0.9504 H   0  0  0  0  0
   16.6158    5.8935    0.6911 H   0  0  0  0  0
   16.8892    8.1059    3.9770 H   0  0  0  0  0
   15.5689    8.3883    9.0729 H   0  0  0  0  0
   12.8204   10.5218    6.8549 H   0  0  0  0  0
   13.3202   10.6158    3.8594 H   0  0  0  0  0
   13.5440    2.4023   -6.3232 H   0  0  0  0  0
   14.4706    1.4170   -7.4815 H   0  0  0  0  0
   13.7480    0.6556   -6.0430 H   0  0  0  0  0
   16.3642    2.9495   -7.2702 H   0  0  0  0  0
   15.4375    3.9348   -6.1120 H   0  0  0  0  0
   17.0501    3.3224   -5.6698 H   0  0  0  0  0
   12.5538    4.6418   -3.2760 H   0  0  0  0  0
   12.3498    3.9323   -1.7084 H   0  0  0  0  0
   16.5026    4.0066   -1.9846 H   0  0  0  0  0
   16.3616    3.3196   -0.3631 H   0  0  0  0  0
   13.4571    4.9689    1.1393 H   0  0  0  0  0
   14.1477    4.1441    1.3932 H   0  0  0  0  0
   14.4229    7.5279   -0.1016 H   0  0  0  0  0
   16.1690    7.7459   -0.3445 H   0  0  0  0  0
   16.3295    7.5095    2.2208 H   0  0  0  0  0
   16.7786    7.6930    7.0531 H   0  0  0  0  0
 12  1  1  0  0  0
  2 14  1  0  0  0
  2 15  2  0  0  0
 16  2  1  0  0  0
  3 17  1  0  0  0
 18  3  1  0  0  0
  4 16  1  0  0  0
 19  4  1  0  0  0
  5 18  1  0  0  0
  5 20  1  0  0  0
 21  5  1  0  0  0
  6  7  4  0  0  0
 25  6  4  0  0  0
  7 26  4  0  0  0
 28  7  4  0  0  0
 26  8  4  0  0  0
 27  8  4  0  0  0
  9 27  4  0  0  0
 28  9  4  0  0  0
 25 10  4  0  0  0
 10 28  4  0  0  0
 12 11  1  0  0  0
 12 13  1  0  0  0
 14 12  1  0  0  0
 17 16  1  0  0  0
 18 19  1  0  0  0
 20 18  1  0  0  0
 22 21  1  0  0  0
 23 22  1  0  0  0
 23 24  2  0  0  0
 23 25  1  0  0  0
  1 29  1  0  0  0
  1 30  1  0  0  0
  1 31  1  0  0  0
  3 32  1  0  0  0
  3 33  1  0  0  0
  4 34  1  0  0  0
  4 35  1  0  0  0
  5 36  1  0  0  0
  6 37  1  0  0  0
  8 38  1  0  0  0
  9 39  1  0  0  0
 10 40  1  0  0  0
 11 41  1  0  0  0
 11 42  1  0  0  0
 11 43  1  0  0  0
 13 44  1  0  0  0
 13 45  1  0  0  0
 13 46  1  0  0  0
 17 47  1  0  0  0
 17 48  1  0  0  0
 19 49  1  0  0  0
 19 50  1  0  0  0
 20 51  1  0  0  0
 20 52  1  0  0  0
 21 53  1  0  0  0
 21 54  1  0  0  0
 22 55  1  0  0  0
 26 56  1  0  0  0
M  END
$$$$
