2fie_ligand
  -I-interpret- 

 46 49  0  0  0  0  0  0  0  0999 V2000
   -0.7080   39.5920   33.5070 C   0  0  0  0  0
   -0.1270   38.3980   32.9860 C   0  0  0  0  0
    0.2450   37.3480   33.8660 C   0  0  0  0  0
    0.0460   37.4660   35.2650 C   0  0  0  0  0
   -0.5350   38.6560   35.8050 C   0  0  0  0  0
   -0.9140   39.7270   34.9130 C   0  0  0  0  0
   -0.7500   38.7150   37.5870 S   0  0  0  0  0
   -0.3080   37.4780   38.1790 O   0  0  0  0  0
   -2.1280   39.1030   37.8160 O   0  0  0  0  0
    0.1660   39.8660   38.2300 N   0  0  0  0  0
    1.6050   39.7210   38.5770 C   0  0  0  0  0
    2.4290   38.6100   38.4170 N   0  0  0  0  0
    3.6660   39.0140   38.9070 C   0  0  0  0  0
    4.8460   38.3000   38.9870 C   0  0  0  0  0
    6.0150   38.9240   39.5420 C   0  0  0  0  0
    5.9250   40.2800   39.9920 C   0  0  0  0  0
    4.7190   41.0200   39.9170 C   0  0  0  0  0
    3.5260   40.3430   39.3330 C   0  0  0  0  0
    2.2720   40.7830   39.1380 O   0  0  0  0  0
    0.9520   35.9010   33.2150 Cl  0  0  0  0  0
   -1.6390   41.2170   35.4730 Cl  0  0  0  0  0
    7.2180   38.1610   39.6270 O   0  0  0  0  0
    7.2520   36.8280   39.1060 C   0  0  0  0  0
    3.4120   44.5560   40.8660 C   0  0  0  0  0
    4.5790   45.1260   41.3810 C   0  0  0  0  0
    5.7450   44.4170   41.4250 N   0  0  0  0  0
    5.7940   43.1270   40.9650 C   0  0  0  0  0
    4.6610   42.4640   40.4210 C   0  0  0  0  0
    3.4670   43.2250   40.3890 C   0  0  0  0  0
    4.5010   46.4310   41.8410 O   0  0  0  0  0
    5.5610   47.2700   41.3770 C   0  0  0  0  0
   -0.9940   40.3995   32.8330 H   0  0  0  0  0
    0.0313   38.2919   31.9128 H   0  0  0  0  0
    0.3355   36.6507   35.9280 H   0  0  0  0  0
   -0.2734   40.7677   38.4151 H   0  0  0  0  0
    4.8898   37.2705   38.6316 H   0  0  0  0  0
    6.8127   40.7586   40.4056 H   0  0  0  0  0
    6.5121   36.2178   39.6240 H   0  0  0  0  0
    7.0249   36.8500   38.0402 H   0  0  0  0  0
    8.2449   36.4048   39.2586 H   0  0  0  0  0
    2.4816   45.1229   40.8325 H   0  0  0  0  0
    6.7399   42.5880   41.0186 H   0  0  0  0  0
    2.5623   42.7713   39.9843 H   0  0  0  0  0
    6.5161   46.8648   41.7111 H   0  0  0  0  0
    5.5421   47.3083   40.2878 H   0  0  0  0  0
    5.4303   48.2745   41.7795 H   0  0  0  0  0
  1  2  4  0  0  0
  6  1  4  0  0  0
  3  2  4  0  0  0
  4  3  4  0  0  0
  3 20  1  0  0  0
  5  4  4  0  0  0
  5  6  4  0  0  0
  7  5  1  0  0  0
  6 21  1  0  0  0
  7  8  2  0  0  0
  7  9  2  0  0  0
 10  7  1  0  0  0
 11 10  1  0  0  0
 11 12  4  0  0  0
 19 11  4  0  0  0
 13 12  4  0  0  0
 13 14  4  0  0  0
 18 13  4  0  0  0
 15 14  4  0  0  0
 16 15  4  0  0  0
 15 22  1  0  0  0
 17 16  4  0  0  0
 17 18  4  0  0  0
 28 17  1  0  0  0
 18 19  4  0  0  0
 22 23  1  0  0  0
 25 24  4  0  0  0
 24 29  4  0  0  0
 26 25  4  0  0  0
 25 30  1  0  0  0
 27 26  4  0  0  0
 27 28  4  0  0  0
 28 29  4  0  0  0
 30 31  1  0  0  0
  1 32  1  0  0  0
  2 33  1  0  0  0
  4 34  1  0  0  0
 10 35  1  0  0  0
 14 36  1  0  0  0
 16 37  1  0  0  0
 23 38  1  0  0  0
 23 39  1  0  0  0
 23 40  1  0  0  0
 24 41  1  0  0  0
 27 42  1  0  0  0
 29 43  1  0  0  0
 31 44  1  0  0  0
 31 45  1  0  0  0
 31 46  1  0  0  0
M  END
$$$$
