6jap_ligand
  -I-interpret- 

 45 46  0  0  0  0  0  0  0  0999 V2000
   -6.8400  -32.5850  -13.8070 C   0  0  0  0  0
   -8.1780  -32.2330  -13.1380 C   0  0  0  0  0
   -9.0420  -31.2970  -14.0060 C   0  0  0  0  0
   -8.2160  -30.0500  -14.3170 C   0  0  0  0  0
   -6.8510  -30.4520  -14.9520 C   0  0  0  0  0
   -5.9770  -29.2520  -15.2050 C   0  0  0  0  0
   -7.0530  -33.5110  -14.8980 O   0  0  0  0  0
   -8.9850  -33.4060  -12.9800 O   0  0  0  0  0
  -10.2100  -30.9000  -13.2910 O   0  0  0  0  0
   -8.9140  -29.0680  -15.1010 O   0  0  0  0  0
   -6.1240  -31.3980  -14.1520 O   0  0  0  0  0
   -4.7760  -29.5270  -15.9820 O   0  0  0  0  0
   -4.7230  -33.3820  -15.6480 C   0  0  0  0  0
   -5.9730  -34.2880  -15.3880 C   0  0  0  0  0
   -5.6090  -35.5460  -14.5450 C   0  0  0  0  0
   -6.6110  -36.5400  -15.0850 C   0  0  0  0  0
   -6.4970  -36.1980  -16.5810 C   0  0  0  0  0
   -7.7230  -36.5940  -17.3350 C   0  0  0  0  0
   -3.7180  -34.1580  -16.3070 O   0  0  0  0  0
   -6.4420  -34.7490  -16.6310 O   0  0  0  0  0
   -5.6980  -35.3800  -13.1440 O   0  0  0  0  0
   -6.3970  -37.9100  -14.7380 O   0  0  0  0  0
   -7.5670  -36.5250  -18.7600 O   0  0  0  0  0
   -6.1928  -33.1110  -13.1052 H   0  0  0  0  0
   -7.9083  -31.7636  -12.1919 H   0  0  0  0  0
   -9.3408  -31.8134  -14.9182 H   0  0  0  0  0
   -8.0252  -29.5535  -13.3656 H   0  0  0  0  0
   -7.1020  -30.9245  -15.9017 H   0  0  0  0  0
   -5.6487  -28.8876  -14.2316 H   0  0  0  0  0
   -6.5714  -28.5421  -15.7801 H   0  0  0  0  0
   -8.5132  -34.0478  -12.4442 H   0  0  0  0  0
  -10.7390  -31.6752  -13.0888 H   0  0  0  0  0
   -9.7459  -28.8513  -14.6736 H   0  0  0  0  0
   -4.2779  -28.7145  -16.0975 H   0  0  0  0  0
   -4.3365  -33.0063  -14.7006 H   0  0  0  0  0
   -5.0050  -32.5356  -16.2743 H   0  0  0  0  0
   -4.5635  -35.8373  -14.6457 H   0  0  0  0  0
   -7.6128  -36.4514  -14.6647 H   0  0  0  0  0
   -5.6379  -36.7101  -17.0144 H   0  0  0  0  0
   -8.5160  -35.8991  -17.0585 H   0  0  0  0  0
   -7.9437  -37.6304  -17.0797 H   0  0  0  0  0
   -2.9474  -33.6092  -16.4702 H   0  0  0  0  0
   -5.4571  -36.2015  -12.7096 H   0  0  0  0  0
   -7.0867  -38.4499  -15.1308 H   0  0  0  0  0
   -8.3864  -36.7907  -19.1837 H   0  0  0  0  0
  1  2  1  0  0  0
  7  1  1  0  0  0
  1 11  1  0  0  0
  2  3  1  0  0  0
  2  8  1  0  0  0
  3  4  1  0  0  0
  3  9  1  0  0  0
  5  4  1  0  0  0
  4 10  1  0  0  0
  5  6  1  0  0  0
 11  5  1  0  0  0
  6 12  1  0  0  0
 14  7  1  0  0  0
 14 13  1  0  0  0
 13 19  1  0  0  0
 14 15  1  0  0  0
 20 14  1  0  0  0
 16 15  1  0  0  0
 15 21  1  0  0  0
 17 16  1  0  0  0
 16 22  1  0  0  0
 18 17  1  0  0  0
 17 20  1  0  0  0
 23 18  1  0  0  0
  1 24  1  0  0  0
  2 25  1  0  0  0
  3 26  1  0  0  0
  4 27  1  0  0  0
  5 28  1  0  0  0
  6 29  1  0  0  0
  6 30  1  0  0  0
  8 31  1  0  0  0
  9 32  1  0  0  0
 10 33  1  0  0  0
 12 34  1  0  0  0
 13 35  1  0  0  0
 13 36  1  0  0  0
 15 37  1  0  0  0
 16 38  1  0  0  0
 17 39  1  0  0  0
 18 40  1  0  0  0
 18 41  1  0  0  0
 19 42  1  0  0  0
 21 43  1  0  0  0
 22 44  1  0  0  0
 23 45  1  0  0  0
M  END
$$$$
