3k3b_ligand
  -I-interpret- 

 46 49  0  0  0  0  0  0  0  0999 V2000
   15.6620  -20.2400   21.6450 C   0  0  0  0  0
   16.2340  -19.9490   22.9320 C   0  0  0  0  0
   15.4180  -19.2660   23.9390 C   0  0  0  0  0
   14.0850  -18.9000   23.6460 C   0  0  0  0  0
   13.4990  -19.2110   22.3020 C   0  0  0  0  0
   14.2720  -19.8580   21.3410 C   0  0  0  0  0
   16.4870  -20.9540   20.5640 C   0  0  0  0  0
   15.7130  -18.8210   25.4090 C   0  0  0  0  0
   14.4790  -18.0520   25.8450 C   0  0  0  0  0
   13.4810  -18.2080   24.8330 N   0  0  0  0  0
   16.7320  -19.2350   26.4970 C   0  0  0  0  0
   16.6210  -18.5070   27.8860 C   0  0  0  0  0
   15.7630  -17.2910   27.8870 N   0  0  0  0  0
   14.5280  -17.2220   27.1340 C   0  0  0  0  0
   13.3440  -17.6160   28.0340 C   0  0  0  0  0
   12.6490  -16.6260   28.7330 C   0  0  0  0  0
   11.5350  -16.9770   29.5670 C   0  0  0  0  0
   11.1150  -18.3840   29.6900 C   0  0  0  0  0
   11.8260  -19.4030   28.9710 C   0  0  0  0  0
   12.9090  -19.0600   28.1620 C   0  0  0  0  0
   10.8420  -15.9790   30.2720 O   0  0  0  0  0
   16.3130  -16.0220   28.4060 C   0  0  0  0  0
   15.6900  -15.0190   28.2880 O   0  0  0  0  0
   17.6870  -15.9420   29.0300 C   0  0  0  0  0
   17.2623  -20.2332   23.1556 H   0  0  0  0  0
   12.4698  -18.9313   22.0771 H   0  0  0  0  0
   13.8478  -20.0821   20.3623 H   0  0  0  0  0
   17.3663  -20.3557   20.3255 H   0  0  0  0  0
   16.7998  -21.9306   20.9334 H   0  0  0  0  0
   15.8783  -21.0806   19.6687 H   0  0  0  0  0
   16.7822  -18.6790   25.2514 H   0  0  0  0  0
   13.7704  -17.6922   26.5910 H   0  0  0  0  0
   12.5120  -17.8981   24.9062 H   0  0  0  0  0
   17.7141  -18.9763   26.1012 H   0  0  0  0  0
   16.5448  -20.2901   26.6963 H   0  0  0  0  0
   17.6268  -18.1846   28.1554 H   0  0  0  0  0
   16.1667  -19.2152   28.5789 H   0  0  0  0  0
   14.4649  -16.1836   26.8088 H   0  0  0  0  0
   12.9539  -15.5833   28.6446 H   0  0  0  0  0
   10.2688  -18.6497   30.3236 H   0  0  0  0  0
   11.5192  -20.4454   29.0574 H   0  0  0  0  0
   13.4459  -19.8372   27.6181 H   0  0  0  0  0
   10.1311  -16.3805   30.7770 H   0  0  0  0  0
   18.3193  -15.2871   28.4306 H   0  0  0  0  0
   17.6029  -15.5426   30.0407 H   0  0  0  0  0
   18.1263  -16.9388   29.0673 H   0  0  0  0  0
  1  2  4  0  0  0
  1  6  4  0  0  0
  1  7  1  0  0  0
  2  3  4  0  0  0
  3  4  4  0  0  0
  3  8  1  0  0  0
  4  5  4  0  0  0
  4 10  1  0  0  0
  5  6  4  0  0  0
  8  9  1  0  0  0
  8 11  1  0  0  0
  9 10  1  0  0  0
  9 14  1  0  0  0
 11 12  1  0  0  0
 12 13  1  0  0  0
 13 14  1  0  0  0
 13 22  1  0  0  0
 14 15  1  0  0  0
 15 16  4  0  0  0
 15 20  4  0  0  0
 16 17  4  0  0  0
 17 18  4  0  0  0
 17 21  1  0  0  0
 18 19  4  0  0  0
 19 20  4  0  0  0
 22 23  2  0  0  0
 22 24  1  0  0  0
  2 25  1  0  0  0
  5 26  1  0  0  0
  6 27  1  0  0  0
  7 28  1  0  0  0
  7 29  1  0  0  0
  7 30  1  0  0  0
  8 31  1  0  0  0
  9 32  1  0  0  0
 10 33  1  0  0  0
 11 34  1  0  0  0
 11 35  1  0  0  0
 12 36  1  0  0  0
 12 37  1  0  0  0
 14 38  1  0  0  0
 16 39  1  0  0  0
 18 40  1  0  0  0
 19 41  1  0  0  0
 20 42  1  0  0  0
 21 43  1  0  0  0
 24 44  1  0  0  0
 24 45  1  0  0  0
 24 46  1  0  0  0
M  END
$$$$
