4ppa_ligand
  -I-interpret- 

 45 49  0  0  0  0  0  0  0  0999 V2000
  -10.9630  -28.8410   56.4330 C   0  0  0  0  0
  -11.0060  -27.5010   56.8150 C   0  0  0  0  0
  -10.9200  -26.4920   55.8580 C   0  0  0  0  0
  -10.8020  -26.8170   54.5120 C   0  0  0  0  0
  -10.7590  -28.1650   54.1190 C   0  0  0  0  0
  -10.8390  -29.1810   55.0930 C   0  0  0  0  0
  -10.6270  -28.4990   52.7310 C   0  0  0  0  0
  -10.5240  -28.7620   51.6310 N   0  0  0  0  0
  -10.9700  -25.0380   56.2700 C   0  0  0  0  0
  -12.3740  -24.6930   56.4780 N   0  0  0  0  0
  -13.2420  -24.2760   55.5240 C   0  0  0  0  0
  -14.4520  -24.0970   56.1100 C   0  0  0  0  0
  -14.3120  -24.4660   57.4620 C   0  0  0  0  0
  -13.0740  -24.8170   57.6850 N   0  0  0  0  0
  -15.6290  -23.6780   55.4370 N   0  0  0  0  0
  -16.8570  -23.5980   56.0090 C   0  0  0  0  0
  -17.0240  -23.8500   57.1920 O   0  0  0  0  0
  -18.0260  -23.1890   55.2090 C   0  0  0  0  0
  -19.3710  -22.9220   55.7360 C   0  0  0  0  0
  -19.9520  -22.9590   57.0110 C   0  0  0  0  0
  -21.2710  -22.6360   57.1670 C   0  0  0  0  0
  -22.0600  -22.2720   56.0530 C   0  0  0  0  0
  -21.4860  -22.2080   54.7710 C   0  0  0  0  0
  -20.1340  -22.5410   54.6020 C   0  0  0  0  0
  -19.2630  -22.6000   53.5380 N   0  0  0  0  0
  -18.0850  -22.9710   53.9100 N   0  0  0  0  0
  -23.4770  -21.8610   56.3000 C   0  0  0  0  0
  -24.2800  -21.1280   55.4680 C   0  0  0  0  0
  -25.4560  -20.9230   56.0980 N   0  0  0  0  0
  -25.3860  -21.5150   57.3630 N   0  0  0  0  0
  -24.2080  -22.0630   57.4930 C   0  0  0  0  0
  -11.0269  -29.6239   57.1887 H   0  0  0  0  0
  -11.1075  -27.2410   57.8687 H   0  0  0  0  0
  -10.7429  -26.0276   53.7627 H   0  0  0  0  0
  -10.8036  -30.2289   54.7951 H   0  0  0  0  0
  -10.5309  -24.4061   55.4980 H   0  0  0  0  0
  -10.3974  -24.8792   57.1838 H   0  0  0  0  0
  -13.0087  -24.1133   54.4718 H   0  0  0  0  0
  -15.1101  -24.4596   58.2043 H   0  0  0  0  0
  -15.5461  -23.4187   54.4540 H   0  0  0  0  0
  -19.3535  -23.2446   57.8760 H   0  0  0  0  0
  -21.7185  -22.6595   58.1606 H   0  0  0  0  0
  -22.0872  -21.9019   53.9149 H   0  0  0  0  0
  -24.0161  -20.7725   54.4720 H   0  0  0  0  0
  -23.8474  -22.5898   58.3765 H   0  0  0  0  0
  1  2  4  0  0  0
  1  6  4  0  0  0
  2  3  4  0  0  0
  3  4  4  0  0  0
  3  9  1  0  0  0
  4  5  4  0  0  0
  5  6  4  0  0  0
  5  7  1  0  0  0
  7  8  3  0  0  0
  9 10  1  0  0  0
 10 11  4  0  0  0
 10 14  4  0  0  0
 11 12  4  0  0  0
 12 13  4  0  0  0
 12 15  1  0  0  0
 13 14  4  0  0  0
 15 16  1  0  0  0
 16 17  2  0  0  0
 16 18  1  0  0  0
 18 19  4  0  0  0
 18 26  4  0  0  0
 19 20  4  0  0  0
 19 24  4  0  0  0
 20 21  4  0  0  0
 21 22  4  0  0  0
 22 23  4  0  0  0
 22 27  1  0  0  0
 23 24  4  0  0  0
 24 25  4  0  0  0
 25 26  4  0  0  0
 27 28  4  0  0  0
 27 31  4  0  0  0
 28 29  4  0  0  0
 29 30  4  0  0  0
 30 31  4  0  0  0
  1 32  1  0  0  0
  2 33  1  0  0  0
  4 34  1  0  0  0
  6 35  1  0  0  0
  9 36  1  0  0  0
  9 37  1  0  0  0
 11 38  1  0  0  0
 13 39  1  0  0  0
 15 40  1  0  0  0
 20 41  1  0  0  0
 21 42  1  0  0  0
 23 43  1  0  0  0
 28 44  1  0  0  0
 31 45  1  0  0  0
M  END
$$$$
