4p7e_ligand
  -I-interpret- 

 54 58  0  0  0  0  0  0  0  0999 V2000
    0.4180   47.4290    7.5400 C   0  0  0  0  0
   -0.6420   49.3650    9.9710 C   0  0  0  0  0
   -0.4330   51.7770    8.4600 C   0  0  0  0  0
    0.5760   50.1820   10.3120 C   0  0  0  0  0
   -0.3480   50.4810    7.6970 C   0  0  0  0  0
   -0.9650   48.0440    7.8140 C   0  0  0  0  0
    1.0430   46.6490    8.5190 C   0  0  0  0  0
    2.3010   46.0850    8.2820 C   0  0  0  0  0
    2.9550   46.2680    7.0570 C   0  0  0  0  0
    2.3020   47.0040    6.0600 C   0  0  0  0  0
    1.0700   47.6160    6.3160 C   0  0  0  0  0
    4.2360   45.7290    6.8630 C   0  0  0  0  0
    5.2050   45.8470    7.8760 C   0  0  0  0  0
    6.4740   45.2660    7.7450 C   0  0  0  0  0
    6.7840   44.5560    6.5830 C   0  0  0  0  0
    5.8080   44.5230    5.5870 C   0  0  0  0  0
    4.7070   44.1900    3.7850 C   0  0  0  0  0
    3.2090   44.0200    1.8850 C   0  0  0  0  0
    2.9480   43.4610    0.5010 C   0  0  0  0  0
    1.4660   43.2140    0.1400 C   0  0  0  0  0
    2.2280   44.3870   -0.5030 C   0  0  0  0  0
    1.8690   52.3700    9.6100 O   0  0  0  0  0
    0.5320   51.9200    9.9460 S   0  0  0  0  0
   -0.2480   52.6140   10.9530 O   0  0  0  0  0
   -0.8770   49.3540    8.5040 N   0  3  0  0  0
    4.5930   45.0920    5.7210 N   0  0  0  0  0
    3.8810   44.8700    4.6100 N   0  0  0  0  0
    4.4030   43.7560    2.4660 N   0  0  0  0  0
    2.3450   44.6840    2.4350 O   0  0  0  0  0
    5.8890   43.9610    4.3760 N   0  0  0  0  0
   -1.5094   49.8058   10.4623 H   0  0  0  0  0
   -0.4839   48.3409   10.3091 H   0  0  0  0  0
   -1.4726   51.8635    8.7760 H   0  0  0  0  0
   -0.0466   52.5406    7.7849 H   0  0  0  0  0
    1.3813   49.7750    9.7004 H   0  0  0  0  0
    0.6794   50.1141   11.3950 H   0  0  0  0  0
    0.6973   50.2819    7.4608 H   0  0  0  0  0
   -0.9432   50.5703    6.7882 H   0  0  0  0  0
   -1.5155   47.3599    8.4598 H   0  0  0  0  0
   -1.4592   48.2012    6.8553 H   0  0  0  0  0
    0.5457   46.4794    9.4740 H   0  0  0  0  0
    2.7797   45.4939    9.0628 H   0  0  0  0  0
    2.7582   47.1010    5.0748 H   0  0  0  0  0
    0.6127   48.2459    5.5530 H   0  0  0  0  0
    4.9638   46.4023    8.7824 H   0  0  0  0  0
    7.2110   45.3673    8.5417 H   0  0  0  0  0
    7.7426   44.0519    6.4603 H   0  0  0  0  0
    3.8636   42.8700    0.4795 H   0  0  0  0  0
    0.5194   43.0366    0.6505 H   0  0  0  0  0
    0.8276   42.3866   -0.1699 H   0  0  0  0  0
    2.3979   44.8038   -1.4958 H   0  0  0  0  0
    2.0893   45.4545   -0.6743 H   0  0  0  0  0
   -1.8643   49.6059    8.5511 H   0  0  0  0  0
    5.1038   43.2311    1.9428 H   0  0  0  0  0
  1  6  1  0  0  0
  7  1  4  0  0  0
 11  1  4  0  0  0
  2  4  1  0  0  0
 25  2  1  0  0  0
  5  3  1  0  0  0
  3 23  1  0  0  0
  4 23  1  0  0  0
 25  5  1  0  0  0
  6 25  1  0  0  0
  8  7  4  0  0  0
  9  8  4  0  0  0
  9 10  4  0  0  0
 12  9  1  0  0  0
 10 11  4  0  0  0
 12 13  4  0  0  0
 26 12  4  0  0  0
 14 13  4  0  0  0
 15 14  4  0  0  0
 16 15  4  0  0  0
 16 26  4  0  0  0
 30 16  4  0  0  0
 17 27  4  0  0  0
 28 17  1  0  0  0
 17 30  4  0  0  0
 18 19  1  0  0  0
 18 28  1  0  0  0
 18 29  2  0  0  0
 19 20  1  0  0  0
 19 21  1  0  0  0
 20 21  1  0  0  0
 23 22  2  0  0  0
 23 24  2  0  0  0
 26 27  4  0  0  0
  2 31  1  0  0  0
  2 32  1  0  0  0
  3 33  1  0  0  0
  3 34  1  0  0  0
  4 35  1  0  0  0
  4 36  1  0  0  0
  5 37  1  0  0  0
  5 38  1  0  0  0
  6 39  1  0  0  0
  6 40  1  0  0  0
  7 41  1  0  0  0
  8 42  1  0  0  0
 10 43  1  0  0  0
 11 44  1  0  0  0
 13 45  1  0  0  0
 14 46  1  0  0  0
 15 47  1  0  0  0
 19 48  1  0  0  0
 20 49  1  0  0  0
 20 50  1  0  0  0
 21 51  1  0  0  0
 21 52  1  0  0  0
 25 53  1  0  0  0
 28 54  1  0  0  0
M  END
$$$$
