1rxp_ligand
  -I-interpret- 

 63 63  0  0  0  0  0  0  0  0999 V2000
   -0.0580   21.7020   30.4130 C   0  0  0  0  0
    0.7520   21.4590   29.1230 C   0  0  0  0  0
    1.3380   22.8030   28.6460 C   0  0  0  0  0
    1.9140   20.4920   29.4290 C   0  0  0  0  0
   -0.7800   18.7820   27.1110 N   0  0  0  0  0
   -1.9520   18.5330   26.1750 C   0  0  0  0  0
   -1.7320   19.3560   24.8910 C   0  0  0  0  0
    0.6210   18.5060   26.5600 C   0  0  0  0  0
    0.8190   19.2190   25.2040 C   0  0  0  0  0
   -0.3200   17.8640   23.3350 C   0  0  0  0  0
    0.3170   16.8710   23.5740 O   0  0  0  0  0
   -0.3900   18.9840   24.3160 N   0  0  0  0  0
   -1.1460   16.1930   20.4830 C   0  0  0  0  0
   -0.9680   15.1650   21.5720 C   0  0  0  0  0
   -1.0250   18.0520   22.1610 N   0  0  0  0  0
   -0.4520   17.5140   20.9210 C   0  0  0  0  0
   -1.8680   14.8670   22.3280 O   0  0  0  0  0
   -0.6830   15.5500   19.1450 C   0  0  0  0  0
   -1.2950   14.1690   18.7860 C   0  0  0  0  0
   -0.9520   13.6370   17.3850 C   0  0  0  0  0
   -1.8020   14.1970   16.3760 N   0  0  0  0  0
   -2.0120   13.5910   15.2660 C   0  0  0  0  0
   -2.6570   14.1180   14.1700 N   0  0  0  0  0
   -1.6300   12.2950   14.9500 N   0  0  0  0  0
   -0.6400   18.5270   19.8500 C   0  0  0  0  0
   -1.6830   19.0990   19.6510 O   0  0  0  0  0
    0.4570   18.7500   19.0970 O   0  0  0  0  0
   -0.9530   19.8050   28.2040 C   0  0  0  0  0
   -1.7580   19.6610   29.0960 O   0  0  0  0  0
   -0.1210   20.8820   28.0640 N   0  0  0  0  0
   -0.8713   22.3971   30.2043 H   0  0  0  0  0
   -0.4685   20.7561   30.7664 H   0  0  0  0  0
    0.5953   22.1239   31.1767 H   0  0  0  0  0
    1.9265   22.6412   27.7429 H   0  0  0  0  0
    0.5251   23.4969   28.4320 H   0  0  0  0  0
    1.9752   23.2177   29.4270 H   0  0  0  0  0
    1.5112   19.5395   29.7734 H   0  0  0  0  0
    2.5012   20.3339   28.5244 H   0  0  0  0  0
    2.5479   20.9217   30.2047 H   0  0  0  0  0
   -2.8833   18.8329   26.6554 H   0  0  0  0  0
   -2.0165   17.4724   25.9319 H   0  0  0  0  0
   -1.7587   20.4213   25.1201 H   0  0  0  0  0
   -2.5206   19.1420   24.1696 H   0  0  0  0  0
    0.7398   17.4321   26.4162 H   0  0  0  0  0
    1.3602   18.8803   27.2682 H   0  0  0  0  0
    1.7078   18.8207   24.7145 H   0  0  0  0  0
    0.9379   20.2891   25.3742 H   0  0  0  0  0
   -2.1811   16.4881   20.3109 H   0  0  0  0  0
   -0.0007   14.6749   21.6829 H   0  0  0  0  0
   -1.9157   18.5491   22.1563 H   0  0  0  0  0
    0.6021   17.2966   21.0936 H   0  0  0  0  0
    0.3897   15.3856   19.2465 H   0  0  0  0  0
   -1.0015   16.2332   18.3577 H   0  0  0  0  0
   -2.3776   14.2924   18.8146 H   0  0  0  0  0
   -0.8852   13.4532   19.4987 H   0  0  0  0  0
   -1.0914   12.5560   17.3870 H   0  0  0  0  0
    0.0770   13.9150   17.1570 H   0  0  0  0  0
   -2.2498   15.0978   16.5449 H   0  0  0  0  0
   -3.0162   15.0722   14.1996 H   0  0  0  0  0
   -1.8463   11.9093   14.0308 H   0  0  0  0  0
   -1.1329   11.7280   15.6369 H   0  0  0  0  0
    1.1781   18.2011   19.4137 H   0  0  0  0  0
   -0.0965   21.3316   27.1487 H   0  0  0  0  0
  2  1  1  0  0  0
  2  3  1  0  0  0
  2  4  1  0  0  0
 30  2  1  0  0  0
  5  6  1  0  0  0
  5  8  1  0  0  0
 28  5  1  0  0  0
  6  7  1  0  0  0
  7 12  1  0  0  0
  8  9  1  0  0  0
  9 12  1  0  0  0
 10 11  2  0  0  0
 12 10  1  0  0  0
 10 15  1  0  0  0
 13 14  1  0  0  0
 16 13  1  0  0  0
 13 18  1  0  0  0
 14 17  2  0  0  0
 15 16  1  0  0  0
 16 25  1  0  0  0
 18 19  1  0  0  0
 19 20  1  0  0  0
 20 21  1  0  0  0
 21 22  1  0  0  0
 22 23  2  0  0  0
 22 24  1  0  0  0
 25 26  2  0  0  0
 25 27  1  0  0  0
 28 29  2  0  0  0
 28 30  1  0  0  0
  1 31  1  0  0  0
  1 32  1  0  0  0
  1 33  1  0  0  0
  3 34  1  0  0  0
  3 35  1  0  0  0
  3 36  1  0  0  0
  4 37  1  0  0  0
  4 38  1  0  0  0
  4 39  1  0  0  0
  6 40  1  0  0  0
  6 41  1  0  0  0
  7 42  1  0  0  0
  7 43  1  0  0  0
  8 44  1  0  0  0
  8 45  1  0  0  0
  9 46  1  0  0  0
  9 47  1  0  0  0
 13 48  1  0  0  0
 14 49  1  0  0  0
 15 50  1  0  0  0
 16 51  1  0  0  0
 18 52  1  0  0  0
 18 53  1  0  0  0
 19 54  1  0  0  0
 19 55  1  0  0  0
 20 56  1  0  0  0
 20 57  1  0  0  0
 21 58  1  0  0  0
 23 59  1  0  0  0
 24 60  1  0  0  0
 24 61  1  0  0  0
 27 62  1  0  0  0
 30 63  1  0  0  0
M  END
$$$$
