4zz0_ligand
  -I-interpret- 

 55 56  0  0  0  0  0  0  0  0999 V2000
  -22.2130   16.9110  -26.4850 N   0  0  0  0  0
  -21.7980   15.8740  -25.6850 C   0  0  0  0  0
  -22.5370   14.7090  -25.6070 N   0  0  0  0  0
  -23.6930   14.5650  -26.3540 C   0  0  0  0  0
  -23.9890   17.6720  -28.1160 N   0  0  0  0  0
  -25.0650   17.0530  -28.5840 C   0  0  0  0  0
  -25.1760   15.8670  -28.0510 C   0  0  0  0  0
  -24.1360   15.6130  -27.1870 C   0  0  0  0  0
  -23.3290   16.7930  -27.2180 C   0  0  0  0  0
  -24.2880   13.5090  -26.2370 O   0  0  0  0  0
  -20.6250   16.0090  -24.9210 N   0  0  0  0  0
  -21.9540   17.1510  -35.7110 C   0  0  0  0  0
  -22.2440   16.4520  -34.3650 C   0  0  0  0  0
  -23.0840   17.4220  -33.5070 C   0  0  0  0  0
  -20.8730   18.2250  -35.5210 C   0  0  0  0  0
  -20.8420   19.1820  -36.2960 O   0  0  0  0  0
  -19.9220   18.0740  -34.4290 N   0  0  0  0  0
  -18.8510   19.0110  -34.1320 C   0  0  0  0  0
  -17.9370   19.1790  -35.3290 C   0  0  0  0  0
  -17.5290   17.8060  -35.8480 C   0  0  0  0  0
  -17.6900   17.7530  -37.3450 C   0  0  0  0  0
  -17.9790   18.8090  -37.9920 O   0  0  0  0  0
  -17.5340   16.6490  -37.9660 O   0  0  0  0  0
  -19.4090   20.3360  -33.6710 C   0  0  0  0  0
  -19.2050   20.7260  -32.4770 O   0  0  0  0  0
  -20.0770   21.0550  -34.4580 O   0  0  0  0  0
  -26.0530   17.6690  -29.5810 C   0  0  0  0  0
  -25.8550   17.0590  -30.9380 C   0  0  0  0  0
  -24.4900   17.4390  -31.4460 C   0  0  0  0  0
  -24.1700   16.6330  -32.7210 C   0  0  0  0  0
  -21.6700   17.7737  -26.5213 H   0  0  0  0  0
  -25.9863   15.1693  -28.2626 H   0  0  0  0  0
  -20.3226   15.2486  -24.3122 H   0  0  0  0  0
  -22.8673   17.6212  -36.0757 H   0  0  0  0  0
  -21.6033   16.4119  -36.4313 H   0  0  0  0  0
  -21.3122   16.2042  -33.8567 H   0  0  0  0  0
  -22.7874   15.5214  -34.5291 H   0  0  0  0  0
  -23.5697   18.1484  -34.1586 H   0  0  0  0  0
  -22.4305   17.9335  -32.8003 H   0  0  0  0  0
  -20.0136   17.2532  -33.8304 H   0  0  0  0  0
  -18.2547   18.6035  -33.3157 H   0  0  0  0  0
  -17.0480   19.7363  -35.0337 H   0  0  0  0  0
  -18.4605   19.7249  -36.1139 H   0  0  0  0  0
  -18.1640   17.0467  -35.3917 H   0  0  0  0  0
  -16.4856   17.6214  -35.5926 H   0  0  0  0  0
  -17.3213   15.9563  -37.3363 H   0  0  0  0  0
  -18.6829   20.0684  -32.0116 H   0  0  0  0  0
  -25.8808   18.7436  -29.6409 H   0  0  0  0  0
  -27.0715   17.4754  -29.2446 H   0  0  0  0  0
  -26.6194   17.4258  -31.6230 H   0  0  0  0  0
  -25.9353   15.9740  -30.8706 H   0  0  0  0  0
  -23.7448   17.2188  -30.6816 H   0  0  0  0  0
  -24.4730   18.5041  -31.6769 H   0  0  0  0  0
  -23.8088   15.6372  -32.4639 H   0  0  0  0  0
  -25.0660   16.5061  -33.3287 H   0  0  0  0  0
  1  2  1  0  0  0
  9  1  1  0  0  0
  3  2  4  0  0  0
  2 11  2  0  0  0
  4  3  1  0  0  0
  8  4  1  0  0  0
  4 10  2  0  0  0
  6  5  4  0  0  0
  5  9  4  0  0  0
  6  7  4  0  0  0
 27  6  1  0  0  0
  7  8  4  0  0  0
  8  9  4  0  0  0
 13 12  1  0  0  0
 12 15  1  0  0  0
 14 13  1  0  0  0
 30 14  1  0  0  0
 15 16  2  0  0  0
 15 17  1  0  0  0
 17 18  1  0  0  0
 18 19  1  0  0  0
 18 24  1  0  0  0
 19 20  1  0  0  0
 20 21  1  0  0  0
 21 22  2  0  0  0
 21 23  1  0  0  0
 24 25  1  0  0  0
 24 26  2  0  0  0
 28 27  1  0  0  0
 29 28  1  0  0  0
 29 30  1  0  0  0
  1 31  1  0  0  0
  7 32  1  0  0  0
 11 33  1  0  0  0
 12 34  1  0  0  0
 12 35  1  0  0  0
 13 36  1  0  0  0
 13 37  1  0  0  0
 14 38  1  0  0  0
 14 39  1  0  0  0
 17 40  1  0  0  0
 18 41  1  0  0  0
 19 42  1  0  0  0
 19 43  1  0  0  0
 20 44  1  0  0  0
 20 45  1  0  0  0
 23 46  1  0  0  0
 25 47  1  0  0  0
 27 48  1  0  0  0
 27 49  1  0  0  0
 28 50  1  0  0  0
 28 51  1  0  0  0
 29 52  1  0  0  0
 29 53  1  0  0  0
 30 54  1  0  0  0
 30 55  1  0  0  0
M  END
$$$$
