2ole_ligand
  -I-interpret- 

 55 57  0  0  0  0  0  0  0  0999 V2000
   -5.4750    1.1060   -6.2450 C   0  0  0  0  0
   -5.9740    0.5210   -5.0840 C   0  0  0  0  0
   -5.3750    0.7910   -3.8550 C   0  0  0  0  0
   -4.2710    1.6380   -3.7920 C   0  0  0  0  0
   -3.7700    2.2190   -4.9540 C   0  0  0  0  0
   -4.3790    1.9630   -6.1800 C   0  0  0  0  0
   -4.0080    2.8210   -7.3950 C   0  0  0  0  0
   -2.5800    2.8910   -7.4840 O   0  0  0  0  0
   -4.5980    4.1320   -7.0760 N   0  0  0  0  0
   -5.3410    4.6290   -8.2460 C   0  0  0  0  0
   -5.0780    6.0960   -8.5930 C   0  0  0  0  0
   -3.6960    6.3320   -9.2070 C   0  0  0  0  0
   -2.5940    6.5150   -8.1580 C   0  0  0  0  0
   -2.3730    5.2730   -7.2870 C   0  0  0  0  0
   -3.6160    4.9300   -6.5750 N   0  0  0  0  0
   -3.9800    5.6090   -5.4930 C   0  0  0  0  0
   -5.2630    5.6880   -5.0560 O   0  0  0  0  0
   -2.9320    6.4220   -4.7380 C   0  0  0  0  0
   -3.3090    6.5330   -3.2610 C   0  0  0  0  0
   -2.5420    7.6660   -2.7260 N   0  3  0  0  0
   -2.8660    5.3930   -2.3450 C   0  0  0  0  0
   -3.4910    5.1700   -1.1220 C   0  0  0  0  0
   -4.5280    5.9890   -0.7030 C   0  0  0  0  0
   -5.0210    5.9430    0.5990 C   0  0  0  0  0
   -6.1310    6.6440    0.8930 F   0  0  0  0  0
   -4.4370    5.0680    1.5100 C   0  0  0  0  0
   -4.6000    5.2210    2.8390 F   0  0  0  0  0
   -3.4590    4.1870    1.0700 C   0  0  0  0  0
   -2.9900    4.2170   -0.2390 C   0  0  0  0  0
   -1.9950    3.3780   -0.5720 F   0  0  0  0  0
   -5.9429    0.8929   -7.2061 H   0  0  0  0  0
   -6.8330   -0.1480   -5.1365 H   0  0  0  0  0
   -5.7698    0.3401   -2.9445 H   0  0  0  0  0
   -3.7987    1.8462   -2.8320 H   0  0  0  0  0
   -2.9006    2.8746   -4.9040 H   0  0  0  0  0
   -6.4014    4.5439   -8.0086 H   0  0  0  0  0
   -5.0180    4.0371   -9.1024 H   0  0  0  0  0
   -5.1303    6.6689   -7.6672 H   0  0  0  0  0
   -5.8226    6.4000   -9.3287 H   0  0  0  0  0
   -3.7477    7.2479   -9.7957 H   0  0  0  0  0
   -3.4440    5.4540   -9.8017 H   0  0  0  0  0
   -2.8979    7.3289   -7.4998 H   0  0  0  0  0
   -1.6634    6.7143   -8.6894 H   0  0  0  0  0
   -1.5882    5.4800   -6.5595 H   0  0  0  0  0
   -2.0808    4.4367   -7.9221 H   0  0  0  0  0
   -2.8802    7.4223   -5.1680 H   0  0  0  0  0
   -1.9665    5.9232   -4.8221 H   0  0  0  0  0
   -4.3979    6.5818   -3.2582 H   0  0  0  0  0
   -2.7583    7.7844   -1.7362 H   0  0  0  0  0
   -1.5448    7.4830   -2.8378 H   0  0  0  0  0
   -2.7923    8.5145   -3.2338 H   0  0  0  0  0
   -1.8430    5.6545   -2.0745 H   0  0  0  0  0
   -3.0834    4.4930   -2.9202 H   0  0  0  0  0
   -4.9701    6.6887   -1.4123 H   0  0  0  0  0
   -3.0492    3.4551    1.7660 H   0  0  0  0  0
  1  2  4  0  0  0
  1  6  4  0  0  0
  2  3  4  0  0  0
  3  4  4  0  0  0
  4  5  4  0  0  0
  5  6  4  0  0  0
  6  7  1  0  0  0
  7  8  2  0  0  0
  7  9  1  0  0  0
  9 10  1  0  0  0
  9 15  1  0  0  0
 10 11  1  0  0  0
 11 12  1  0  0  0
 12 13  1  0  0  0
 13 14  1  0  0  0
 14 15  1  0  0  0
 15 16  1  0  0  0
 16 17  2  0  0  0
 16 18  1  0  0  0
 18 19  1  0  0  0
 19 20  1  0  0  0
 19 21  1  0  0  0
 21 22  1  0  0  0
 22 23  4  0  0  0
 22 29  4  0  0  0
 23 24  4  0  0  0
 24 25  1  0  0  0
 24 26  4  0  0  0
 26 27  1  0  0  0
 26 28  4  0  0  0
 28 29  4  0  0  0
 29 30  1  0  0  0
  1 31  1  0  0  0
  2 32  1  0  0  0
  3 33  1  0  0  0
  4 34  1  0  0  0
  5 35  1  0  0  0
 10 36  1  0  0  0
 10 37  1  0  0  0
 11 38  1  0  0  0
 11 39  1  0  0  0
 12 40  1  0  0  0
 12 41  1  0  0  0
 13 42  1  0  0  0
 13 43  1  0  0  0
 14 44  1  0  0  0
 14 45  1  0  0  0
 18 46  1  0  0  0
 18 47  1  0  0  0
 19 48  1  0  0  0
 20 49  1  0  0  0
 20 50  1  0  0  0
 20 51  1  0  0  0
 21 52  1  0  0  0
 21 53  1  0  0  0
 23 54  1  0  0  0
 28 55  1  0  0  0
M  END
$$$$
