5mw4_ligand
  -I-interpret- 

 81 86  0  0  0  0  0  0  0  0999 V2000
   34.9180  -10.8550   10.1050 C   0  0  0  0  0
   34.2240  -12.1950   11.9440 C   0  0  0  0  0
   39.0290   -6.2070   13.9580 C   0  0  0  0  0
   37.1810   -3.5740   20.6440 C   0  0  0  0  0
   36.0480  -10.6160    9.0750 C   0  0  0  0  0
   35.3210   -7.2570   10.2460 C   0  0  0  0  0
   33.4400   -8.8700    9.3330 C   0  0  0  0  0
   32.4990   -8.7940    8.3830 C   0  0  0  0  0
   35.8720   -5.9560   10.1500 C   0  0  0  0  0
   37.4250   -6.1490   12.0990 C   0  0  0  0  0
   34.0560    2.9080   19.1400 C   0  0  0  0  0
   34.5190    4.1950   18.8510 C   0  0  0  0  0
   36.5720    3.3410   18.1680 C   0  0  0  0  0
   34.9100    1.7930   18.9620 C   0  0  0  0  0
   32.6620    3.1770   19.6650 C   0  0  0  0  0
   32.4820    4.5080   19.6190 C   0  0  0  0  0
   33.2280    0.0740   19.6530 C   0  0  0  0  0
   35.0980  -11.8890   10.9650 N   0  0  0  0  0
   33.0340  -11.4610   12.0690 C   0  0  0  0  0
   32.8020  -10.3820   11.2040 C   0  0  0  0  0
   33.7330  -10.0820   10.2000 C   0  0  0  0  0
   34.2270   -7.5780    9.4430 C   0  0  0  0  0
   33.7440   -6.6790    8.5070 C   0  0  0  0  0
   34.2860   -5.3870    8.3680 C   0  0  0  0  0
   35.3550   -5.0300    9.2110 C   0  0  0  0  0
   32.3890   -7.2750    7.5700 S   0  0  0  0  0
   31.2740  -10.0010    8.0490 Cl  0  0  0  0  0
   36.9840   -5.5540   10.9590 N   0  0  0  0  0
   36.9230   -7.1780   12.5230 O   0  0  0  0  0
   35.7730    4.4050   18.3830 N   0  0  0  0  0
   36.1500    2.0870   18.4770 N   0  0  0  0  0
   33.5600    5.0920   19.1610 N   0  0  0  0  0
   34.5590    0.4710   19.1430 N   0  0  0  0  0
   33.3670   -0.8690   20.8780 C   0  0  0  0  0
   34.2150   -2.0980   20.4620 C   0  0  0  0  0
   35.6320   -1.6780   19.9210 C   0  0  0  0  0
   35.4940   -0.6190   18.7760 C   0  0  0  0  0
   36.5080   -2.8370   19.5360 N   0  3  0  0  0
   35.9470   -3.7310   18.4780 C   0  0  0  0  0
   36.9320   -4.1050   17.3560 C   0  0  0  0  0
   36.2470   -5.0600   16.3360 C   0  0  0  0  0
   37.1020   -5.2780   15.1750 N   0  0  0  0  0
   38.2190   -6.0550   15.2180 C   0  0  0  0  0
   38.6260   -6.6240   16.2260 O   0  0  0  0  0
   38.4530   -5.5670   12.7680 N   0  0  0  0  0
   34.4402  -13.0090   12.6359 H   0  0  0  0  0
   39.0829   -7.2748   13.7457 H   0  0  0  0  0
   39.9889   -5.7242   14.1411 H   0  0  0  0  0
   37.8253   -2.8892   21.1954 H   0  0  0  0  0
   36.4273   -3.9857   21.3152 H   0  0  0  0  0
   37.7806   -4.3839   20.2284 H   0  0  0  0  0
   36.9801  -10.4106    9.6013 H   0  0  0  0  0
   36.1673  -11.5050    8.4556 H   0  0  0  0  0
   35.7897   -9.7647    8.4451 H   0  0  0  0  0
   35.7427   -7.9913   10.9324 H   0  0  0  0  0
   37.5648    3.4878   17.7428 H   0  0  0  0  0
   31.9434    2.4349   20.0129 H   0  0  0  0  0
   31.5710    5.0257   19.9193 H   0  0  0  0  0
   32.6912   -0.4518   18.8634 H   0  0  0  0  0
   32.6867    0.9696   19.9581 H   0  0  0  0  0
   32.2993  -11.7265   12.8291 H   0  0  0  0  0
   31.9007   -9.7786   11.3120 H   0  0  0  0  0
   33.8909   -4.6867    7.6321 H   0  0  0  0  0
   35.7887   -4.0325    9.1407 H   0  0  0  0  0
   37.5008   -4.7323   10.6457 H   0  0  0  0  0
   32.3810   -1.1937   21.2103 H   0  0  0  0  0
   33.8543   -0.3423   21.6985 H   0  0  0  0  0
   33.6874   -2.6234   19.6660 H   0  0  0  0  0
   34.3575   -2.7277   21.3402 H   0  0  0  0  0
   36.1568   -1.2101   20.7539 H   0  0  0  0  0
   36.4756   -0.1813   18.5944 H   0  0  0  0  0
   35.1039   -1.1210   17.8906 H   0  0  0  0  0
   37.2831   -2.3457   19.0907 H   0  0  0  0  0
   35.1261   -3.1884   18.0092 H   0  0  0  0  0
   35.6611   -4.6608   18.9697 H   0  0  0  0  0
   37.7951   -4.6082   17.7919 H   0  0  0  0  0
   37.2463   -3.1978   16.8400 H   0  0  0  0  0
   35.3125   -4.6076   16.0041 H   0  0  0  0  0
   36.0626   -6.0184   16.8213 H   0  0  0  0  0
   36.8526   -4.8294   14.2935 H   0  0  0  0  0
   38.8289   -4.6769   12.4412 H   0  0  0  0  0
  1  5  1  0  0  0
  1 18  4  0  0  0
 21  1  4  0  0  0
 18  2  4  0  0  0
 19  2  4  0  0  0
 43  3  1  0  0  0
  3 45  1  0  0  0
 38  4  1  0  0  0
  9  6  4  0  0  0
  6 22  4  0  0  0
  7  8  4  0  0  0
  7 21  1  0  0  0
 22  7  4  0  0  0
 26  8  4  0  0  0
  8 27  1  0  0  0
  9 25  4  0  0  0
 28  9  1  0  0  0
 10 28  1  0  0  0
 10 29  2  0  0  0
 45 10  1  0  0  0
 11 12  4  0  0  0
 14 11  4  0  0  0
 11 15  4  0  0  0
 12 30  4  0  0  0
 12 32  4  0  0  0
 13 30  4  0  0  0
 31 13  4  0  0  0
 14 31  4  0  0  0
 33 14  1  0  0  0
 15 16  4  0  0  0
 16 32  4  0  0  0
 33 17  1  0  0  0
 34 17  1  0  0  0
 20 19  4  0  0  0
 21 20  4  0  0  0
 22 23  4  0  0  0
 24 23  4  0  0  0
 23 26  4  0  0  0
 25 24  4  0  0  0
 37 33  1  0  0  0
 35 34  1  0  0  0
 36 35  1  0  0  0
 36 37  1  0  0  0
 38 36  1  0  0  0
 39 38  1  0  0  0
 40 39  1  0  0  0
 41 40  1  0  0  0
 42 41  1  0  0  0
 42 43  1  0  0  0
 43 44  2  0  0  0
  2 46  1  0  0  0
  3 47  1  0  0  0
  3 48  1  0  0  0
  4 49  1  0  0  0
  4 50  1  0  0  0
  4 51  1  0  0  0
  5 52  1  0  0  0
  5 53  1  0  0  0
  5 54  1  0  0  0
  6 55  1  0  0  0
 13 56  1  0  0  0
 15 57  1  0  0  0
 16 58  1  0  0  0
 17 59  1  0  0  0
 17 60  1  0  0  0
 19 61  1  0  0  0
 20 62  1  0  0  0
 24 63  1  0  0  0
 25 64  1  0  0  0
 28 65  1  0  0  0
 34 66  1  0  0  0
 34 67  1  0  0  0
 35 68  1  0  0  0
 35 69  1  0  0  0
 36 70  1  0  0  0
 37 71  1  0  0  0
 37 72  1  0  0  0
 38 73  1  0  0  0
 39 74  1  0  0  0
 39 75  1  0  0  0
 40 76  1  0  0  0
 40 77  1  0  0  0
 41 78  1  0  0  0
 41 79  1  0  0  0
 42 80  1  0  0  0
 45 81  1  0  0  0
M  END
$$$$
