5jur_ligand
  -I-interpret- 

 45 47  0  0  0  0  0  0  0  0999 V2000
  -52.7650   -4.4310    5.4410 F   0  0  0  0  0
  -51.9650   -4.2630    4.3660 C   0  0  0  0  0
  -52.4310   -3.5210    3.2870 C   0  0  0  0  0
  -51.6820   -3.2950    2.2030 N   0  0  0  0  0
  -50.4960   -3.7960    2.2140 C   0  0  0  0  0
  -49.9430   -4.5320    3.1740 N   0  0  0  0  0
  -50.6590   -4.7940    4.2730 C   0  0  0  0  0
  -50.0210   -5.5640    5.1690 N   0  0  0  0  0
  -48.6770   -6.1150    5.0330 C   0  0  0  0  0
  -48.8540   -7.6520    5.0660 C   0  0  0  0  0
  -49.7350   -8.0600    3.9160 C   0  0  0  0  0
  -50.9920   -8.1530    4.2300 O   0  0  0  0  0
  -49.3060   -8.2760    2.8060 O   0  0  0  0  0
  -47.7310   -5.6280    6.1520 C   0  0  0  0  0
  -46.4030   -6.3780    6.0760 C   0  0  0  0  0
  -47.4650   -4.1320    5.9930 C   0  0  0  0  0
  -48.3650   -5.8780    7.5190 C   0  0  0  0  0
  -49.6940   -3.5310    1.0660 C   0  0  0  0  0
  -48.3100   -3.9240    0.7720 C   0  0  0  0  0
  -47.3540   -4.6130    1.5120 C   0  0  0  0  0
  -46.1230   -4.7880    0.9410 C   0  0  0  0  0
  -45.1720   -5.4450    1.6520 F   0  0  0  0  0
  -45.8560   -4.2820   -0.3700 C   0  0  0  0  0
  -46.7860   -3.6260   -1.0700 N   0  0  0  0  0
  -47.9830   -3.4570   -0.4910 C   0  0  0  0  0
  -49.0630   -2.8030   -1.0040 N   0  0  0  0  0
  -50.0750   -2.8450   -0.0830 C   0  0  0  0  0
  -53.4398   -3.1101    3.3260 H   0  0  0  0  0
  -50.5248   -5.7851    6.0279 H   0  0  0  0  0
  -48.2097   -5.7834    4.1058 H   0  0  0  0  0
  -49.3120   -7.9522    6.0085 H   0  0  0  0  0
  -47.8826   -8.1389    4.9797 H   0  0  0  0  0
  -51.1053   -7.9389    5.1589 H   0  0  0  0  0
  -46.5830   -7.4462    6.1972 H   0  0  0  0  0
  -45.9383   -6.1942    5.1073 H   0  0  0  0  0
  -45.7431   -6.0271    6.8694 H   0  0  0  0  0
  -47.0015   -3.9477    5.0238 H   0  0  0  0  0
  -48.4075   -3.5880    6.0558 H   0  0  0  0  0
  -46.7969   -3.7967    6.7863 H   0  0  0  0  0
  -49.3083   -5.3358    7.5852 H   0  0  0  0  0
  -48.5484   -6.9452    7.6433 H   0  0  0  0  0
  -47.6892   -5.5307    8.3005 H   0  0  0  0  0
  -47.5770   -4.9980    2.5071 H   0  0  0  0  0
  -44.8700   -4.4353   -0.8086 H   0  0  0  0  0
  -51.0574   -2.3966   -0.2314 H   0  0  0  0  0
  1  2  1  0  0  0
  2  3  4  0  0  0
  2  7  4  0  0  0
  3  4  4  0  0  0
  4  5  4  0  0  0
  5  6  4  0  0  0
  5 18  1  0  0  0
  6  7  4  0  0  0
  7  8  1  0  0  0
  8  9  1  0  0  0
  9 10  1  0  0  0
  9 14  1  0  0  0
 10 11  1  0  0  0
 11 12  1  0  0  0
 11 13  2  0  0  0
 14 15  1  0  0  0
 14 16  1  0  0  0
 14 17  1  0  0  0
 18 19  4  0  0  0
 18 27  4  0  0  0
 19 20  4  0  0  0
 19 25  4  0  0  0
 20 21  4  0  0  0
 21 22  1  0  0  0
 21 23  4  0  0  0
 23 24  4  0  0  0
 24 25  4  0  0  0
 25 26  4  0  0  0
 26 27  4  0  0  0
  3 28  1  0  0  0
  8 29  1  0  0  0
  9 30  1  0  0  0
 10 31  1  0  0  0
 10 32  1  0  0  0
 12 33  1  0  0  0
 15 34  1  0  0  0
 15 35  1  0  0  0
 15 36  1  0  0  0
 16 37  1  0  0  0
 16 38  1  0  0  0
 16 39  1  0  0  0
 17 40  1  0  0  0
 17 41  1  0  0  0
 17 42  1  0  0  0
 20 43  1  0  0  0
 23 44  1  0  0  0
 27 45  1  0  0  0
M  END
$$$$
