4q3u_ligand
  -I-interpret- 

 25 24  0  0  0  0  0  0  0  0999 V2000
  -44.3650   17.4280   38.8280 N   0  3  0  0  0
  -43.5840   18.2620   37.9430 C   0  0  0  0  0
  -42.4150   17.4940   37.3300 C   0  0  0  0  0
  -41.4770   18.2850   36.7420 O   0  0  0  0  0
  -42.9750   19.5210   38.5760 C   0  0  0  0  0
  -42.1870   19.2020   39.8460 C   0  0  0  0  0
  -41.6100   20.4520   40.2940 N   0  0  0  0  0
  -41.3820   20.8830   41.6450 C   0  0  0  0  0
  -41.7730   19.9150   42.7000 N   0  0  0  0  0
  -40.8590   22.0490   41.8810 N   0  0  0  0  0
  -41.6070   20.2050   43.9990 O   0  0  0  0  0
  -42.2120   16.2840   37.2820 O   0  0  0  0  0
  -44.7207   16.6245   38.3101 H   0  0  0  0  0
  -43.7768   17.1055   39.5964 H   0  0  0  0  0
  -45.1467   17.9675   39.1999 H   0  0  0  0  0
  -44.3223   18.5705   37.2029 H   0  0  0  0  0
  -41.7317   19.2058   36.8365 H   0  0  0  0  0
  -43.7888   20.1959   38.8412 H   0  0  0  0  0
  -42.2908   19.9675   37.8544 H   0  0  0  0  0
  -41.4116   18.4615   39.6495 H   0  0  0  0  0
  -42.8348   18.7739   40.6110 H   0  0  0  0  0
  -41.3318   21.1054   39.5618 H   0  0  0  0  0
  -42.1739   19.0158   42.4332 H   0  0  0  0  0
  -40.6935   22.3487   42.8418 H   0  0  0  0  0
  -41.9131   19.4676   44.5320 H   0  0  0  0  0
  1  2  1  0  0  0
  2  3  1  0  0  0
  2  5  1  0  0  0
  3  4  1  0  0  0
  3 12  2  0  0  0
  5  6  1  0  0  0
  6  7  1  0  0  0
  7  8  1  0  0  0
  8  9  1  0  0  0
  8 10  2  0  0  0
  9 11  1  0  0  0
  1 13  1  0  0  0
  1 14  1  0  0  0
  1 15  1  0  0  0
  2 16  1  0  0  0
  4 17  1  0  0  0
  5 18  1  0  0  0
  5 19  1  0  0  0
  6 20  1  0  0  0
  6 21  1  0  0  0
  7 22  1  0  0  0
  9 23  1  0  0  0
 10 24  1  0  0  0
 11 25  1  0  0  0
M  END
$$$$
