5dk4_ligand
  -I-interpret- 

 33 35  0  0  0  0  0  0  0  0999 V2000
   10.1890   17.1910   97.4980 C   0  0  0  0  0
   10.2100   18.5800   98.0740 N   0  0  0  0  0
    9.3460   19.6140   97.6290 C   0  0  0  0  0
    8.3500   19.5470   96.6240 N   0  0  0  0  0
    7.7550   20.7740   96.5100 C   0  0  0  0  0
    6.9400   21.0980   95.6640 O   0  0  0  0  0
    8.3020   21.6210   97.5910 C   0  0  0  0  0
    9.3710   20.9170   98.1570 O   0  0  0  0  0
    8.7780   22.9190   96.9920 C   0  0  0  0  0
    9.7060   22.8080   95.8130 C   0  0  0  0  0
    9.3180   23.8100   98.1110 C   0  0  0  0  0
   10.3250   23.4730   99.0540 C   0  0  0  0  0
   10.5070   24.5640   99.8660 N   0  0  0  0  0
    9.6560   25.6030   99.4720 C   0  0  0  0  0
    9.4650   26.9340   99.9920 C   0  0  0  0  0
    8.5350   27.7970   99.4130 C   0  0  0  0  0
    7.7590   27.3580   98.2680 C   0  0  0  0  0
    7.9400   26.0440   97.7650 C   0  0  0  0  0
    8.8990   25.1650   98.3700 C   0  0  0  0  0
    9.2025   16.7521   97.6471 H   0  0  0  0  0
   10.4098   17.2379   96.4316 H   0  0  0  0  0
   10.9395   16.5798   97.9993 H   0  0  0  0  0
   10.8755   18.7883   98.8184 H   0  0  0  0  0
    7.5557   21.8466   98.3528 H   0  0  0  0  0
    7.9081   23.3878   96.5321 H   0  0  0  0  0
   10.6043   22.2663   96.1091 H   0  0  0  0  0
    9.2053   22.2710   95.0074 H   0  0  0  0  0
    9.9784   23.8066   95.4713 H   0  0  0  0  0
   10.8554   22.5231   99.1205 H   0  0  0  0  0
   10.0533   27.2691  100.8462 H   0  0  0  0  0
    8.3914   28.7982   99.8193 H   0  0  0  0  0
    7.0429   28.0324   97.7983 H   0  0  0  0  0
    7.3485   25.7010   96.9161 H   0  0  0  0  0
  1  2  1  0  0  0
  2  3  1  0  0  0
  3  4  2  0  0  0
  3  8  1  0  0  0
  4  5  1  0  0  0
  5  6  2  0  0  0
  5  7  1  0  0  0
  7  8  1  0  0  0
  7  9  1  0  0  0
  9 10  1  0  0  0
  9 11  1  0  0  0
 11 12  4  0  0  0
 11 19  4  0  0  0
 12 13  4  0  0  0
 13 14  4  0  0  0
 14 15  4  0  0  0
 14 19  4  0  0  0
 15 16  4  0  0  0
 16 17  4  0  0  0
 17 18  4  0  0  0
 18 19  4  0  0  0
  1 20  1  0  0  0
  1 21  1  0  0  0
  1 22  1  0  0  0
  2 23  1  0  0  0
  7 24  1  0  0  0
  9 25  1  0  0  0
 10 26  1  0  0  0
 10 27  1  0  0  0
 10 28  1  0  0  0
 12 29  1  0  0  0
 15 30  1  0  0  0
 16 31  1  0  0  0
 17 32  1  0  0  0
 18 33  1  0  0  0
M  END
$$$$
