1v0l_ligand
  -I-interpret- 

 37 38  0  0  0  0  0  0  0  0999 V2000
   10.7080   17.4190   14.5750 N   0  3  0  0  0
   10.4450   17.2940   16.0170 C   0  0  0  0  0
    9.9420   15.8970   16.3650 C   0  0  0  0  0
    9.6280   15.8440   17.7490 O   0  0  0  0  0
    8.7160   15.5760   15.5600 C   0  0  0  0  0
    8.2270   14.2770   15.9650 O   0  0  0  0  0
    9.1070   15.6140   14.0800 C   0  0  0  0  0
    9.5470   17.0150   13.7380 C   0  0  0  0  0
    6.8640   14.0980   15.6960 C   0  0  0  0  0
    6.5170   12.6600   15.9770 C   0  0  0  0  0
    5.0140   12.4380   15.8900 C   0  0  0  0  0
    4.2410   13.5020   16.6610 C   0  0  0  0  0
    4.7600   14.8800   16.3140 C   0  0  0  0  0
    7.2040   11.8450   15.0400 O   0  0  0  0  0
    4.7110   11.1420   16.3810 O   0  0  0  0  0
    2.8570   13.3930   16.3600 O   0  0  0  0  0
    6.1400   14.9380   16.5670 O   0  0  0  0  0
   11.4871   16.8019   14.3457 H   0  0  0  0  0
   10.9075   18.3998   14.3785 H   0  0  0  0  0
    9.6806   18.0192   16.2960 H   0  0  0  0  0
   11.3740   17.4747   16.5577 H   0  0  0  0  0
   10.7185   15.1676   16.1345 H   0  0  0  0  0
   10.4129   16.0495   18.2622 H   0  0  0  0  0
    7.9147   16.2965   15.7241 H   0  0  0  0  0
    8.2549   15.3301   13.4624 H   0  0  0  0  0
    9.9193   14.9121   13.8914 H   0  0  0  0  0
    9.8405   17.0464   12.6887 H   0  0  0  0  0
    8.7206   17.7003   13.9266 H   0  0  0  0  0
    6.6257   14.3388   14.6600 H   0  0  0  0  0
    6.8229   12.3969   16.9896 H   0  0  0  0  0
    4.7076   12.5180   14.8470 H   0  0  0  0  0
    4.3813   13.3481   17.7309 H   0  0  0  0  0
    4.2475   15.6251   16.9225 H   0  0  0  0  0
    4.5752   15.0828   15.2591 H   0  0  0  0  0
    6.9938   10.9229   15.2049 H   0  0  0  0  0
    3.7638   10.9948   16.3291 H   0  0  0  0  0
    2.3712   14.0634   16.8460 H   0  0  0  0  0
  1  2  1  0  0  0
  1  8  1  0  0  0
  2  3  1  0  0  0
  3  4  1  0  0  0
  3  5  1  0  0  0
  5  6  1  0  0  0
  5  7  1  0  0  0
  6  9  1  0  0  0
  7  8  1  0  0  0
  9 10  1  0  0  0
  9 17  1  0  0  0
 10 11  1  0  0  0
 10 14  1  0  0  0
 11 12  1  0  0  0
 11 15  1  0  0  0
 12 13  1  0  0  0
 12 16  1  0  0  0
 13 17  1  0  0  0
  1 18  1  0  0  0
  1 19  1  0  0  0
  2 20  1  0  0  0
  2 21  1  0  0  0
  3 22  1  0  0  0
  4 23  1  0  0  0
  5 24  1  0  0  0
  7 25  1  0  0  0
  7 26  1  0  0  0
  8 27  1  0  0  0
  8 28  1  0  0  0
  9 29  1  0  0  0
 10 30  1  0  0  0
 11 31  1  0  0  0
 12 32  1  0  0  0
 13 33  1  0  0  0
 13 34  1  0  0  0
 14 35  1  0  0  0
 15 36  1  0  0  0
 16 37  1  0  0  0
M  END
$$$$
