### 
### Created by X-TOOL on Mon Sep 10 21:13:06 2018
### 

@<TRIPOS>MOLECULE
3rjw_ligand
   84    88     1     0     0
SMALL
GAST_HUCK


@<TRIPOS>ATOM
      1 N1         -9.7090   15.4170   47.5030 N.ar      1 CIQ        -0.2622
      2 C2         -8.4600   14.9700   47.2950 C.ar      1 CIQ         0.0692
      3 N3         -8.1360   13.6970   47.5800 N.ar      1 CIQ        -0.3109
      4 C4         -9.0600   12.8350   48.0260 C.ar      1 CIQ         0.0160
      5 C5        -10.3770   13.2660   48.2040 C.ar      1 CIQ         0.0310
      6 C6        -10.6850   14.6020   47.9280 C.ar      1 CIQ         0.1272
      7 CAA       -12.6130   10.6830   50.5550 C.3       1 CIQ         0.0577
      8 CAB       -15.8300   19.9260   46.1800 C.3       1 CIQ        -0.0814
      9 CAC       -16.1500   18.2390   44.3470 C.3       1 CIQ        -0.0814
     10 CAD        -8.7070   11.5150   48.2940 C.ar      1 CIQ        -0.0208
     11 CAE       -11.3350   12.3630   48.6600 C.ar      1 CIQ        -0.0201
     12 CAF        -6.5690   18.7770   46.9680 C.3       1 CIQ        -0.0527
     13 CAG        -5.7290   17.6660   47.6020 C.3       1 CIQ        -0.0505
     14 CAH        -7.2180   18.2700   45.6800 C.3       1 CIQ        -0.0505
     15 CAI        -9.8000    4.9920   46.9750 C.3       1 CIQ        -0.0736
     16 CAJ        -8.3490    5.0610   46.4840 C.3       1 CIQ        -0.0736
     17 CAK        -7.3120    8.0630   49.6990 C.3       1 CIQ        -0.0436
     18 CAL        -8.1800    9.3060   49.9060 C.3       1 CIQ         0.0692
     19 CAM        -6.6070   16.4690   47.9720 C.3       1 CIQ        -0.0357
     20 CAN        -8.0990   17.0450   45.9470 C.3       1 CIQ        -0.0357
     21 CAO       -13.2130   15.7250   46.0890 C.3       1 CIQ        -0.0477
     22 CAP       -13.0540   17.2900   48.0540 C.3       1 CIQ        -0.0477
     23 CAQ        -9.8230    5.7560   48.3090 C.3       1 CIQ        -0.1131
     24 CAR        -7.5950    5.7090   47.6420 C.3       1 CIQ        -0.1131
     25 CAS        -8.1680    6.7990   49.6750 C.3       1 CIQ        -0.1106
     26 CAT       -13.8280   16.8720   45.2860 C.3       1 CIQ        -0.1105
     27 CAU       -13.6170   18.3900   47.1460 C.3       1 CIQ        -0.1105
     28 NAX       -11.9130   15.1010   48.0680 N.pl3     1 CIQ        -0.2935
     29 OAY       -11.9340   10.1690   49.4040 O.3       1 CIQ        -0.3215
     30 OAZ        -9.3170    9.3260   49.0210 O.3       1 CIQ        -0.3136
     31 CBA       -10.9830   11.0430   48.9640 C.ar      1 CIQ         0.1294
     32 CBB        -9.6650   10.6180   48.7770 C.ar      1 CIQ         0.1302
     33 CBG       -15.1510   18.8550   45.3260 C.3       1 CIQ        -0.1062
     34 CBH       -12.3230   16.2330   47.2220 C.3       1 CIQ         0.0395
     35 CBI        -7.3970   15.9350   46.7690 C.3       1 CIQ         0.0190
     36 NBJ        -8.5970    6.5630   48.2940 N.4       1 CIQ         0.4029
     37 NBK       -14.5580   17.8010   46.1700 N.4       1 CIQ         0.4047
     38 H         -11.8929   10.8483   51.3564 H         1 CIQ         0.0574
     39 H         -13.0965   11.6258   50.2991 H         1 CIQ         0.0574
     40 H         -13.3647    9.9648   50.8827 H         1 CIQ         0.0574
     41 H         -16.2222   20.7104   45.5327 H         1 CIQ         0.0212
     42 H         -16.6472   19.4755   46.7433 H         1 CIQ         0.0212
     43 H         -15.1029   20.3530   46.8708 H         1 CIQ         0.0212
     44 H         -16.9683   17.7827   44.9040 H         1 CIQ         0.0212
     45 H         -16.5433   19.0175   43.6933 H         1 CIQ         0.0212
     46 H         -15.6483   17.4790   43.7480 H         1 CIQ         0.0212
     47 H          -7.6831   11.1806   48.1272 H         1 CIQ         0.0478
     48 H         -12.3684   12.6877   48.7811 H         1 CIQ         0.0544
     49 H          -5.9255   19.6256   46.7358 H         1 CIQ         0.0265
     50 H          -7.3481   19.0813   47.6669 H         1 CIQ         0.0265
     51 H          -5.2595   18.0518   48.5069 H         1 CIQ         0.0267
     52 H          -4.9747   17.3417   46.8851 H         1 CIQ         0.0267
     53 H          -6.4301   17.9860   44.9823 H         1 CIQ         0.0267
     54 H          -7.8419   19.0639   45.2694 H         1 CIQ         0.0267
     55 H         -10.1289    3.9605   47.1013 H         1 CIQ         0.0245
     56 H         -10.4863    5.4328   46.2519 H         1 CIQ         0.0245
     57 H          -8.2533    5.6306   45.5596 H         1 CIQ         0.0245
     58 H          -7.9518    4.0776   46.2323 H         1 CIQ         0.0245
     59 H          -6.6019    7.9900   50.5228 H         1 CIQ         0.0271
     60 H          -6.7926    8.1529   48.7449 H         1 CIQ         0.0271
     61 H          -7.5706   10.1852   49.6968 H         1 CIQ         0.0614
     62 H          -8.5477    9.2972   50.9321 H         1 CIQ         0.0614
     63 H          -7.3207   16.7933   48.7293 H         1 CIQ         0.0296
     64 H          -5.9579   15.6710   48.3325 H         1 CIQ         0.0296
     65 H          -8.3603   16.6162   44.9796 H         1 CIQ         0.0296
     66 H          -8.9582   17.3833   46.5261 H         1 CIQ         0.0296
     67 H         -12.5992   15.1275   45.4149 H         1 CIQ         0.0269
     68 H         -14.0235   15.1425   46.5270 H         1 CIQ         0.0269
     69 H         -13.8769   16.8147   48.5879 H         1 CIQ         0.0269
     70 H         -12.3513   17.7359   48.7579 H         1 CIQ         0.0269
     71 H          -9.8568    5.0816   49.1646 H         1 CIQ         0.0017
     72 H         -10.7160    6.3728   48.4103 H         1 CIQ         0.0017
     73 H          -6.7297    6.2778   47.3015 H         1 CIQ         0.0017
     74 H          -7.1784    4.9694   48.3258 H         1 CIQ         0.0017
     75 H          -9.0369    6.9224   50.3215 H         1 CIQ         0.0018
     76 H          -7.5911    5.9487   50.0387 H         1 CIQ         0.0018
     77 H         -14.5270   16.4566   44.5601 H         1 CIQ         0.0018
     78 H         -13.0282   17.4188   44.7866 H         1 CIQ         0.0018
     79 H         -12.7975   18.8706   46.6116 H         1 CIQ         0.0018
     80 H         -14.1428   19.1256   47.7547 H         1 CIQ         0.0018
     81 H         -12.5585   14.7044   48.7509 H         1 CIQ         0.1901
     82 H         -14.3510   19.3348   44.7621 H         1 CIQ         0.0047
     83 H         -11.4359   16.7001   46.7943 H         1 CIQ         0.0566
     84 H          -6.6868   15.4495   46.0997 H         1 CIQ         0.0526
@<TRIPOS>BOND
     1    1    2 ar 
     2    6    1 ar 
     3    2    3 ar 
     4    2   35 1  
     5    4    3 ar 
     6    5    4 ar 
     7    4   10 ar 
     8    6    5 ar 
     9    5   11 ar 
    10   28    6 1  
    11   29    7 1  
    12   33    8 1  
    13   33    9 1  
    14   10   32 ar 
    15   11   31 ar 
    16   13   12 1  
    17   14   12 1  
    18   19   13 1  
    19   20   14 1  
    20   16   15 1  
    21   23   15 1  
    22   24   16 1  
    23   18   17 1  
    24   17   25 1  
    25   30   18 1  
    26   35   19 1  
    27   35   20 1  
    28   26   21 1  
    29   21   34 1  
    30   27   22 1  
    31   22   34 1  
    32   36   23 1  
    33   36   24 1  
    34   25   36 1  
    35   37   26 1  
    36   37   27 1  
    37   34   28 1  
    38   31   29 1  
    39   32   30 1  
    40   31   32 ar 
    41   33   37 1  
    42    7   38 1  
    43    7   39 1  
    44    7   40 1  
    45    8   41 1  
    46    8   42 1  
    47    8   43 1  
    48    9   44 1  
    49    9   45 1  
    50    9   46 1  
    51   10   47 1  
    52   11   48 1  
    53   12   49 1  
    54   12   50 1  
    55   13   51 1  
    56   13   52 1  
    57   14   53 1  
    58   14   54 1  
    59   15   55 1  
    60   15   56 1  
    61   16   57 1  
    62   16   58 1  
    63   17   59 1  
    64   17   60 1  
    65   18   61 1  
    66   18   62 1  
    67   19   63 1  
    68   19   64 1  
    69   20   65 1  
    70   20   66 1  
    71   21   67 1  
    72   21   68 1  
    73   22   69 1  
    74   22   70 1  
    75   23   71 1  
    76   23   72 1  
    77   24   73 1  
    78   24   74 1  
    79   25   75 1  
    80   25   76 1  
    81   26   77 1  
    82   26   78 1  
    83   27   79 1  
    84   27   80 1  
    85   28   81 1  
    86   33   82 1  
    87   34   83 1  
    88   35   84 1  
@<TRIPOS>SUBSTRUCTURE
     1 CIQ         1

