3rjw_ligand
  -I-interpret- 

 86 90  0  0  0  0  0  0  0  0999 V2000
   -9.7090   15.4170   47.5030 N   0  0  0  0  0
   -8.4600   14.9700   47.2950 C   0  0  0  0  0
   -8.1360   13.6970   47.5800 N   0  0  0  0  0
   -9.0600   12.8350   48.0260 C   0  0  0  0  0
  -10.3770   13.2660   48.2040 C   0  0  0  0  0
  -10.6850   14.6020   47.9280 C   0  0  0  0  0
  -12.6130   10.6830   50.5550 C   0  0  0  0  0
  -15.8300   19.9260   46.1800 C   0  0  0  0  0
  -16.1500   18.2390   44.3470 C   0  0  0  0  0
   -8.7070   11.5150   48.2940 C   0  0  0  0  0
  -11.3350   12.3630   48.6600 C   0  0  0  0  0
   -6.5690   18.7770   46.9680 C   0  0  0  0  0
   -5.7290   17.6660   47.6020 C   0  0  0  0  0
   -7.2180   18.2700   45.6800 C   0  0  0  0  0
   -9.8000    4.9920   46.9750 C   0  0  0  0  0
   -8.3490    5.0610   46.4840 C   0  0  0  0  0
   -7.3120    8.0630   49.6990 C   0  0  0  0  0
   -8.1800    9.3060   49.9060 C   0  0  0  0  0
   -6.6070   16.4690   47.9720 C   0  0  0  0  0
   -8.0990   17.0450   45.9470 C   0  0  0  0  0
  -13.2130   15.7250   46.0890 C   0  0  0  0  0
  -13.0540   17.2900   48.0540 C   0  0  0  0  0
   -9.8230    5.7560   48.3090 C   0  0  0  0  0
   -7.5950    5.7090   47.6420 C   0  0  0  0  0
   -8.1680    6.7990   49.6750 C   0  0  0  0  0
  -13.8280   16.8720   45.2860 C   0  0  0  0  0
  -13.6170   18.3900   47.1460 C   0  0  0  0  0
  -11.9130   15.1010   48.0680 N   0  0  0  0  0
  -11.9340   10.1690   49.4040 O   0  0  0  0  0
   -9.3170    9.3260   49.0210 O   0  0  0  0  0
  -10.9830   11.0430   48.9640 C   0  0  0  0  0
   -9.6650   10.6180   48.7770 C   0  0  0  0  0
  -15.1510   18.8550   45.3260 C   0  0  0  0  0
  -12.3230   16.2330   47.2220 C   0  0  0  0  0
   -7.3970   15.9350   46.7690 C   0  0  0  0  0
   -8.5970    6.5630   48.2940 N   0  3  0  0  0
  -14.5580   17.8010   46.1700 N   0  3  0  0  0
  -11.8929   10.8483   51.3564 H   0  0  0  0  0
  -13.0965   11.6258   50.2991 H   0  0  0  0  0
  -13.3647    9.9648   50.8827 H   0  0  0  0  0
  -16.2222   20.7104   45.5327 H   0  0  0  0  0
  -16.6472   19.4755   46.7433 H   0  0  0  0  0
  -15.1029   20.3530   46.8708 H   0  0  0  0  0
  -16.9683   17.7827   44.9040 H   0  0  0  0  0
  -16.5433   19.0175   43.6933 H   0  0  0  0  0
  -15.6483   17.4790   43.7480 H   0  0  0  0  0
   -7.6831   11.1806   48.1272 H   0  0  0  0  0
  -12.3684   12.6877   48.7811 H   0  0  0  0  0
   -5.9255   19.6256   46.7358 H   0  0  0  0  0
   -7.3481   19.0813   47.6669 H   0  0  0  0  0
   -5.2595   18.0518   48.5069 H   0  0  0  0  0
   -4.9747   17.3417   46.8851 H   0  0  0  0  0
   -6.4301   17.9860   44.9823 H   0  0  0  0  0
   -7.8419   19.0639   45.2694 H   0  0  0  0  0
  -10.1289    3.9605   47.1013 H   0  0  0  0  0
  -10.4863    5.4328   46.2519 H   0  0  0  0  0
   -8.2533    5.6306   45.5596 H   0  0  0  0  0
   -7.9518    4.0776   46.2323 H   0  0  0  0  0
   -6.6019    7.9900   50.5228 H   0  0  0  0  0
   -6.7926    8.1529   48.7449 H   0  0  0  0  0
   -7.5706   10.1852   49.6968 H   0  0  0  0  0
   -8.5477    9.2972   50.9321 H   0  0  0  0  0
   -7.3207   16.7933   48.7293 H   0  0  0  0  0
   -5.9579   15.6710   48.3325 H   0  0  0  0  0
   -8.3603   16.6162   44.9796 H   0  0  0  0  0
   -8.9582   17.3833   46.5261 H   0  0  0  0  0
  -12.5992   15.1275   45.4149 H   0  0  0  0  0
  -14.0235   15.1425   46.5270 H   0  0  0  0  0
  -13.8769   16.8147   48.5879 H   0  0  0  0  0
  -12.3513   17.7359   48.7579 H   0  0  0  0  0
   -9.8568    5.0816   49.1646 H   0  0  0  0  0
  -10.7160    6.3728   48.4103 H   0  0  0  0  0
   -6.7297    6.2778   47.3015 H   0  0  0  0  0
   -7.1784    4.9694   48.3258 H   0  0  0  0  0
   -9.0369    6.9224   50.3215 H   0  0  0  0  0
   -7.5911    5.9487   50.0387 H   0  0  0  0  0
  -14.5270   16.4566   44.5601 H   0  0  0  0  0
  -13.0282   17.4188   44.7866 H   0  0  0  0  0
  -12.7975   18.8706   46.6116 H   0  0  0  0  0
  -14.1428   19.1256   47.7547 H   0  0  0  0  0
  -12.5585   14.7044   48.7509 H   0  0  0  0  0
  -14.3510   19.3348   44.7621 H   0  0  0  0  0
  -11.4359   16.7001   46.7943 H   0  0  0  0  0
   -6.6868   15.4495   46.0997 H   0  0  0  0  0
   -8.7259    7.4590   47.8239 H   0  0  0  0  0
  -15.2920   17.3142   46.6845 H   0  0  0  0  0
  1  2  4  0  0  0
  6  1  4  0  0  0
  2  3  4  0  0  0
  2 35  1  0  0  0
  4  3  4  0  0  0
  5  4  4  0  0  0
  4 10  4  0  0  0
  6  5  4  0  0  0
  5 11  4  0  0  0
 28  6  1  0  0  0
 29  7  1  0  0  0
 33  8  1  0  0  0
 33  9  1  0  0  0
 10 32  4  0  0  0
 11 31  4  0  0  0
 13 12  1  0  0  0
 14 12  1  0  0  0
 19 13  1  0  0  0
 20 14  1  0  0  0
 16 15  1  0  0  0
 23 15  1  0  0  0
 24 16  1  0  0  0
 18 17  1  0  0  0
 17 25  1  0  0  0
 30 18  1  0  0  0
 35 19  1  0  0  0
 35 20  1  0  0  0
 26 21  1  0  0  0
 21 34  1  0  0  0
 27 22  1  0  0  0
 22 34  1  0  0  0
 36 23  1  0  0  0
 36 24  1  0  0  0
 25 36  1  0  0  0
 37 26  1  0  0  0
 37 27  1  0  0  0
 34 28  1  0  0  0
 31 29  1  0  0  0
 32 30  1  0  0  0
 31 32  4  0  0  0
 33 37  1  0  0  0
  7 38  1  0  0  0
  7 39  1  0  0  0
  7 40  1  0  0  0
  8 41  1  0  0  0
  8 42  1  0  0  0
  8 43  1  0  0  0
  9 44  1  0  0  0
  9 45  1  0  0  0
  9 46  1  0  0  0
 10 47  1  0  0  0
 11 48  1  0  0  0
 12 49  1  0  0  0
 12 50  1  0  0  0
 13 51  1  0  0  0
 13 52  1  0  0  0
 14 53  1  0  0  0
 14 54  1  0  0  0
 15 55  1  0  0  0
 15 56  1  0  0  0
 16 57  1  0  0  0
 16 58  1  0  0  0
 17 59  1  0  0  0
 17 60  1  0  0  0
 18 61  1  0  0  0
 18 62  1  0  0  0
 19 63  1  0  0  0
 19 64  1  0  0  0
 20 65  1  0  0  0
 20 66  1  0  0  0
 21 67  1  0  0  0
 21 68  1  0  0  0
 22 69  1  0  0  0
 22 70  1  0  0  0
 23 71  1  0  0  0
 23 72  1  0  0  0
 24 73  1  0  0  0
 24 74  1  0  0  0
 25 75  1  0  0  0
 25 76  1  0  0  0
 26 77  1  0  0  0
 26 78  1  0  0  0
 27 79  1  0  0  0
 27 80  1  0  0  0
 28 81  1  0  0  0
 33 82  1  0  0  0
 34 83  1  0  0  0
 35 84  1  0  0  0
 36 85  1  0  0  0
 37 86  1  0  0  0
M  END
$$$$
