5e74_ligand
  -I-interpret- 

 52 55  0  0  0  0  0  0  0  0999 V2000
  -32.2640  -10.6600   -5.1800 C   0  0  0  0  0
  -31.1500  -10.1680   -4.5120 C   0  0  0  0  0
  -34.9120  -10.2890   -2.4680 C   0  0  0  0  0
  -31.2670   -9.7140   -3.2030 C   0  0  0  0  0
  -32.5020   -9.7620   -2.5830 C   0  0  0  0  0
  -33.6090  -10.2580   -3.2350 C   0  0  0  0  0
  -33.4970  -10.7090   -4.5440 C   0  0  0  0  0
  -24.7310  -11.0760    0.3360 C   0  0  0  0  0
  -25.2120   -9.6890    0.7040 C   0  0  0  0  0
  -24.4800   -8.9340    1.2930 O   0  0  0  0  0
  -26.5160   -9.2870    0.3380 N   0  0  0  0  0
  -27.3510  -10.0670   -0.3280 C   0  0  0  0  0
  -28.5260   -9.3600   -0.5260 C   0  0  0  0  0
  -29.6590   -9.8330   -1.2220 N   0  0  0  0  0
  -30.0600   -9.1940   -2.4440 C   0  0  0  0  0
  -29.4280   -8.2580   -2.8950 O   0  0  0  0  0
  -35.7090  -11.2550   -2.9480 F   0  0  0  0  0
  -35.5160   -9.0950   -2.5430 F   0  0  0  0  0
  -34.6260  -10.5590   -1.1850 F   0  0  0  0  0
  -30.4140  -10.9240   -0.7490 C   0  0  0  0  0
  -30.3490  -12.1610   -1.3890 C   0  0  0  0  0
  -29.4240  -12.4000   -2.5810 C   0  0  0  0  0
  -31.1360  -13.2020   -0.9150 C   0  0  0  0  0
  -31.9850  -13.0070    0.1650 C   0  0  0  0  0
  -32.0570  -11.7690    0.7810 C   0  0  0  0  0
  -31.2730  -10.7270    0.3230 C   0  0  0  0  0
  -32.9190  -11.5760    1.8760 O   0  0  0  0  0
  -28.3600   -8.0650    0.0670 C   0  0  0  0  0
  -27.0870   -8.0590    0.5970 C   0  0  0  0  0
  -26.6070   -6.9020    1.2700 C   0  0  0  0  0
  -27.4240   -5.7830    1.3970 C   0  0  0  0  0
  -28.7120   -5.7900    0.8550 C   0  0  0  0  0
  -29.1870   -6.9210    0.1940 C   0  0  0  0  0
  -32.1697  -11.0092   -6.2082 H   0  0  0  0  0
  -30.1832  -10.1378   -5.0144 H   0  0  0  0  0
  -32.6012   -9.4006   -1.5594 H   0  0  0  0  0
  -34.3702  -11.0982   -5.0676 H   0  0  0  0  0
  -23.8574  -10.9964   -0.3110 H   0  0  0  0  0
  -24.4650  -11.6194    1.2427 H   0  0  0  0  0
  -25.5254  -11.6076   -0.1878 H   0  0  0  0  0
  -27.1504  -11.0851   -0.6618 H   0  0  0  0  0
  -29.6900  -11.7176   -3.3882 H   0  0  0  0  0
  -28.3916  -12.2231   -2.2793 H   0  0  0  0  0
  -29.5327  -13.4293   -2.9230 H   0  0  0  0  0
  -31.0865  -14.1795   -1.3948 H   0  0  0  0  0
  -32.5976  -13.8315    0.5299 H   0  0  0  0  0
  -31.3294   -9.7504    0.8038 H   0  0  0  0  0
  -32.8478  -10.6688    2.1818 H   0  0  0  0  0
  -25.5996   -6.8918    1.6861 H   0  0  0  0  0
  -27.0587   -4.8993    1.9202 H   0  0  0  0  0
  -29.3465   -4.9088    0.9495 H   0  0  0  0  0
  -30.1933   -6.9259   -0.2249 H   0  0  0  0  0
  2  1  4  0  0  0
  1  7  4  0  0  0
  4  2  4  0  0  0
  6  3  1  0  0  0
  3 17  1  0  0  0
  3 18  1  0  0  0
  3 19  1  0  0  0
  4  5  4  0  0  0
 15  4  1  0  0  0
  5  6  4  0  0  0
  6  7  4  0  0  0
  9  8  1  0  0  0
  9 10  2  0  0  0
 11  9  1  0  0  0
 12 11  4  0  0  0
 11 29  4  0  0  0
 13 12  4  0  0  0
 14 13  1  0  0  0
 13 28  4  0  0  0
 14 15  1  0  0  0
 14 20  1  0  0  0
 15 16  2  0  0  0
 20 21  4  0  0  0
 20 26  4  0  0  0
 21 22  1  0  0  0
 21 23  4  0  0  0
 23 24  4  0  0  0
 24 25  4  0  0  0
 25 26  4  0  0  0
 25 27  1  0  0  0
 28 29  4  0  0  0
 28 33  4  0  0  0
 29 30  4  0  0  0
 30 31  4  0  0  0
 31 32  4  0  0  0
 32 33  4  0  0  0
  1 34  1  0  0  0
  2 35  1  0  0  0
  5 36  1  0  0  0
  7 37  1  0  0  0
  8 38  1  0  0  0
  8 39  1  0  0  0
  8 40  1  0  0  0
 12 41  1  0  0  0
 22 42  1  0  0  0
 22 43  1  0  0  0
 22 44  1  0  0  0
 23 45  1  0  0  0
 24 46  1  0  0  0
 26 47  1  0  0  0
 27 48  1  0  0  0
 30 49  1  0  0  0
 31 50  1  0  0  0
 32 51  1  0  0  0
 33 52  1  0  0  0
M  END
$$$$
