6c7f_ligand
  -I-interpret- 

 52 55  0  0  0  0  0  0  0  0999 V2000
   55.9970    3.9720   23.5140 C   0  0  0  0  0
   57.0970    4.7540   23.7680 C   0  0  0  0  0
   57.5780    4.9690   25.0420 C   0  0  0  0  0
   54.1480    2.2630   26.8160 C   0  0  0  0  0
   53.8480    2.3250   21.9370 C   0  0  0  0  0
   54.5240    2.5780   19.2680 C   0  0  0  0  0
   55.3350    1.8540   20.0980 C   0  0  0  0  0
   54.9910    1.7310   21.4190 C   0  0  0  0  0
   50.7550    5.2590   18.9430 C   0  0  0  0  0
   49.4240    5.4420   19.6310 C   0  0  0  0  0
   56.9250    4.3730   26.0970 C   0  0  0  0  0
   53.0230    3.0470   21.0910 C   0  0  0  0  0
   55.8190    3.5810   25.8840 C   0  0  0  0  0
   55.3750    3.3910   24.5910 C   0  0  0  0  0
   53.3870    3.1630   19.7630 C   0  0  0  0  0
   53.5370    2.1470   23.3340 C   0  0  0  0  0
   53.6310    2.0330   25.5040 C   0  0  0  0  0
   57.7560    5.3900   22.6280 C   0  0  0  0  0
   53.4570    1.6300   27.9820 C   0  0  0  0  0
   51.7150    6.3310   19.3920 C   0  0  0  0  0
   58.9500    7.3970   21.9580 C   0  0  0  0  0
   51.3100    3.9050   19.2950 C   0  0  0  0  0
   52.5360    1.4030   23.7500 N   0  0  0  0  0
   52.5860    1.3350   25.1130 N   0  0  0  0  0
   55.1900    3.0050   26.9940 N   0  0  0  0  0
   54.2520    2.5790   24.4260 N   0  0  0  0  0
   58.3260    6.5840   22.9730 N   0  0  0  0  0
   57.6970    4.9190   21.5030 O   0  0  0  0  0
   52.6440    3.8730   18.8340 O   0  0  0  0  0
   56.0690    0.7930   22.3700 Cl  0  0  0  0  0
   55.6325    3.8189   22.4982 H   0  0  0  0  0
   58.4540    5.5956   25.2097 H   0  0  0  0  0
   54.7812    2.6897   18.2147 H   0  0  0  0  0
   56.2401    1.3825   19.7151 H   0  0  0  0  0
   50.6197    5.3325   17.8639 H   0  0  0  0  0
   49.5618    5.3737   20.7101 H   0  0  0  0  0
   49.0165    6.4205   19.3767 H   0  0  0  0  0
   48.7359    4.6636   19.3013 H   0  0  0  0  0
   57.2877    4.5298   27.1129 H   0  0  0  0  0
   52.1100    3.5119   21.4630 H   0  0  0  0  0
   52.4257    1.9802   28.0255 H   0  0  0  0  0
   53.4694    0.5463   27.8655 H   0  0  0  0  0
   53.9741    1.9038   28.9016 H   0  0  0  0  0
   51.3092    7.3101   19.1375 H   0  0  0  0  0
   51.8545    6.2633   20.4709 H   0  0  0  0  0
   52.6730    6.1920   18.8911 H   0  0  0  0  0
   59.7621    6.8371   21.4942 H   0  0  0  0  0
   58.2113    7.6619   21.2016 H   0  0  0  0  0
   59.3465    8.3042   22.4139 H   0  0  0  0  0
   50.7220    3.1142   18.8292 H   0  0  0  0  0
   51.2700    3.7399   20.3717 H   0  0  0  0  0
   58.3100    6.8982   23.9433 H   0  0  0  0  0
  1  2  4  0  0  0
 14  1  4  0  0  0
  2  3  4  0  0  0
  2 18  1  0  0  0
 11  3  4  0  0  0
 17  4  4  0  0  0
  4 19  1  0  0  0
  4 25  4  0  0  0
  5  8  4  0  0  0
 12  5  4  0  0  0
  5 16  1  0  0  0
  6  7  4  0  0  0
 15  6  4  0  0  0
  7  8  4  0  0  0
  8 30  1  0  0  0
  9 10  1  0  0  0
  9 20  1  0  0  0
 22  9  1  0  0  0
 13 11  4  0  0  0
 15 12  4  0  0  0
 14 13  4  0  0  0
 13 25  4  0  0  0
 26 14  4  0  0  0
 29 15  1  0  0  0
 16 23  4  0  0  0
 16 26  4  0  0  0
 17 24  4  0  0  0
 26 17  4  0  0  0
 18 27  1  0  0  0
 18 28  2  0  0  0
 27 21  1  0  0  0
 22 29  1  0  0  0
 23 24  4  0  0  0
  1 31  1  0  0  0
  3 32  1  0  0  0
  6 33  1  0  0  0
  7 34  1  0  0  0
  9 35  1  0  0  0
 10 36  1  0  0  0
 10 37  1  0  0  0
 10 38  1  0  0  0
 11 39  1  0  0  0
 12 40  1  0  0  0
 19 41  1  0  0  0
 19 42  1  0  0  0
 19 43  1  0  0  0
 20 44  1  0  0  0
 20 45  1  0  0  0
 20 46  1  0  0  0
 21 47  1  0  0  0
 21 48  1  0  0  0
 21 49  1  0  0  0
 22 50  1  0  0  0
 22 51  1  0  0  0
 27 52  1  0  0  0
M  END
$$$$
