3imy_ligand
  -I-interpret- 

 48 49  0  0  0  0  0  0  0  0999 V2000
   10.1970   22.7540   24.7310 O   0  0  0  0  0
    9.3990   22.7910   25.6110 C   0  0  0  0  0
    8.7770   24.0160   25.8710 O   0  0  0  0  0
    8.5890   21.5320   25.9490 C   0  0  0  0  0
    7.5060   21.8120   26.8010 O   0  0  0  0  0
    6.6940   20.7720   27.3250 C   0  0  0  0  0
    6.9350   20.3440   28.6790 C   0  0  0  0  0
    6.1540   19.3520   29.2360 C   0  0  0  0  0
    6.3950   18.9220   30.6950 C   0  0  0  0  0
    5.0470   18.7430   28.3910 C   0  0  0  0  0
    4.7910   19.1410   27.0870 C   0  0  0  0  0
    5.6330   20.1910   26.5320 C   0  0  0  0  0
    3.6710   18.5030   26.2360 C   0  0  0  0  0
    4.2360   17.5870   28.9990 C   0  0  0  0  0
    3.1090   18.0970   29.9010 C   0  0  0  0  0
    2.8020   17.3650   31.0800 C   0  0  0  0  0
    1.7120   17.7950   31.9030 C   0  0  0  0  0
    1.3730   17.0540   33.1980 C   0  0  0  0  0
    1.5330   15.5430   33.1110 C   0  0  0  0  0
    2.0920   17.7180   34.3720 C   0  0  0  0  0
    0.9450   18.9380   31.5310 C   0  0  0  0  0
   -0.1370   19.3140   32.3290 O   0  0  0  0  0
    1.2690   19.6900   30.3190 C   0  0  0  0  0
    2.3250   19.2810   29.5080 C   0  0  0  0  0
    8.1597   23.9121   26.5989 H   0  0  0  0  0
    9.2491   20.8298   26.4582 H   0  0  0  0  0
    8.1931   21.1230   25.0194 H   0  0  0  0  0
    7.7330   20.8029   29.2627 H   0  0  0  0  0
    7.4144   18.5504   30.7993 H   0  0  0  0  0
    6.2499   19.7784   31.3535 H   0  0  0  0  0
    5.6906   18.1339   30.9612 H   0  0  0  0  0
    5.4630   20.5410   25.5138 H   0  0  0  0  0
    3.8607   17.4349   26.1300 H   0  0  0  0  0
    2.7106   18.6557   26.7284 H   0  0  0  0  0
    3.6541   18.9698   25.2512 H   0  0  0  0  0
    4.9082   16.9765   29.6020 H   0  0  0  0  0
    3.7912   17.0148   28.1848 H   0  0  0  0  0
    3.3885   16.4880   31.3540 H   0  0  0  0  0
    0.3029   17.1535   33.3798 H   0  0  0  0  0
    0.8732   15.1531   32.3360 H   0  0  0  0  0
    2.5671   15.3020   32.8646 H   0  0  0  0  0
    1.2730   15.0956   34.0703 H   0  0  0  0  0
    3.1685   17.6819   34.2045 H   0  0  0  0  0
    1.7702   18.7563   34.4532 H   0  0  0  0  0
    1.8483   17.1877   35.2926 H   0  0  0  0  0
   -0.5528   20.0944   31.9553 H   0  0  0  0  0
    0.6844   20.5700   30.0506 H   0  0  0  0  0
    2.5675   19.8282   28.5970 H   0  0  0  0  0
  1  2  2  0  0  0
  2  3  1  0  0  0
  2  4  1  0  0  0
  4  5  1  0  0  0
  5  6  1  0  0  0
  6  7  4  0  0  0
  6 12  4  0  0  0
  7  8  4  0  0  0
  8  9  1  0  0  0
  8 10  4  0  0  0
 10 11  4  0  0  0
 10 14  1  0  0  0
 11 12  4  0  0  0
 11 13  1  0  0  0
 14 15  1  0  0  0
 15 16  4  0  0  0
 15 24  4  0  0  0
 16 17  4  0  0  0
 17 18  1  0  0  0
 17 21  4  0  0  0
 18 19  1  0  0  0
 18 20  1  0  0  0
 21 22  1  0  0  0
 21 23  4  0  0  0
 23 24  4  0  0  0
  3 25  1  0  0  0
  4 26  1  0  0  0
  4 27  1  0  0  0
  7 28  1  0  0  0
  9 29  1  0  0  0
  9 30  1  0  0  0
  9 31  1  0  0  0
 12 32  1  0  0  0
 13 33  1  0  0  0
 13 34  1  0  0  0
 13 35  1  0  0  0
 14 36  1  0  0  0
 14 37  1  0  0  0
 16 38  1  0  0  0
 18 39  1  0  0  0
 19 40  1  0  0  0
 19 41  1  0  0  0
 19 42  1  0  0  0
 20 43  1  0  0  0
 20 44  1  0  0  0
 20 45  1  0  0  0
 22 46  1  0  0  0
 23 47  1  0  0  0
 24 48  1  0  0  0
M  END
$$$$
