3vtr_ligand
  -I-interpret- 

116119  0  0  0  0  0  0  0  0999 V2000
  -30.3440   72.2900   44.8490 O   0  0  0  0  0
  -30.7600   71.3530   44.1840 C   0  0  0  0  0
  -29.8150   70.3430   43.5870 C   0  0  0  0  0
  -32.0680   71.1890   43.9590 N   0  0  0  0  0
  -33.0250   72.1440   44.5240 C   0  0  0  0  0
  -34.1910   71.3550   45.1140 C   0  0  0  0  0
  -34.7000   72.0600   46.2520 O   0  0  0  0  0
  -35.3400   71.1410   44.1340 C   0  0  0  0  0
  -35.7950   72.4020   43.4290 C   0  0  0  0  0
  -37.1850   72.7460   43.9460 C   0  0  0  0  0
  -37.6280   74.0180   43.3770 O   0  0  0  0  0
  -34.8680   73.4650   43.6780 O   0  0  0  0  0
  -33.5110   73.0720   43.3990 C   0  0  0  0  0
  -32.6730   74.2520   43.3620 O   0  0  0  0  0
  -34.9550   70.2230   43.1290 O   0  0  0  0  0
  -34.5700   68.9950   43.7070 C   0  0  0  0  0
  -33.4000   68.6270   42.9790 O   0  0  0  0  0
  -32.9630   67.2780   43.1170 C   0  0  0  0  0
  -31.7840   67.0720   42.1690 C   0  0  0  0  0
  -32.1120   67.5750   40.8540 O   0  0  0  0  0
  -34.0900   66.2920   42.8170 C   0  0  0  0  0
  -35.3560   66.5990   43.5990 C   0  0  0  0  0
  -36.4330   65.8160   43.0750 O   0  0  0  0  0
  -35.7540   68.0560   43.4830 C   0  0  0  0  0
  -36.6880   68.2790   44.5880 N   0  0  0  0  0
  -37.9130   68.7740   44.3830 C   0  0  0  0  0
  -38.7810   68.9510   45.6010 C   0  0  0  0  0
  -38.3210   69.0790   43.2660 O   0  0  0  0  0
  -33.6800   65.0300   43.2930 O   0  0  0  0  0
  -33.8590   63.9780   42.3630 C   0  0  0  0  0
  -35.2250   63.5530   42.3730 O   0  0  0  0  0
  -35.4860   62.4680   41.4820 C   0  0  0  0  0
  -36.9750   62.1710   41.5520 C   0  0  0  0  0
  -37.7050   63.2840   41.0080 O   0  0  0  0  0
  -34.6310   61.2560   41.8620 C   0  0  0  0  0
  -33.1570   61.6450   41.9720 C   0  0  0  0  0
  -32.3760   60.5510   42.4770 O   0  0  0  0  0
  -32.9680   62.8580   42.8740 C   0  0  0  0  0
  -31.5950   63.3270   42.6870 N   0  0  0  0  0
  -30.7770   63.7660   43.6600 C   0  0  0  0  0
  -31.2800   63.7880   45.0730 C   0  0  0  0  0
  -29.6440   64.1390   43.4070 O   0  0  0  0  0
  -34.6750   60.2720   40.8370 O   0  0  0  0  0
  -35.6020   59.1980   41.0070 C   0  0  0  0  0
  -35.3440   58.1930   39.8630 C   0  0  0  0  0
  -36.6090   57.6110   39.3370 N   0  3  0  0  0
  -36.3190   56.6910   38.2190 C   0  0  0  0  0
  -37.4060   56.8850   40.3450 C   0  0  0  0  0
  -37.4560   58.6870   38.7920 C   0  0  0  0  0
  -34.2910   57.1300   40.2160 C   0  0  0  0  0
  -33.3220   57.0390   39.1680 O   0  0  0  0  0
  -33.5960   57.4560   41.5270 C   0  0  0  0  0
  -32.6750   56.4100   41.8400 O   0  0  0  0  0
  -34.6620   57.5740   42.6090 C   0  0  0  0  0
  -35.5740   58.6480   42.3390 O   0  0  0  0  0
  -34.0240   57.8030   43.9690 C   0  0  0  0  0
  -35.0580   57.9970   44.9510 O   0  0  0  0  0
  -29.1258   70.8479   42.9101 H   0  0  0  0  0
  -29.2526   69.8577   44.3847 H   0  0  0  0  0
  -30.3852   69.5952   43.0358 H   0  0  0  0  0
  -32.3975   70.4038   43.3974 H   0  0  0  0  0
  -32.5678   72.7491   45.3069 H   0  0  0  0  0
  -33.8009   70.3723   45.3792 H   0  0  0  0  0
  -33.9898   72.2044   46.8815 H   0  0  0  0  0
  -36.1662   70.7720   44.7418 H   0  0  0  0  0
  -35.8332   72.2525   42.3500 H   0  0  0  0  0
  -37.1535   72.8301   45.0323 H   0  0  0  0  0
  -37.8815   71.9600   43.6540 H   0  0  0  0  0
  -38.5045   74.2273   43.7079 H   0  0  0  0  0
  -33.4606   72.5561   42.4402 H   0  0  0  0  0
  -31.7672   73.9941   43.1762 H   0  0  0  0  0
  -34.3425   68.9972   44.7730 H   0  0  0  0  0
  -32.6563   67.0908   44.1461 H   0  0  0  0  0
  -31.5615   66.0072   42.1000 H   0  0  0  0  0
  -30.9175   67.6105   42.5527 H   0  0  0  0  0
  -31.3651   67.4410   40.2659 H   0  0  0  0  0
  -34.2896   66.3405   41.7465 H   0  0  0  0  0
  -35.1570   66.3667   44.6452 H   0  0  0  0  0
  -37.2350   66.0073   43.5667 H   0  0  0  0  0
  -36.1596   68.2537   42.4908 H   0  0  0  0  0
  -36.3968   68.0509   45.5386 H   0  0  0  0  0
  -39.0472   70.0027   45.7061 H   0  0  0  0  0
  -39.6868   68.3550   45.4898 H   0  0  0  0  0
  -38.2350   68.6229   46.4855 H   0  0  0  0  0
  -33.6123   64.2745   41.3435 H   0  0  0  0  0
  -35.2195   62.7219   40.4560 H   0  0  0  0  0
  -37.2682   62.0133   42.5899 H   0  0  0  0  0
  -37.1962   61.2720   40.9767 H   0  0  0  0  0
  -38.6461   63.0996   41.0507 H   0  0  0  0  0
  -35.0260   60.8833   42.8071 H   0  0  0  0  0
  -32.8158   61.8984   40.9683 H   0  0  0  0  0
  -31.4557   60.8174   42.5376 H   0  0  0  0  0
  -33.1917   62.6018   43.9096 H   0  0  0  0  0
  -31.2261   63.3205   41.7361 H   0  0  0  0  0
  -30.6492   63.1498   45.6918 H   0  0  0  0  0
  -31.2490   64.8093   45.4525 H   0  0  0  0  0
  -32.3060   63.4208   45.0978 H   0  0  0  0  0
  -36.6325   59.5443   40.9275 H   0  0  0  0  0
  -34.9043   58.7648   39.0458 H   0  0  0  0  0
  -35.8175   57.2381   37.4207 H   0  0  0  0  0
  -35.6736   55.8860   38.5706 H   0  0  0  0  0
  -37.2526   56.2721   37.8433 H   0  0  0  0  0
  -36.8170   56.0608   40.7472 H   0  0  0  0  0
  -37.6776   57.5665   41.1512 H   0  0  0  0  0
  -38.3099   56.4935   39.8784 H   0  0  0  0  0
  -37.6854   59.4024   39.5818 H   0  0  0  0  0
  -36.9250   59.1923   37.9853 H   0  0  0  0  0
  -38.3818   58.2593   38.4073 H   0  0  0  0  0
  -34.8018   56.1738   40.3289 H   0  0  0  0  0
  -32.6682   56.3738   39.3951 H   0  0  0  0  0
  -33.0438   58.3930   41.4554 H   0  0  0  0  0
  -32.2330   56.6115   42.6681 H   0  0  0  0  0
  -35.2150   56.6347   42.6129 H   0  0  0  0  0
  -33.3868   58.6865   43.9297 H   0  0  0  0  0
  -33.4204   56.9368   44.2401 H   0  0  0  0  0
  -34.6575   58.1419   45.8114 H   0  0  0  0  0
  1  2  2  0  0  0
  2  3  1  0  0  0
  2  4  1  0  0  0
  4  5  1  0  0  0
  5  6  1  0  0  0
  5 13  1  0  0  0
  6  7  1  0  0  0
  6  8  1  0  0  0
  8  9  1  0  0  0
  8 15  1  0  0  0
  9 10  1  0  0  0
  9 12  1  0  0  0
 10 11  1  0  0  0
 12 13  1  0  0  0
 13 14  1  0  0  0
 15 16  1  0  0  0
 16 17  1  0  0  0
 16 24  1  0  0  0
 17 18  1  0  0  0
 18 19  1  0  0  0
 18 21  1  0  0  0
 19 20  1  0  0  0
 21 22  1  0  0  0
 21 29  1  0  0  0
 22 23  1  0  0  0
 22 24  1  0  0  0
 24 25  1  0  0  0
 25 26  1  0  0  0
 26 27  1  0  0  0
 26 28  2  0  0  0
 29 30  1  0  0  0
 30 31  1  0  0  0
 30 38  1  0  0  0
 31 32  1  0  0  0
 32 33  1  0  0  0
 32 35  1  0  0  0
 33 34  1  0  0  0
 35 36  1  0  0  0
 35 43  1  0  0  0
 36 37  1  0  0  0
 36 38  1  0  0  0
 38 39  1  0  0  0
 39 40  1  0  0  0
 40 41  1  0  0  0
 40 42  2  0  0  0
 43 44  1  0  0  0
 44 45  1  0  0  0
 44 55  1  0  0  0
 45 46  1  0  0  0
 45 50  1  0  0  0
 46 47  1  0  0  0
 46 48  1  0  0  0
 46 49  1  0  0  0
 50 51  1  0  0  0
 50 52  1  0  0  0
 52 53  1  0  0  0
 52 54  1  0  0  0
 54 55  1  0  0  0
 54 56  1  0  0  0
 56 57  1  0  0  0
  3 58  1  0  0  0
  3 59  1  0  0  0
  3 60  1  0  0  0
  4 61  1  0  0  0
  5 62  1  0  0  0
  6 63  1  0  0  0
  7 64  1  0  0  0
  8 65  1  0  0  0
  9 66  1  0  0  0
 10 67  1  0  0  0
 10 68  1  0  0  0
 11 69  1  0  0  0
 13 70  1  0  0  0
 14 71  1  0  0  0
 16 72  1  0  0  0
 18 73  1  0  0  0
 19 74  1  0  0  0
 19 75  1  0  0  0
 20 76  1  0  0  0
 21 77  1  0  0  0
 22 78  1  0  0  0
 23 79  1  0  0  0
 24 80  1  0  0  0
 25 81  1  0  0  0
 27 82  1  0  0  0
 27 83  1  0  0  0
 27 84  1  0  0  0
 30 85  1  0  0  0
 32 86  1  0  0  0
 33 87  1  0  0  0
 33 88  1  0  0  0
 34 89  1  0  0  0
 35 90  1  0  0  0
 36 91  1  0  0  0
 37 92  1  0  0  0
 38 93  1  0  0  0
 39 94  1  0  0  0
 41 95  1  0  0  0
 41 96  1  0  0  0
 41 97  1  0  0  0
 44 98  1  0  0  0
 45 99  1  0  0  0
 47100  1  0  0  0
 47101  1  0  0  0
 47102  1  0  0  0
 48103  1  0  0  0
 48104  1  0  0  0
 48105  1  0  0  0
 49106  1  0  0  0
 49107  1  0  0  0
 49108  1  0  0  0
 50109  1  0  0  0
 51110  1  0  0  0
 52111  1  0  0  0
 53112  1  0  0  0
 54113  1  0  0  0
 56114  1  0  0  0
 56115  1  0  0  0
 57116  1  0  0  0
M  END
$$$$
