2btr_ligand
  -I-interpret- 

 33 34  0  0  0  0  0  0  0  0999 V2000
   10.8800   45.7130   25.9630 O   0  0  0  0  0
   10.0890   46.3610   25.2810 C   0  0  0  0  0
   10.3410   46.6840   24.0190 N   0  0  0  0  0
   11.6360   46.4270   23.2990 C   0  0  0  0  0
   11.8530   46.7380   21.9730 N   0  0  0  0  0
   13.0420   46.3410   21.6950 C   0  0  0  0  0
   12.8870   45.4920   24.0880 S   0  0  0  0  0
   13.7230   45.6730   22.6400 C   0  0  0  0  0
   15.1040   45.0970   22.3950 C   0  0  0  0  0
   14.9650   43.6330   21.9270 C   0  0  0  0  0
   16.0560   45.2310   23.5780 C   0  0  0  0  0
    8.7240   46.7220   25.8230 C   0  0  0  0  0
    8.7100   47.8760   26.7700 C   0  0  0  0  0
    8.9150   47.6790   28.1240 C   0  0  0  0  0
    8.9160   48.7900   28.9670 C   0  0  0  0  0
    8.7150   50.0330   28.4280 C   0  0  0  0  0
    8.5000   50.1830   27.1160 N   0  0  0  0  0
    8.4910   49.1420   26.2830 C   0  0  0  0  0
    9.5964   47.1437   23.4950 H   0  0  0  0  0
   13.4859   46.5405   20.7197 H   0  0  0  0  0
   15.5699   45.6923   21.6097 H   0  0  0  0  0
   14.4567   43.0533   22.6975 H   0  0  0  0  0
   14.3850   43.6013   21.0047 H   0  0  0  0  0
   15.9555   43.2141   21.7494 H   0  0  0  0  0
   16.1870   46.2858   23.8196 H   0  0  0  0  0
   15.6392   44.7087   24.4391 H   0  0  0  0  0
   17.0202   44.7940   23.3182 H   0  0  0  0  0
    8.3644   45.8546   26.3766 H   0  0  0  0  0
    8.1101   47.0070   24.9686 H   0  0  0  0  0
    9.0723   46.6770   28.5233 H   0  0  0  0  0
    9.0744   48.6709   30.0388 H   0  0  0  0  0
    8.7304   50.9099   29.0752 H   0  0  0  0  0
    8.3105   49.2948   25.2190 H   0  0  0  0  0
  1  2  2  0  0  0
  2  3  1  0  0  0
  2 12  1  0  0  0
  3  4  1  0  0  0
  4  5  4  0  0  0
  4  7  4  0  0  0
  5  6  4  0  0  0
  6  8  4  0  0  0
  7  8  4  0  0  0
  8  9  1  0  0  0
  9 10  1  0  0  0
  9 11  1  0  0  0
 12 13  1  0  0  0
 13 14  4  0  0  0
 13 18  4  0  0  0
 14 15  4  0  0  0
 15 16  4  0  0  0
 16 17  4  0  0  0
 17 18  4  0  0  0
  3 19  1  0  0  0
  6 20  1  0  0  0
  9 21  1  0  0  0
 10 22  1  0  0  0
 10 23  1  0  0  0
 10 24  1  0  0  0
 11 25  1  0  0  0
 11 26  1  0  0  0
 11 27  1  0  0  0
 12 28  1  0  0  0
 12 29  1  0  0  0
 14 30  1  0  0  0
 15 31  1  0  0  0
 16 32  1  0  0  0
 18 33  1  0  0  0
M  END
$$$$
