1way_ligand
  -I-interpret- 

 34 36  0  0  0  0  0  0  0  0999 V2000
    9.4380   19.8340   51.9440 N   0  0  0  0  0
    9.4610   21.0800   51.3350 N   0  0  0  0  0
    9.8790   20.9360   50.0980 C   0  0  0  0  0
   10.1470   19.5610   49.8810 C   0  0  0  0  0
    9.8620   18.9330   51.0430 C   0  0  0  0  0
    9.9790   17.4840   51.3890 C   0  0  0  0  0
   10.6700   16.6400   50.3270 C   0  0  0  0  0
   10.7680   15.2030   50.8610 C   0  0  0  0  0
    9.4150   14.6860   51.1170 N   0  3  0  0  0
    8.8100   15.4700   52.2180 C   0  0  0  0  0
    8.6070   16.9220   51.7550 C   0  0  0  0  0
   10.9360   22.0640   48.0980 C   0  0  0  0  0
    9.9980   22.0590   49.1420 C   0  0  0  0  0
    9.1070   23.1330   49.3190 C   0  0  0  0  0
    9.1440   24.2110   48.4660 C   0  0  0  0  0
   10.0640   24.2360   47.4190 C   0  0  0  0  0
   10.9560   23.1630   47.2360 C   0  0  0  0  0
   10.0900   25.6240   46.3620 Cl  0  0  0  0  0
   10.5101   19.1023   48.9613 H   0  0  0  0  0
   10.6366   17.4245   52.2562 H   0  0  0  0  0
   11.6641   17.0347   50.1172 H   0  0  0  0  0
   10.1011   16.6607   49.3975 H   0  0  0  0  0
   11.3424   15.1964   51.7874 H   0  0  0  0  0
   11.2658   14.5730   50.1238 H   0  0  0  0  0
    9.4632   13.7011   51.3778 H   0  0  0  0  0
    8.8453   14.7724   50.2754 H   0  0  0  0  0
    9.4706   15.4521   53.0848 H   0  0  0  0  0
    7.8480   15.0356   52.4898 H   0  0  0  0  0
    7.9389   16.9575   50.8945 H   0  0  0  0  0
    8.1519   17.5147   52.5485 H   0  0  0  0  0
   11.6293   21.2337   47.9636 H   0  0  0  0  0
    8.3848   23.1107   50.1351 H   0  0  0  0  0
    8.4555   25.0440   48.6082 H   0  0  0  0  0
   11.6701   23.1898   46.4129 H   0  0  0  0  0
  1  2  4  0  0  0
  1  5  4  0  0  0
  2  3  4  0  0  0
  3  4  4  0  0  0
  3 13  1  0  0  0
  4  5  4  0  0  0
  5  6  1  0  0  0
  6  7  1  0  0  0
  6 11  1  0  0  0
  7  8  1  0  0  0
  8  9  1  0  0  0
  9 10  1  0  0  0
 10 11  1  0  0  0
 13 12  4  0  0  0
 12 17  4  0  0  0
 13 14  4  0  0  0
 14 15  4  0  0  0
 15 16  4  0  0  0
 16 17  4  0  0  0
 16 18  1  0  0  0
  4 19  1  0  0  0
  6 20  1  0  0  0
  7 21  1  0  0  0
  7 22  1  0  0  0
  8 23  1  0  0  0
  8 24  1  0  0  0
  9 25  1  0  0  0
  9 26  1  0  0  0
 10 27  1  0  0  0
 10 28  1  0  0  0
 11 29  1  0  0  0
 11 30  1  0  0  0
 12 31  1  0  0  0
 14 32  1  0  0  0
 15 33  1  0  0  0
 17 34  1  0  0  0
M  END
$$$$
