6b97_ligand
  -I-interpret- 

 37 39  0  0  0  0  0  0  0  0999 V2000
   31.7880   -6.0380   13.1230 C   0  0  0  0  0
   30.6190   -5.5910   12.4360 C   0  0  0  0  0
   33.7370   -7.0820   13.0710 N   0  0  0  0  0
   29.9840   -3.1660   14.7700 C   0  0  0  0  0
   30.3990   -1.2990   16.2500 C   0  0  0  0  0
   30.8890   -1.0930   13.9190 C   0  0  0  0  0
   30.4450   -2.3890   13.7120 C   0  0  0  0  0
   31.3960    0.8570   15.4210 C   0  0  0  0  0
   28.0330   -4.7670   14.9260 C   0  0  0  0  0
   32.4250   -6.0010   14.3840 C   0  0  0  0  0
   31.2430   -6.5870    8.7800 Cl  0  0  0  0  0
   31.4130   -6.4750   10.5050 C   0  0  0  0  0
   32.5260   -6.9990   10.9920 N   0  0  0  0  0
   32.6750   -6.7430   12.3060 C   0  0  0  0  0
   34.9330   -7.8370   12.7270 C   0  0  0  0  0
   33.5850   -6.6200   14.3540 N   0  0  0  0  0
   30.4480   -5.8120   11.1210 N   0  0  0  0  0
   29.6330   -4.9510   13.1050 N   0  0  0  0  0
   29.4940   -4.5830   14.5230 C   0  0  0  0  0
   30.8750   -0.5310   15.1910 C   0  0  0  0  0
   32.3620    0.9110   16.3230 F   0  0  0  0  0
   30.4490    1.7030   15.7910 F   0  0  0  0  0
   31.9590    1.3860   14.3590 F   0  0  0  0  0
   29.9700   -2.6010   16.0440 C   0  0  0  0  0
   30.3632   -0.8719   17.2522 H   0  0  0  0  0
   31.2535   -0.5072   13.0752 H   0  0  0  0  0
   30.4571   -2.8061   12.7050 H   0  0  0  0  0
   27.4038   -4.1250   14.3095 H   0  0  0  0  0
   27.7455   -5.8082   14.7799 H   0  0  0  0  0
   27.9103   -4.4987   15.9753 H   0  0  0  0  0
   32.0079   -5.5205   15.2690 H   0  0  0  0  0
   34.6479   -8.8351   12.3943 H   0  0  0  0  0
   35.4669   -7.3246   11.9267 H   0  0  0  0  0
   35.5766   -7.9147   13.6032 H   0  0  0  0  0
   28.8437   -4.6735   12.5216 H   0  0  0  0  0
   30.1159   -5.2301   15.1415 H   0  0  0  0  0
   29.6169   -3.1909   16.8899 H   0  0  0  0  0
  2  1  4  0  0  0
  1 10  4  0  0  0
  1 14  4  0  0  0
  2 17  4  0  0  0
 18  2  1  0  0  0
 14  3  4  0  0  0
  3 15  1  0  0  0
  3 16  4  0  0  0
  4  7  4  0  0  0
 19  4  1  0  0  0
  4 24  4  0  0  0
  5 20  4  0  0  0
 24  5  4  0  0  0
  7  6  4  0  0  0
  6 20  4  0  0  0
 20  8  1  0  0  0
  8 21  1  0  0  0
  8 22  1  0  0  0
  8 23  1  0  0  0
 19  9  1  0  0  0
 10 16  4  0  0  0
 12 11  1  0  0  0
 12 13  4  0  0  0
 17 12  4  0  0  0
 14 13  4  0  0  0
 18 19  1  0  0  0
  5 25  1  0  0  0
  6 26  1  0  0  0
  7 27  1  0  0  0
  9 28  1  0  0  0
  9 29  1  0  0  0
  9 30  1  0  0  0
 10 31  1  0  0  0
 15 32  1  0  0  0
 15 33  1  0  0  0
 15 34  1  0  0  0
 18 35  1  0  0  0
 19 36  1  0  0  0
 24 37  1  0  0  0
M  END
$$$$
