4dy6_ligand
  -I-interpret- 

 76 81  0  0  0  0  0  0  0  0999 V2000
   17.3480    9.9490   17.6430 P   0  0  0  0  0
   18.0650   10.8760   18.5940 O   0  0  0  0  0
   17.3460    8.4970   18.0540 O   0  0  0  0  0
   15.9920   10.4720   17.2330 O   0  0  0  0  0
   13.9600    7.4110   13.2230 P   0  0  0  0  0
   13.7360    6.2340   12.3070 O   0  0  0  0  0
   13.6940    7.2680   14.7010 O   0  0  0  0  0
   15.4870    7.9020   13.0210 O   0  0  0  0  0
   16.5580    6.9570   12.8980 C   0  0  0  0  0
   17.8190    7.3550   13.6830 C   0  0  0  0  0
   18.5520    8.3940   13.0260 O   0  0  0  0  0
   17.5650    7.8760   15.0920 C   0  0  0  0  0
   18.5020    7.2560   15.9730 O   0  0  0  0  0
   17.8240    9.3730   15.0470 C   0  0  0  0  0
   18.2580    9.9410   16.2980 O   0  0  0  0  0
   18.9170    9.3870   13.9940 C   0  0  0  0  0
   19.1410   10.6860   13.3160 N   0  0  0  0  0
   18.2320   11.5750   12.8890 C   0  0  0  0  0
   18.8820   12.6120   12.3190 N   0  0  0  0  0
   20.2070   12.3570   12.3790 C   0  0  0  0  0
   21.3480   13.0360   11.9580 C   0  0  0  0  0
   21.2510   14.2360   11.3380 N   0  0  0  0  0
   22.5590   12.4770   12.1850 N   0  0  0  0  0
   22.6750   11.2950   12.8080 C   0  0  0  0  0
   21.5950   10.6220   13.2170 N   0  0  0  0  0
   20.3570   11.1340   13.0090 C   0  0  0  0  0
   13.2670   10.1720   12.9180 P   0  0  0  0  0
   14.2270   10.3330   14.0750 O   0  0  0  0  0
   11.9010   10.8180   12.9560 O   0  0  0  0  0
   13.0340    8.5990   12.6430 O   0  0  0  0  0
   13.9990   10.7220   11.5940 O   0  0  0  0  0
   14.0490    9.9590   10.3930 C   0  0  0  0  0
   15.4910    9.8580    9.9180 C   0  0  0  0  0
   16.0190    8.5320   10.0570 O   0  0  0  0  0
   15.6030   10.1950    8.4460 C   0  0  0  0  0
   15.6660   11.6170    8.2800 O   0  0  0  0  0
   16.8330    9.4130    8.0100 C   0  0  0  0  0
   17.9800   10.2700    7.9050 O   0  0  0  0  0
   17.0290    8.3140    9.0760 C   0  0  0  0  0
   16.9550    6.9620    8.4480 N   0  0  0  0  0
   15.8800    6.3830    7.8790 C   0  0  0  0  0
   16.2240    5.1690    7.3890 N   0  0  0  0  0
   17.5420    4.9850    7.6320 C   0  0  0  0  0
   18.4590    3.9560    7.3630 C   0  0  0  0  0
   18.0950    2.8140    6.7220 N   0  0  0  0  0
   19.7410    4.1090    7.7620 N   0  0  0  0  0
   20.1270    5.2200    8.4030 C   0  0  0  0  0
   19.2750    6.2090    8.6730 N   0  0  0  0  0
   17.9840    6.1240    8.2970 C   0  0  0  0  0
   18.0187   11.7745   18.2591 H   0  0  0  0  0
   16.0682   11.3965   16.9858 H   0  0  0  0  0
   13.8835    8.0999   15.1411 H   0  0  0  0  0
   16.8305    6.9055   11.8439 H   0  0  0  0  0
   16.2060    6.0079   13.3022 H   0  0  0  0  0
   18.3699    6.4159   13.7349 H   0  0  0  0  0
   16.5527    7.6633   15.4358 H   0  0  0  0  0
   18.3567    7.5730   16.8674 H   0  0  0  0  0
   16.9412    9.9763   14.8353 H   0  0  0  0  0
   19.8626    9.1865   14.4977 H   0  0  0  0  0
   17.1508   11.4768   12.9858 H   0  0  0  0  0
   20.3346   14.6529   11.1744 H   0  0  0  0  0
   22.0943   14.7229   11.0346 H   0  0  0  0  0
   23.6660   10.8764   12.9836 H   0  0  0  0  0
   15.0402    9.8603   13.8828 H   0  0  0  0  0
   13.4467   10.4468    9.6266 H   0  0  0  0  0
   13.6566    8.9595   10.5802 H   0  0  0  0  0
   16.0486   10.5592   10.5389 H   0  0  0  0  0
   14.7527    9.9157    7.8238 H   0  0  0  0  0
   15.7369   11.8261    7.3457 H   0  0  0  0  0
   16.7044    8.9760    7.0198 H   0  0  0  0  0
   18.7403    9.7528    7.6291 H   0  0  0  0  0
   18.0118    8.3593    9.5453 H   0  0  0  0  0
   14.8851    6.8246    7.8219 H   0  0  0  0  0
   17.1294    2.6842    6.4201 H   0  0  0  0  0
   18.7875    2.0868    6.5429 H   0  0  0  0  0
   21.1675    5.3182    8.7127 H   0  0  0  0  0
  1  2  1  0  0  0
  1  3  2  0  0  0
  1  4  1  0  0  0
 15  1  1  0  0  0
  5  6  2  0  0  0
  5  7  1  0  0  0
  5  8  1  0  0  0
 30  5  1  0  0  0
  8  9  1  0  0  0
  9 10  1  0  0  0
 10 11  1  0  0  0
 10 12  1  0  0  0
 11 16  1  0  0  0
 12 13  1  0  0  0
 12 14  1  0  0  0
 14 15  1  0  0  0
 14 16  1  0  0  0
 16 17  1  0  0  0
 17 18  4  0  0  0
 17 26  4  0  0  0
 18 19  4  0  0  0
 20 19  4  0  0  0
 20 21  4  0  0  0
 26 20  4  0  0  0
 21 22  1  0  0  0
 21 23  4  0  0  0
 24 23  4  0  0  0
 25 24  4  0  0  0
 26 25  4  0  0  0
 27 28  1  0  0  0
 27 29  2  0  0  0
 27 30  1  0  0  0
 27 31  1  0  0  0
 31 32  1  0  0  0
 32 33  1  0  0  0
 33 34  1  0  0  0
 33 35  1  0  0  0
 34 39  1  0  0  0
 35 36  1  0  0  0
 35 37  1  0  0  0
 37 38  1  0  0  0
 37 39  1  0  0  0
 39 40  1  0  0  0
 40 41  4  0  0  0
 40 49  4  0  0  0
 41 42  4  0  0  0
 42 43  4  0  0  0
 43 44  4  0  0  0
 43 49  4  0  0  0
 44 45  1  0  0  0
 44 46  4  0  0  0
 46 47  4  0  0  0
 47 48  4  0  0  0
 48 49  4  0  0  0
  2 50  1  0  0  0
  4 51  1  0  0  0
  7 52  1  0  0  0
  9 53  1  0  0  0
  9 54  1  0  0  0
 10 55  1  0  0  0
 12 56  1  0  0  0
 13 57  1  0  0  0
 14 58  1  0  0  0
 16 59  1  0  0  0
 18 60  1  0  0  0
 22 61  1  0  0  0
 22 62  1  0  0  0
 24 63  1  0  0  0
 28 64  1  0  0  0
 32 65  1  0  0  0
 32 66  1  0  0  0
 33 67  1  0  0  0
 35 68  1  0  0  0
 36 69  1  0  0  0
 37 70  1  0  0  0
 38 71  1  0  0  0
 39 72  1  0  0  0
 41 73  1  0  0  0
 45 74  1  0  0  0
 45 75  1  0  0  0
 47 76  1  0  0  0
M  END
$$$$
