5dlz_ligand
  -I-interpret- 

 70 73  0  0  0  0  0  0  0  0999 V2000
  -11.8060  -21.3210    3.2870 C   0  0  0  0  0
  -11.0030  -20.3500    2.6980 C   0  0  0  0  0
  -10.1540  -19.5830    3.5050 C   0  0  0  0  0
  -11.0210  -20.1300    1.3050 C   0  0  0  0  0
  -10.2130  -19.1400    0.7250 C   0  0  0  0  0
   -9.3530  -18.3730    1.5420 C   0  0  0  0  0
   -9.3270  -18.5750    2.9480 C   0  0  0  0  0
   -8.4520  -17.8260    3.7750 C   0  0  0  0  0
   -9.0560  -16.5720    4.3550 N   0  3  0  0  0
  -10.0960  -16.8060    5.3990 C   0  0  0  0  0
  -11.1150  -15.6770    5.4250 C   0  0  0  0  0
   -9.4200  -15.6200    3.2780 C   0  0  0  0  0
   -9.5740  -14.2320    3.8630 C   0  0  0  0  0
  -10.3920  -14.3020    5.1970 C   0  0  0  0  0
  -11.4260  -13.1360    5.2300 C   0  0  0  0  0
  -10.6380  -11.8830    5.2620 N   0  0  0  0  0
  -11.0300  -10.6160    4.9760 C   0  0  0  0  0
  -10.1510   -9.7550    5.1320 O   0  0  0  0  0
  -12.4990  -10.2780    4.3760 C   0  0  0  0  0
  -12.9820   -8.9150    4.9240 C   0  0  0  0  0
  -13.6030   -7.9950    3.8480 C   0  0  0  0  0
  -12.5520   -7.7370    2.8570 O   0  0  0  0  0
  -12.6490   -6.8170    1.8140 C   0  0  0  0  0
  -11.4610   -6.6100    1.0600 C   0  0  0  0  0
  -10.2740   -7.2750    1.3800 C   0  0  0  0  0
   -9.1460   -7.0810    0.6110 C   0  0  0  0  0
   -9.1680   -6.2160   -0.4690 C   0  0  0  0  0
  -10.3090   -5.5160   -0.7950 C   0  0  0  0  0
  -11.4690   -5.6500    0.0040 C   0  0  0  0  0
  -12.6460   -4.9910   -0.3240 N   0  0  0  0  0
  -12.6180   -4.0010   -1.4420 C   0  0  0  0  0
  -13.7870   -5.1380    0.3740 C   0  0  0  0  0
  -14.7990   -4.4570    0.0930 O   0  0  0  0  0
  -13.8030   -6.0590    1.4630 C   0  0  0  0  0
  -11.1766  -22.0535    3.7925 H   0  0  0  0  0
  -12.4712  -20.8504    4.0110 H   0  0  0  0  0
  -12.3972  -21.8174    2.5175 H   0  0  0  0  0
  -10.1284  -19.7639    4.5796 H   0  0  0  0  0
  -11.6696  -20.7356    0.6720 H   0  0  0  0  0
  -10.2488  -18.9639   -0.3501 H   0  0  0  0  0
   -8.7052  -17.6214    1.0908 H   0  0  0  0  0
   -7.6130  -17.5161    3.1520 H   0  0  0  0  0
   -8.1818  -18.4666    4.6145 H   0  0  0  0  0
   -8.3319  -16.1092    4.9045 H   0  0  0  0  0
   -9.6068  -16.8550    6.3718 H   0  0  0  0  0
  -10.6147  -17.7370    5.1702 H   0  0  0  0  0
  -11.6147  -15.6650    6.3936 H   0  0  0  0  0
  -11.8474  -15.8345    4.6333 H   0  0  0  0  0
  -10.3608  -15.9289    2.8223 H   0  0  0  0  0
   -8.6360  -15.6105    2.5208 H   0  0  0  0  0
  -10.1026  -13.5987    3.1505 H   0  0  0  0  0
   -8.5871  -13.8174    4.0683 H   0  0  0  0  0
   -9.6758  -14.2032    6.0128 H   0  0  0  0  0
  -12.0760  -13.2128    6.1016 H   0  0  0  0  0
  -12.0792  -13.1663    4.3579 H   0  0  0  0  0
   -9.6617  -11.9871    5.5383 H   0  0  0  0  0
  -13.2002  -11.0574    4.6743 H   0  0  0  0  0
  -12.4443  -10.2323    3.2883 H   0  0  0  0  0
  -12.1107   -8.4000    5.3287 H   0  0  0  0  0
  -13.7559   -9.1179    5.6643 H   0  0  0  0  0
  -13.9571   -7.0638    4.2903 H   0  0  0  0  0
  -14.4674   -8.4691    3.3832 H   0  0  0  0  0
  -10.2400   -7.9470    2.2375 H   0  0  0  0  0
   -8.2276   -7.6144    0.8563 H   0  0  0  0  0
   -8.2687   -6.0865   -1.0711 H   0  0  0  0  0
  -10.3181   -4.8608   -1.6660 H   0  0  0  0  0
  -11.9094   -3.2073   -1.2052 H   0  0  0  0  0
  -12.3117   -4.5010   -2.3608 H   0  0  0  0  0
  -13.6126   -3.5747   -1.5731 H   0  0  0  0  0
  -14.7191   -6.1858    2.0398 H   0  0  0  0  0
  1  2  1  0  0  0
  2  3  4  0  0  0
  2  4  4  0  0  0
  3  7  4  0  0  0
  4  5  4  0  0  0
  5  6  4  0  0  0
  6  7  4  0  0  0
  7  8  1  0  0  0
  8  9  1  0  0  0
  9 10  1  0  0  0
  9 12  1  0  0  0
 10 11  1  0  0  0
 11 14  1  0  0  0
 12 13  1  0  0  0
 13 14  1  0  0  0
 14 15  1  0  0  0
 15 16  1  0  0  0
 16 17  1  0  0  0
 17 18  2  0  0  0
 17 19  1  0  0  0
 19 20  1  0  0  0
 20 21  1  0  0  0
 21 22  1  0  0  0
 22 23  1  0  0  0
 23 24  1  0  0  0
 23 34  2  0  0  0
 24 25  4  0  0  0
 24 29  4  0  0  0
 25 26  4  0  0  0
 26 27  4  0  0  0
 27 28  4  0  0  0
 28 29  4  0  0  0
 29 30  1  0  0  0
 30 31  1  0  0  0
 30 32  1  0  0  0
 32 33  2  0  0  0
 32 34  1  0  0  0
  1 35  1  0  0  0
  1 36  1  0  0  0
  1 37  1  0  0  0
  3 38  1  0  0  0
  4 39  1  0  0  0
  5 40  1  0  0  0
  6 41  1  0  0  0
  8 42  1  0  0  0
  8 43  1  0  0  0
  9 44  1  0  0  0
 10 45  1  0  0  0
 10 46  1  0  0  0
 11 47  1  0  0  0
 11 48  1  0  0  0
 12 49  1  0  0  0
 12 50  1  0  0  0
 13 51  1  0  0  0
 13 52  1  0  0  0
 14 53  1  0  0  0
 15 54  1  0  0  0
 15 55  1  0  0  0
 16 56  1  0  0  0
 19 57  1  0  0  0
 19 58  1  0  0  0
 20 59  1  0  0  0
 20 60  1  0  0  0
 21 61  1  0  0  0
 21 62  1  0  0  0
 25 63  1  0  0  0
 26 64  1  0  0  0
 27 65  1  0  0  0
 28 66  1  0  0  0
 31 67  1  0  0  0
 31 68  1  0  0  0
 31 69  1  0  0  0
 34 70  1  0  0  0
M  END
$$$$
