4o91_ligand
  -I-interpret- 

 70 74  0  0  0  0  0  0  0  0999 V2000
  -11.0070  -50.4670  -11.9500 C   0  0  0  0  0
   -9.7960  -50.2680  -12.8730 C   0  0  0  0  0
   -8.4950  -50.4150  -12.3750 C   0  0  0  0  0
   -7.4000  -50.2240  -13.2300 C   0  0  0  0  0
   -7.6210  -49.9100  -14.5790 C   0  0  0  0  0
   -8.9160  -49.7640  -15.0800 C   0  0  0  0  0
   -9.9940  -49.9330  -14.2270 C   0  0  0  0  0
  -11.2840  -49.8240  -14.7660 O   0  0  0  0  0
  -11.8780  -48.5430  -14.6910 C   0  0  0  0  0
  -11.2370  -47.4020  -14.1230 C   0  0  0  0  0
  -11.9600  -46.1940  -14.1170 C   0  0  0  0  0
  -13.1990  -46.0880  -14.6200 N   0  0  0  0  0
  -13.8230  -47.1760  -15.1660 C   0  0  0  0  0
  -13.2060  -48.4110  -15.2240 C   0  0  0  0  0
  -14.1440  -49.3020  -15.8500 C   0  0  0  0  0
  -15.2900  -48.5500  -16.1460 C   0  0  0  0  0
  -15.0760  -47.3000  -15.7300 N   0  0  0  0  0
   -6.4630  -49.6730  -15.5480 C   0  0  0  0  0
   -5.1210  -49.8410  -15.0740 N   0  0  0  0  0
   -3.9220  -49.6120  -15.8510 C   0  0  0  0  0
   -2.8130  -50.4650  -15.6790 C   0  0  0  0  0
   -1.6260  -50.2380  -16.3890 C   0  0  0  0  0
   -1.5170  -49.1550  -17.2720 C   0  0  0  0  0
   -2.6400  -48.2870  -17.4340 C   0  0  0  0  0
   -2.5810  -47.0720  -18.3940 C   0  0  0  0  0
   -3.7870  -46.5240  -18.4510 F   0  0  0  0  0
   -1.6950  -46.1660  -17.9630 F   0  0  0  0  0
   -2.2290  -47.4830  -19.6320 F   0  0  0  0  0
   -3.8150  -48.5040  -16.7200 C   0  0  0  0  0
   -0.1950  -48.9280  -18.0570 C   0  0  0  0  0
    0.3930  -50.0750  -18.3170 N   0  3  0  0  0
    1.7360  -49.8930  -18.4250 C   0  0  0  0  0
    2.4800  -51.1620  -18.8400 C   0  0  0  0  0
    1.9020  -51.8220  -19.8940 N   0  3  0  0  0
    0.5640  -51.9470  -19.7780 C   0  0  0  0  0
   -0.1390  -50.6280  -19.4350 C   0  0  0  0  0
    2.4050  -53.0060  -20.0040 C   0  0  0  0  0
    3.7410  -53.0140  -20.7940 C   0  0  0  0  0
   -6.7090  -49.3310  -16.6780 O   0  0  0  0  0
  -10.9941  -51.4806  -11.5493 H   0  0  0  0  0
  -10.9591  -49.7502  -11.1302 H   0  0  0  0  0
  -11.9244  -50.3109  -12.5176 H   0  0  0  0  0
   -8.3347  -50.6763  -11.3290 H   0  0  0  0  0
   -6.3834  -50.3190  -12.8485 H   0  0  0  0  0
   -9.0767  -49.5199  -16.1301 H   0  0  0  0  0
  -10.2297  -47.4630  -13.7110 H   0  0  0  0  0
  -11.4937  -45.3082  -13.6858 H   0  0  0  0  0
  -13.9932  -50.3617  -16.0557 H   0  0  0  0  0
  -16.1941  -48.9202  -16.6295 H   0  0  0  0  0
   -5.0011  -50.1475  -14.1086 H   0  0  0  0  0
   -2.8790  -51.3065  -14.9894 H   0  0  0  0  0
   -0.7791  -50.9106  -16.2531 H   0  0  0  0  0
   -4.6541  -47.8174  -16.8318 H   0  0  0  0  0
    0.4747  -48.3177  -17.4510 H   0  0  0  0  0
   -0.4249  -48.4282  -18.9980 H   0  0  0  0  0
    0.2316  -50.7261  -17.5486 H   0  0  0  0  0
    2.1101  -49.5943  -17.4458 H   0  0  0  0  0
    1.9080  -49.1408  -19.1949 H   0  0  0  0  0
    2.4688  -51.8396  -17.9863 H   0  0  0  0  0
    3.4812  -50.8648  -19.1519 H   0  0  0  0  0
    2.0961  -51.2551  -20.7194 H   0  0  0  0  0
    0.3670  -52.6470  -18.9660 H   0  0  0  0  0
    0.1794  -52.2856  -20.7401 H   0  0  0  0  0
   -0.0095  -49.9344  -20.2658 H   0  0  0  0  0
   -1.1958  -50.8286  -19.2590 H   0  0  0  0  0
    1.6905  -53.6256  -20.5459 H   0  0  0  0  0
    2.6059  -53.3803  -19.0002 H   0  0  0  0  0
    3.5699  -52.6270  -21.7985 H   0  0  0  0  0
    4.4691  -52.3861  -20.2804 H   0  0  0  0  0
    4.1189  -54.0345  -20.8559 H   0  0  0  0  0
  1  2  1  0  0  0
  2  3  4  0  0  0
  2  7  4  0  0  0
  3  4  4  0  0  0
  4  5  4  0  0  0
  5  6  4  0  0  0
  5 18  1  0  0  0
  6  7  4  0  0  0
  7  8  1  0  0  0
  8  9  1  0  0  0
  9 10  4  0  0  0
  9 14  4  0  0  0
 10 11  4  0  0  0
 11 12  4  0  0  0
 12 13  4  0  0  0
 13 14  4  0  0  0
 13 17  4  0  0  0
 14 15  4  0  0  0
 15 16  4  0  0  0
 16 17  4  0  0  0
 18 19  1  0  0  0
 18 39  2  0  0  0
 19 20  1  0  0  0
 20 21  4  0  0  0
 20 29  4  0  0  0
 21 22  4  0  0  0
 22 23  4  0  0  0
 23 24  4  0  0  0
 23 30  1  0  0  0
 24 25  1  0  0  0
 24 29  4  0  0  0
 25 26  1  0  0  0
 25 27  1  0  0  0
 25 28  1  0  0  0
 30 31  1  0  0  0
 31 32  1  0  0  0
 31 36  1  0  0  0
 32 33  1  0  0  0
 33 34  1  0  0  0
 34 35  1  0  0  0
 34 37  1  0  0  0
 35 36  1  0  0  0
 37 38  1  0  0  0
  1 40  1  0  0  0
  1 41  1  0  0  0
  1 42  1  0  0  0
  3 43  1  0  0  0
  4 44  1  0  0  0
  6 45  1  0  0  0
 10 46  1  0  0  0
 11 47  1  0  0  0
 15 48  1  0  0  0
 16 49  1  0  0  0
 19 50  1  0  0  0
 21 51  1  0  0  0
 22 52  1  0  0  0
 29 53  1  0  0  0
 30 54  1  0  0  0
 30 55  1  0  0  0
 31 56  1  0  0  0
 32 57  1  0  0  0
 32 58  1  0  0  0
 33 59  1  0  0  0
 33 60  1  0  0  0
 34 61  1  0  0  0
 35 62  1  0  0  0
 35 63  1  0  0  0
 36 64  1  0  0  0
 36 65  1  0  0  0
 37 66  1  0  0  0
 37 67  1  0  0  0
 38 68  1  0  0  0
 38 69  1  0  0  0
 38 70  1  0  0  0
M  END
$$$$
