4zba_ligand
  -I-interpret- 

 74 73  0  0  0  0  0  0  0  0999 V2000
   27.8950  108.1900   25.0110 N   0  3  0  0  0
   27.8360  106.9860   25.8680 C   0  0  0  0  0
   26.8020  107.1640   26.9840 C   0  0  0  0  0
   26.7450  108.3160   27.4920 O   0  0  0  0  0
   26.0930  106.2130   27.3100 O   0  0  0  0  0
   29.2480  106.7300   26.4620 C   0  0  0  0  0
   29.2890  105.3420   27.0980 C   0  0  0  0  0
   30.6990  105.0180   27.5500 C   0  0  0  0  0
   31.6540  105.7950   27.4460 O   0  0  0  0  0
   30.8540  103.7680   28.0990 N   0  0  0  0  0
   32.1450  103.2890   28.6190 C   0  0  0  0  0
   32.4720  101.9450   28.0160 C   0  0  0  0  0
   31.6140  101.0590   27.9780 O   0  0  0  0  0
   31.9590  103.1510   30.1790 C   0  0  0  0  0
   33.4420  102.2920   30.8860 S   0  0  0  0  0
   33.7210  101.7560   27.5570 N   0  0  0  0  0
   34.0770  100.4300   27.0490 C   0  0  0  0  0
   34.3830  100.3370   25.5830 C   0  0  0  0  0
   34.3530  101.4170   24.9270 O   0  0  0  0  0
   34.6400   99.2240   25.1430 O   0  0  0  0  0
   37.6090  104.7930   27.7190 N   0  0  0  0  0
   37.8590  105.2260   26.3280 C   0  0  0  0  0
   37.0880  106.4740   25.8970 C   0  0  0  0  0
   36.3180  107.0060   26.7480 O   0  0  0  0  0
   37.2710  106.8700   24.7490 O   0  0  0  0  0
   36.5310  104.0110   28.0050 C   0  0  0  0  0
   35.6940  103.6990   27.1500 O   0  0  0  0  0
   36.2820  103.5340   29.4480 C   0  0  0  0  0
   37.5170  103.2240   30.2020 N   0  0  0  0  0
   35.4390  104.5610   30.1720 C   0  0  0  0  0
   34.6410  103.7930   31.6350 S   0  0  0  0  0
   40.5170  100.0150   32.0810 C   0  0  0  0  0
   40.1870   98.9250   33.0900 C   0  0  0  0  0
   39.3090   99.2100   33.9510 O   0  0  0  0  0
   40.7940   97.8580   33.0120 O   0  0  0  0  0
   41.4970   99.5470   31.0760 N   0  3  0  0  0
   39.2070  100.4370   31.4040 C   0  0  0  0  0
   39.4590  101.7860   30.6890 C   0  0  0  0  0
   38.2400  102.0860   29.8680 C   0  0  0  0  0
   37.8700  101.3780   28.9300 O   0  0  0  0  0
   26.9725  108.3691   24.6143 H   0  0  0  0  0
   28.1867  108.9908   25.5714 H   0  0  0  0  0
   28.5663  108.0376   24.2583 H   0  0  0  0  0
   27.5285  106.1271   25.2715 H   0  0  0  0  0
   27.3964  108.8823   27.0719 H   0  0  0  0  0
   29.4655  107.4832   27.2193 H   0  0  0  0  0
   29.9922  106.7877   25.6677 H   0  0  0  0  0
   28.9697  104.6024   26.3638 H   0  0  0  0  0
   28.6235  105.3241   27.9611 H   0  0  0  0  0
   30.0446  103.1492   28.1480 H   0  0  0  0  0
   32.9584  103.9712   28.3721 H   0  0  0  0  0
   31.0606  102.5723   30.3935 H   0  0  0  0  0
   31.8570  104.1394   30.6270 H   0  0  0  0  0
   34.4019  102.5154   27.5625 H   0  0  0  0  0
   33.2053   99.7976   27.2169 H   0  0  0  0  0
   34.9915  100.1427   27.5678 H   0  0  0  0  0
   34.1247  102.1409   25.5148 H   0  0  0  0  0
   38.2435  105.0797   28.4644 H   0  0  0  0  0
   37.5327  104.4127   25.6798 H   0  0  0  0  0
   38.9193  105.4689   26.2577 H   0  0  0  0  0
   36.3542  106.5065   27.5670 H   0  0  0  0  0
   35.7476  102.5860   29.3859 H   0  0  0  0  0
   37.8322  103.8360   30.9547 H   0  0  0  0  0
   34.6691  104.9351   29.4971 H   0  0  0  0  0
   36.0756  105.3830   30.4994 H   0  0  0  0  0
   40.9740  100.8621   32.5925 H   0  0  0  0  0
   38.9887  100.1017   33.7967 H   0  0  0  0  0
   41.6940  100.3011   30.4181 H   0  0  0  0  0
   42.3589   99.2707   31.5463 H   0  0  0  0  0
   41.1113   98.7477   30.5733 H   0  0  0  0  0
   38.4146  100.5431   32.1449 H   0  0  0  0  0
   38.8909   99.6806   30.6856 H   0  0  0  0  0
   40.3438  101.7256   30.0553 H   0  0  0  0  0
   39.6375  102.5786   31.4157 H   0  0  0  0  0
  2  1  1  0  0  0
  2  3  1  0  0  0
  6  2  1  0  0  0
  3  4  1  0  0  0
  3  5  2  0  0  0
  7  6  1  0  0  0
  8  7  1  0  0  0
  8  9  2  0  0  0
 10  8  1  0  0  0
 11 10  1  0  0  0
 11 12  1  0  0  0
 14 11  1  0  0  0
 12 13  2  0  0  0
 12 16  1  0  0  0
 15 14  1  0  0  0
 31 15  1  0  0  0
 16 17  1  0  0  0
 17 18  1  0  0  0
 18 19  1  0  0  0
 18 20  2  0  0  0
 21 22  1  0  0  0
 26 21  1  0  0  0
 22 23  1  0  0  0
 23 24  1  0  0  0
 23 25  2  0  0  0
 26 27  2  0  0  0
 28 26  1  0  0  0
 29 28  1  0  0  0
 28 30  1  0  0  0
 39 29  1  0  0  0
 30 31  1  0  0  0
 32 33  1  0  0  0
 32 36  1  0  0  0
 37 32  1  0  0  0
 33 34  1  0  0  0
 33 35  2  0  0  0
 38 37  1  0  0  0
 38 39  1  0  0  0
 39 40  2  0  0  0
  1 41  1  0  0  0
  1 42  1  0  0  0
  1 43  1  0  0  0
  2 44  1  0  0  0
  4 45  1  0  0  0
  6 46  1  0  0  0
  6 47  1  0  0  0
  7 48  1  0  0  0
  7 49  1  0  0  0
 10 50  1  0  0  0
 11 51  1  0  0  0
 14 52  1  0  0  0
 14 53  1  0  0  0
 16 54  1  0  0  0
 17 55  1  0  0  0
 17 56  1  0  0  0
 19 57  1  0  0  0
 21 58  1  0  0  0
 22 59  1  0  0  0
 22 60  1  0  0  0
 24 61  1  0  0  0
 28 62  1  0  0  0
 29 63  1  0  0  0
 30 64  1  0  0  0
 30 65  1  0  0  0
 32 66  1  0  0  0
 34 67  1  0  0  0
 36 68  1  0  0  0
 36 69  1  0  0  0
 36 70  1  0  0  0
 37 71  1  0  0  0
 37 72  1  0  0  0
 38 73  1  0  0  0
 38 74  1  0  0  0
M  END
$$$$
