6uim_ligand
  -I-interpret- 

 38 37  0  0  0  0  0  0  0  0999 V2000
   63.5630  109.7430  275.8400 C   0  0  0  0  0
   62.3660  109.8240  274.9330 C   0  0  0  0  0
   61.0340  110.0630  275.5540 C   0  0  0  0  0
   70.2440  107.0870  271.1070 C   0  0  0  0  0
   70.7650  107.6870  272.4300 C   0  0  0  0  0
   69.7630  107.4030  273.5680 C   0  0  0  0  0
   68.1680  108.5650  275.1170 C   0  0  0  0  0
   67.3920  109.8920  275.1980 C   0  0  0  0  0
   66.0850  109.7460  275.9720 C   0  0  0  0  0
   64.8580  109.9930  275.0980 C   0  0  0  0  0
   70.9490  107.6870  269.9700 N   0  3  0  0  0
   69.2460  108.6810  274.1150 N   0  3  0  0  0
   62.4700  109.7030  273.7220 O   0  0  0  0  0
   59.7870  109.3220  274.5170 S   0  0  0  0  0
   63.6018  108.7390  276.2626 H   0  0  0  0  0
   63.4589  110.5082  276.6092 H   0  0  0  0  0
   60.8530  111.1338  275.6471 H   0  0  0  0  0
   61.0021  109.6201  276.5494 H   0  0  0  0  0
   69.1775  107.2931  271.0160 H   0  0  0  0  0
   70.4184  106.0110  271.1088 H   0  0  0  0  0
   70.8807  108.7647  272.3143 H   0  0  0  0  0
   71.7253  107.2338  272.6760 H   0  0  0  0  0
   70.2664  106.8497  274.3609 H   0  0  0  0  0
   68.9316  106.8164  273.1772 H   0  0  0  0  0
   67.4874  107.7651  274.8253 H   0  0  0  0  0
   68.6021  108.3397  276.0911 H   0  0  0  0  0
   67.1525  110.2085  274.1828 H   0  0  0  0  0
   68.0156  110.6195  275.7177 H   0  0  0  0  0
   66.0830  110.4865  276.7718 H   0  0  0  0  0
   66.0295  108.7248  276.3491 H   0  0  0  0  0
   64.8714  111.0368  274.7843 H   0  0  0  0  0
   64.9013  109.3056  274.2532 H   0  0  0  0  0
   70.5970  107.2835  269.1019 H   0  0  0  0  0
   70.7907  108.6946  269.9667 H   0  0  0  0  0
   71.9480  107.4988  270.0532 H   0  0  0  0  0
   68.8505  109.1920  273.3257 H   0  0  0  0  0
   70.0307  109.1291  274.5881 H   0  0  0  0  0
   58.5876  109.5245  275.0549 H   0  0  0  0  0
  1  2  1  0  0  0
 10  1  1  0  0  0
  2  3  1  0  0  0
  2 13  2  0  0  0
  3 14  1  0  0  0
  5  4  1  0  0  0
  4 11  1  0  0  0
  6  5  1  0  0  0
 12  6  1  0  0  0
  8  7  1  0  0  0
  7 12  1  0  0  0
  9  8  1  0  0  0
  9 10  1  0  0  0
  1 15  1  0  0  0
  1 16  1  0  0  0
  3 17  1  0  0  0
  3 18  1  0  0  0
  4 19  1  0  0  0
  4 20  1  0  0  0
  5 21  1  0  0  0
  5 22  1  0  0  0
  6 23  1  0  0  0
  6 24  1  0  0  0
  7 25  1  0  0  0
  7 26  1  0  0  0
  8 27  1  0  0  0
  8 28  1  0  0  0
  9 29  1  0  0  0
  9 30  1  0  0  0
 10 31  1  0  0  0
 10 32  1  0  0  0
 11 33  1  0  0  0
 11 34  1  0  0  0
 11 35  1  0  0  0
 12 36  1  0  0  0
 12 37  1  0  0  0
 14 38  1  0  0  0
M  END
$$$$
