5klr_ligand
  -I-interpret- 

153154  0  0  0  0  0  0  0  0999 V2000
   -2.3990   31.5680   -0.8790 N   0  3  0  0  0
   -2.7590   32.7350   -0.0810 C   0  0  0  0  0
   -1.5340   33.2480    0.6800 C   0  0  0  0  0
   -0.5960   32.4910    0.9310 O   0  0  0  0  0
   -3.8950   32.3880    0.8870 C   0  0  0  0  0
   -3.5550   31.2880    1.8470 C   0  0  0  0  0
   -3.0120   31.5780    3.0900 C   0  0  0  0  0
   -3.7740   29.9620    1.5080 C   0  0  0  0  0
   -2.6950   30.5660    3.9770 C   0  0  0  0  0
   -3.4590   28.9450    2.3900 C   0  0  0  0  0
   -2.9190   29.2470    3.6280 C   0  0  0  0  0
   -1.5360   34.5290    1.0470 N   0  0  0  0  0
   -0.3390   35.1140    1.6620 C   0  0  0  0  0
   -0.0900   34.6010    3.0750 C   0  0  0  0  0
   -1.0120   34.3360    3.8510 O   0  0  0  0  0
   -0.6370   36.6200    1.6600 C   0  0  0  0  0
   -2.1210   36.7180    1.6230 C   0  0  0  0  0
   -2.5950   35.5320    0.8320 C   0  0  0  0  0
    1.1950   34.4750    3.4040 N   0  0  0  0  0
    1.6100   34.0070    4.7180 C   0  0  0  0  0
    1.5730   35.0980    5.7820 C   0  0  0  0  0
    1.5730   34.7780    6.9750 O   0  0  0  0  0
    3.0220   33.4280    4.6350 C   0  0  0  0  0
    1.5320   36.3660    5.3880 N   0  0  0  0  0
    1.5980   37.4760    6.3260 C   0  0  0  0  0
    0.2190   38.0880    6.5500 C   0  0  0  0  0
   -0.6680   38.0000    5.6970 O   0  0  0  0  0
    2.5710   38.5410    5.8170 C   0  0  0  0  0
    4.0020   38.0390    5.6720 C   0  0  0  0  0
    4.9170   39.0870    5.0590 C   0  0  0  0  0
    6.2770   38.4960    4.7030 C   0  0  0  0  0
    7.1590   39.4680    3.9830 N   0  3  0  0  0
    0.0540   38.7100    7.7180 N   0  0  0  0  0
   -1.1870   39.3640    8.1230 C   0  0  0  0  0
   -0.8450   40.7000    8.7630 C   0  0  0  0  0
   -0.0020   40.7570    9.6640 O   0  0  0  0  0
   -1.9810   38.5270    9.1420 C   0  0  0  0  0
   -2.4860   37.1810    8.6730 C   0  0  0  0  0
   -3.2260   36.4680    9.8120 C   0  0  0  0  0
   -3.8610   35.1640    9.3420 C   0  0  0  0  0
   -4.6160   34.4510   10.4160 N   0  3  0  0  0
   -1.5060   41.7620    8.3160 N   0  0  0  0  0
   -1.3850   43.0620    8.9590 C   0  0  0  0  0
   -2.5030   43.2120    9.9810 C   0  0  0  0  0
   -3.6460   42.8220    9.7290 O   0  0  0  0  0
   -1.4500   44.1930    7.9290 C   0  0  0  0  0
   -1.1350   45.5670    8.5030 C   0  0  0  0  0
   -0.7790   46.5640    7.4120 C   0  0  0  0  0
   -1.9070   46.8490    6.5280 N   0  0  0  0  0
   -2.7650   47.8530    6.6910 C   0  0  0  0  0
   -3.7560   48.0210    5.8250 N   0  0  0  0  0
   -2.6400   48.6930    7.7120 N   0  0  0  0  0
   -2.1680   43.7610   11.1470 N   0  0  0  0  0
   -3.1520   43.9590   12.2060 C   0  0  0  0  0
   -3.8400   45.3030   11.9880 C   0  0  0  0  0
   -3.2250   46.3640   12.1550 O   0  0  0  0  0
   -2.5060   43.8900   13.5850 C   0  0  0  0  0
   -3.5130   44.0580   14.7070 C   0  0  0  0  0
   -2.8990   43.8480   16.0720 C   0  0  0  0  0
   -3.9450   44.0110   17.1640 C   0  0  0  0  0
   -3.3650   43.7750   18.5060 N   0  3  0  0  0
   -5.1130   45.2500   11.6180 N   0  0  0  0  0
   -5.9130   46.4400   11.3870 C   0  0  0  0  0
   -6.9500   46.5800   12.4960 C   0  0  0  0  0
   -7.3580   47.6920   12.8340 O   0  0  0  0  0
   -6.5840   46.3770   10.0070 C   0  0  0  0  0
   -7.4000   47.6350    9.7430 C   0  0  0  0  0
   -5.5310   46.1750    8.9220 C   0  0  0  0  0
   -7.3930   45.5830   13.0680 O   0  0  0  0  0
   -1.6427   31.8144   -1.5175 H   0  0  0  0  0
   -2.0927   30.8165   -0.2611 H   0  0  0  0  0
   -3.2108   31.2601   -1.4143 H   0  0  0  0  0
   -3.1083   33.5249   -0.7459 H   0  0  0  0  0
   -4.7403   32.0482    0.2886 H   0  0  0  0  0
   -4.1050   33.2808    1.4760 H   0  0  0  0  0
   -2.8331   32.6159    3.3708 H   0  0  0  0  0
   -4.1996   29.7182    0.5346 H   0  0  0  0  0
   -2.2688   30.8078    4.9507 H   0  0  0  0  0
   -3.6358   27.9063    2.1106 H   0  0  0  0  0
   -2.6710   28.4473    4.3259 H   0  0  0  0  0
    0.5684   34.8507    1.1185 H   0  0  0  0  0
   -0.1774   37.1219    0.8086 H   0  0  0  0  0
   -0.2209   37.1156    2.5371 H   0  0  0  0  0
   -2.4435   37.6527    1.1643 H   0  0  0  0  0
   -2.5419   36.7156    2.6285 H   0  0  0  0  0
   -3.5751   35.1801    1.1538 H   0  0  0  0  0
   -2.7417   35.7650   -0.2227 H   0  0  0  0  0
    1.9084   34.7134    2.7150 H   0  0  0  0  0
    0.8954   33.2412    5.0195 H   0  0  0  0  0
    3.0305   32.5936    3.9338 H   0  0  0  0  0
    3.7103   34.2001    4.2913 H   0  0  0  0  0
    3.3287   33.0788    5.6210 H   0  0  0  0  0
    1.4513   36.5687    4.3916 H   0  0  0  0  0
    1.9581   37.0918    7.2804 H   0  0  0  0  0
    2.5807   39.3507    6.5466 H   0  0  0  0  0
    2.2307   38.8493    4.8284 H   0  0  0  0  0
    3.9922   37.1699    5.0142 H   0  0  0  0  0
    4.3797   37.7975    6.6656 H   0  0  0  0  0
    5.0655   39.8856    5.7859 H   0  0  0  0  0
    4.4525   39.4622    4.1471 H   0  0  0  0  0
    6.1095   37.6443    4.0437 H   0  0  0  0  0
    6.7744   38.2176    5.6321 H   0  0  0  0  0
    8.0515   39.0224    3.7702 H   0  0  0  0  0
    6.7069   39.7576    3.1157 H   0  0  0  0  0
    7.3174   40.2840    4.5742 H   0  0  0  0  0
    0.8410   38.7301    8.3666 H   0  0  0  0  0
   -1.8044   39.4887    7.2334 H   0  0  0  0  0
   -2.8685   39.1121    9.3831 H   0  0  0  0  0
   -1.2918   38.3194    9.9605 H   0  0  0  0  0
   -1.6387   36.5707    8.3603 H   0  0  0  0  0
   -3.1715   37.3277    7.8383 H   0  0  0  0  0
   -4.0174   37.1253   10.1721 H   0  0  0  0  0
   -2.5064   36.2363   10.5972 H   0  0  0  0  0
   -3.0562   34.5061    9.0139 H   0  0  0  0  0
   -4.5689   35.4098    8.5505 H   0  0  0  0  0
   -5.0135   33.5914   10.0372 H   0  0  0  0  0
   -3.9824   34.2250   11.1827 H   0  0  0  0  0
   -5.3659   35.0515   10.7588 H   0  0  0  0  0
   -2.1132   41.6640    7.5023 H   0  0  0  0  0
   -0.4177   43.1250    9.4574 H   0  0  0  0  0
   -2.4706   44.2266    7.5478 H   0  0  0  0  0
   -0.7013   43.9805    7.1659 H   0  0  0  0  0
   -0.2806   45.4716    9.1731 H   0  0  0  0  0
   -2.0190   45.9315    9.0262 H   0  0  0  0  0
    0.0210   46.1334    6.8097 H   0  0  0  0  0
   -0.4823   47.4968    7.8915 H   0  0  0  0  0
   -2.0470   46.2331    5.7271 H   0  0  0  0  0
   -3.8586   47.3815    5.0370 H   0  0  0  0  0
   -3.3029   49.4598    7.8256 H   0  0  0  0  0
   -1.8811   48.5713    8.3826 H   0  0  0  0  0
   -1.2022   44.0495   11.3033 H   0  0  0  0  0
   -3.8914   43.1592   12.1649 H   0  0  0  0  0
   -1.7821   44.7016   13.6584 H   0  0  0  0  0
   -2.0444   42.9083   13.6915 H   0  0  0  0  0
   -4.2952   43.3110   14.5715 H   0  0  0  0  0
   -3.8972   45.0771   14.6642 H   0  0  0  0  0
   -2.1143   44.5893   16.2228 H   0  0  0  0  0
   -2.4913   42.8384   16.1230 H   0  0  0  0  0
   -4.7378   43.2820   16.9961 H   0  0  0  0  0
   -4.3288   45.0305   17.1268 H   0  0  0  0  0
   -4.0901   43.8917   19.2138 H   0  0  0  0  0
   -2.9926   42.8265   18.5521 H   0  0  0  0  0
   -2.6141   44.4448   18.6731 H   0  0  0  0  0
   -5.5477   44.3361   11.4906 H   0  0  0  0  0
   -5.2665   47.3175   11.4009 H   0  0  0  0  0
   -7.2672   45.5279    9.9910 H   0  0  0  0  0
   -8.1729   47.7319   10.5055 H   0  0  0  0  0
   -6.7445   48.5052    9.7757 H   0  0  0  0  0
   -7.8648   47.5653    8.7595 H   0  0  0  0  0
   -4.8273   47.0072    8.9410 H   0  0  0  0  0
   -4.9975   45.2421    9.1044 H   0  0  0  0  0
   -6.0184   46.1319    7.9480 H   0  0  0  0  0
   -6.9847   44.7962   12.6995 H   0  0  0  0  0
  1  2  1  0  0  0
  2  3  1  0  0  0
  2  5  1  0  0  0
  3  4  2  0  0  0
  3 12  1  0  0  0
  5  6  1  0  0  0
  6  7  4  0  0  0
  6  8  4  0  0  0
  7  9  4  0  0  0
  8 10  4  0  0  0
  9 11  4  0  0  0
 10 11  4  0  0  0
 12 13  1  0  0  0
 12 18  1  0  0  0
 13 14  1  0  0  0
 13 16  1  0  0  0
 14 15  2  0  0  0
 14 19  1  0  0  0
 16 17  1  0  0  0
 17 18  1  0  0  0
 19 20  1  0  0  0
 20 21  1  0  0  0
 20 23  1  0  0  0
 21 22  2  0  0  0
 21 24  1  0  0  0
 24 25  1  0  0  0
 25 26  1  0  0  0
 25 28  1  0  0  0
 26 27  2  0  0  0
 26 33  1  0  0  0
 28 29  1  0  0  0
 29 30  1  0  0  0
 30 31  1  0  0  0
 31 32  1  0  0  0
 33 34  1  0  0  0
 34 35  1  0  0  0
 34 37  1  0  0  0
 35 36  2  0  0  0
 35 42  1  0  0  0
 37 38  1  0  0  0
 38 39  1  0  0  0
 39 40  1  0  0  0
 40 41  1  0  0  0
 42 43  1  0  0  0
 43 44  1  0  0  0
 43 46  1  0  0  0
 44 45  2  0  0  0
 44 53  1  0  0  0
 46 47  1  0  0  0
 47 48  1  0  0  0
 48 49  1  0  0  0
 49 50  1  0  0  0
 50 51  2  0  0  0
 50 52  1  0  0  0
 53 54  1  0  0  0
 54 55  1  0  0  0
 54 57  1  0  0  0
 55 56  2  0  0  0
 55 62  1  0  0  0
 57 58  1  0  0  0
 58 59  1  0  0  0
 59 60  1  0  0  0
 60 61  1  0  0  0
 62 63  1  0  0  0
 63 64  1  0  0  0
 63 66  1  0  0  0
 64 65  2  0  0  0
 64 69  1  0  0  0
 66 67  1  0  0  0
 66 68  1  0  0  0
  1 70  1  0  0  0
  1 71  1  0  0  0
  1 72  1  0  0  0
  2 73  1  0  0  0
  5 74  1  0  0  0
  5 75  1  0  0  0
  7 76  1  0  0  0
  8 77  1  0  0  0
  9 78  1  0  0  0
 10 79  1  0  0  0
 11 80  1  0  0  0
 13 81  1  0  0  0
 16 82  1  0  0  0
 16 83  1  0  0  0
 17 84  1  0  0  0
 17 85  1  0  0  0
 18 86  1  0  0  0
 18 87  1  0  0  0
 19 88  1  0  0  0
 20 89  1  0  0  0
 23 90  1  0  0  0
 23 91  1  0  0  0
 23 92  1  0  0  0
 24 93  1  0  0  0
 25 94  1  0  0  0
 28 95  1  0  0  0
 28 96  1  0  0  0
 29 97  1  0  0  0
 29 98  1  0  0  0
 30 99  1  0  0  0
 30100  1  0  0  0
 31101  1  0  0  0
 31102  1  0  0  0
 32103  1  0  0  0
 32104  1  0  0  0
 32105  1  0  0  0
 33106  1  0  0  0
 34107  1  0  0  0
 37108  1  0  0  0
 37109  1  0  0  0
 38110  1  0  0  0
 38111  1  0  0  0
 39112  1  0  0  0
 39113  1  0  0  0
 40114  1  0  0  0
 40115  1  0  0  0
 41116  1  0  0  0
 41117  1  0  0  0
 41118  1  0  0  0
 42119  1  0  0  0
 43120  1  0  0  0
 46121  1  0  0  0
 46122  1  0  0  0
 47123  1  0  0  0
 47124  1  0  0  0
 48125  1  0  0  0
 48126  1  0  0  0
 49127  1  0  0  0
 51128  1  0  0  0
 52129  1  0  0  0
 52130  1  0  0  0
 53131  1  0  0  0
 54132  1  0  0  0
 57133  1  0  0  0
 57134  1  0  0  0
 58135  1  0  0  0
 58136  1  0  0  0
 59137  1  0  0  0
 59138  1  0  0  0
 60139  1  0  0  0
 60140  1  0  0  0
 61141  1  0  0  0
 61142  1  0  0  0
 61143  1  0  0  0
 62144  1  0  0  0
 63145  1  0  0  0
 66146  1  0  0  0
 67147  1  0  0  0
 67148  1  0  0  0
 67149  1  0  0  0
 68150  1  0  0  0
 68151  1  0  0  0
 68152  1  0  0  0
 69153  1  0  0  0
M  END
$$$$
