### 
### Created by X-TOOL on Wed Jan  1 15:39:34 2020
### 

@<TRIPOS>MOLECULE
5klr_ligand
  153   154     1     0     0
SMALL
GAST_HUCK


@<TRIPOS>ATOM
      1 N          -2.3990   31.5680   -0.8790 N.4       1 PHE         0.2394
      2 CA         -2.7590   32.7350   -0.0810 C.3       1 PHE         0.0746
      3 C          -1.5340   33.2480    0.6800 C.2       1 PHE         0.2313
      4 O          -0.5960   32.4910    0.9310 O.2       1 PHE        -0.3903
      5 CB         -3.8950   32.3880    0.8870 C.3       1 PHE         0.0416
      6 CG         -3.5550   31.2880    1.8470 C.ar      1 PHE        -0.0353
      7 CD1        -3.0120   31.5780    3.0900 C.ar      1 PHE        -0.0600
      8 CD2        -3.7740   29.9620    1.5080 C.ar      1 PHE        -0.0600
      9 CE1        -2.6950   30.5660    3.9770 C.ar      1 PHE        -0.0686
     10 CE2        -3.4590   28.9450    2.3900 C.ar      1 PHE        -0.0686
     11 CZ         -2.9190   29.2470    3.6280 C.ar      1 PHE        -0.0687
     12 N          -1.5360   34.5290    1.0470 N.am      1 PRO        -0.2470
     13 CA         -0.3390   35.1140    1.6620 C.3       1 PRO         0.1339
     14 C          -0.0900   34.6010    3.0750 C.2       1 PRO         0.2041
     15 O          -1.0120   34.3360    3.8510 O.2       1 PRO        -0.3944
     16 CB         -0.6370   36.6200    1.6600 C.3       1 PRO        -0.0104
     17 CG         -2.1210   36.7180    1.6230 C.3       1 PRO        -0.0281
     18 CD         -2.5950   35.5320    0.8320 C.3       1 PRO         0.0371
     19 N           1.1950   34.4750    3.4040 N.am      1 ALA        -0.2640
     20 CA          1.6100   34.0070    4.7180 C.3       1 ALA         0.1282
     21 C           1.5730   35.0980    5.7820 C.2       1 ALA         0.2036
     22 O           1.5730   34.7780    6.9750 O.2       1 ALA        -0.3944
     23 CB          3.0220   33.4280    4.6350 C.3       1 ALA        -0.0244
     24 N           1.5320   36.3660    5.3880 N.am      1 LYS        -0.2637
     25 CA          1.5980   37.4760    6.3260 C.3       1 LYS         0.1310
     26 C           0.2190   38.0880    6.5500 C.2       1 LYS         0.2039
     27 O          -0.6680   38.0000    5.6970 O.2       1 LYS        -0.3944
     28 CB          2.5710   38.5410    5.8170 C.3       1 LYS        -0.0122
     29 CG          4.0020   38.0390    5.6720 C.3       1 LYS        -0.0440
     30 CD          4.9170   39.0870    5.0590 C.3       1 LYS        -0.0124
     31 CE          6.2770   38.4960    4.7030 C.3       1 LYS        -0.0354
     32 NZ          7.1590   39.4680    3.9830 N.4       1 LYS         0.2185
     33 N           0.0540   38.7100    7.7180 N.am      1 LYS        -0.2637
     34 CA         -1.1870   39.3640    8.1230 C.3       1 LYS         0.1310
     35 C          -0.8450   40.7000    8.7630 C.2       1 LYS         0.2039
     36 O          -0.0020   40.7570    9.6640 O.2       1 LYS        -0.3944
     37 CB         -1.9810   38.5270    9.1420 C.3       1 LYS        -0.0122
     38 CG         -2.4860   37.1810    8.6730 C.3       1 LYS        -0.0440
     39 CD         -3.2260   36.4680    9.8120 C.3       1 LYS        -0.0124
     40 CE         -3.8610   35.1640    9.3420 C.3       1 LYS        -0.0354
     41 NZ         -4.6160   34.4510   10.4160 N.4       1 LYS         0.2185
     42 N          -1.5060   41.7620    8.3160 N.am      1 ARG        -0.2637
     43 CA         -1.3850   43.0620    8.9590 C.3       1 ARG         0.1311
     44 C          -2.5030   43.2120    9.9810 C.2       1 ARG         0.2039
     45 O          -3.6460   42.8220    9.7290 O.2       1 ARG        -0.3944
     46 CB         -1.4500   44.1930    7.9290 C.3       1 ARG        -0.0092
     47 CG         -1.1350   45.5670    8.5030 C.3       1 ARG        -0.0156
     48 CD         -0.7790   46.5640    7.4120 C.3       1 ARG         0.0627
     49 NE         -1.9070   46.8490    6.5280 N.pl3     1 ARG        -0.2723
     50 CZ         -2.7650   47.8530    6.6910 C.cat     1 ARG         0.2882
     51 NH1        -3.7560   48.0210    5.8250 N.pl3     1 ARG        -0.2849
     52 NH2        -2.6400   48.6930    7.7120 N.pl3     1 ARG        -0.2849
     53 N          -2.1680   43.7610   11.1470 N.am      1 LYS        -0.2637
     54 CA         -3.1520   43.9590   12.2060 C.3       1 LYS         0.1309
     55 C          -3.8400   45.3030   11.9880 C.2       1 LYS         0.2033
     56 O          -3.2250   46.3640   12.1550 O.2       1 LYS        -0.3944
     57 CB         -2.5060   43.8900   13.5850 C.3       1 LYS        -0.0122
     58 CG         -3.5130   44.0580   14.7070 C.3       1 LYS        -0.0440
     59 CD         -2.8990   43.8480   16.0720 C.3       1 LYS        -0.0124
     60 CE         -3.9450   44.0110   17.1640 C.3       1 LYS        -0.0354
     61 NZ         -3.3650   43.7750   18.5060 N.4       1 LYS         0.2185
     62 N          -5.1130   45.2500   11.6180 N.am      1 VAL        -0.2692
     63 CA         -5.9130   46.4400   11.3870 C.3       1 VAL         0.0967
     64 C          -6.9500   46.5800   12.4960 C.2       1 VAL         0.0603
     65 O          -7.3580   47.6920   12.8340 O.co2     1 VAL        -0.5666
     66 CB         -6.5840   46.3770   10.0070 C.3       1 VAL        -0.0118
     67 CG1        -7.4000   47.6350    9.7430 C.3       1 VAL        -0.0590
     68 CG2        -5.5310   46.1750    8.9220 C.3       1 VAL        -0.0590
     69 OXT        -7.3930   45.5830   13.0680 O.co2     1 VAL        -0.5666
     70 H1         -3.2112   31.2374   -1.3761 H         1 PHE         0.2017
     71 H2         -2.0564   30.8391   -0.2729 H         1 PHE         0.2017
     72 H3         -1.6808   31.8211   -1.5394 H         1 PHE         0.2017
     73 H4         -3.1080   33.5291   -0.7575 H         1 PHE         0.1123
     74 H5         -4.7700   32.0763    0.2978 H         1 PHE         0.0507
     75 H6         -4.1450   33.2891    1.4662 H         1 PHE         0.0507
     76 H7         -2.8341   32.6102    3.3692 H         1 PHE         0.0557
     77 H8         -4.1972   29.7195    0.5399 H         1 PHE         0.0557
     78 H9         -2.2712   30.8064    4.9453 H         1 PHE         0.0599
     79 H10        -3.6348   27.9121    2.1122 H         1 PHE         0.0599
     80 H11        -2.6724   28.4517    4.3221 H         1 PHE         0.0559
     81 H12         0.5474   34.8965    1.0481 H         1 PRO         0.0802
     82 H13        -0.1955   37.1005    0.7744 H         1 PRO         0.0313
     83 H14        -0.2407   37.0939    2.5701 H         1 PRO         0.0313
     84 H15        -2.4302   37.6527    1.1325 H         1 PRO         0.0287
     85 H16        -2.5317   36.6859    2.6429 H         1 PRO         0.0287
     86 H17        -3.5625   35.1692    1.2092 H         1 PRO         0.0524
     87 H18        -2.6881   35.7829   -0.2349 H         1 PRO         0.0524
     88 H19         1.8944   34.7088    2.7286 H         1 ALA         0.1883
     89 H20         0.9194   33.2083    5.0265 H         1 ALA         0.0797
     90 H21         3.3327   33.0752    5.6295 H         1 ALA         0.0277
     91 H22         3.7177   34.2063    4.2882 H         1 ALA         0.0277
     92 H23         3.0319   32.5857    3.9276 H         1 ALA         0.0277
     93 H24         1.4529   36.5647    4.4111 H         1 LYS         0.1883
     94 H25         1.9688   37.0947    7.2888 H         1 LYS         0.0800
     95 H26         2.5676   39.3825    6.5255 H         1 LYS         0.0312
     96 H27         2.2229   38.8886    4.8331 H         1 LYS         0.0312
     97 H28         4.0015   37.1479    5.0271 H         1 LYS         0.0269
     98 H29         4.3864   37.7712    6.6672 H         1 LYS         0.0269
     99 H30         5.0596   39.9045    5.7810 H         1 LYS         0.0317
    100 H31         4.4480   39.4820    4.1458 H         1 LYS         0.0317
    101 H32         6.1214   37.6181    4.0588 H         1 LYS         0.0813
    102 H33         6.7795   38.1855    5.6309 H         1 LYS         0.0813
    103 H34         8.0414   39.0286    3.7722 H         1 LYS         0.1994
    104 H35         7.3163   40.2749    4.5663 H         1 LYS         0.1994
    105 H36         6.7133   39.7549    3.1257 H         1 LYS         0.1994
    106 H37         0.8256   38.7297    8.3538 H         1 LYS         0.1883
    107 H38        -1.8108   39.5285    7.2320 H         1 LYS         0.0800
    108 H39        -2.8539   39.1203    9.4519 H         1 LYS         0.0312
    109 H40        -1.3286   38.3534   10.0104 H         1 LYS         0.0312
    110 H41        -1.6335   36.5647    8.3515 H         1 LYS         0.0269
    111 H42        -3.1739   37.3254    7.8269 H         1 LYS         0.0269
    112 H43        -4.0156   37.1314   10.1946 H         1 LYS         0.0317
    113 H44        -2.5110   36.2462   10.6179 H         1 LYS         0.0317
    114 H45        -3.0639   34.4999    8.9765 H         1 LYS         0.0813
    115 H46        -4.5553   35.3908    8.5195 H         1 LYS         0.0813
    116 H47        -5.0093   33.6012   10.0427 H         1 LYS         0.1994
    117 H48        -5.3574   35.0435   10.7556 H         1 LYS         0.1994
    118 H49        -3.9908   34.2271   11.1743 H         1 LYS         0.1994
    119 H50        -2.1013   41.6659    7.5182 H         1 ARG         0.1883
    120 H51        -0.4160   43.1144    9.4770 H         1 ARG         0.0800
    121 H52        -2.4650   44.2186    7.5059 H         1 ARG         0.0313
    122 H53        -0.7252   43.9766    7.1304 H         1 ARG         0.0313
    123 H54        -0.2850   45.4778    9.1955 H         1 ARG         0.0301
    124 H55        -2.0158   45.9357    9.0492 H         1 ARG         0.0301
    125 H56         0.0449   46.1512    6.8114 H         1 ARG         0.0689
    126 H57        -0.4541   47.5030    7.8839 H         1 ARG         0.0689
    127 H58        -2.0484   46.2270    5.7192 H         1 ARG         0.2642
    128 H59        -4.4218   48.7972    5.9484 H         1 ARG         0.2615
    129 H60        -3.8596   47.3753    5.0293 H         1 ARG         0.2615
    130 H61        -1.8737   48.5701    8.3891 H         1 ARG         0.2615
    131 H62        -3.3094   49.4674    7.8267 H         1 ARG         0.2615
    132 H63        -1.2211   44.0438   11.3002 H         1 LYS         0.1883
    133 H64        -3.9063   43.1611   12.1398 H         1 LYS         0.0800
    134 H65        -1.7544   44.6894   13.6629 H         1 LYS         0.0312
    135 H66        -2.0143   42.9123   13.6958 H         1 LYS         0.0312
    136 H67        -4.3219   43.3257   14.5676 H         1 LYS         0.0269
    137 H68        -3.9276   45.0758   14.6595 H         1 LYS         0.0269
    138 H69        -2.0989   44.5871   16.2255 H         1 LYS         0.0317
    139 H70        -2.4765   42.8338   16.1255 H         1 LYS         0.0317
    140 H71        -4.7569   43.2889   16.9928 H         1 LYS         0.0813
    141 H72        -4.3489   45.0333   17.1233 H         1 LYS         0.0813
    142 H73        -4.0808   43.8901   19.2063 H         1 LYS         0.1994
    143 H74        -2.6228   44.4365   18.6724 H         1 LYS         0.1994
    144 H75        -2.9967   42.8379   18.5528 H         1 LYS         0.1994
    145 H76        -5.5391   44.3540   11.4930 H         1 VAL         0.1875
    146 H77        -5.2526   47.3193   11.4118 H         1 VAL         0.0729
    147 H78        -7.2668   45.5147    9.9924 H         1 VAL         0.0336
    148 H79        -7.8696   47.5659    8.7507 H         1 VAL         0.0234
    149 H80        -6.7396   48.5140    9.7756 H         1 VAL         0.0234
    150 H81        -8.1804   47.7339   10.5118 H         1 VAL         0.0234
    151 H82        -4.9559   45.2618    9.1347 H         1 VAL         0.0234
    152 H83        -4.8519   47.0402    8.9044 H         1 VAL         0.0234
    153 H84        -6.0258   46.0773    7.9445 H         1 VAL         0.0234
@<TRIPOS>BOND
     1    1    2 1  
     2    2    3 1  
     3    2    5 1  
     4    3    4 2  
     5    3   12 am 
     6    5    6 1  
     7    6    7 ar 
     8    6    8 ar 
     9    7    9 ar 
    10    8   10 ar 
    11    9   11 ar 
    12   10   11 ar 
    13   12   13 1  
    14   12   18 1  
    15   13   14 1  
    16   13   16 1  
    17   14   15 2  
    18   14   19 am 
    19   16   17 1  
    20   17   18 1  
    21   19   20 1  
    22   20   21 1  
    23   20   23 1  
    24   21   22 2  
    25   21   24 am 
    26   24   25 1  
    27   25   26 1  
    28   25   28 1  
    29   26   27 2  
    30   26   33 am 
    31   28   29 1  
    32   29   30 1  
    33   30   31 1  
    34   31   32 1  
    35   33   34 1  
    36   34   35 1  
    37   34   37 1  
    38   35   36 2  
    39   35   42 am 
    40   37   38 1  
    41   38   39 1  
    42   39   40 1  
    43   40   41 1  
    44   42   43 1  
    45   43   44 1  
    46   43   46 1  
    47   44   45 2  
    48   44   53 am 
    49   46   47 1  
    50   47   48 1  
    51   48   49 1  
    52   49   50 ar 
    53   50   51 ar 
    54   50   52 ar 
    55   53   54 1  
    56   54   55 1  
    57   54   57 1  
    58   55   56 2  
    59   55   62 am 
    60   57   58 1  
    61   58   59 1  
    62   59   60 1  
    63   60   61 1  
    64   62   63 1  
    65   63   64 1  
    66   63   66 1  
    67   64   65 ar 
    68   64   69 ar 
    69   66   67 1  
    70   66   68 1  
    71    1   70 1  
    72    1   71 1  
    73    1   72 1  
    74    2   73 1  
    75    5   74 1  
    76    5   75 1  
    77    7   76 1  
    78    8   77 1  
    79    9   78 1  
    80   10   79 1  
    81   11   80 1  
    82   13   81 1  
    83   16   82 1  
    84   16   83 1  
    85   17   84 1  
    86   17   85 1  
    87   18   86 1  
    88   18   87 1  
    89   19   88 1  
    90   20   89 1  
    91   23   90 1  
    92   23   91 1  
    93   23   92 1  
    94   24   93 1  
    95   25   94 1  
    96   28   95 1  
    97   28   96 1  
    98   29   97 1  
    99   29   98 1  
   100   30   99 1  
   101   30  100 1  
   102   31  101 1  
   103   31  102 1  
   104   32  103 1  
   105   32  104 1  
   106   32  105 1  
   107   33  106 1  
   108   34  107 1  
   109   37  108 1  
   110   37  109 1  
   111   38  110 1  
   112   38  111 1  
   113   39  112 1  
   114   39  113 1  
   115   40  114 1  
   116   40  115 1  
   117   41  116 1  
   118   41  117 1  
   119   41  118 1  
   120   42  119 1  
   121   43  120 1  
   122   46  121 1  
   123   46  122 1  
   124   47  123 1  
   125   47  124 1  
   126   48  125 1  
   127   48  126 1  
   128   49  127 1  
   129   51  128 1  
   130   51  129 1  
   131   52  130 1  
   132   52  131 1  
   133   53  132 1  
   134   54  133 1  
   135   57  134 1  
   136   57  135 1  
   137   58  136 1  
   138   58  137 1  
   139   59  138 1  
   140   59  139 1  
   141   60  140 1  
   142   60  141 1  
   143   61  142 1  
   144   61  143 1  
   145   61  144 1  
   146   62  145 1  
   147   63  146 1  
   148   66  147 1  
   149   67  148 1  
   150   67  149 1  
   151   67  150 1  
   152   68  151 1  
   153   68  152 1  
   154   68  153 1  
@<TRIPOS>SUBSTRUCTURE
     1 PHE         1

