### 
### Created by X-TOOL on Mon Sep 10 21:12:59 2018
### 

@<TRIPOS>MOLECULE
3ewz_ligand
   33    34     1     0     0
SMALL
GAST_HUCK


@<TRIPOS>ATOM
      1 O1P        -1.7230   -9.6130   29.7050 O.co2     1 CNU        -0.5537
      2 P          -3.0980   -9.9440   29.2130 P.3       1 CNU         0.2008
      3 O2P        -3.8840  -10.7570   30.2110 O.co2     1 CNU        -0.5537
      4 O3P        -3.0810  -10.6190   27.8650 O.co2     1 CNU        -0.5537
      5 O5'        -3.9150   -8.5650   29.1770 O.3       1 CNU        -0.2734
      6 C5'        -3.6570   -7.6480   28.1170 C.3       1 CNU         0.1072
      7 C4'        -4.5760   -6.4680   28.4100 C.3       1 CNU         0.1184
      8 O4'        -4.2670   -5.3050   27.4950 O.3       1 CNU        -0.3345
      9 C3'        -6.0730   -6.8100   28.3000 C.3       1 CNU         0.1151
     10 O3'        -6.8320   -6.0040   29.2080 O.3       1 CNU        -0.3864
     11 C2'        -6.2990   -6.3200   26.8750 C.3       1 CNU         0.1409
     12 O2'        -7.6610   -5.9890   26.6330 O.3       1 CNU        -0.3834
     13 C1'        -5.4100   -5.1060   26.6400 C.3       1 CNU         0.2155
     14 N1         -4.9380   -4.8370   25.2850 N.am      1 CNU        -0.1340
     15 C2         -4.1890   -5.7700   24.5650 C.2       1 CNU         0.3477
     16 O2         -3.9070   -6.9510   25.1190 O.2       1 CNU        -0.3742
     17 N3         -3.7440   -5.5100   23.2960 N.am      1 CNU        -0.1802
     18 C4         -4.0090   -4.3320   22.7240 C.2       1 CNU         0.2188
     19 O4         -3.5580   -4.1150   21.5820 O.2       1 CNU        -0.4039
     20 C6         -5.2220   -3.6740   24.7020 C.2       1 CNU         0.1161
     21 C5         -4.7620   -3.3990   23.4180 C.2       1 CNU         0.1671
     22 C52        -5.1310   -2.1000   22.9360 C.1       1 CNU         0.0484
     23 N53        -5.4210   -1.0690   22.5290 N.1       1 CNU        -0.3873
     24 H1         -3.8998   -8.0989   27.1435 H         1 CNU         0.0639
     25 H2         -2.6033   -7.3323   28.1223 H         1 CNU         0.0639
     26 H3         -4.3817   -6.1515   29.4454 H         1 CNU         0.0650
     27 H4         -6.2903   -7.8793   28.4390 H         1 CNU         0.0648
     28 H5         -6.5392   -6.1687   30.0965 H         1 CNU         0.2100
     29 H6         -6.0081   -7.1188   26.1769 H         1 CNU         0.0678
     30 H7         -7.7585   -5.6892   25.7369 H         1 CNU         0.2101
     31 H8         -5.9676   -4.2164   26.9682 H         1 CNU         0.1025
     32 H9         -3.2210   -6.2016   22.7978 H         1 CNU         0.2266
     33 H10        -5.8180   -2.9335   25.2335 H         1 CNU         0.1479
@<TRIPOS>BOND
     1    1    2 ar 
     2    2    3 ar 
     3    2    4 ar 
     4    2    5 1  
     5    5    6 1  
     6    6    7 1  
     7    7    8 1  
     8    7    9 1  
     9    8   13 1  
    10    9   10 1  
    11    9   11 1  
    12   11   12 1  
    13   11   13 1  
    14   13   14 1  
    15   14   15 am 
    16   14   20 am 
    17   15   16 2  
    18   15   17 am 
    19   17   18 am 
    20   18   19 2  
    21   18   21 1  
    22   20   21 2  
    23   21   22 1  
    24   22   23 3  
    25    6   24 1  
    26    6   25 1  
    27    7   26 1  
    28    9   27 1  
    29   10   28 1  
    30   11   29 1  
    31   12   30 1  
    32   13   31 1  
    33   17   32 1  
    34   20   33 1  
@<TRIPOS>SUBSTRUCTURE
     1 CNU         1

