3ewz_ligand
  -I-interpret- 

 35 36  0  0  0  0  0  0  0  0999 V2000
   -1.7230   -9.6130   29.7050 O   0  0  0  0  0
   -3.0980   -9.9440   29.2130 P   0  0  0  0  0
   -3.8840  -10.7570   30.2110 O   0  0  0  0  0
   -3.0810  -10.6190   27.8650 O   0  0  0  0  0
   -3.9150   -8.5650   29.1770 O   0  0  0  0  0
   -3.6570   -7.6480   28.1170 C   0  0  0  0  0
   -4.5760   -6.4680   28.4100 C   0  0  0  0  0
   -4.2670   -5.3050   27.4950 O   0  0  0  0  0
   -6.0730   -6.8100   28.3000 C   0  0  0  0  0
   -6.8320   -6.0040   29.2080 O   0  0  0  0  0
   -6.2990   -6.3200   26.8750 C   0  0  0  0  0
   -7.6610   -5.9890   26.6330 O   0  0  0  0  0
   -5.4100   -5.1060   26.6400 C   0  0  0  0  0
   -4.9380   -4.8370   25.2850 N   0  0  0  0  0
   -4.1890   -5.7700   24.5650 C   0  0  0  0  0
   -3.9070   -6.9510   25.1190 O   0  0  0  0  0
   -3.7440   -5.5100   23.2960 N   0  0  0  0  0
   -4.0090   -4.3320   22.7240 C   0  0  0  0  0
   -3.5580   -4.1150   21.5820 O   0  0  0  0  0
   -5.2220   -3.6740   24.7020 C   0  0  0  0  0
   -4.7620   -3.3990   23.4180 C   0  0  0  0  0
   -5.1310   -2.1000   22.9360 C   0  0  0  0  0
   -5.4210   -1.0690   22.5290 N   0  0  0  0  0
   -4.7552  -10.9446   29.8540 H   0  0  0  0  0
   -3.9815  -10.8106   27.5930 H   0  0  0  0  0
   -3.8507   -8.0865   27.1381 H   0  0  0  0  0
   -2.6088   -7.3521   28.0757 H   0  0  0  0  0
   -4.3791   -6.1970   29.4472 H   0  0  0  0  0
   -6.3474   -7.8429   28.5143 H   0  0  0  0  0
   -7.7627   -6.2262   29.1302 H   0  0  0  0  0
   -6.0435   -7.1225   26.1830 H   0  0  0  0  0
   -7.7595   -5.6861   25.7274 H   0  0  0  0  0
   -6.0288   -4.2336   26.8498 H   0  0  0  0  0
   -3.2105   -6.2154   22.7879 H   0  0  0  0  0
   -5.8185   -2.9329   25.2339 H   0  0  0  0  0
  1  2  2  0  0  0
  2  3  1  0  0  0
  2  4  1  0  0  0
  2  5  1  0  0  0
  5  6  1  0  0  0
  6  7  1  0  0  0
  7  8  1  0  0  0
  7  9  1  0  0  0
  8 13  1  0  0  0
  9 10  1  0  0  0
  9 11  1  0  0  0
 11 12  1  0  0  0
 11 13  1  0  0  0
 13 14  1  0  0  0
 14 15  1  0  0  0
 14 20  1  0  0  0
 15 16  2  0  0  0
 15 17  1  0  0  0
 17 18  1  0  0  0
 18 19  2  0  0  0
 18 21  1  0  0  0
 20 21  2  0  0  0
 21 22  1  0  0  0
 22 23  3  0  0  0
  3 24  1  0  0  0
  4 25  1  0  0  0
  6 26  1  0  0  0
  6 27  1  0  0  0
  7 28  1  0  0  0
  9 29  1  0  0  0
 10 30  1  0  0  0
 11 31  1  0  0  0
 12 32  1  0  0  0
 13 33  1  0  0  0
 17 34  1  0  0  0
 20 35  1  0  0  0
M  END
$$$$
