5uff_ligand
  -I-interpret- 

 65 67  0  0  0  0  0  0  0  0999 V2000
    9.4580    6.6640   25.3960 C   0  0  0  0  0
    8.1400    6.9700   25.7010 O   0  0  0  0  0
   10.1810    6.4930   26.7020 C   0  0  0  0  0
   10.1240    7.7260   27.4540 O   0  0  0  0  0
    9.5790    5.3910   27.5210 C   0  0  0  0  0
   10.3780    5.1730   28.7260 O   0  0  0  0  0
    9.4490    4.1140   26.7650 C   0  0  0  0  0
   10.7780    3.5520   26.6490 O   0  0  0  0  0
    8.8260    4.2580   25.3870 C   0  0  0  0  0
    9.3450    5.4030   24.6090 O   0  0  0  0  0
    9.0080    3.0300   24.5790 C   0  0  0  0  0
    6.1540    7.4930   24.4680 C   0  0  0  0  0
    6.2210    6.2780   23.7720 O   0  0  0  0  0
    7.5490    7.9060   24.7160 C   0  0  0  0  0
    7.6260    9.2240   25.3120 C   0  0  0  0  0
    9.0330    9.6050   25.5160 O   0  0  0  0  0
    6.9200   10.2480   24.5120 C   0  0  0  0  0
    7.6600   10.6070   23.3400 O   0  0  0  0  0
    5.4680    9.8750   24.1880 C   0  0  0  0  0
    5.4500    8.4570   23.6130 O   0  0  0  0  0
    4.9170   10.7480   23.2450 C   0  0  0  0  0
    3.6680   10.2030   22.9510 O   0  0  0  0  0
    4.2180    2.9220   22.9250 C   0  0  0  0  0
    3.3280    1.8490   22.6510 O   0  0  0  0  0
    3.8650    4.0710   22.1380 C   0  0  0  0  0
    3.7070    3.6520   20.7150 O   0  0  0  0  0
    4.8840    5.0920   22.2910 C   0  0  0  0  0
    4.6030    6.2330   21.3840 O   0  0  0  0  0
    4.9600    5.5820   23.7030 C   0  0  0  0  0
    5.0530    4.4350   24.7010 C   0  0  0  0  0
    4.0910    3.3110   24.3390 O   0  0  0  0  0
    4.7230    4.8590   26.0110 C   0  0  0  0  0
    5.6420    4.2480   26.8980 O   0  0  0  0  0
   10.0099    7.4126   24.8276 H   0  0  0  0  0
   11.2160    6.2328   26.4805 H   0  0  0  0  0
   10.5085    8.4351   26.9334 H   0  0  0  0  0
    8.5715    5.7085   27.7898 H   0  0  0  0  0
   10.4584    5.9987   29.2090 H   0  0  0  0  0
    8.7660    3.4671   27.3155 H   0  0  0  0  0
   11.1645    3.4643   27.5233 H   0  0  0  0  0
    7.7689    4.4366   25.5839 H   0  0  0  0  0
    8.4584    3.1278   23.6428 H   0  0  0  0  0
   10.0679    2.8901   24.3666 H   0  0  0  0  0
    8.6311    2.1716   25.1350 H   0  0  0  0  0
    5.6198    7.4205   25.4154 H   0  0  0  0  0
    8.0692    7.9077   23.7581 H   0  0  0  0  0
    7.1216    9.1749   26.2770 H   0  0  0  0  0
    9.0726   10.4791   25.9110 H   0  0  0  0  0
    6.8585   11.1338   25.1442 H   0  0  0  0  0
    7.1734   11.2714   22.8467 H   0  0  0  0  0
    4.8784    9.9394   25.1025 H   0  0  0  0  0
    5.5426   10.8372   22.3569 H   0  0  0  0  0
    4.8384   11.7655   23.6278 H   0  0  0  0  0
    3.2242   10.7543   22.3024 H   0  0  0  0  0
    5.2316    2.5955   22.6924 H   0  0  0  0  0
    3.5733    1.0877   23.1819 H   0  0  0  0  0
    2.9190    4.4942   22.4757 H   0  0  0  0  0
    3.4709    4.4149   20.1823 H   0  0  0  0  0
    5.8435    4.6445   22.0320 H   0  0  0  0  0
    5.2827    6.9021   21.4933 H   0  0  0  0  0
    4.0789    6.1773   23.9425 H   0  0  0  0  0
    6.0845    4.0846   24.6650 H   0  0  0  0  0
    3.7019    4.5701   26.2602 H   0  0  0  0  0
    4.7825    5.9447   26.0875 H   0  0  0  0  0
    5.4436    4.5170   27.7979 H   0  0  0  0  0
  2  1  1  0  0  0
  1  3  1  0  0  0
  1 10  1  0  0  0
 14  2  1  0  0  0
  3  4  1  0  0  0
  3  5  1  0  0  0
  5  6  1  0  0  0
  5  7  1  0  0  0
  7  8  1  0  0  0
  9  7  1  0  0  0
 10  9  1  0  0  0
  9 11  1  0  0  0
 13 12  1  0  0  0
 12 14  1  0  0  0
 12 20  1  0  0  0
 29 13  1  0  0  0
 14 15  1  0  0  0
 15 16  1  0  0  0
 15 17  1  0  0  0
 17 18  1  0  0  0
 19 17  1  0  0  0
 20 19  1  0  0  0
 19 21  1  0  0  0
 21 22  1  0  0  0
 23 24  1  0  0  0
 25 23  1  0  0  0
 23 31  1  0  0  0
 25 26  1  0  0  0
 27 25  1  0  0  0
 27 28  1  0  0  0
 27 29  1  0  0  0
 29 30  1  0  0  0
 30 31  1  0  0  0
 30 32  1  0  0  0
 32 33  1  0  0  0
  1 34  1  0  0  0
  3 35  1  0  0  0
  4 36  1  0  0  0
  5 37  1  0  0  0
  6 38  1  0  0  0
  7 39  1  0  0  0
  8 40  1  0  0  0
  9 41  1  0  0  0
 11 42  1  0  0  0
 11 43  1  0  0  0
 11 44  1  0  0  0
 12 45  1  0  0  0
 14 46  1  0  0  0
 15 47  1  0  0  0
 16 48  1  0  0  0
 17 49  1  0  0  0
 18 50  1  0  0  0
 19 51  1  0  0  0
 21 52  1  0  0  0
 21 53  1  0  0  0
 22 54  1  0  0  0
 23 55  1  0  0  0
 24 56  1  0  0  0
 25 57  1  0  0  0
 26 58  1  0  0  0
 27 59  1  0  0  0
 28 60  1  0  0  0
 29 61  1  0  0  0
 30 62  1  0  0  0
 32 63  1  0  0  0
 32 64  1  0  0  0
 33 65  1  0  0  0
M  END
$$$$
