4cp5_ligand
  -I-interpret- 

 43 44  0  0  0  0  0  0  0  0999 V2000
   49.3270  -53.0820   77.0330 C   0  0  0  0  0
   52.0820  -51.4340   76.8550 N   0  0  0  0  0
   49.1910  -50.7300   76.9370 O   0  0  0  0  0
   48.7200  -48.5920   75.3180 P   0  0  0  0  0
   47.3530  -47.1410   75.5460 S   0  0  0  0  0
   49.6260  -51.8680   76.1930 C   0  0  0  0  0
   53.1950  -50.1670   78.3440 N   0  0  0  0  0
   50.1300  -48.2340   75.4740 O   0  0  0  0  0
   48.4230  -49.9520   72.5150 P   0  0  0  0  0
   51.1370  -51.7640   75.7950 C   0  0  0  0  0
   53.1360  -53.5830   77.2840 N   0  0  0  0  0
   48.4330  -49.1050   73.8580 O   0  0  0  0  0
   46.0650  -51.8940   73.1890 P   0  0  0  0  0
   52.2720  -50.2030   77.4130 C   0  0  0  0  0
   54.7820  -53.4490   79.0470 N   0  0  0  0  0
   49.7560  -50.5300   72.2400 O   0  0  0  0  0
   53.6430  -51.4780   78.4050 C   0  0  0  0  0
   55.3050  -51.4930   80.1660 N   0  0  0  0  0
   47.8260  -48.9910   71.4870 O   0  0  0  0  0
   52.9690  -52.2670   77.4880 C   0  0  0  0  0
   47.3040  -51.0080   72.7490 O   0  0  0  0  0
   54.0620  -54.0820   78.1120 C   0  0  0  0  0
   45.7280  -53.0560   72.3150 O   0  0  0  0  0
   54.5960  -52.1180   79.2230 C   0  0  0  0  0
   44.9310  -50.8540   73.3240 O   0  0  0  0  0
   48.1060  -49.9540   76.4040 C   0  0  0  0  0
   46.5170  -52.3280   74.5930 O   0  0  0  0  0
   49.5882  -53.9814   76.4753 H   0  0  0  0  0
   49.9122  -53.0397   77.9516 H   0  0  0  0  0
   48.2650  -53.1003   77.2778 H   0  0  0  0  0
   46.1364  -47.6485   75.3695 H   0  0  0  0  0
   49.0946  -51.9343   75.2436 H   0  0  0  0  0
   51.4201  -52.7561   75.4434 H   0  0  0  0  0
   51.1991  -50.9462   75.0770 H   0  0  0  0  0
   51.7041  -49.3233   77.1102 H   0  0  0  0  0
   55.9695  -52.0168   80.7356 H   0  0  0  0  0
   55.1821  -50.4917   80.3168 H   0  0  0  0  0
   46.9649  -48.6943   71.7903 H   0  0  0  0  0
   54.2566  -55.1498   78.0114 H   0  0  0  0  0
   45.2195  -50.1403   73.8976 H   0  0  0  0  0
   47.5558  -49.5124   77.2349 H   0  0  0  0  0
   47.4706  -50.6105   75.8096 H   0  0  0  0  0
   46.7221  -51.5500   75.1167 H   0  0  0  0  0
  6  1  1  0  0  0
 10  2  1  0  0  0
  2 14  4  0  0  0
  2 20  4  0  0  0
  6  3  1  0  0  0
  3 26  1  0  0  0
  4  5  1  0  0  0
  4  8  2  0  0  0
  4 12  1  0  0  0
 26  4  1  0  0  0
  6 10  1  0  0  0
 14  7  4  0  0  0
  7 17  4  0  0  0
 12  9  1  0  0  0
  9 16  2  0  0  0
  9 19  1  0  0  0
  9 21  1  0  0  0
 20 11  4  0  0  0
 11 22  4  0  0  0
 21 13  1  0  0  0
 13 23  2  0  0  0
 13 25  1  0  0  0
 13 27  1  0  0  0
 22 15  4  0  0  0
 15 24  4  0  0  0
 17 20  4  0  0  0
 17 24  4  0  0  0
 24 18  1  0  0  0
  1 28  1  0  0  0
  1 29  1  0  0  0
  1 30  1  0  0  0
  5 31  1  0  0  0
  6 32  1  0  0  0
 10 33  1  0  0  0
 10 34  1  0  0  0
 14 35  1  0  0  0
 18 36  1  0  0  0
 18 37  1  0  0  0
 19 38  1  0  0  0
 22 39  1  0  0  0
 25 40  1  0  0  0
 26 41  1  0  0  0
 26 42  1  0  0  0
 27 43  1  0  0  0
M  END
$$$$
