#	Name:			4ob0_ligand
#	Creating user name:	wangrx
#	Creation time:		Thu Aug  5 16:45:17 2021

#	Modifying user name:	wangrx
#	Modification time:	Thu Aug  5 16:45:43 2021

@<TRIPOS>MOLECULE
4ob0_ligand
   18    18     1     0     0
SMALL
GAST_HUCK


@<TRIPOS>ATOM
      1 B          36.2640   -9.8590   14.2830 B         1 PBC         3.0000 
      2 O1         37.7480   -9.9470   14.0550 O.3       1 PBC        -0.4105 
      3 O2         35.9290   -9.8560   15.7450 O.3       1 PBC        -0.4105 
      4 CG1        34.7280   -9.8810   10.8580 C.ar      1 PBC        -0.1708 
      5 CD1        33.5360   -9.3010   11.0560 C.ar      1 PBC        -0.1708 
      6 CG2        33.1900   -8.9160   12.2920 C.ar      1 PBC        -0.1708 
      7 CB2        34.0230   -9.0550   13.3710 C.ar      1 PBC        -0.1703 
      8 CA         35.2440   -9.6590   13.1560 C.ar      1 PBC        -0.1678 
      9 CB1        35.5960  -10.0600   11.8970 C.ar      1 PBC        -0.1703 
     10 H1         38.1742   -9.2003   14.4593 H         1 PBC         0.2052 
     11 H2         38.1742   -9.2004   14.4592 H         1 PBC         0.2052 
     12 H3         34.9868   -9.7997   15.8527 H         1 PBC         0.2052 
     13 H4         34.9868   -9.7997   15.8527 H         1 PBC         0.2052 
     14 H5         35.0057  -10.2112    9.8636 H         1 PBC         0.0042 
     15 H6         32.8584   -9.1449   10.2244 H         1 PBC         0.0042 
     16 H7         32.2109   -8.4765   12.4445 H         1 PBC         0.0042 
     17 H8         33.7336   -8.7040   14.3549 H         1 PBC         0.0042 
     18 H10        36.5625  -10.5193   11.7239 H         1 PBC         0.0042 
@<TRIPOS>BOND
     1    1    2 1    
     2    1    3 1    
     3    8    1 1    
     4    5    4 ar   
     5    4    9 ar   
     6    6    5 ar   
     7    7    6 ar   
     8    7    8 ar   
     9    8    9 ar   
    10    2   10 1    
    11    2   11 1    
    12    3   12 1    
    13    3   13 1    
    14    4   14 1    
    15    5   15 1    
    16    6   16 1    
    17    7   17 1    
    18    9   18 1    
@<TRIPOS>SUBSTRUCTURE
     1 PBC         1 PERM              0 ****  ****    0 ROOT 
