4ob0_ligand

Created by X-TOOL on Fri Nov 18 17:46:43 2016
 19 19  0  0  0  0  0  0  0  0999 V2000
   36.2640   -9.8590   14.2830  B 0  0  0  1  0  3
   37.7480   -9.9470   14.0550  O 0  0  0  3  0  3
   35.9290   -9.8560   15.7450  O 0  0  0  3  0  3
   34.7280   -9.8810   10.8580  C 0  0  0  2  0  3
   33.5360   -9.3010   11.0560  C 0  0  0  2  0  3
   33.1900   -8.9160   12.2920  C 0  0  0  2  0  3
   34.0230   -9.0550   13.3710  C 0  0  0  2  0  3
   35.2440   -9.6590   13.1560  C 0  0  0  2  0  4
   35.5960  -10.0600   11.8970  C 0  0  0  2  0  3
   38.1742   -9.2003   14.4593  H 0  0  0  1  0  1
   38.1742   -9.2004   14.4592  H 0  0  0  1  0  1
   34.9868   -9.7997   15.8527  H 0  0  0  1  0  1
   34.9868   -9.7997   15.8527  H 0  0  0  1  0  1
   35.0057  -10.2112    9.8636  H 0  0  0  1  0  1
   32.8584   -9.1449   10.2244  H 0  0  0  1  0  1
   32.2109   -8.4765   12.4445  H 0  0  0  1  0  1
   33.7336   -8.7040   14.3549  H 0  0  0  1  0  1
   35.9246   -9.8159   13.9850  H 0  0  0  1  0  1
   36.5625  -10.5193   11.7239  H 0  0  0  1  0  1
  1  2  1  0  0  2
  1  3  1  0  0  2
  8  1  1  0  0  2
  5  4  4  0  0  1
  4  9  4  0  0  1
  6  5  4  0  0  1
  7  6  4  0  0  1
  7  8  4  0  0  1
  8  9  4  0  0  1
  2 10  1  0  0  2
  2 11  1  0  0  2
  3 12  1  0  0  2
  3 13  1  0  0  2
  4 14  1  0  0  2
  5 15  1  0  0  2
  6 16  1  0  0  2
  7 17  1  0  0  2
  8 18  1  0  0  2
  9 19  1  0  0  2
M  END
> <MOLECULAR_FORMULA>
C6H10O2B

> <MOLECULAR_WEIGHT>
124.9

> <NUM_HB_ATOMS>
2  

> <NUM_ROTOR>
1  

> <XLOGP2>
0.77 

$$$$
