1e3v_ligand
  -I-interpret- 

 68 71  0  0  0  0  0  0  0  0999 V2000
    4.8530   -3.5000   84.8790 C   0  0  0  0  0
    3.8190   -4.1940   83.9850 C   0  0  0  0  0
    2.4560   -4.3450   84.6990 C   0  0  0  0  0
    2.5860   -5.0840   86.0690 C   0  0  0  0  0
    3.6330   -4.3160   86.9230 C   0  0  0  0  0
    5.0020   -4.2480   86.2280 C   0  0  0  0  0
    1.4380   -5.0580   83.7720 C   0  0  0  0  0
    1.7720   -6.5490   83.5890 C   0  0  0  0  0
    1.9340   -7.2910   84.9280 C   0  0  0  0  0
    2.9990   -6.5880   85.8200 C   0  0  0  0  0
    2.3590   -8.7630   84.7180 C   0  0  0  0  0
    2.5170   -9.5400   86.0420 C   0  0  0  0  0
    3.5660   -8.8710   86.9500 C   0  0  0  0  0
    3.1550   -7.3830   87.1570 C   0  0  0  0  0
    1.5170   -9.6960   83.8400 C   0  0  0  0  0
    1.8870  -11.1160   84.3090 C   0  0  0  0  0
    2.9060  -10.9290   85.4540 C   0  0  0  0  0
    1.2480   -5.0530   86.8530 C   0  0  0  0  0
    2.9680  -12.1840   86.3940 C   0  0  0  0  0
    4.8440   -8.9610   86.3340 O   0  0  0  0  0
    6.0610   -3.3990   84.1510 O   0  0  0  0  0
    1.1760   -9.6220   86.8150 C   0  0  0  0  0
    3.3500  -13.4460   85.5780 C   0  0  0  0  0
    4.7310  -13.4140   84.9230 C   0  0  0  0  0
    4.6260  -14.0460   83.5410 C   0  0  0  0  0
    4.7740  -13.4660   82.5160 O   0  0  0  0  0
    4.3460  -15.3480   83.6050 O   0  0  0  0  0
    3.9780  -12.0070   87.5370 C   0  0  0  0  0
    4.5313   -2.4929   85.1442 H   0  0  0  0  0
    4.1901   -5.1889   83.7389 H   0  0  0  0  0
    3.6736   -3.5861   83.0920 H   0  0  0  0  0
    2.0863   -3.3433   84.9180 H   0  0  0  0  0
    3.7560   -4.8441   87.8686 H   0  0  0  0  0
    3.2734   -3.2975   87.0693 H   0  0  0  0  0
    5.7091   -3.7162   86.8646 H   0  0  0  0  0
    5.3707   -5.2577   86.0473 H   0  0  0  0  0
    1.4730   -4.5781   82.7940 H   0  0  0  0  0
    0.4508   -4.9831   84.2280 H   0  0  0  0  0
    0.9473   -7.0124   83.0475 H   0  0  0  0  0
    2.7186   -6.6163   83.0527 H   0  0  0  0  0
    0.9620   -7.2701   85.4207 H   0  0  0  0  0
    3.9659   -6.5791   85.3170 H   0  0  0  0  0
    3.2837   -8.5577   84.1786 H   0  0  0  0  0
    3.6160   -9.3690   87.9183 H   0  0  0  0  0
    2.1864   -7.3769   87.6569 H   0  0  0  0  0
    3.9447   -6.9020   87.7342 H   0  0  0  0  0
    1.7235   -9.5518   82.7795 H   0  0  0  0  0
    0.4501   -9.4988   83.9444 H   0  0  0  0  0
    1.0072  -11.6637   84.6468 H   0  0  0  0  0
    2.3092  -11.7050   83.4948 H   0  0  0  0  0
    3.9578  -10.8938   85.1700 H   0  0  0  0  0
    0.4757   -5.5561   86.2712 H   0  0  0  0  0
    1.3758   -5.5633   87.8076 H   0  0  0  0  0
    0.9555   -4.0179   87.0292 H   0  0  0  0  0
    1.9762  -12.3000   86.8309 H   0  0  0  0  0
    5.4999   -8.5447   86.8980 H   0  0  0  0  0
    6.7247   -2.9663   84.6930 H   0  0  0  0  0
    0.8282   -8.6148   87.0444 H   0  0  0  0  0
    0.4346  -10.1327   86.2006 H   0  0  0  0  0
    1.3256  -10.1760   87.7417 H   0  0  0  0  0
    2.6244  -13.5231   84.7683 H   0  0  0  0  0
    3.3595  -14.2788   86.2811 H   0  0  0  0  0
    5.4445  -13.9688   85.5323 H   0  0  0  0  0
    5.0773  -12.3842   84.8356 H   0  0  0  0  0
    4.2679  -15.6126   84.5245 H   0  0  0  0  0
    4.9724  -11.8475   87.1200 H   0  0  0  0  0
    3.6936  -11.1456   88.1414 H   0  0  0  0  0
    3.9825  -12.9027   88.1581 H   0  0  0  0  0
  1 21  1  0  0  0
  1  6  1  0  0  0
  1  2  1  0  0  0
  2  3  1  0  0  0
  3  7  1  0  0  0
  3  4  1  0  0  0
  4 18  1  0  0  0
  4 10  1  0  0  0
  4  5  1  0  0  0
  5  6  1  0  0  0
 10 14  1  0  0  0
 10  9  1  0  0  0
  9 11  1  0  0  0
  9  8  1  0  0  0
  8  7  1  0  0  0
 11 15  1  0  0  0
 11 12  1  0  0  0
 12 22  1  0  0  0
 12 17  1  0  0  0
 12 13  1  0  0  0
 13 20  1  0  0  0
 13 14  1  0  0  0
 17 19  1  0  0  0
 17 16  1  0  0  0
 16 15  1  0  0  0
 19 28  1  0  0  0
 19 23  1  0  0  0
 23 24  1  0  0  0
 24 25  1  0  0  0
 25 27  1  0  0  0
 25 26  2  0  0  0
  1 29  1  0  0  0
  2 30  1  0  0  0
  2 31  1  0  0  0
  3 32  1  0  0  0
  5 33  1  0  0  0
  5 34  1  0  0  0
  6 35  1  0  0  0
  6 36  1  0  0  0
  7 37  1  0  0  0
  7 38  1  0  0  0
  8 39  1  0  0  0
  8 40  1  0  0  0
  9 41  1  0  0  0
 10 42  1  0  0  0
 11 43  1  0  0  0
 13 44  1  0  0  0
 14 45  1  0  0  0
 14 46  1  0  0  0
 15 47  1  0  0  0
 15 48  1  0  0  0
 16 49  1  0  0  0
 16 50  1  0  0  0
 17 51  1  0  0  0
 18 52  1  0  0  0
 18 53  1  0  0  0
 18 54  1  0  0  0
 19 55  1  0  0  0
 20 56  1  0  0  0
 21 57  1  0  0  0
 22 58  1  0  0  0
 22 59  1  0  0  0
 22 60  1  0  0  0
 23 61  1  0  0  0
 23 62  1  0  0  0
 24 63  1  0  0  0
 24 64  1  0  0  0
 27 65  1  0  0  0
 28 66  1  0  0  0
 28 67  1  0  0  0
 28 68  1  0  0  0
M  END
$$$$
