### 
### Created by X-TOOL on Mon Sep 10 21:12:55 2018
### 

@<TRIPOS>MOLECULE
2nxd_ligand
  120   121     1     0     0
SMALL
GAST_HUCK


@<TRIPOS>ATOM
      1 N          24.9430    7.0650   23.3730 N.4       1 ALA         0.2377
      2 CA         25.3620    5.6660   23.7080 C.3       1 ALA         0.0621
      3 C          24.2660    4.6410   23.3940 C.2       1 ALA         0.2264
      4 O          24.1610    3.6070   24.0670 O.2       1 ALA        -0.3907
      5 CB         25.7640    5.5790   25.1830 C.3       1 ALA        -0.0040
      6 N          23.4520    4.9220   22.3760 N.am      1 ASP        -0.2613
      7 CA         22.3340    4.0480   22.0290 C.3       1 ASP         0.1283
      8 C          22.4400    3.5470   20.5890 C.2       1 ASP         0.2036
      9 O          22.4910    4.3300   19.6440 O.2       1 ASP        -0.3944
     10 CB         21.0220    4.7570   22.2570 C.3       1 ASP        -0.0244
     11 N          22.4820    2.2260   20.4500 N.am      1 ILE        -0.2635
     12 CA         22.7530    1.5590   19.1830 C.3       1 ILE         0.1335
     13 C          21.6390    0.5510   18.8670 C.2       1 ILE         0.2043
     14 O          21.6170   -0.5580   19.4060 O.2       1 ILE        -0.3944
     15 CB         24.1350    0.8610   19.2220 C.3       1 ILE        -0.0037
     16 CG1        25.2630    1.8990   19.1030 C.3       1 ILE        -0.0491
     17 CG2        24.2720   -0.1710   18.0920 C.3       1 ILE        -0.0582
     18 CD1        25.5050    2.7250   20.3470 C.3       1 ILE        -0.0648
     19 N          20.7210    0.9420   17.9860 N.am      1 PHE        -0.2619
     20 CA         19.5730    0.1020   17.6410 C.3       1 PHE         0.1404
     21 C          19.7680   -0.6490   16.3260 C.2       1 PHE         0.2061
     22 O          19.0080   -0.5030   15.3740 O.2       1 PHE        -0.3942
     23 CB         18.2850    0.9280   17.6610 C.3       1 PHE         0.0214
     24 CG         18.1100    1.6920   18.9400 C.ar      1 PHE        -0.0386
     25 CD1        18.1820    3.0740   18.9560 C.ar      1 PHE        -0.0601
     26 CD2        17.9730    1.0180   20.1410 C.ar      1 PHE        -0.0601
     27 CE1        18.0640    3.7800   20.1420 C.ar      1 PHE        -0.0686
     28 CE2        17.8640    1.7120   21.3360 C.ar      1 PHE        -0.0686
     29 CZ         17.9120    3.0990   21.3390 C.ar      1 PHE        -0.0687
     30 N          20.8240   -1.4530   16.2920 N.am      1 TYR        -0.2620
     31 CA         20.8880   -2.6010   15.3940 C.3       1 TYR         0.1390
     32 C          19.7730   -3.5840   15.7920 C.2       1 TYR         0.2057
     33 O          19.4600   -3.7520   16.9790 O.2       1 TYR        -0.3942
     34 CB         22.2850   -3.2400   15.4770 C.3       1 TYR         0.0163
     35 CG         22.3880   -4.6500   14.9380 C.ar      1 TYR        -0.0493
     36 CD1        22.4930   -4.8860   13.5730 C.ar      1 TYR        -0.0685
     37 CD2        22.3920   -5.7440   15.7960 C.ar      1 TYR        -0.0685
     38 CE1        22.5790   -6.1720   13.0700 C.ar      1 TYR        -0.0398
     39 CE2        22.4690   -7.0380   15.3020 C.ar      1 TYR        -0.0398
     40 CZ         22.5700   -7.2470   13.9350 C.ar      1 TYR         0.0805
     41 OH         22.6650   -8.5270   13.4240 O.3       1 TYR        -0.3376
     42 N          19.1430   -4.1910   14.7920 N.am      1 LEU        -0.2636
     43 CA         18.1440   -5.2380   15.0220 C.3       1 LEU         0.1312
     44 C          18.2780   -6.3390   13.9730 C.2       1 LEU         0.2039
     45 O          18.1790   -6.0890   12.7690 O.2       1 LEU        -0.3944
     46 CB         16.7220   -4.6600   15.0390 C.3       1 LEU        -0.0101
     47 CG         15.6270   -5.2740   14.1520 C.3       1 LEU        -0.0425
     48 CD1        15.3070   -6.7270   14.4960 C.3       1 LEU        -0.0625
     49 CD2        14.3750   -4.4250   14.2810 C.3       1 LEU        -0.0625
     50 N          18.5410   -7.5490   14.4550 N.am      1 ASP        -0.2640
     51 CA         18.5240   -8.7530   13.6320 C.3       1 ASP         0.1282
     52 C          17.1840   -9.4650   13.8140 C.2       1 ASP         0.2035
     53 O          16.9370  -10.1070   14.8400 O.2       1 ASP        -0.3944
     54 CB         19.6790   -9.6790   14.0140 C.3       1 ASP        -0.0244
     55 N          16.3110   -9.3010   12.8250 N.am      1 GLY        -0.2651
     56 CA         15.0680  -10.0520   12.7590 C.3       1 GLY         0.1312
     57 C          15.2610  -11.4080   12.1080 C.2       1 GLY         0.2539
     58 O          16.1560  -11.5800   11.2800 O.2       1 GLY        -0.3683
     59 O1         14.4587  -12.4176   12.4334 O.3       1 GLY        -0.2912
     60 H1         25.6918    7.7023   23.5951 H         1 ALA         0.2015
     61 H2         24.1248    7.3082   23.9091 H         1 ALA         0.2015
     62 H3         24.7307    7.1258   22.3895 H         1 ALA         0.2015
     63 H4         26.2411    5.4193   23.0946 H         1 ALA         0.1095
     64 H5         26.0698    4.5492   25.4195 H         1 ALA         0.0310
     65 H6         24.9081    5.8613   25.8136 H         1 ALA         0.0310
     66 H7         26.6029    6.2639   25.3754 H         1 ALA         0.0310
     67 H8         23.6104    5.7498   21.8378 H         1 ASP         0.1884
     68 H9         22.3689    3.1725   22.6940 H         1 ASP         0.0797
     69 H10        20.1917    4.0861   21.9913 H         1 ASP         0.0277
     70 H11        20.9791    5.6596   21.6298 H         1 ASP         0.0277
     71 H12        20.9385    5.0421   23.3161 H         1 ASP         0.0277
     72 H13        22.3190    1.6596   21.2578 H         1 ILE         0.1883
     73 H14        22.7709    2.3175   18.3866 H         1 ILE         0.0803
     74 H15        24.2334    0.3404   20.1860 H         1 ILE         0.0345
     75 H16        25.0100    2.5854   18.2815 H         1 ILE         0.0267
     76 H17        26.1939    1.3652   18.8613 H         1 ILE         0.0267
     77 H18        23.4659   -0.9148   18.1751 H         1 ILE         0.0235
     78 H19        25.2461   -0.6756   18.1723 H         1 ILE         0.0235
     79 H20        24.2020    0.3385   17.1196 H         1 ILE         0.0235
     80 H21        26.3258    3.4338   20.1626 H         1 ILE         0.0230
     81 H22        25.7746    2.0609   21.1814 H         1 ILE         0.0230
     82 H23        24.5907    3.2810   20.6016 H         1 ILE         0.0230
     83 H24        20.8184    1.8353   17.5472 H         1 PHE         0.1885
     84 H25        19.4812   -0.6601   18.4288 H         1 PHE         0.0823
     85 H26        17.4288    0.2488   17.5363 H         1 PHE         0.0474
     86 H27        18.3113    1.6422   16.8248 H         1 PHE         0.0474
     87 H28        18.3329    3.6118   18.0270 H         1 PHE         0.0557
     88 H29        17.9507   -0.0658   20.1473 H         1 PHE         0.0557
     89 H30        18.0905    4.8636   20.1336 H         1 PHE         0.0599
     90 H31        17.7413    1.1716   22.2677 H         1 PHE         0.0599
     91 H32        17.8311    3.6458   22.2715 H         1 PHE         0.0559
     92 H33        21.5968   -1.2665   16.8986 H         1 TYR         0.1885
     93 H34        20.7155   -2.2670   14.3602 H         1 TYR         0.0821
     94 H35        22.5873   -3.2583   16.5345 H         1 TYR         0.0453
     95 H36        22.9817   -2.6075   14.9073 H         1 TYR         0.0453
     96 H37        22.5078   -4.0458   12.8883 H         1 TYR         0.0530
     97 H38        22.3341   -5.5835   16.8665 H         1 TYR         0.0530
     98 H39        22.6531   -6.3344   12.0008 H         1 TYR         0.0525
     99 H40        22.4503   -7.8822   15.9818 H         1 TYR         0.0525
    100 H41        22.7261   -8.4849   12.4769 H         1 TYR         0.2458
    101 H42        19.3575   -3.9248   13.8523 H         1 LEU         0.1883
    102 H43        18.3388   -5.6826   16.0091 H         1 LEU         0.0800
    103 H44        16.8069   -3.6020   14.7503 H         1 LEU         0.0315
    104 H45        16.3644   -4.7294   16.0769 H         1 LEU         0.0315
    105 H46        15.9731   -5.2424   13.1083 H         1 LEU         0.0298
    106 H47        14.5190   -7.0979   13.8241 H         1 LEU         0.0232
    107 H48        14.9597   -6.7892   15.5379 H         1 LEU         0.0232
    108 H49        16.2117   -7.3406   14.3738 H         1 LEU         0.0232
    109 H50        14.6131   -3.3804   14.0318 H         1 LEU         0.0232
    110 H51        13.9999   -4.4793   15.3136 H         1 LEU         0.0232
    111 H52        13.6049   -4.8001   13.5910 H         1 LEU         0.0232
    112 H53        18.7606   -7.6382   15.4265 H         1 ASP         0.1883
    113 H54        18.6362   -8.4662   12.5760 H         1 ASP         0.0797
    114 H55        19.6501  -10.5802   13.3840 H         1 ASP         0.0277
    115 H56        19.5834   -9.9675   15.0712 H         1 ASP         0.0277
    116 H57        20.6344   -9.1556   13.8617 H         1 ASP         0.0277
    117 H58        16.5159   -8.6398   12.1033 H         1 GLY         0.1882
    118 H59        14.3358   -9.4772   12.1730 H         1 GLY         0.0780
    119 H60        14.6864  -10.1988   13.7802 H         1 GLY         0.0780
    120 H61        14.9758  -13.1277   12.7949 H         1 GLY         0.2540
@<TRIPOS>BOND
     1    2    1 1  
     2    2    5 1  
     3    3    2 1  
     4    3    4 2  
     5    7    6 1  
     6    7   10 1  
     7    8    7 1  
     8    8    9 2  
     9    6    3 am 
    10   12   11 1  
    11   12   15 1  
    12   13   12 1  
    13   13   14 2  
    14   15   17 1  
    15   15   16 1  
    16   16   18 1  
    17   11    8 am 
    18   20   19 1  
    19   20   23 1  
    20   21   20 1  
    21   21   22 2  
    22   23   24 1  
    23   24   25 ar 
    24   24   26 ar 
    25   26   28 ar 
    26   28   29 ar 
    27   27   29 ar 
    28   25   27 ar 
    29   19   13 am 
    30   31   30 1  
    31   31   34 1  
    32   32   31 1  
    33   32   33 2  
    34   34   35 1  
    35   35   36 ar 
    36   35   37 ar 
    37   37   39 ar 
    38   39   40 ar 
    39   40   41 1  
    40   38   40 ar 
    41   36   38 ar 
    42   30   21 am 
    43   43   42 1  
    44   43   46 1  
    45   44   43 1  
    46   44   45 2  
    47   46   47 1  
    48   47   48 1  
    49   47   49 1  
    50   42   32 am 
    51   51   50 1  
    52   51   54 1  
    53   52   51 1  
    54   52   53 2  
    55   50   44 am 
    56   55   56 1  
    57   56   57 1  
    58   57   58 2  
    59   52   55 am 
    60   57   59 1  
    61    1   60 1  
    62    1   61 1  
    63    1   62 1  
    64    2   63 1  
    65    5   64 1  
    66    5   65 1  
    67    5   66 1  
    68    6   67 1  
    69    7   68 1  
    70   10   69 1  
    71   10   70 1  
    72   10   71 1  
    73   11   72 1  
    74   12   73 1  
    75   15   74 1  
    76   16   75 1  
    77   16   76 1  
    78   17   77 1  
    79   17   78 1  
    80   17   79 1  
    81   18   80 1  
    82   18   81 1  
    83   18   82 1  
    84   19   83 1  
    85   20   84 1  
    86   23   85 1  
    87   23   86 1  
    88   25   87 1  
    89   26   88 1  
    90   27   89 1  
    91   28   90 1  
    92   29   91 1  
    93   30   92 1  
    94   31   93 1  
    95   34   94 1  
    96   34   95 1  
    97   36   96 1  
    98   37   97 1  
    99   38   98 1  
   100   39   99 1  
   101   41  100 1  
   102   42  101 1  
   103   43  102 1  
   104   46  103 1  
   105   46  104 1  
   106   47  105 1  
   107   48  106 1  
   108   48  107 1  
   109   48  108 1  
   110   49  109 1  
   111   49  110 1  
   112   49  111 1  
   113   50  112 1  
   114   51  113 1  
   115   54  114 1  
   116   54  115 1  
   117   54  116 1  
   118   55  117 1  
   119   56  118 1  
   120   56  119 1  
   121   59  120 1  
@<TRIPOS>SUBSTRUCTURE
     1 ALA         1

