2nxd_ligand
  -I-interpret- 

120121  0  0  0  0  0  0  0  0999 V2000
   24.9430    7.0650   23.3730 N   0  3  0  0  0
   25.3620    5.6660   23.7080 C   0  0  0  0  0
   24.2660    4.6410   23.3940 C   0  0  0  0  0
   24.1610    3.6070   24.0670 O   0  0  0  0  0
   25.7640    5.5790   25.1830 C   0  0  0  0  0
   23.4520    4.9220   22.3760 N   0  0  0  0  0
   22.3340    4.0480   22.0290 C   0  0  0  0  0
   22.4400    3.5470   20.5890 C   0  0  0  0  0
   22.4910    4.3300   19.6440 O   0  0  0  0  0
   21.0220    4.7570   22.2570 C   0  0  0  0  0
   22.4820    2.2260   20.4500 N   0  0  0  0  0
   22.7530    1.5590   19.1830 C   0  0  0  0  0
   21.6390    0.5510   18.8670 C   0  0  0  0  0
   21.6170   -0.5580   19.4060 O   0  0  0  0  0
   24.1350    0.8610   19.2220 C   0  0  0  0  0
   25.2630    1.8990   19.1030 C   0  0  0  0  0
   24.2720   -0.1710   18.0920 C   0  0  0  0  0
   25.5050    2.7250   20.3470 C   0  0  0  0  0
   20.7210    0.9420   17.9860 N   0  0  0  0  0
   19.5730    0.1020   17.6410 C   0  0  0  0  0
   19.7680   -0.6490   16.3260 C   0  0  0  0  0
   19.0080   -0.5030   15.3740 O   0  0  0  0  0
   18.2850    0.9280   17.6610 C   0  0  0  0  0
   18.1100    1.6920   18.9400 C   0  0  0  0  0
   18.1820    3.0740   18.9560 C   0  0  0  0  0
   17.9730    1.0180   20.1410 C   0  0  0  0  0
   18.0640    3.7800   20.1420 C   0  0  0  0  0
   17.8640    1.7120   21.3360 C   0  0  0  0  0
   17.9120    3.0990   21.3390 C   0  0  0  0  0
   20.8240   -1.4530   16.2920 N   0  0  0  0  0
   20.8880   -2.6010   15.3940 C   0  0  0  0  0
   19.7730   -3.5840   15.7920 C   0  0  0  0  0
   19.4600   -3.7520   16.9790 O   0  0  0  0  0
   22.2850   -3.2400   15.4770 C   0  0  0  0  0
   22.3880   -4.6500   14.9380 C   0  0  0  0  0
   22.4930   -4.8860   13.5730 C   0  0  0  0  0
   22.3920   -5.7440   15.7960 C   0  0  0  0  0
   22.5790   -6.1720   13.0700 C   0  0  0  0  0
   22.4690   -7.0380   15.3020 C   0  0  0  0  0
   22.5700   -7.2470   13.9350 C   0  0  0  0  0
   22.6650   -8.5270   13.4240 O   0  0  0  0  0
   19.1430   -4.1910   14.7920 N   0  0  0  0  0
   18.1440   -5.2380   15.0220 C   0  0  0  0  0
   18.2780   -6.3390   13.9730 C   0  0  0  0  0
   18.1790   -6.0890   12.7690 O   0  0  0  0  0
   16.7220   -4.6600   15.0390 C   0  0  0  0  0
   15.6270   -5.2740   14.1520 C   0  0  0  0  0
   15.3070   -6.7270   14.4960 C   0  0  0  0  0
   14.3750   -4.4250   14.2810 C   0  0  0  0  0
   18.5410   -7.5490   14.4550 N   0  0  0  0  0
   18.5240   -8.7530   13.6320 C   0  0  0  0  0
   17.1840   -9.4650   13.8140 C   0  0  0  0  0
   16.9370  -10.1070   14.8400 O   0  0  0  0  0
   19.6790   -9.6790   14.0140 C   0  0  0  0  0
   16.3110   -9.3010   12.8250 N   0  0  0  0  0
   15.0680  -10.0520   12.7590 C   0  0  0  0  0
   15.2610  -11.4080   12.1080 C   0  0  0  0  0
   16.1560  -11.5800   11.2800 O   0  0  0  0  0
   14.4587  -12.4176   12.4334 O   0  0  0  0  0
   25.7014    7.7089   23.5981 H   0  0  0  0  0
   24.7284    7.1252   22.3777 H   0  0  0  0  0
   24.1150    7.3099   23.9160 H   0  0  0  0  0
   26.2197    5.4219   23.0813 H   0  0  0  0  0
   24.8947    5.7839   25.8079 H   0  0  0  0  0
   26.1396    4.5785   25.3975 H   0  0  0  0  0
   26.5429    6.3129   25.3899 H   0  0  0  0  0
   23.6136    5.7664   21.8271 H   0  0  0  0  0
   22.3753    3.1756   22.6812 H   0  0  0  0  0
   20.9494    5.6100   21.5823 H   0  0  0  0  0
   20.1998    4.0681   22.0636 H   0  0  0  0  0
   20.9723    5.1034   23.2893 H   0  0  0  0  0
   22.3157    1.6482   21.2740 H   0  0  0  0  0
   22.7752    2.3067   18.3902 H   0  0  0  0  0
   24.2143    0.3431   20.1778 H   0  0  0  0  0
   24.9698    2.5937   18.3159 H   0  0  0  0  0
   26.1815    1.3450   18.9094 H   0  0  0  0  0
   23.4967   -0.9298   18.1987 H   0  0  0  0  0
   24.1627    0.3291   17.1297 H   0  0  0  0  0
   25.2534   -0.6419   18.1488 H   0  0  0  0  0
   24.5983    3.2754   20.5982 H   0  0  0  0  0
   25.7720    2.0658   21.1730 H   0  0  0  0  0
   26.3184    3.4269   20.1630 H   0  0  0  0  0
   20.8204    1.8532   17.5384 H   0  0  0  0  0
   19.4855   -0.6720   18.4034 H   0  0  0  0  0
   17.4443    0.2412   17.5627 H   0  0  0  0  0
   18.3354    1.6480   16.8442 H   0  0  0  0  0
   18.3338    3.6148   18.0219 H   0  0  0  0  0
   17.9505   -0.0718   20.1473 H   0  0  0  0  0
   18.0907    4.8696   20.1335 H   0  0  0  0  0
   17.7407    1.1686   22.2728 H   0  0  0  0  0
   17.8307    3.6488   22.2766 H   0  0  0  0  0
   21.6123   -1.2628   16.9108 H   0  0  0  0  0
   20.7321   -2.3025   14.3573 H   0  0  0  0  0
   22.5405   -3.2924   16.5353 H   0  0  0  0  0
   22.9451   -2.6246   14.8658 H   0  0  0  0  0
   22.5079   -4.0411   12.8845 H   0  0  0  0  0
   22.3338   -5.5826   16.8724 H   0  0  0  0  0
   22.6536   -6.3353   11.9949 H   0  0  0  0  0
   22.4502   -7.8868   15.9855 H   0  0  0  0  0
   22.7267   -8.4845   12.4669 H   0  0  0  0  0
   19.3618   -3.9195   13.8335 H   0  0  0  0  0
   18.3288   -5.6739   16.0038 H   0  0  0  0  0
   16.8381   -3.6440   14.6617 H   0  0  0  0  0
   16.3727   -4.8302   16.0574 H   0  0  0  0  0
   15.9987   -5.2823   13.1274 H   0  0  0  0  0
   16.2043   -7.3339   14.3746 H   0  0  0  0  0
   14.9630   -6.7873   15.5285 H   0  0  0  0  0
   14.5261   -7.0933   13.8296 H   0  0  0  0  0
   14.0507   -4.4140   15.3216 H   0  0  0  0  0
   14.5924   -3.4075   13.9561 H   0  0  0  0  0
   13.5862   -4.8461   13.6577 H   0  0  0  0  0
   18.7650   -7.6400   15.4459 H   0  0  0  0  0
   18.6471   -8.4769   12.5848 H   0  0  0  0  0
   20.6250   -9.1592   13.8626 H   0  0  0  0  0
   19.5832   -9.9641   15.0617 H   0  0  0  0  0
   19.6493  -10.5716   13.3891 H   0  0  0  0  0
   16.5200   -8.6266   12.0888 H   0  0  0  0  0
   14.3564   -9.4835   12.1603 H   0  0  0  0  0
   14.7089  -10.2090   13.7761 H   0  0  0  0  0
   13.8207  -12.1203   13.0862 H   0  0  0  0  0
  2  1  1  0  0  0
  2  5  1  0  0  0
  3  2  1  0  0  0
  3  4  2  0  0  0
  7  6  1  0  0  0
  7 10  1  0  0  0
  8  7  1  0  0  0
  8  9  2  0  0  0
  6  3  1  0  0  0
 12 11  1  0  0  0
 12 15  1  0  0  0
 13 12  1  0  0  0
 13 14  2  0  0  0
 15 17  1  0  0  0
 15 16  1  0  0  0
 16 18  1  0  0  0
 11  8  1  0  0  0
 20 19  1  0  0  0
 20 23  1  0  0  0
 21 20  1  0  0  0
 21 22  2  0  0  0
 23 24  1  0  0  0
 24 25  4  0  0  0
 24 26  4  0  0  0
 26 28  4  0  0  0
 28 29  4  0  0  0
 27 29  4  0  0  0
 25 27  4  0  0  0
 19 13  1  0  0  0
 31 30  1  0  0  0
 31 34  1  0  0  0
 32 31  1  0  0  0
 32 33  2  0  0  0
 34 35  1  0  0  0
 35 36  4  0  0  0
 35 37  4  0  0  0
 37 39  4  0  0  0
 39 40  4  0  0  0
 40 41  1  0  0  0
 38 40  4  0  0  0
 36 38  4  0  0  0
 30 21  1  0  0  0
 43 42  1  0  0  0
 43 46  1  0  0  0
 44 43  1  0  0  0
 44 45  2  0  0  0
 46 47  1  0  0  0
 47 48  1  0  0  0
 47 49  1  0  0  0
 42 32  1  0  0  0
 51 50  1  0  0  0
 51 54  1  0  0  0
 52 51  1  0  0  0
 52 53  2  0  0  0
 50 44  1  0  0  0
 55 56  1  0  0  0
 56 57  1  0  0  0
 57 58  2  0  0  0
 52 55  1  0  0  0
 57 59  1  0  0  0
  1 60  1  0  0  0
  1 61  1  0  0  0
  1 62  1  0  0  0
  2 63  1  0  0  0
  5 64  1  0  0  0
  5 65  1  0  0  0
  5 66  1  0  0  0
  6 67  1  0  0  0
  7 68  1  0  0  0
 10 69  1  0  0  0
 10 70  1  0  0  0
 10 71  1  0  0  0
 11 72  1  0  0  0
 12 73  1  0  0  0
 15 74  1  0  0  0
 16 75  1  0  0  0
 16 76  1  0  0  0
 17 77  1  0  0  0
 17 78  1  0  0  0
 17 79  1  0  0  0
 18 80  1  0  0  0
 18 81  1  0  0  0
 18 82  1  0  0  0
 19 83  1  0  0  0
 20 84  1  0  0  0
 23 85  1  0  0  0
 23 86  1  0  0  0
 25 87  1  0  0  0
 26 88  1  0  0  0
 27 89  1  0  0  0
 28 90  1  0  0  0
 29 91  1  0  0  0
 30 92  1  0  0  0
 31 93  1  0  0  0
 34 94  1  0  0  0
 34 95  1  0  0  0
 36 96  1  0  0  0
 37 97  1  0  0  0
 38 98  1  0  0  0
 39 99  1  0  0  0
 41100  1  0  0  0
 42101  1  0  0  0
 43102  1  0  0  0
 46103  1  0  0  0
 46104  1  0  0  0
 47105  1  0  0  0
 48106  1  0  0  0
 48107  1  0  0  0
 48108  1  0  0  0
 49109  1  0  0  0
 49110  1  0  0  0
 49111  1  0  0  0
 50112  1  0  0  0
 51113  1  0  0  0
 54114  1  0  0  0
 54115  1  0  0  0
 54116  1  0  0  0
 55117  1  0  0  0
 56118  1  0  0  0
 56119  1  0  0  0
 59120  1  0  0  0
M  END
$$$$
