5ljq_ligand
  -I-interpret- 

 37 39  0  0  0  0  0  0  0  0999 V2000
   -0.7810    7.3030   12.2750 C   0  0  0  0  0
   -0.2600    8.1720   13.2800 O   0  0  0  0  0
   -0.7440    9.4520   13.3890 C   0  0  0  0  0
   -0.1750   10.2240   14.3900 C   0  0  0  0  0
   -0.5790   11.5390   14.5470 C   0  0  0  0  0
   -1.5420   12.0790   13.7190 C   0  0  0  0  0
   -2.1120   11.3040   12.7310 C   0  0  0  0  0
   -1.7200    9.9880   12.5580 C   0  0  0  0  0
   -1.9770    6.5980   12.8090 C   0  0  0  0  0
   -2.0590    5.4430   13.5260 C   0  0  0  0  0
   -3.3750    5.2650   13.7670 N   0  0  0  0  0
   -4.0950    6.2700   13.2150 N   0  0  0  0  0
   -3.2390    7.0790   12.6330 N   0  0  0  0  0
   -4.0170    4.2060   14.4740 C   0  0  0  0  0
   -3.2670    3.1410   14.9310 C   0  0  0  0  0
   -3.8710    2.1020   15.6090 C   0  0  0  0  0
   -5.2340    2.1410   15.8480 C   0  0  0  0  0
   -6.0020    3.2050   15.3950 C   0  0  0  0  0
   -5.3910    4.2400   14.7020 C   0  0  0  0  0
   -5.9760    0.8450   16.7830 S   0  0  0  0  0
   -5.4630    0.9530   18.1170 O   0  0  0  0  0
   -7.3950    0.9430   16.5870 O   0  0  0  0  0
   -5.4700   -0.5400   16.1670 N   0  0  0  0  0
   -0.0219    6.5732   11.9935 H   0  0  0  0  0
   -1.0616    7.8857   11.3976 H   0  0  0  0  0
    0.5837    9.7996   15.0476 H   0  0  0  0  0
   -0.1332   12.1521   15.3302 H   0  0  0  0  0
   -1.8516   13.1164   13.8458 H   0  0  0  0  0
   -2.8765   11.7308   12.0818 H   0  0  0  0  0
   -2.1729    9.3775   11.7768 H   0  0  0  0  0
   -1.2368    4.7993   13.8387 H   0  0  0  0  0
   -2.1915    3.1207   14.7553 H   0  0  0  0  0
   -3.2781    1.2551   15.9545 H   0  0  0  0  0
   -7.0756    3.2271   15.5821 H   0  0  0  0  0
   -5.9847    5.0780   14.3367 H   0  0  0  0  0
   -4.8844   -1.1623   16.7240 H   0  0  0  0  0
   -5.7326   -0.8017   15.2168 H   0  0  0  0  0
  1  2  1  0  0  0
  1  9  1  0  0  0
  2  3  1  0  0  0
  3  4  4  0  0  0
  3  8  4  0  0  0
  4  5  4  0  0  0
  5  6  4  0  0  0
  6  7  4  0  0  0
  7  8  4  0  0  0
  9 10  4  0  0  0
  9 13  4  0  0  0
 10 11  4  0  0  0
 11 12  4  0  0  0
 11 14  1  0  0  0
 12 13  4  0  0  0
 14 15  4  0  0  0
 14 19  4  0  0  0
 15 16  4  0  0  0
 16 17  4  0  0  0
 17 18  4  0  0  0
 17 20  1  0  0  0
 18 19  4  0  0  0
 20 21  2  0  0  0
 20 22  2  0  0  0
 20 23  1  0  0  0
  1 24  1  0  0  0
  1 25  1  0  0  0
  4 26  1  0  0  0
  5 27  1  0  0  0
  6 28  1  0  0  0
  7 29  1  0  0  0
  8 30  1  0  0  0
 10 31  1  0  0  0
 15 32  1  0  0  0
 16 33  1  0  0  0
 18 34  1  0  0  0
 19 35  1  0  0  0
 23 36  1  0  0  0
 23 37  1  0  0  0
M  END
$$$$
