4ctk_ligand
  -I-interpret- 

 15 16  0  0  0  0  0  0  0  0999 V2000
   30.8150   52.8070   13.1050 C   0  0  0  0  0
   31.1240   51.2360   12.5280 S   0  0  0  0  0
   30.6260   51.6890   10.9340 C   0  0  0  0  0
   30.6080   50.8620    9.8210 N   0  0  0  0  0
   30.2240   51.4330    8.6410 C   0  0  0  0  0
   29.8610   52.8280    8.5550 C   0  0  0  0  0
   29.8550   53.6460    9.6560 N   0  0  0  0  0
   30.2360   53.0620   10.8550 C   0  0  0  0  0
   30.3420   53.6970   12.1680 C   0  0  0  0  0
   29.9620   54.9840   12.3990 N   0  0  0  0  0
   30.9803   53.0888   14.1449 H   0  0  0  0  0
   30.1907   50.8195    7.7407 H   0  0  0  0  0
   29.5835   53.2434    7.5862 H   0  0  0  0  0
   30.0154   55.3702   13.3416 H   0  0  0  0  0
   29.6240   55.5619   11.6295 H   0  0  0  0  0
  1  2  4  0  0  0
  1  9  4  0  0  0
  2  3  4  0  0  0
  3  4  4  0  0  0
  3  8  4  0  0  0
  4  5  4  0  0  0
  5  6  4  0  0  0
  6  7  4  0  0  0
  7  8  4  0  0  0
  8  9  4  0  0  0
  9 10  1  0  0  0
  1 11  1  0  0  0
  5 12  1  0  0  0
  6 13  1  0  0  0
 10 14  1  0  0  0
 10 15  1  0  0  0
M  END
$$$$
