4hvs_ligand
  -I-interpret- 

 44 47  0  0  0  0  0  0  0  0999 V2000
   12.7410    3.1490   11.2340 C   0  0  0  0  0
   12.8000    2.7810   12.5790 C   0  0  0  0  0
   13.0910    1.5240   13.0330 N   0  0  0  0  0
   13.0220    2.1740   10.2490 C   0  0  0  0  0
   13.6750   -0.6850   12.2510 N   0  0  0  0  0
   13.8670   -1.3110   11.0340 C   0  0  0  0  0
   13.6900   -0.3840   10.0070 C   0  0  0  0  0
   13.3450    0.8640   10.6710 C   0  0  0  0  0
   13.3460    0.6300   12.0500 C   0  0  0  0  0
   13.8010   -0.6090    8.5210 C   0  0  0  0  0
   14.3340   -1.9850    8.2080 C   0  0  0  0  0
   15.5900   -2.1770    7.6450 C   0  0  0  0  0
   16.1040   -3.4060    7.3560 N   0  0  0  0  0
   15.3370   -4.5150    7.6310 C   0  0  0  0  0
   14.0890   -4.4070    8.2120 C   0  0  0  0  0
   13.5940   -3.1460    8.4870 C   0  0  0  0  0
   15.9210   -5.7340    7.3510 N   0  0  0  0  0
   17.1980   -5.7130    6.6830 C   0  0  0  0  0
   18.4720   -5.9240    7.4130 C   0  0  0  0  0
   18.5510   -6.1680    8.7910 C   0  0  0  0  0
   19.8140   -6.3330    9.3750 C   0  0  0  0  0
   20.9600   -6.2550    8.5740 C   0  0  0  0  0
   20.8790   -5.9930    7.1950 C   0  0  0  0  0
   19.6190   -5.8380    6.6290 C   0  0  0  0  0
   22.3020   -6.4640    9.1730 C   0  0  0  0  0
   22.8090   -5.4800    9.9490 F   0  0  0  0  0
   22.2640   -7.5730    9.9280 F   0  0  0  0  0
   23.2520   -6.6870    8.2580 F   0  0  0  0  0
   12.4832    4.1688   10.9482 H   0  0  0  0  0
   12.5993    3.5523   13.3226 H   0  0  0  0  0
   12.9903    2.4266    9.1892 H   0  0  0  0  0
   14.1173   -2.3631   10.8981 H   0  0  0  0  0
   14.4898    0.1294    8.1107 H   0  0  0  0  0
   12.8074   -0.5159    8.0827 H   0  0  0  0  0
   16.1960   -1.2986    7.4228 H   0  0  0  0  0
   13.5065   -5.2973    8.4488 H   0  0  0  0  0
   12.6036   -3.0500    8.9320 H   0  0  0  0  0
   15.4683   -6.6118    7.6059 H   0  0  0  0  0
   17.2789   -4.6891    6.3181 H   0  0  0  0  0
   17.1467   -6.5660    6.0063 H   0  0  0  0  0
   17.6469   -6.2283    9.3969 H   0  0  0  0  0
   19.9038   -6.5207   10.4450 H   0  0  0  0  0
   21.7798   -5.9136    6.5864 H   0  0  0  0  0
   19.5281   -5.6470    5.5597 H   0  0  0  0  0
  2  1  4  0  0  0
  1  4  4  0  0  0
  3  2  4  0  0  0
  9  3  4  0  0  0
  4  8  4  0  0  0
  5  6  4  0  0  0
  5  9  4  0  0  0
  6  7  4  0  0  0
  7  8  4  0  0  0
  7 10  1  0  0  0
  8  9  4  0  0  0
 10 11  1  0  0  0
 11 12  4  0  0  0
 11 16  4  0  0  0
 12 13  4  0  0  0
 13 14  4  0  0  0
 14 15  4  0  0  0
 14 17  1  0  0  0
 15 16  4  0  0  0
 17 18  1  0  0  0
 18 19  1  0  0  0
 19 20  4  0  0  0
 19 24  4  0  0  0
 20 21  4  0  0  0
 21 22  4  0  0  0
 22 23  4  0  0  0
 22 25  1  0  0  0
 23 24  4  0  0  0
 25 26  1  0  0  0
 25 27  1  0  0  0
 25 28  1  0  0  0
  1 29  1  0  0  0
  2 30  1  0  0  0
  4 31  1  0  0  0
  6 32  1  0  0  0
 10 33  1  0  0  0
 10 34  1  0  0  0
 12 35  1  0  0  0
 15 36  1  0  0  0
 16 37  1  0  0  0
 17 38  1  0  0  0
 18 39  1  0  0  0
 18 40  1  0  0  0
 20 41  1  0  0  0
 21 42  1  0  0  0
 23 43  1  0  0  0
 24 44  1  0  0  0
M  END
$$$$
