1s64_ligand
  -I-interpret- 

 50 53  0  0  0  0  0  0  0  0999 V2000
   29.9290   90.2660   63.5610 N   0  3  0  0  0
   30.3220   89.3280   64.6290 C   0  0  0  0  0
   28.5150   90.5410   63.3000 C   0  0  0  0  0
   30.4760   89.9420   62.2280 C   0  0  0  0  0
   31.8420   89.5790   64.7200 C   0  0  0  0  0
   27.7940   91.1470   64.5070 C   0  0  0  0  0
   32.0220   89.6180   62.2620 C   0  0  0  0  0
   32.6800   89.4250   63.5250 N   0  0  0  0  0
   27.8360   92.5000   64.8060 N   0  0  0  0  0
   27.0460   90.4840   65.4150 C   0  0  0  0  0
   32.6120   89.4690   61.1980 O   0  0  0  0  0
   34.0680   89.1790   63.7160 C   0  0  0  0  0
   28.5530   93.6010   64.0680 C   0  0  0  0  0
   27.1110   92.7200   65.9090 C   0  0  0  0  0
   26.5880   91.5040   66.3440 N   0  0  0  0  0
   34.7000   88.2070   62.8640 C   0  0  0  0  0
   34.8790   89.8470   64.7210 C   0  0  0  0  0
   30.1000   93.5400   64.2140 C   0  0  0  0  0
   36.0850   87.8990   62.9940 C   0  0  0  0  0
   36.2720   89.5330   64.8480 C   0  0  0  0  0
   30.9490   93.6930   63.0610 C   0  0  0  0  0
   30.7260   93.3230   65.4900 C   0  0  0  0  0
   36.8700   88.5630   63.9890 C   0  0  0  0  0
   36.7750   86.7320   61.9500 Cl  0  0  0  0  0
   32.3790   93.6320   63.1810 C   0  0  0  0  0
   32.1440   93.2620   65.6140 C   0  0  0  0  0
   32.9740   93.4180   64.4470 C   0  0  0  0  0
   34.2820   93.3640   64.5530 C   0  0  0  0  0
   35.4410   93.3150   64.6460 N   0  0  0  0  0
   30.3356   91.0911   64.0018 H   0  0  0  0  0
   30.0644   88.2910   64.4138 H   0  0  0  0  0
   29.7965   89.4945   65.5693 H   0  0  0  0  0
   28.0297   89.5942   63.0628 H   0  0  0  0  0
   28.4608   91.2611   62.4835 H   0  0  0  0  0
   30.3316   90.8122   61.5877 H   0  0  0  0  0
   29.9576   89.0562   61.8610 H   0  0  0  0  0
   32.2048   88.8165   65.4092 H   0  0  0  0  0
   31.9304   90.6332   64.9826 H   0  0  0  0  0
   26.8320   89.4156   65.4449 H   0  0  0  0  0
   28.2211   94.5492   64.4909 H   0  0  0  0  0
   28.3192   93.4919   63.0090 H   0  0  0  0  0
   26.9558   93.6874   66.3866 H   0  0  0  0  0
   34.1079   87.6965   62.1045 H   0  0  0  0  0
   34.4267   90.5885   65.3796 H   0  0  0  0  0
   36.8760   90.0366   65.6028 H   0  0  0  0  0
   30.4994   93.8577   62.0818 H   0  0  0  0  0
   30.1050   93.2031   66.3778 H   0  0  0  0  0
   37.9292   88.3270   64.0913 H   0  0  0  0  0
   33.0058   93.7505   62.2971 H   0  0  0  0  0
   32.6001   93.0976   66.5903 H   0  0  0  0  0
  1  2  1  0  0  0
  1  3  1  0  0  0
  1  4  1  0  0  0
  2  5  1  0  0  0
  3  6  1  0  0  0
  4  7  1  0  0  0
  5  8  1  0  0  0
  6  9  4  0  0  0
  6 10  4  0  0  0
  7  8  1  0  0  0
  7 11  2  0  0  0
  8 12  1  0  0  0
  9 13  1  0  0  0
  9 14  4  0  0  0
 10 15  4  0  0  0
 12 16  4  0  0  0
 12 17  4  0  0  0
 13 18  1  0  0  0
 14 15  4  0  0  0
 16 19  4  0  0  0
 17 20  4  0  0  0
 18 21  4  0  0  0
 18 22  4  0  0  0
 19 23  4  0  0  0
 19 24  1  0  0  0
 20 23  4  0  0  0
 21 25  4  0  0  0
 22 26  4  0  0  0
 25 27  4  0  0  0
 26 27  4  0  0  0
 27 28  1  0  0  0
 28 29  3  0  0  0
  1 30  1  0  0  0
  2 31  1  0  0  0
  2 32  1  0  0  0
  3 33  1  0  0  0
  3 34  1  0  0  0
  4 35  1  0  0  0
  4 36  1  0  0  0
  5 37  1  0  0  0
  5 38  1  0  0  0
 10 39  1  0  0  0
 13 40  1  0  0  0
 13 41  1  0  0  0
 14 42  1  0  0  0
 16 43  1  0  0  0
 17 44  1  0  0  0
 20 45  1  0  0  0
 21 46  1  0  0  0
 22 47  1  0  0  0
 23 48  1  0  0  0
 25 49  1  0  0  0
 26 50  1  0  0  0
M  END
$$$$
