3eyg_ligand
  -I-interpret- 

 42 44  0  0  0  0  0  0  0  0999 V2000
   11.4000   14.0760  -15.3490 C   0  0  0  0  0
   11.1110   14.1980  -16.8320 C   0  0  0  0  0
   10.0430   11.9040  -16.9620 C   0  0  0  0  0
   10.5440   11.6320  -15.5380 C   0  0  0  0  0
   11.7130   12.5520  -15.1220 C   0  0  0  0  0
    9.9090   13.3800  -17.0700 N   0  0  0  0  0
    8.6640   15.1600  -17.5640 O   0  0  0  0  0
    8.7790   13.9460  -17.4370 C   0  0  0  0  0
    7.5860   13.0420  -17.6590 C   0  0  0  0  0
    6.4020   13.8860  -17.8860 C   0  0  0  0  0
    5.4400   14.5060  -18.0770 N   0  0  0  0  0
   13.0070   11.9550  -15.7290 C   0  0  0  0  0
   12.6080   14.8790  -14.9290 N   0  0  0  0  0
   13.6000   15.3730  -15.8880 C   0  0  0  0  0
   12.8720   15.1980  -13.6120 C   0  0  0  0  0
   12.0370   14.7960  -12.5530 C   0  0  0  0  0
   10.7790   14.0680  -12.4890 C   0  0  0  0  0
   10.5020   14.0170  -11.1370 C   0  0  0  0  0
   11.4780   14.6740  -10.4210 N   0  0  0  0  0
   12.4150   15.1380  -11.2680 C   0  0  0  0  0
   13.5300   15.8160  -10.9460 N   0  0  0  0  0
   14.3090   16.1740  -12.0020 C   0  0  0  0  0
   14.0160   15.9020  -13.3080 N   0  0  0  0  0
   10.5560   14.4488  -14.7686 H   0  0  0  0  0
   11.9531   13.8527  -17.4318 H   0  0  0  0  0
   10.9504   15.2362  -17.1225 H   0  0  0  0  0
    9.0922   11.4051  -17.1495 H   0  0  0  0  0
   10.7361   11.5135  -17.7072 H   0  0  0  0  0
   10.9031   10.6034  -15.5036 H   0  0  0  0  0
    9.7160   11.8181  -14.8540 H   0  0  0  0  0
   11.8742   12.5677  -14.0441 H   0  0  0  0  0
    7.4307   12.4072  -16.7867 H   0  0  0  0  0
    7.7589   12.4005  -18.5231 H   0  0  0  0  0
   13.1565   10.9468  -15.3426 H   0  0  0  0  0
   12.9148   11.9195  -16.8145 H   0  0  0  0  0
   13.8571   12.5801  -15.4555 H   0  0  0  0  0
   13.6497   16.4603  -15.8298 H   0  0  0  0  0
   14.5759   14.9501  -15.6496 H   0  0  0  0  0
   13.3096   15.0747  -16.8954 H   0  0  0  0  0
   10.1938   13.6596  -13.3129 H   0  0  0  0  0
    9.6333   13.5260  -10.6984 H   0  0  0  0  0
   15.2312   16.7156  -11.7913 H   0  0  0  0  0
  2  1  1  0  0  0
  1  5  1  0  0  0
  1 13  1  0  0  0
  6  2  1  0  0  0
  3  4  1  0  0  0
  3  6  1  0  0  0
  4  5  1  0  0  0
  5 12  1  0  0  0
  6  8  1  0  0  0
  8  7  2  0  0  0
  8  9  1  0  0  0
  9 10  1  0  0  0
 10 11  3  0  0  0
 13 14  1  0  0  0
 13 15  1  0  0  0
 15 16  4  0  0  0
 15 23  4  0  0  0
 16 17  4  0  0  0
 16 20  4  0  0  0
 17 18  4  0  0  0
 18 19  4  0  0  0
 19 20  4  0  0  0
 20 21  4  0  0  0
 21 22  4  0  0  0
 22 23  4  0  0  0
  1 24  1  0  0  0
  2 25  1  0  0  0
  2 26  1  0  0  0
  3 27  1  0  0  0
  3 28  1  0  0  0
  4 29  1  0  0  0
  4 30  1  0  0  0
  5 31  1  0  0  0
  9 32  1  0  0  0
  9 33  1  0  0  0
 12 34  1  0  0  0
 12 35  1  0  0  0
 12 36  1  0  0  0
 14 37  1  0  0  0
 14 38  1  0  0  0
 14 39  1  0  0  0
 17 40  1  0  0  0
 18 41  1  0  0  0
 22 42  1  0  0  0
M  END
$$$$
