6jtc_ligand
  -I-interpret- 

 28 28  0  0  0  0  0  0  0  0999 V2000
   39.9180   21.8230  -37.2100 O   0  0  0  0  0
   40.3220   22.9380  -37.6200 C   0  0  0  0  0
   39.6340   23.9740  -37.3680 O   0  0  0  0  0
   41.5480   23.0410  -38.3340 C   0  0  0  0  0
   42.1420   24.3190  -38.4220 C   0  0  0  0  0
   43.3240   24.5260  -39.0850 C   0  0  0  0  0
   43.9410   25.7320  -39.1830 N   0  0  0  0  0
   43.7030   26.7250  -38.3770 O   0  0  0  0  0
   44.8600   25.8820  -40.0590 O   0  0  0  0  0
   43.9120   23.4230  -39.6880 C   0  0  0  0  0
   43.3530   22.1600  -39.6260 C   0  0  0  0  0
   42.1780   21.9390  -38.9510 C   0  0  0  0  0
   41.6170   20.7060  -38.8720 N   0  0  0  0  0
   42.2770   19.4190  -39.2680 C   0  0  0  0  0
   42.0980   18.2790  -38.2540 C   0  0  0  0  0
   43.2090   18.4350  -37.2710 N   0  3  0  0  0
   40.0677   24.7439  -37.7432 H   0  0  0  0  0
   41.6459   25.1663  -37.9486 H   0  0  0  0  0
   44.8481   23.5572  -40.2299 H   0  0  0  0  0
   43.8527   21.3270  -40.1205 H   0  0  0  0  0
   40.6642   20.6497  -38.5122 H   0  0  0  0  0
   43.3463   19.6166  -39.3431 H   0  0  0  0  0
   41.8144   19.0948  -40.2002 H   0  0  0  0  0
   42.1322   17.3046  -38.7412 H   0  0  0  0  0
   41.1249   18.3305  -37.7656 H   0  0  0  0  0
   43.1435   17.7005  -36.5663 H   0  0  0  0  0
   44.1033   18.3634  -37.7563 H   0  0  0  0  0
   43.1373   19.3474  -36.8206 H   0  0  0  0  0
  1  2  2  0  0  0
  2  3  1  0  0  0
  2  4  1  0  0  0
  4  5  4  0  0  0
  4 12  4  0  0  0
  5  6  4  0  0  0
  6  7  1  0  0  0
  6 10  4  0  0  0
  7  8  2  0  0  0
  7  9  2  0  0  0
 10 11  4  0  0  0
 11 12  4  0  0  0
 12 13  1  0  0  0
 13 14  1  0  0  0
 14 15  1  0  0  0
 15 16  1  0  0  0
  3 17  1  0  0  0
  5 18  1  0  0  0
 10 19  1  0  0  0
 11 20  1  0  0  0
 13 21  1  0  0  0
 14 22  1  0  0  0
 14 23  1  0  0  0
 15 24  1  0  0  0
 15 25  1  0  0  0
 16 26  1  0  0  0
 16 27  1  0  0  0
 16 28  1  0  0  0
M  END
$$$$
