4w4v_ligand
  -I-interpret- 

 51 54  0  0  0  0  0  0  0  0999 V2000
   76.5000   76.8110   29.7190 C   0  0  0  0  0
   72.8410   81.8170   32.9890 C   0  0  0  0  0
   75.4440   77.5000   30.3140 C   0  0  0  0  0
   74.9020   77.0440   31.5240 C   0  0  0  0  0
   75.4020   75.8790   32.0960 C   0  0  0  0  0
   72.6370   79.3600   32.8820 C   0  0  0  0  0
   73.8400   79.0520   32.2770 C   0  0  0  0  0
   71.0210   82.3950   36.9980 C   0  0  0  0  0
   69.9560   83.3080   37.0140 C   0  0  0  0  0
   71.8380   82.3170   35.8630 C   0  0  0  0  0
   71.5910   83.1380   34.7250 C   0  0  0  0  0
   70.5380   84.0400   34.7420 C   0  0  0  0  0
   77.6930   70.8530   35.3390 C   0  0  0  0  0
   77.4460   71.9450   34.5040 C   0  0  0  0  0
   76.8110   69.8320   35.3640 N   0  0  0  0  0
   72.0300   78.1490   33.1970 C   0  0  0  0  0
   74.7670   68.6990   34.7190 C   0  0  0  0  0
   75.6860   69.8490   34.6250 C   0  0  0  0  0
   75.3870   70.9270   33.7840 C   0  0  0  0  0
   76.3040   71.9760   33.6950 C   0  0  0  0  0
   76.0020   73.1330   32.9070 N   0  0  0  0  0
   76.9470   73.9640   32.1960 C   0  0  0  0  0
   78.1500   73.7210   32.1900 O   0  0  0  0  0
   76.4450   75.1740   31.4910 C   0  0  0  0  0
   77.0000   75.6410   30.2940 C   0  0  0  0  0
   73.9080   77.7100   32.1380 N   0  0  0  0  0
   72.2560   80.5760   33.3450 N   0  0  0  0  0
   73.6470   81.8590   32.0980 O   0  0  0  0  0
   72.4650   83.0480   33.5950 N   0  0  0  0  0
   69.7510   84.1440   35.9110 C   0  0  0  0  0
   70.2380   85.1100   33.3930 Cl  0  0  0  0  0
   72.8140   77.1530   32.7330 N   0  0  0  0  0
   76.9395   77.1894   28.7961 H   0  0  0  0  0
   75.0396   78.3935   29.8383 H   0  0  0  0  0
   74.9743   75.5113   33.0287 H   0  0  0  0  0
   74.6016   79.7671   31.9660 H   0  0  0  0  0
   71.2105   81.7538   37.8588 H   0  0  0  0  0
   69.2941   83.3656   37.8781 H   0  0  0  0  0
   72.6746   81.6184   35.8501 H   0  0  0  0  0
   78.5867   70.8258   35.9624 H   0  0  0  0  0
   78.1474   72.7790   34.4821 H   0  0  0  0  0
   71.0853   78.0256   33.7266 H   0  0  0  0  0
   75.2891   67.7924   34.4131 H   0  0  0  0  0
   74.4242   68.5927   35.7482 H   0  0  0  0  0
   73.9111   68.8651   34.0649 H   0  0  0  0  0
   74.4596   70.9471   33.2117 H   0  0  0  0  0
   75.0192   73.3978   32.8407 H   0  0  0  0  0
   77.8143   75.0968   29.8155 H   0  0  0  0  0
   71.4807   80.5999   34.0074 H   0  0  0  0  0
   72.8382   83.9127   33.2033 H   0  0  0  0  0
   68.9630   84.8958   35.9546 H   0  0  0  0  0
  3  1  4  0  0  0
  1 25  4  0  0  0
 27  2  1  0  0  0
  2 28  2  0  0  0
  2 29  1  0  0  0
  4  3  4  0  0  0
  5  4  4  0  0  0
  4 26  1  0  0  0
 24  5  4  0  0  0
  7  6  4  0  0  0
  6 16  4  0  0  0
  6 27  1  0  0  0
 26  7  4  0  0  0
  8  9  4  0  0  0
 10  8  4  0  0  0
 30  9  4  0  0  0
 11 10  4  0  0  0
 11 12  4  0  0  0
 29 11  1  0  0  0
 12 30  4  0  0  0
 12 31  1  0  0  0
 14 13  4  0  0  0
 13 15  4  0  0  0
 20 14  4  0  0  0
 18 15  4  0  0  0
 16 32  4  0  0  0
 18 17  1  0  0  0
 19 18  4  0  0  0
 20 19  4  0  0  0
 21 20  1  0  0  0
 22 21  1  0  0  0
 22 23  2  0  0  0
 22 24  1  0  0  0
 24 25  4  0  0  0
 26 32  4  0  0  0
  1 33  1  0  0  0
  3 34  1  0  0  0
  5 35  1  0  0  0
  7 36  1  0  0  0
  8 37  1  0  0  0
  9 38  1  0  0  0
 10 39  1  0  0  0
 13 40  1  0  0  0
 14 41  1  0  0  0
 16 42  1  0  0  0
 17 43  1  0  0  0
 17 44  1  0  0  0
 17 45  1  0  0  0
 19 46  1  0  0  0
 21 47  1  0  0  0
 25 48  1  0  0  0
 27 49  1  0  0  0
 29 50  1  0  0  0
 30 51  1  0  0  0
M  END
$$$$
