3avj_ligand
  -I-interpret- 

127127  0  0  0  0  0  0  0  0999 V2000
    9.2490  -52.9490   13.1590 N   0  0  0  0  0
    9.7660  -53.0350   14.5390 C   0  0  0  0  0
    8.8910  -52.1760   15.4910 C   0  0  0  0  0
    9.3080  -51.9740   16.6380 O   0  0  0  0  0
   11.1650  -52.5420   14.6250 C   0  0  0  0  0
    7.6990  -51.7870   15.0470 N   0  0  0  0  0
    6.7480  -50.8610   15.6940 C   0  0  0  0  0
    7.4630  -49.5760   16.1600 C   0  0  0  0  0
    7.1950  -49.0820   17.2850 O   0  0  0  0  0
    5.9580  -51.5050   16.9090 C   0  0  0  0  0
    4.9620  -52.6530   16.5000 C   0  0  0  0  0
    4.3350  -53.2570   17.7360 C   0  0  0  0  0
    3.8640  -52.1210   15.5650 C   0  0  0  0  0
    8.3310  -49.0350   15.3040 N   0  0  0  0  0
    8.9480  -47.7310   15.5630 C   0  0  0  0  0
    8.4930  -46.7970   14.4240 C   0  0  0  0  0
    8.1390  -47.2690   13.3330 O   0  0  0  0  0
   10.4390  -47.8410   15.5180 C   0  0  0  0  0
   10.9690  -48.8830   16.5480 C   0  0  0  0  0
   10.7330  -48.4710   18.0190 C   0  0  0  0  0
   11.4410  -49.5290   18.9760 C   0  0  0  0  0
   10.9270  -49.1570   20.3190 N   0  3  0  0  0
    8.5220  -45.4850   14.6680 N   0  0  0  0  0
    8.0230  -44.5530   13.6670 C   0  0  0  0  0
    8.8450  -44.6400   12.3990 C   0  0  0  0  0
    8.3800  -44.3010   11.2990 O   0  0  0  0  0
    8.0320  -43.1120   14.2520 C   0  0  0  0  0
    7.0430  -42.9740   15.4610 C   0  0  0  0  0
    7.6900  -42.0540   13.1910 C   0  0  0  0  0
    5.4910  -43.2740   15.1200 C   0  0  0  0  0
   10.1270  -44.9510   12.5970 N   0  0  0  0  0
   11.0250  -45.0510   11.4840 C   0  0  0  0  0
   11.1410  -46.4820   10.9610 C   0  0  0  0  0
   11.9580  -46.7030   10.0520 O   0  0  0  0  0
   12.4520  -44.5130   11.8340 C   0  0  0  0  0
   13.0520  -45.1590   13.0590 C   0  0  0  0  0
   12.3970  -45.9140   13.7740 O   0  0  0  0  0
   14.2840  -44.9010   13.3230 O   0  0  0  0  0
   10.3860  -47.4520   11.4830 N   0  0  0  0  0
   10.4330  -48.8770   11.0420 C   0  0  0  0  0
    9.2910  -49.5930   11.6790 C   0  0  0  0  0
    9.4290  -50.1230   12.7820 O   0  0  0  0  0
   11.7620  -49.5000   11.4500 C   0  0  0  0  0
   11.8400  -50.9690   11.0710 C   0  0  0  0  0
   10.8960  -51.5070   10.5710 O   0  0  0  0  0
   13.0180  -51.5460   11.2040 N   0  0  0  0  0
    8.1480  -49.5390   11.0030 N   0  0  0  0  0
    6.9500  -50.0530   11.6640 C   0  0  0  0  0
    6.9820  -51.5730   11.6780 C   0  0  0  0  0
    6.2050  -52.1600   12.4590 O   0  0  0  0  0
    5.7060  -49.5070   11.0210 C   0  0  0  0  0
    5.3570  -48.0840   11.4670 C   0  0  0  0  0
    4.9950  -47.9960   13.2760 S   0  0  0  0  0
    3.3860  -48.7230   13.2210 C   0  0  0  0  0
    7.8890  -52.2200   10.9260 N   0  0  0  0  0
    7.9840  -53.6860   11.1440 C   0  0  0  0  0
    8.5140  -53.9120   12.5840 C   0  0  0  0  0
    8.2980  -55.0170   13.1460 O   0  0  0  0  0
    9.0460  -54.2660   10.2580 C   0  0  0  0  0
    8.6030  -54.3200    8.7690 C   0  0  0  0  0
    7.3490  -54.1480    8.5490 O   0  0  0  0  0
    9.5130  -54.5500    7.9240 O   0  0  0  0  0
    9.4620  -52.1133   12.6143 H   0  0  0  0  0
    9.7352  -54.0843   14.8323 H   0  0  0  0  0
   11.1990  -51.4949   14.3240 H   0  0  0  0  0
   11.5204  -52.6382   15.6509 H   0  0  0  0  0
   11.7983  -53.1325   13.9629 H   0  0  0  0  0
    7.4062  -52.1756   14.1505 H   0  0  0  0  0
    6.0092  -50.6183   14.9302 H   0  0  0  0  0
    5.3635  -50.7112   17.3612 H   0  0  0  0  0
    6.6993  -51.9464   17.5751 H   0  0  0  0  0
    5.5249  -53.4198   15.9678 H   0  0  0  0  0
    5.1167  -53.6695   18.3738 H   0  0  0  0  0
    3.7903  -52.4851   18.2797 H   0  0  0  0  0
    3.6475  -54.0503   17.4425 H   0  0  0  0  0
    3.3043  -51.3360   16.0736 H   0  0  0  0  0
    4.3219  -51.7161   14.6625 H   0  0  0  0  0
    3.1899  -52.9350   15.2982 H   0  0  0  0  0
    8.5706  -49.5397   14.4506 H   0  0  0  0  0
    8.6563  -47.3597   16.5454 H   0  0  0  0  0
   10.8635  -46.8676   15.7636 H   0  0  0  0  0
   10.7302  -48.1656   14.5190 H   0  0  0  0  0
   12.0455  -48.9706   16.4010 H   0  0  0  0  0
   10.4297  -49.8149   16.3783 H   0  0  0  0  0
    9.6631  -48.4473   18.2262 H   0  0  0  0  0
   11.1519  -47.4801   18.1941 H   0  0  0  0  0
   12.5287  -49.4942   18.9144 H   0  0  0  0  0
   11.2150  -50.5608   18.7071 H   0  0  0  0  0
   11.3247  -49.7829   21.0193 H   0  0  0  0  0
   11.1943  -48.1955   20.5297 H   0  0  0  0  0
    9.9103  -49.2380   20.3270 H   0  0  0  0  0
    8.8923  -45.1368   15.5523 H   0  0  0  0  0
    6.9977  -44.8162   13.4071 H   0  0  0  0  0
    9.0489  -42.9343   14.6018 H   0  0  0  0  0
    7.0956  -41.9365   15.7911 H   0  0  0  0  0
    7.3490  -43.7133   16.2012 H   0  0  0  0  0
    8.4234  -42.0984   12.3859 H   0  0  0  0  0
    6.6959  -42.2516   12.7899 H   0  0  0  0  0
    7.7089  -41.0643   13.6473 H   0  0  0  0  0
    5.1468  -42.5768   14.3561 H   0  0  0  0  0
    5.3919  -44.2955   14.7527 H   0  0  0  0  0
    4.8918  -43.1512   16.0222 H   0  0  0  0  0
   10.4694  -45.1182   13.5432 H   0  0  0  0  0
   10.5942  -44.4279   10.7002 H   0  0  0  0  0
   12.3604  -43.4459   12.0367 H   0  0  0  0  0
   13.1044  -44.7387   10.9905 H   0  0  0  0  0
   14.6320  -44.2973   12.6626 H   0  0  0  0  0
    9.7369  -47.2035   12.2295 H   0  0  0  0  0
   10.3510  -48.9488    9.9575 H   0  0  0  0  0
   11.8579  -49.4212   12.5329 H   0  0  0  0  0
   12.5610  -48.9705   10.9310 H   0  0  0  0  0
   13.1590  -52.5001   10.8719 H   0  0  0  0  0
   13.7884  -51.0383   11.6390 H   0  0  0  0  0
    8.1083  -49.1538   10.0594 H   0  0  0  0  0
    6.9345  -49.7142   12.6999 H   0  0  0  0  0
    4.8777  -50.1527   11.3128 H   0  0  0  0  0
    5.8805  -49.4781    9.9455 H   0  0  0  0  0
    4.4665  -47.7654   10.9251 H   0  0  0  0  0
    6.2127  -47.4418   11.2588 H   0  0  0  0  0
    2.7366  -48.1177   12.5886 H   0  0  0  0  0
    3.4578  -49.7305   12.8113 H   0  0  0  0  0
    2.9743  -48.7678   14.2293 H   0  0  0  0  0
    8.4757  -51.7342   10.2476 H   0  0  0  0  0
    7.0091  -54.1356   10.9552 H   0  0  0  0  0
    9.2454  -55.2849   10.5898 H   0  0  0  0  0
    9.9291  -53.6307   10.3264 H   0  0  0  0  0
    6.8978  -53.9907    9.3816 H   0  0  0  0  0
  1  2  1  0  0  0
  1 57  1  0  0  0
  2  3  1  0  0  0
  2  5  1  0  0  0
  3  4  2  0  0  0
  3  6  1  0  0  0
  6  7  1  0  0  0
  7  8  1  0  0  0
  7 10  1  0  0  0
  8  9  2  0  0  0
  8 14  1  0  0  0
 10 11  1  0  0  0
 11 12  1  0  0  0
 11 13  1  0  0  0
 14 15  1  0  0  0
 15 16  1  0  0  0
 15 18  1  0  0  0
 16 17  2  0  0  0
 16 23  1  0  0  0
 18 19  1  0  0  0
 19 20  1  0  0  0
 20 21  1  0  0  0
 21 22  1  0  0  0
 23 24  1  0  0  0
 24 25  1  0  0  0
 24 27  1  0  0  0
 25 26  2  0  0  0
 25 31  1  0  0  0
 27 28  1  0  0  0
 27 29  1  0  0  0
 28 30  1  0  0  0
 31 32  1  0  0  0
 32 33  1  0  0  0
 32 35  1  0  0  0
 33 34  2  0  0  0
 33 39  1  0  0  0
 35 36  1  0  0  0
 36 37  2  0  0  0
 36 38  1  0  0  0
 39 40  1  0  0  0
 40 41  1  0  0  0
 40 43  1  0  0  0
 41 42  2  0  0  0
 41 47  1  0  0  0
 43 44  1  0  0  0
 44 45  2  0  0  0
 44 46  1  0  0  0
 47 48  1  0  0  0
 48 49  1  0  0  0
 48 51  1  0  0  0
 49 50  2  0  0  0
 49 55  1  0  0  0
 51 52  1  0  0  0
 52 53  1  0  0  0
 53 54  1  0  0  0
 55 56  1  0  0  0
 56 57  1  0  0  0
 56 59  1  0  0  0
 57 58  2  0  0  0
 59 60  1  0  0  0
 60 61  1  0  0  0
 60 62  2  0  0  0
  1 63  1  0  0  0
  2 64  1  0  0  0
  5 65  1  0  0  0
  5 66  1  0  0  0
  5 67  1  0  0  0
  6 68  1  0  0  0
  7 69  1  0  0  0
 10 70  1  0  0  0
 10 71  1  0  0  0
 11 72  1  0  0  0
 12 73  1  0  0  0
 12 74  1  0  0  0
 12 75  1  0  0  0
 13 76  1  0  0  0
 13 77  1  0  0  0
 13 78  1  0  0  0
 14 79  1  0  0  0
 15 80  1  0  0  0
 18 81  1  0  0  0
 18 82  1  0  0  0
 19 83  1  0  0  0
 19 84  1  0  0  0
 20 85  1  0  0  0
 20 86  1  0  0  0
 21 87  1  0  0  0
 21 88  1  0  0  0
 22 89  1  0  0  0
 22 90  1  0  0  0
 22 91  1  0  0  0
 23 92  1  0  0  0
 24 93  1  0  0  0
 27 94  1  0  0  0
 28 95  1  0  0  0
 28 96  1  0  0  0
 29 97  1  0  0  0
 29 98  1  0  0  0
 29 99  1  0  0  0
 30100  1  0  0  0
 30101  1  0  0  0
 30102  1  0  0  0
 31103  1  0  0  0
 32104  1  0  0  0
 35105  1  0  0  0
 35106  1  0  0  0
 38107  1  0  0  0
 39108  1  0  0  0
 40109  1  0  0  0
 43110  1  0  0  0
 43111  1  0  0  0
 46112  1  0  0  0
 46113  1  0  0  0
 47114  1  0  0  0
 48115  1  0  0  0
 51116  1  0  0  0
 51117  1  0  0  0
 52118  1  0  0  0
 52119  1  0  0  0
 54120  1  0  0  0
 54121  1  0  0  0
 54122  1  0  0  0
 55123  1  0  0  0
 56124  1  0  0  0
 59125  1  0  0  0
 59126  1  0  0  0
 61127  1  0  0  0
M  END
$$$$
