5lu2_ligand
  -I-interpret- 

133134  0  0  0  0  0  0  0  0999 V2000
   16.4680   15.1830   11.8460 N   0  3  0  0  0
   17.5450   15.3570   12.8140 C   0  0  0  0  0
   18.6460   16.2940   12.2840 C   0  0  0  0  0
   19.1370   16.1400   11.1640 O   0  0  0  0  0
   18.1130   13.9940   13.2840 C   0  0  0  0  0
   19.1680   14.0530   14.4130 C   0  0  0  0  0
   18.5970   14.3510   15.7980 C   0  0  0  0  0
   19.6590   14.4350   16.8110 N   0  0  0  0  0
   19.4830   14.8360   18.0690 C   0  0  0  0  0
   18.2810   15.2030   18.4960 N   0  0  0  0  0
   20.5110   14.8780   18.9070 N   0  0  0  0  0
   19.0130   17.2690   13.1200 N   0  0  0  0  0
   19.9930   18.3190   12.8670 C   0  0  0  0  0
   21.4330   17.7730   12.8770 C   0  0  0  0  0
   21.6930   16.6670   13.3450 O   0  0  0  0  0
   19.7440   19.5140   13.8530 C   0  0  0  0  0
   20.8600   20.0760   14.7220 C   0  0  0  0  0
   20.9990   19.3940   16.0730 C   0  0  0  0  0
   21.9840   18.3150   16.0120 N   0  0  0  0  0
   22.7100   17.8890   17.0360 C   0  0  0  0  0
   22.5780   18.4480   18.2320 N   0  0  0  0  0
   23.5740   16.9000   16.8750 N   0  0  0  0  0
   22.3490   18.5540   12.3250 N   0  0  0  0  0
   23.7540   18.2070   12.2620 C   0  0  0  0  0
   24.5850   19.2010   13.0620 C   0  0  0  0  0
   24.2740   20.3880   13.1360 O   0  0  0  0  0
   24.2130   18.2010   10.8170 C   0  0  0  0  0
   25.6280   18.6990   13.6800 N   0  0  0  0  0
   26.6030   19.5190   14.3840 C   0  0  0  0  0
   26.5520   19.4090   15.9120 C   0  0  0  0  0
   27.0040   18.1250   16.2830 O   0  0  0  0  0
   27.9270   19.2510   13.6640 C   0  0  0  0  0
   27.9930   18.3110   12.8540 O   0  0  0  0  0
   26.9240   17.7980   17.7770 P   0  0  0  0  0
   26.9000   16.3090   17.9090 O   0  0  0  0  0
   28.2460   18.2600   18.3570 O   0  0  0  0  0
   25.6510   18.2590   18.5100 O   0  0  0  0  0
   28.9480   20.1030   13.8970 N   0  0  0  0  0
   30.2980   19.9850   13.2910 C   0  0  0  0  0
   30.8360   18.5300   13.2850 C   0  0  0  0  0
   30.7360   17.8310   14.3050 O   0  0  0  0  0
   31.2690   20.9050   14.0010 C   0  0  0  0  0
   31.3510   18.0350   12.1350 N   0  0  0  0  0
   31.8440   16.6550   12.0950 C   0  0  0  0  0
   33.1970   16.4560   12.7880 C   0  0  0  0  0
   33.8120   17.4170   13.2550 O   0  0  0  0  0
   31.9130   16.3670   10.5970 C   0  0  0  0  0
   32.2580   17.6870    9.9970 C   0  0  0  0  0
   31.5520   18.7120   10.8360 C   0  0  0  0  0
   33.6630   15.1990   12.8550 N   0  0  0  0  0
   34.9490   14.8750   13.4600 C   0  0  0  0  0
   36.1200   15.3330   12.5730 C   0  0  0  0  0
   36.0950   15.0800   11.3590 O   0  0  0  0  0
   35.0420   13.3570   13.7320 C   0  0  0  0  0
   35.0230   12.8460   15.1770 C   0  0  0  0  0
   35.0240   13.9610   16.1890 C   0  0  0  0  0
   33.8980   11.9150   15.3950 C   0  0  0  0  0
   37.1720   15.9620   13.1710 N   0  0  0  0  0
   38.3400   16.3740   12.3610 C   0  0  0  0  0
   39.2030   15.2150   11.8360 C   0  0  0  0  0
   38.8770   14.0350   11.9970 O   0  0  0  0  0
   39.1350   17.2670   13.3150 C   0  0  0  0  0
   38.7600   16.8000   14.6940 C   0  0  0  0  0
   37.3410   16.3250   14.6000 C   0  0  0  0  0
   40.2610   15.4130   11.2300 O   0  0  0  0  0
   16.1190   16.0976   11.5594 H   0  0  0  0  0
   16.8225   14.6824   11.0311 H   0  0  0  0  0
   15.7119   14.6478   12.2729 H   0  0  0  0  0
   17.1178   15.8430   13.6912 H   0  0  0  0  0
   18.6131   13.5562   12.4201 H   0  0  0  0  0
   17.2688   13.4314   13.6827 H   0  0  0  0  0
   19.8522   14.8655   14.1683 H   0  0  0  0  0
   19.6349   13.0695   14.4652 H   0  0  0  0  0
   17.9196   13.5428   16.0737 H   0  0  0  0  0
   18.0795   15.3096   15.7595 H   0  0  0  0  0
   20.6017   14.1659   16.5293 H   0  0  0  0  0
   18.1548   15.5132   19.4594 H   0  0  0  0  0
   17.4835   15.1748   17.8607 H   0  0  0  0  0
   21.4401   14.6026   18.5886 H   0  0  0  0  0
   18.5591   17.2804   14.0334 H   0  0  0  0  0
   19.8627   18.7097   11.8578 H   0  0  0  0  0
   19.0314   19.1121   14.5733 H   0  0  0  0  0
   19.4844   20.3435   13.1953 H   0  0  0  0  0
   20.6238   21.1229   14.9124 H   0  0  0  0  0
   21.7957   19.9207   14.1850 H   0  0  0  0  0
   20.0339   18.9729   16.3548 H   0  0  0  0  0
   21.3296   20.1302   16.8057 H   0  0  0  0  0
   22.1231   17.8548   15.1124 H   0  0  0  0  0
   23.1395   18.1146   19.0156 H   0  0  0  0  0
   21.9150   19.2112   18.3679 H   0  0  0  0  0
   23.6834   16.4622   15.9602 H   0  0  0  0  0
   22.0506   19.4434   11.9246 H   0  0  0  0  0
   23.8897   17.2143   12.6913 H   0  0  0  0  0
   23.6331   17.4682   10.2560 H   0  0  0  0  0
   24.0644   19.1910   10.3858 H   0  0  0  0  0
   25.2703   17.9395   10.7740 H   0  0  0  0  0
   25.7616   17.6879   13.6664 H   0  0  0  0  0
   26.3898   20.5865   14.3276 H   0  0  0  0  0
   25.5309   19.5599   16.2623 H   0  0  0  0  0
   27.1876   20.1718   16.3617 H   0  0  0  0  0
   28.3055   19.2160   18.2931 H   0  0  0  0  0
   25.5898   19.2163   18.4714 H   0  0  0  0  0
   28.7801   20.8820   14.5337 H   0  0  0  0  0
   30.2041   20.2849   12.2473 H   0  0  0  0  0
   30.9241   21.9350   13.9102 H   0  0  0  0  0
   31.3237   20.6303   15.0544 H   0  0  0  0  0
   32.2556   20.8095   13.5476 H   0  0  0  0  0
   31.1960   15.9724   12.6447 H   0  0  0  0  0
   30.9771   15.9660   10.2078 H   0  0  0  0  0
   32.6458   15.5971   10.3556 H   0  0  0  0  0
   31.9455   17.7434    8.9543 H   0  0  0  0  0
   33.3355   17.8516    9.9917 H   0  0  0  0  0
   32.1276   19.6323   10.9347 H   0  0  0  0  0
   30.6119   19.0351   10.3889 H   0  0  0  0  0
   33.0970   14.4435   12.4687 H   0  0  0  0  0
   35.0198   15.4117   14.4060 H   0  0  0  0  0
   36.0204   13.0670   13.3491 H   0  0  0  0  0
   34.1427   12.9394   13.2793 H   0  0  0  0  0
   35.9518   12.2962   15.3295 H   0  0  0  0  0
   35.9216   14.5659   16.0604 H   0  0  0  0  0
   34.1410   14.5832   16.0431 H   0  0  0  0  0
   35.0101   13.5382   17.1936 H   0  0  0  0  0
   32.9583   12.4291   15.1933 H   0  0  0  0  0
   33.9985   11.0622   14.7236 H   0  0  0  0  0
   33.9097   11.5687   16.4285 H   0  0  0  0  0
   38.0178   16.8692   11.4450 H   0  0  0  0  0
   38.9003   18.3214   13.1692 H   0  0  0  0  0
   40.2081   17.1875   13.1408 H   0  0  0  0  0
   38.8588   17.6044   15.4229 H   0  0  0  0  0
   39.4209   16.0024   15.0332 H   0  0  0  0  0
   37.1444   15.4833   15.2640 H   0  0  0  0  0
   36.6302   17.0880   14.9172 H   0  0  0  0  0
   40.4173   16.3577   11.1615 H   0  0  0  0  0
  1  2  1  0  0  0
  2  3  1  0  0  0
  2  5  1  0  0  0
  3  4  2  0  0  0
  3 12  1  0  0  0
  5  6  1  0  0  0
  6  7  1  0  0  0
  7  8  1  0  0  0
  8  9  1  0  0  0
  9 10  1  0  0  0
  9 11  2  0  0  0
 12 13  1  0  0  0
 13 14  1  0  0  0
 13 16  1  0  0  0
 14 15  2  0  0  0
 14 23  1  0  0  0
 16 17  1  0  0  0
 17 18  1  0  0  0
 18 19  1  0  0  0
 19 20  1  0  0  0
 20 21  1  0  0  0
 20 22  2  0  0  0
 23 24  1  0  0  0
 24 25  1  0  0  0
 24 27  1  0  0  0
 25 26  2  0  0  0
 25 28  1  0  0  0
 28 29  1  0  0  0
 29 30  1  0  0  0
 29 32  1  0  0  0
 30 31  1  0  0  0
 31 34  1  0  0  0
 32 33  2  0  0  0
 32 38  1  0  0  0
 34 35  2  0  0  0
 34 36  1  0  0  0
 34 37  1  0  0  0
 38 39  1  0  0  0
 39 40  1  0  0  0
 39 42  1  0  0  0
 40 41  2  0  0  0
 40 43  1  0  0  0
 43 44  1  0  0  0
 43 49  1  0  0  0
 44 45  1  0  0  0
 44 47  1  0  0  0
 45 46  2  0  0  0
 45 50  1  0  0  0
 47 48  1  0  0  0
 48 49  1  0  0  0
 50 51  1  0  0  0
 51 52  1  0  0  0
 51 54  1  0  0  0
 52 53  2  0  0  0
 52 58  1  0  0  0
 54 55  1  0  0  0
 55 56  1  0  0  0
 55 57  1  0  0  0
 58 59  1  0  0  0
 58 64  1  0  0  0
 59 60  1  0  0  0
 59 62  1  0  0  0
 60 61  2  0  0  0
 60 65  1  0  0  0
 62 63  1  0  0  0
 63 64  1  0  0  0
  1 66  1  0  0  0
  1 67  1  0  0  0
  1 68  1  0  0  0
  2 69  1  0  0  0
  5 70  1  0  0  0
  5 71  1  0  0  0
  6 72  1  0  0  0
  6 73  1  0  0  0
  7 74  1  0  0  0
  7 75  1  0  0  0
  8 76  1  0  0  0
 10 77  1  0  0  0
 10 78  1  0  0  0
 11 79  1  0  0  0
 12 80  1  0  0  0
 13 81  1  0  0  0
 16 82  1  0  0  0
 16 83  1  0  0  0
 17 84  1  0  0  0
 17 85  1  0  0  0
 18 86  1  0  0  0
 18 87  1  0  0  0
 19 88  1  0  0  0
 21 89  1  0  0  0
 21 90  1  0  0  0
 22 91  1  0  0  0
 23 92  1  0  0  0
 24 93  1  0  0  0
 27 94  1  0  0  0
 27 95  1  0  0  0
 27 96  1  0  0  0
 28 97  1  0  0  0
 29 98  1  0  0  0
 30 99  1  0  0  0
 30100  1  0  0  0
 36101  1  0  0  0
 37102  1  0  0  0
 38103  1  0  0  0
 39104  1  0  0  0
 42105  1  0  0  0
 42106  1  0  0  0
 42107  1  0  0  0
 44108  1  0  0  0
 47109  1  0  0  0
 47110  1  0  0  0
 48111  1  0  0  0
 48112  1  0  0  0
 49113  1  0  0  0
 49114  1  0  0  0
 50115  1  0  0  0
 51116  1  0  0  0
 54117  1  0  0  0
 54118  1  0  0  0
 55119  1  0  0  0
 56120  1  0  0  0
 56121  1  0  0  0
 56122  1  0  0  0
 57123  1  0  0  0
 57124  1  0  0  0
 57125  1  0  0  0
 59126  1  0  0  0
 62127  1  0  0  0
 62128  1  0  0  0
 63129  1  0  0  0
 63130  1  0  0  0
 64131  1  0  0  0
 64132  1  0  0  0
 65133  1  0  0  0
M  END
$$$$
