### 
### Created by X-TOOL on Mon Sep 10 21:13:33 2018
### 

@<TRIPOS>MOLECULE
5lu2_ligand
  132   133     1     0     0
SMALL
GAST_HUCK


@<TRIPOS>ATOM
      1 N          16.4680   15.1830   11.8460 N.4       1 ARG         0.2379
      2 CA         17.5450   15.3570   12.8140 C.3       1 ARG         0.0651
      3 C          18.6460   16.2940   12.2840 C.2       1 ARG         0.2267
      4 O          19.1370   16.1400   11.1640 O.2       1 ARG        -0.3907
      5 CB         18.1130   13.9940   13.2840 C.3       1 ARG         0.0110
      6 CG         19.1680   14.0530   14.4130 C.3       1 ARG        -0.0125
      7 CD         18.5970   14.3510   15.7980 C.3       1 ARG         0.0629
      8 NE         19.6590   14.4350   16.8110 N.pl3     1 ARG        -0.2723
      9 CZ         19.4830   14.8360   18.0690 C.cat     1 ARG         0.2882
     10 NH1        18.2810   15.2030   18.4960 N.pl3     1 ARG        -0.2849
     11 NH2        20.5110   14.8780   18.9070 N.pl3     1 ARG        -0.2849
     12 N          19.0130   17.2690   13.1200 N.am      1 ARG        -0.2610
     13 CA         19.9930   18.3190   12.8670 C.3       1 ARG         0.1312
     14 C          21.4330   17.7730   12.8770 C.2       1 ARG         0.2039
     15 O          21.6930   16.6670   13.3450 O.2       1 ARG        -0.3944
     16 CB         19.7440   19.5140   13.8530 C.3       1 ARG        -0.0092
     17 CG         20.8600   20.0760   14.7220 C.3       1 ARG        -0.0156
     18 CD         20.9990   19.3940   16.0730 C.3       1 ARG         0.0627
     19 NE         21.9840   18.3150   16.0120 N.pl3     1 ARG        -0.2723
     20 CZ         22.7100   17.8890   17.0360 C.cat     1 ARG         0.2882
     21 NH1        22.5780   18.4480   18.2320 N.pl3     1 ARG        -0.2849
     22 NH2        23.5740   16.9000   16.8750 N.pl3     1 ARG        -0.2849
     23 N          22.3490   18.5540   12.3250 N.am      1 ALA        -0.2640
     24 CA         23.7540   18.2070   12.2620 C.3       1 ALA         0.1282
     25 C          24.5850   19.2010   13.0620 C.2       1 ALA         0.2037
     26 O          24.2740   20.3880   13.1360 O.2       1 ALA        -0.3944
     27 CB         24.2130   18.2010   10.8170 C.3       1 ALA        -0.0244
     28 N          25.6280   18.6990   13.6800 N.am      1 SEP        -0.2613
     29 CA         26.6030   19.5190   14.3840 C.3       1 SEP         0.1586
     30 CB         26.5520   19.4090   15.9120 C.3       1 SEP         0.1184
     31 OG         27.0040   18.1250   16.2830 O.3       1 SEP        -0.2714
     32 C          27.9270   19.2510   13.6640 C.2       1 SEP         0.2065
     33 O          27.9930   18.3110   12.8540 O.2       1 SEP        -0.3943
     34 P          26.9240   17.7980   17.7770 P.3       1 SEP         0.2010
     35 O1P        26.9000   16.3090   17.9090 O.co2     1 SEP        -0.5537
     36 O2P        28.2460   18.2600   18.3570 O.co2     1 SEP        -0.5537
     37 O3P        25.6510   18.2590   18.5100 O.co2     1 SEP        -0.5537
     38 N          28.9480   20.1030   13.8970 N.am      1 ALA        -0.2639
     39 CA         30.2980   19.9850   13.2910 C.3       1 ALA         0.1284
     40 C          30.8360   18.5300   13.2850 C.2       1 ALA         0.2061
     41 O          30.7360   17.8310   14.3050 O.2       1 ALA        -0.3942
     42 CB         31.2690   20.9050   14.0010 C.3       1 ALA        -0.0244
     43 N          31.3510   18.0350   12.1350 N.am      1 PRO        -0.2498
     44 CA         31.8440   16.6550   12.0950 C.3       1 PRO         0.1338
     45 C          33.1970   16.4560   12.7880 C.2       1 PRO         0.2041
     46 O          33.8120   17.4170   13.2550 O.2       1 PRO        -0.3944
     47 CB         31.9130   16.3670   10.5970 C.3       1 PRO        -0.0104
     48 CG         32.2580   17.6870    9.9970 C.3       1 PRO        -0.0281
     49 CD         31.5520   18.7120   10.8360 C.3       1 PRO         0.0369
     50 N          33.6630   15.1990   12.8550 N.am      1 LEU        -0.2637
     51 CA         34.9490   14.8750   13.4600 C.3       1 LEU         0.1314
     52 C          36.1200   15.3330   12.5730 C.2       1 LEU         0.2058
     53 O          36.0950   15.0800   11.3590 O.2       1 LEU        -0.3942
     54 CB         35.0420   13.3570   13.7320 C.3       1 LEU        -0.0101
     55 CG         35.0230   12.8460   15.1770 C.3       1 LEU        -0.0425
     56 CD1        35.0240   13.9610   16.1890 C.3       1 LEU        -0.0625
     57 CD2        33.8980   11.9150   15.3950 C.3       1 LEU        -0.0625
     58 N          37.1720   15.9620   13.1710 N.am      1 PRO        -0.2556
     59 CA         38.3400   16.3740   12.3610 C.3       1 PRO         0.0972
     60 C          39.2030   15.2150   11.8360 C.2       1 PRO         0.0603
     61 O          38.8770   14.0350   11.9970 O.co2     1 PRO        -0.5666
     62 CB         39.1350   17.2670   13.3150 C.3       1 PRO        -0.0159
     63 CG         38.7600   16.8000   14.6940 C.3       1 PRO        -0.0288
     64 CD         37.3410   16.3250   14.6000 C.3       1 PRO         0.0362
     65 OXT        40.2610   15.4130   11.2300 O.co2     1 PRO        -0.5666
     66 H1         15.7692   14.5653   12.2283 H         1 ARG         0.2015
     67 H2         16.8397   14.7855   10.9976 H         1 ARG         0.2015
     68 H3         16.0507   16.0778   11.6432 H         1 ARG         0.2015
     69 H4         17.1081   15.8446   13.6979 H         1 ARG         0.1098
     70 H5         18.5771   13.5049   12.4149 H         1 ARG         0.0347
     71 H6         17.2708   13.3836   13.6419 H         1 ARG         0.0347
     72 H7         19.8942   14.8408   14.1640 H         1 ARG         0.0302
     73 H8         19.6813   13.0810   14.4548 H         1 ARG         0.0302
     74 H9         17.8991   13.5480   16.0774 H         1 ARG         0.0689
     75 H10        18.0585   15.3096   15.7642 H         1 ARG         0.0689
     76 H11        20.6109   14.1633   16.5266 H         1 ARG         0.2642
     77 H12        18.1527   15.5119   19.4702 H         1 ARG         0.2615
     78 H13        17.4766   15.1789   17.8532 H         1 ARG         0.2615
     79 H14        21.4483   14.5956   18.5868 H         1 ARG         0.2615
     80 H15        20.3716   15.1930   19.8777 H         1 ARG         0.2615
     81 H16        18.5680   17.2802   14.0155 H         1 ARG         0.1884
     82 H17        19.8121   18.7002   11.8511 H         1 ARG         0.0800
     83 H18        18.9499   19.1880   14.5408 H         1 ARG         0.0313
     84 H19        19.3775   20.3505   13.2399 H         1 ARG         0.0313
     85 H20        20.6596   21.1439   14.8934 H         1 ARG         0.0301
     86 H21        21.8101   19.9637   14.1792 H         1 ARG         0.0301
     87 H22        20.0250   18.9766   16.3680 H         1 ARG         0.0689
     88 H23        21.3217   20.1348   16.8193 H         1 ARG         0.0689
     89 H24        22.1245   17.8503   15.1036 H         1 ARG         0.2642
     90 H25        23.1455   18.1118   19.0231 H         1 ARG         0.2615
     91 H26        21.9080   19.2182   18.3694 H         1 ARG         0.2615
     92 H27        23.6850   16.4584   15.9511 H         1 ARG         0.2615
     93 H28        24.1356   16.5717   17.6736 H         1 ARG         0.2615
     94 H29        22.0565   19.4260   11.9324 H         1 ALA         0.1883
     95 H30        23.8930   17.2022   12.6876 H         1 ALA         0.0797
     96 H31        25.2800   17.9372   10.7723 H         1 ALA         0.0277
     97 H32        24.0636   19.1996   10.3806 H         1 ALA         0.0277
     98 H33        23.6285   17.4617   10.2497 H         1 ALA         0.0277
     99 H34        25.7590   17.7077   13.6667 H         1 SEP         0.1884
    100 H35        26.3495   20.5695   14.1788 H         1 SEP         0.0827
    101 H36        25.5187   19.5537   16.2603 H         1 SEP         0.0662
    102 H37        27.2011   20.1751   16.3612 H         1 SEP         0.0662
    103 H38        28.7834   20.8667   14.5212 H         1 ALA         0.1883
    104 H39        30.2212   20.3130   12.2439 H         1 ALA         0.0797
    105 H40        32.2652   20.8096   13.5443 H         1 ALA         0.0277
    106 H41        31.3252   20.6288   15.0643 H         1 ALA         0.0277
    107 H42        30.9221   21.9449   13.9101 H         1 ALA         0.0277
    108 H43        31.1157   15.9856   12.5760 H         1 PRO         0.0802
    109 H44        30.9434   16.0075   10.2219 H         1 PRO         0.0313
    110 H45        32.6909   15.6211   10.3767 H         1 PRO         0.0313
    111 H46        31.9087   17.7377    8.9552 H         1 PRO         0.0287
    112 H47        33.3455   17.8496   10.0275 H         1 PRO         0.0287
    113 H48        32.1718   19.6127   10.9564 H         1 PRO         0.0524
    114 H49        30.5872   18.9883   10.3858 H         1 PRO         0.0524
    115 H50        33.1081   14.4583   12.4763 H         1 LEU         0.1883
    116 H51        35.0196   15.4051   14.4213 H         1 LEU         0.0800
    117 H52        35.9832   13.0085   13.2819 H         1 LEU         0.0315
    118 H53        34.1923   12.8868   13.2154 H         1 LEU         0.0315
    119 H54        35.9515   12.2760   15.3287 H         1 LEU         0.0298
    120 H55        35.0100   13.5355   17.2033 H         1 LEU         0.0232
    121 H56        34.1333   14.5897   16.0428 H         1 LEU         0.0232
    122 H57        35.9294   14.5722   16.0603 H         1 LEU         0.0232
    123 H58        33.9308   11.1168   14.6388 H         1 LEU         0.0232
    124 H59        32.9475   12.4620   15.3096 H         1 LEU         0.0232
    125 H60        33.9775   11.4725   16.3989 H         1 LEU         0.0232
    126 H61        37.9956   16.9577   11.4946 H         1 PRO         0.0728
    127 H62        38.8583   18.3226   13.1764 H         1 PRO         0.0306
    128 H63        40.2153   17.1460   13.1470 H         1 PRO         0.0306
    129 H64        38.8382   17.6293   15.4124 H         1 PRO         0.0286
    130 H65        39.4179   15.9772   15.0106 H         1 PRO         0.0286
    131 H66        37.1790   15.4499   15.2465 H         1 PRO         0.0524
    132 H67        36.6422   17.1254   14.8844 H         1 PRO         0.0524
@<TRIPOS>BOND
     1    1    2 1  
     2    2    3 1  
     3    2    5 1  
     4    3    4 2  
     5    3   12 am 
     6    5    6 1  
     7    6    7 1  
     8    7    8 1  
     9    8    9 ar 
    10    9   10 ar 
    11    9   11 ar 
    12   12   13 1  
    13   13   14 1  
    14   13   16 1  
    15   14   15 2  
    16   14   23 am 
    17   16   17 1  
    18   17   18 1  
    19   18   19 1  
    20   19   20 ar 
    21   20   21 ar 
    22   20   22 ar 
    23   23   24 1  
    24   24   25 1  
    25   24   27 1  
    26   25   26 2  
    27   25   28 am 
    28   28   29 1  
    29   29   30 1  
    30   29   32 1  
    31   30   31 1  
    32   31   34 1  
    33   32   33 2  
    34   32   38 am 
    35   34   35 ar 
    36   34   36 ar 
    37   34   37 ar 
    38   38   39 1  
    39   39   40 1  
    40   39   42 1  
    41   40   41 2  
    42   40   43 am 
    43   43   44 1  
    44   43   49 1  
    45   44   45 1  
    46   44   47 1  
    47   45   46 2  
    48   45   50 am 
    49   47   48 1  
    50   48   49 1  
    51   50   51 1  
    52   51   52 1  
    53   51   54 1  
    54   52   53 2  
    55   52   58 am 
    56   54   55 1  
    57   55   56 1  
    58   55   57 1  
    59   58   59 1  
    60   58   64 1  
    61   59   60 1  
    62   59   62 1  
    63   60   61 ar 
    64   60   65 ar 
    65   62   63 1  
    66   63   64 1  
    67    1   66 1  
    68    1   67 1  
    69    1   68 1  
    70    2   69 1  
    71    5   70 1  
    72    5   71 1  
    73    6   72 1  
    74    6   73 1  
    75    7   74 1  
    76    7   75 1  
    77    8   76 1  
    78   10   77 1  
    79   10   78 1  
    80   11   79 1  
    81   11   80 1  
    82   12   81 1  
    83   13   82 1  
    84   16   83 1  
    85   16   84 1  
    86   17   85 1  
    87   17   86 1  
    88   18   87 1  
    89   18   88 1  
    90   19   89 1  
    91   21   90 1  
    92   21   91 1  
    93   22   92 1  
    94   22   93 1  
    95   23   94 1  
    96   24   95 1  
    97   27   96 1  
    98   27   97 1  
    99   27   98 1  
   100   28   99 1  
   101   29  100 1  
   102   30  101 1  
   103   30  102 1  
   104   38  103 1  
   105   39  104 1  
   106   42  105 1  
   107   42  106 1  
   108   42  107 1  
   109   44  108 1  
   110   47  109 1  
   111   47  110 1  
   112   48  111 1  
   113   48  112 1  
   114   49  113 1  
   115   49  114 1  
   116   50  115 1  
   117   51  116 1  
   118   54  117 1  
   119   54  118 1  
   120   55  119 1  
   121   56  120 1  
   122   56  121 1  
   123   56  122 1  
   124   57  123 1  
   125   57  124 1  
   126   57  125 1  
   127   59  126 1  
   128   62  127 1  
   129   62  128 1  
   130   63  129 1  
   131   63  130 1  
   132   64  131 1  
   133   64  132 1  
@<TRIPOS>SUBSTRUCTURE
     1 ARG         1

