5aes_ligand
  -I-interpret- 

 30 30  0  0  0  0  0  0  0  0999 V2000
   24.9660  -60.4920   53.7780 O   0  0  0  0  0
   24.1780  -60.2760   52.4560 P   0  0  0  0  0
   25.0070  -59.3880   51.4870 O   0  0  0  0  0
   23.9130  -61.6090   51.8230 O   0  0  0  0  0
   22.6300  -59.4270   52.8670 C   0  0  0  0  0
   21.8000  -58.8220   51.7930 C   0  0  0  0  0
   20.6290  -58.0410   52.2920 C   0  0  0  0  0
   20.6000  -56.6580   52.1380 C   0  0  0  0  0
   19.5580  -55.9540   52.5960 N   0  0  0  0  0
   18.5390  -56.5700   53.2070 C   0  0  0  0  0
   17.3910  -55.7650   53.7060 C   0  0  0  0  0
   18.5080  -57.9340   53.3910 C   0  0  0  0  0
   17.4350  -58.5110   54.0280 O   0  0  0  0  0
   19.5780  -58.7010   52.9270 C   0  0  0  0  0
   19.6070  -60.1860   53.1080 C   0  0  0  0  0
   18.4060  -60.8440   53.2920 O   0  0  0  0  0
   25.1390  -59.6417   54.1886 H   0  0  0  0  0
   25.1731  -58.5365   51.8981 H   0  0  0  0  0
   22.9403  -58.5798   53.4786 H   0  0  0  0  0
   21.9977  -60.2074   53.2903 H   0  0  0  0  0
   21.4075  -59.6406   51.1898 H   0  0  0  0  0
   22.4384  -58.1296   51.2442 H   0  0  0  0  0
   21.4268  -56.1478   51.6439 H   0  0  0  0  0
   17.7476  -55.0416   54.4392 H   0  0  0  0  0
   16.9272  -55.2396   52.8712 H   0  0  0  0  0
   16.6604  -56.4263   54.1718 H   0  0  0  0  0
   17.5656  -59.4609   54.0758 H   0  0  0  0  0
   20.1703  -60.3531   54.0261 H   0  0  0  0  0
   20.0122  -60.5816   52.1767 H   0  0  0  0  0
   18.5700  -61.7844   53.3942 H   0  0  0  0  0
  1  2  1  0  0  0
  2  3  1  0  0  0
  2  4  2  0  0  0
  2  5  1  0  0  0
  5  6  1  0  0  0
  6  7  1  0  0  0
  7  8  4  0  0  0
  7 14  4  0  0  0
  8  9  4  0  0  0
  9 10  4  0  0  0
 10 11  1  0  0  0
 10 12  4  0  0  0
 12 13  1  0  0  0
 12 14  4  0  0  0
 14 15  1  0  0  0
 15 16  1  0  0  0
  1 17  1  0  0  0
  3 18  1  0  0  0
  5 19  1  0  0  0
  5 20  1  0  0  0
  6 21  1  0  0  0
  6 22  1  0  0  0
  8 23  1  0  0  0
 11 24  1  0  0  0
 11 25  1  0  0  0
 11 26  1  0  0  0
 13 27  1  0  0  0
 15 28  1  0  0  0
 15 29  1  0  0  0
 16 30  1  0  0  0
M  END
$$$$
