### 
### Created by X-TOOL on Mon Sep 10 21:13:24 2018
### 

@<TRIPOS>MOLECULE
5aes_ligand
   28    28     1     0     0
SMALL
GAST_HUCK


@<TRIPOS>ATOM
      1 OAE        24.9660  -60.4920   53.7780 O.co2     1 5B0        -0.5621
      2 PAP        24.1780  -60.2760   52.4560 P.3       1 5B0         0.0597
      3 OAF        25.0070  -59.3880   51.4870 O.co2     1 5B0        -0.5621
      4 OAC        23.9130  -61.6090   51.8230 O.co2     1 5B0        -0.5621
      5 CAJ        22.6300  -59.4270   52.8670 C.3       1 5B0         0.0281
      6 CAI        21.8000  -58.8220   51.7930 C.3       1 5B0        -0.0062
      7 CAN        20.6290  -58.0410   52.2920 C.ar      1 5B0        -0.0260
      8 CAH        20.6000  -56.6580   52.1380 C.ar      1 5B0        -0.0155
      9 NAK        19.5580  -55.9540   52.5960 N.ar      1 5B0        -0.3257
     10 CAL        18.5390  -56.5700   53.2070 C.ar      1 5B0         0.0389
     11 CAA        17.3910  -55.7650   53.7060 C.3       1 5B0        -0.0224
     12 CAM        18.5080  -57.9340   53.3910 C.ar      1 5B0         0.1138
     13 OAD        17.4350  -58.5110   54.0280 O.3       1 5B0        -0.3348
     14 CAO        19.5780  -58.7010   52.9270 C.ar      1 5B0         0.0262
     15 C1         19.6070  -60.1860   53.1080 C.3       1 5B0         0.0792
     16 O2         18.4060  -60.8440   53.2920 O.3       1 5B0        -0.3838
     17 H1         22.8895  -58.6146   53.5617 H         1 5B0         0.0472
     18 H2         21.9937  -60.1613   53.3827 H         1 5B0         0.0472
     19 H3         21.4258  -59.6313   51.1487 H         1 5B0         0.0425
     20 H4         22.4378  -58.1481   51.2022 H         1 5B0         0.0425
     21 H5         21.4223  -56.1506   51.6466 H         1 5B0         0.0620
     22 H6         16.6529  -56.4313   54.1764 H         1 5B0         0.0382
     23 H7         16.9219  -55.2343   52.8644 H         1 5B0         0.0382
     24 H8         17.7496  -55.0345   54.4461 H         1 5B0         0.0382
     25 H9         17.5643  -59.4509   54.0753 H         1 5B0         0.2454
     26 H10        20.2320  -60.3953   53.9886 H         1 5B0         0.0705
     27 H11        20.0801  -60.6148   52.2123 H         1 5B0         0.0705
     28 H12        17.9791  -60.5093   54.0718 H         1 5B0         0.2124
@<TRIPOS>BOND
     1    1    2 ar 
     2    2    3 ar 
     3    2    4 ar 
     4    2    5 1  
     5    5    6 1  
     6    6    7 1  
     7    7    8 ar 
     8    7   14 ar 
     9    8    9 ar 
    10    9   10 ar 
    11   10   11 1  
    12   10   12 ar 
    13   12   13 1  
    14   12   14 ar 
    15   14   15 1  
    16   15   16 1  
    17    5   17 1  
    18    5   18 1  
    19    6   19 1  
    20    6   20 1  
    21    8   21 1  
    22   11   22 1  
    23   11   23 1  
    24   11   24 1  
    25   13   25 1  
    26   15   26 1  
    27   15   27 1  
    28   16   28 1  
@<TRIPOS>SUBSTRUCTURE
     1 5B0         1

