5hu9_ligand
  -I-interpret- 

 81 85  0  0  0  0  0  0  0  0999 V2000
   -9.5130  -22.4140  -12.3560 C   0  0  0  0  0
   -9.5020  -22.0520  -10.8820 C   0  0  0  0  0
  -10.5100  -21.0510  -10.6030 N   0  3  0  0  0
  -10.4890  -20.6870   -9.1870 C   0  0  0  0  0
  -11.8040  -21.4930  -11.0370 C   0  0  0  0  0
  -11.7990  -21.7950  -12.5000 C   0  0  0  0  0
  -10.7960  -22.7840  -12.8270 N   0  3  0  0  0
  -10.8850  -23.2120  -14.2260 C   0  0  0  0  0
  -10.0740  -24.2980  -14.5740 C   0  0  0  0  0
   -9.4030  -24.3610  -15.7840 C   0  0  0  0  0
   -9.5560  -23.2980  -16.7280 C   0  0  0  0  0
   -9.0010  -23.6630  -17.8780 F   0  0  0  0  0
   -8.9590  -22.2000  -16.2760 F   0  0  0  0  0
  -10.8490  -23.0530  -16.9170 F   0  0  0  0  0
   -8.5860  -25.4470  -16.0570 C   0  0  0  0  0
   -9.9070  -25.3590  -13.7020 C   0  0  0  0  0
   -9.0860  -26.4320  -14.0010 C   0  0  0  0  0
   -8.3960  -26.5280  -15.1850 C   0  0  0  0  0
   -7.5560  -27.6280  -15.4930 C   0  0  0  0  0
   -6.7040  -27.5270  -16.3220 O   0  0  0  0  0
   -7.6420  -28.7400  -14.7430 N   0  0  0  0  0
   -6.9550  -29.8590  -15.0270 C   0  0  0  0  0
   -5.7110  -29.9800  -15.6340 C   0  0  0  0  0
   -7.5860  -31.0480  -14.7400 C   0  0  0  0  0
   -6.9950  -32.2520  -15.0120 C   0  0  0  0  0
   -5.7740  -32.3520  -15.5820 C   0  0  0  0  0
   -5.2170  -33.5510  -15.8590 C   0  0  0  0  0
   -5.1120  -31.2090  -15.8940 C   0  0  0  0  0
   -3.9250  -31.4310  -16.4240 O   0  0  0  0  0
   -3.2460  -30.3720  -17.0680 C   0  0  0  0  0
   -3.8400  -30.0390  -18.3980 C   0  0  0  0  0
   -3.6400  -31.1250  -19.4260 C   0  0  0  0  0
   -1.8390  -30.6910  -17.2400 C   0  0  0  0  0
   -1.6210  -31.7570  -18.2770 C   0  0  0  0  0
   -2.2840  -31.5050  -19.5320 N   0  0  0  0  0
   -1.6810  -31.6380  -20.7230 C   0  0  0  0  0
   -2.2950  -31.4810  -21.7440 O   0  0  0  0  0
   -0.3120  -31.8670  -20.8330 C   0  0  0  0  0
    0.5930  -31.0860  -20.1630 C   0  0  0  0  0
    1.9320  -31.2180  -20.2350 C   0  0  0  0  0
    2.4680  -32.1620  -21.0420 C   0  0  0  0  0
    1.5810  -32.9290  -21.7570 N   0  0  0  0  0
    0.2360  -32.7850  -21.6750 C   0  0  0  0  0
   -8.8507  -23.2689  -12.4922 H   0  0  0  0  0
   -9.1955  -21.5342  -12.9157 H   0  0  0  0  0
   -8.5220  -21.6526  -10.6209 H   0  0  0  0  0
   -9.7152  -22.9451  -10.2946 H   0  0  0  0  0
  -10.2950  -20.2075  -11.1347 H   0  0  0  0  0
  -11.1976  -19.8777   -9.0107 H   0  0  0  0  0
  -10.7676  -21.5529   -8.5864 H   0  0  0  0  0
   -9.4862  -20.3600   -8.9121 H   0  0  0  0  0
  -12.5284  -20.7017  -10.8442 H   0  0  0  0  0
  -12.0664  -22.3998  -10.4921 H   0  0  0  0  0
  -11.5730  -20.8777  -13.0436 H   0  0  0  0  0
  -12.7774  -22.1872  -12.7774 H   0  0  0  0  0
  -10.9948  -23.6397  -12.3087 H   0  0  0  0  0
  -10.5526  -22.3687  -14.8313 H   0  0  0  0  0
  -11.9153  -23.5277  -14.3900 H   0  0  0  0  0
   -8.0577  -25.4613  -17.0103 H   0  0  0  0  0
  -10.4384  -25.3494  -12.7504 H   0  0  0  0  0
   -8.9827  -27.2324  -13.2684 H   0  0  0  0  0
   -8.2528  -28.7341  -13.9261 H   0  0  0  0  0
   -5.1805  -29.0716  -15.9193 H   0  0  0  0  0
   -8.5771  -31.0303  -14.2866 H   0  0  0  0  0
   -7.5307  -33.1669  -14.7587 H   0  0  0  0  0
   -5.1069  -34.1209  -14.9364 H   0  0  0  0  0
   -5.8585  -34.0971  -16.5506 H   0  0  0  0  0
   -4.2377  -33.3991  -16.3128 H   0  0  0  0  0
   -3.3516  -29.5003  -16.4221 H   0  0  0  0  0
   -3.3446  -29.1404  -18.7657 H   0  0  0  0  0
   -4.9132  -29.9101  -18.2578 H   0  0  0  0  0
   -3.9653  -30.7439  -20.3940 H   0  0  0  0  0
   -4.2168  -31.9974  -19.1189 H   0  0  0  0  0
   -1.4562  -31.0602  -16.2885 H   0  0  0  0  0
   -1.3243  -29.7881  -17.5685 H   0  0  0  0  0
   -2.0318  -32.6839  -17.8767 H   0  0  0  0  0
   -0.5508  -31.7937  -18.4804 H   0  0  0  0  0
    0.1992  -30.2970  -19.5223 H   0  0  0  0  0
    2.5794  -30.5680  -19.6464 H   0  0  0  0  0
    3.5456  -32.3062  -21.1206 H   0  0  0  0  0
   -0.4126  -33.4100  -22.2889 H   0  0  0  0  0
  1  2  1  0  0  0
  1  7  1  0  0  0
  2  3  1  0  0  0
  3  4  1  0  0  0
  3  5  1  0  0  0
  5  6  1  0  0  0
  6  7  1  0  0  0
  7  8  1  0  0  0
  8  9  1  0  0  0
  9 10  4  0  0  0
  9 16  4  0  0  0
 10 11  1  0  0  0
 10 15  4  0  0  0
 11 12  1  0  0  0
 11 13  1  0  0  0
 11 14  1  0  0  0
 15 18  4  0  0  0
 16 17  4  0  0  0
 17 18  4  0  0  0
 18 19  1  0  0  0
 19 20  2  0  0  0
 19 21  1  0  0  0
 21 22  1  0  0  0
 22 23  4  0  0  0
 22 24  4  0  0  0
 23 28  4  0  0  0
 24 25  4  0  0  0
 25 26  4  0  0  0
 26 27  1  0  0  0
 26 28  4  0  0  0
 28 29  1  0  0  0
 29 30  1  0  0  0
 30 31  1  0  0  0
 30 33  1  0  0  0
 31 32  1  0  0  0
 32 35  1  0  0  0
 33 34  1  0  0  0
 34 35  1  0  0  0
 35 36  1  0  0  0
 36 37  2  0  0  0
 36 38  1  0  0  0
 38 39  4  0  0  0
 38 43  4  0  0  0
 39 40  4  0  0  0
 40 41  4  0  0  0
 41 42  4  0  0  0
 42 43  4  0  0  0
  1 44  1  0  0  0
  1 45  1  0  0  0
  2 46  1  0  0  0
  2 47  1  0  0  0
  3 48  1  0  0  0
  4 49  1  0  0  0
  4 50  1  0  0  0
  4 51  1  0  0  0
  5 52  1  0  0  0
  5 53  1  0  0  0
  6 54  1  0  0  0
  6 55  1  0  0  0
  7 56  1  0  0  0
  8 57  1  0  0  0
  8 58  1  0  0  0
 15 59  1  0  0  0
 16 60  1  0  0  0
 17 61  1  0  0  0
 21 62  1  0  0  0
 23 63  1  0  0  0
 24 64  1  0  0  0
 25 65  1  0  0  0
 27 66  1  0  0  0
 27 67  1  0  0  0
 27 68  1  0  0  0
 30 69  1  0  0  0
 31 70  1  0  0  0
 31 71  1  0  0  0
 32 72  1  0  0  0
 32 73  1  0  0  0
 33 74  1  0  0  0
 33 75  1  0  0  0
 34 76  1  0  0  0
 34 77  1  0  0  0
 39 78  1  0  0  0
 40 79  1  0  0  0
 41 80  1  0  0  0
 43 81  1  0  0  0
M  END
$$$$
