2vew_ligand
  -I-interpret- 

 66 70  0  0  0  0  0  0  0  0999 V2000
   19.1370   16.6130   82.1960 C   0  0  0  0  0
   20.4410   17.1320   81.6550 C   0  0  0  0  0
   21.5630   16.3940   82.3110 C   0  0  0  0  0
   21.2310   15.1920   82.7950 N   0  0  0  0  0
   19.4830   14.8760   82.5060 S   0  0  0  0  0
   18.5160   14.3070   83.6830 O   0  0  0  0  0
   19.2770   14.0180   81.0720 O   0  0  0  0  0
   22.6950   16.8270   82.4460 O   0  0  0  0  0
   17.9060   16.8140   81.3310 C   0  0  0  0  0
   17.9990   16.6790   79.8800 C   0  0  0  0  0
   16.8120   16.8920   79.0520 C   0  0  0  0  0
   15.5270   17.2110   79.6830 C   0  0  0  0  0
   15.4360   17.3450   81.1400 C   0  0  0  0  0
   16.6170   17.1470   81.9620 C   0  0  0  0  0
   14.3020   17.3980   78.8370 C   0  0  0  0  0
   13.7170   18.8170   78.9010 C   0  0  0  0  0
   12.3840   18.7570   78.2870 N   0  0  0  0  0
   11.2740   20.0560   78.6210 S   0  0  0  0  0
    9.8210   19.3480   78.1340 O   0  0  0  0  0
   11.4830   20.4810   80.2350 O   0  0  0  0  0
   15.8110   20.7330   76.5480 C   0  0  0  0  0
   16.2530   21.2700   77.8860 C   0  0  0  0  0
   14.6540   19.8820   76.8530 N   0  0  0  0  0
   14.6360   19.8300   78.1960 C   0  0  0  0  0
   15.4550   20.6040   78.9290 N   0  0  0  0  0
   11.7310   22.6060   74.2210 F   0  0  0  0  0
   12.1200   22.7090   75.6160 C   0  0  0  0  0
   12.9210   23.7570   76.2630 C   0  0  0  0  0
   11.6080   21.5910   76.3970 C   0  0  0  0  0
   11.9140   21.4970   77.8190 C   0  0  0  0  0
   12.7000   22.5500   78.4780 C   0  0  0  0  0
   13.2040   23.6800   77.6990 C   0  0  0  0  0
   15.4980   17.9880   72.1130 C   0  0  0  0  0
   15.8630   19.4130   72.1380 C   0  0  0  0  0
   16.3390   20.0270   73.3830 C   0  0  0  0  0
   16.4440   19.2180   74.6040 C   0  0  0  0  0
   16.1040   17.7900   74.5700 C   0  0  0  0  0
   15.6300   17.1750   73.3290 C   0  0  0  0  0
   16.9000   19.8590   75.9040 C   0  0  0  0  0
   16.2530   17.0290   75.7940 F   0  0  0  0  0
   18.8474   17.1828   83.0789 H   0  0  0  0  0
   20.5288   18.1983   81.8632 H   0  0  0  0  0
   20.4799   16.9800   80.5764 H   0  0  0  0  0
   21.8733   14.5498   83.2591 H   0  0  0  0  0
   18.9503   16.4202   79.4151 H   0  0  0  0  0
   16.8825   16.8137   77.9671 H   0  0  0  0  0
   14.4825   17.5931   81.6062 H   0  0  0  0  0
   16.5496   17.2448   83.0455 H   0  0  0  0  0
   13.5401   16.7145   79.2117 H   0  0  0  0  0
   14.5891   17.2105   77.8023 H   0  0  0  0  0
   13.6378   19.1611   79.9322 H   0  0  0  0  0
   12.1171   17.9789   77.6840 H   0  0  0  0  0
   15.5922   21.5450   75.8546 H   0  0  0  0  0
   16.1023   22.3487   77.9275 H   0  0  0  0  0
   17.3139   21.0724   78.0395 H   0  0  0  0  0
   15.5094   20.7038   79.9426 H   0  0  0  0  0
   13.3045   24.5912   75.6755 H   0  0  0  0  0
   10.9968   20.8257   75.9186 H   0  0  0  0  0
   12.9069   22.4884   79.5464 H   0  0  0  0  0
   13.7879   24.4621   78.1843 H   0  0  0  0  0
   15.1297   17.5357   71.1922 H   0  0  0  0  0
   15.7799   20.0128   71.2317 H   0  0  0  0  0
   16.6141   21.0816   73.4014 H   0  0  0  0  0
   15.3754   16.1154   73.3075 H   0  0  0  0  0
   17.1451   19.0598   76.6035 H   0  0  0  0  0
   17.7539   20.4985   75.6806 H   0  0  0  0  0
  1  2  1  0  0  0
  1  5  1  0  0  0
  9  1  1  0  0  0
  2  3  1  0  0  0
  4  3  1  0  0  0
  3  8  2  0  0  0
  5  4  1  0  0  0
  5  6  2  0  0  0
  5  7  2  0  0  0
 10  9  4  0  0  0
 14  9  4  0  0  0
 11 10  4  0  0  0
 12 11  4  0  0  0
 12 13  4  0  0  0
 15 12  1  0  0  0
 13 14  4  0  0  0
 16 15  1  0  0  0
 16 17  1  0  0  0
 24 16  1  0  0  0
 17 18  1  0  0  0
 18 19  2  0  0  0
 18 20  2  0  0  0
 18 30  1  0  0  0
 21 22  1  0  0  0
 21 23  1  0  0  0
 39 21  1  0  0  0
 22 25  1  0  0  0
 23 24  2  0  0  0
 24 25  1  0  0  0
 27 26  1  0  0  0
 27 28  4  0  0  0
 29 27  4  0  0  0
 32 28  4  0  0  0
 30 29  4  0  0  0
 30 31  4  0  0  0
 31 32  4  0  0  0
 34 33  4  0  0  0
 33 38  4  0  0  0
 35 34  4  0  0  0
 36 35  4  0  0  0
 36 37  4  0  0  0
 36 39  1  0  0  0
 37 38  4  0  0  0
 37 40  1  0  0  0
  1 41  1  0  0  0
  2 42  1  0  0  0
  2 43  1  0  0  0
  4 44  1  0  0  0
 10 45  1  0  0  0
 11 46  1  0  0  0
 13 47  1  0  0  0
 14 48  1  0  0  0
 15 49  1  0  0  0
 15 50  1  0  0  0
 16 51  1  0  0  0
 17 52  1  0  0  0
 21 53  1  0  0  0
 22 54  1  0  0  0
 22 55  1  0  0  0
 25 56  1  0  0  0
 28 57  1  0  0  0
 29 58  1  0  0  0
 31 59  1  0  0  0
 32 60  1  0  0  0
 33 61  1  0  0  0
 34 62  1  0  0  0
 35 63  1  0  0  0
 38 64  1  0  0  0
 39 65  1  0  0  0
 39 66  1  0  0  0
M  END
$$$$
