4rio_ligand
  -I-interpret- 

 37 39  0  0  0  0  0  0  0  0999 V2000
   -0.4750  -13.2630   -3.8870 C   0  0  0  0  0
   -1.7770  -13.0580   -3.4050 C   0  0  0  0  0
   -2.6900  -14.0250   -3.1570 N   0  0  0  0  0
   -2.2210  -15.3210   -3.3710 N   0  0  0  0  0
   -0.9460  -15.6440   -3.7880 C   0  0  0  0  0
   -0.0310  -14.5900   -4.0940 C   0  0  0  0  0
   -2.9580  -16.4710   -3.1260 C   0  0  0  0  0
   -2.1410  -17.5340   -3.3640 C   0  0  0  0  0
   -0.8700  -17.0270   -3.7820 C   0  0  0  0  0
    0.4190  -12.0930   -4.1910 C   0  0  0  0  0
   -0.0240  -10.8600   -3.8800 N   0  0  0  0  0
    1.5310  -12.2810   -4.6900 O   0  0  0  0  0
    1.2480  -14.8370   -4.5870 N   0  0  0  0  0
    1.7150  -15.9640   -5.3870 C   0  0  0  0  0
    2.8950  -16.6340   -4.6870 C   0  0  0  0  0
    3.6400  -17.3860   -5.7680 C   0  0  0  0  0
    3.3840  -16.6310   -7.0700 C   0  0  0  0  0
    2.3970  -15.5210   -6.7300 C   0  0  0  0  0
    1.3800  -15.2750   -7.8510 C   0  0  0  0  0
    3.1160  -14.3370   -6.4860 F   0  0  0  0  0
   -2.0794  -12.0284   -3.2135 H   0  0  0  0  0
   -3.9981  -16.5152   -2.8029 H   0  0  0  0  0
   -2.4080  -18.5852   -3.2553 H   0  0  0  0  0
    0.0028  -17.6231   -4.0483 H   0  0  0  0  0
    0.5658  -10.0467   -4.0562 H   0  0  0  0  0
   -0.9494  -10.7394   -3.4682 H   0  0  0  0  0
    1.9526  -14.1359   -4.3580 H   0  0  0  0  0
    0.8283  -16.5796   -5.5384 H   0  0  0  0  0
    2.5591  -17.3045   -3.8960 H   0  0  0  0  0
    3.5366  -15.9000   -4.1995 H   0  0  0  0  0
    3.2933  -18.4170   -5.8382 H   0  0  0  0  0
    4.7062  -17.4358   -5.5470 H   0  0  0  0  0
    2.9818  -17.2937   -7.8362 H   0  0  0  0  0
    4.3095  -16.2233   -7.4766 H   0  0  0  0  0
    0.8236  -16.1925   -8.0428 H   0  0  0  0  0
    0.6905  -14.4871   -7.5479 H   0  0  0  0  0
    1.9055  -14.9712   -8.7564 H   0  0  0  0  0
  1  2  4  0  0  0
  1  6  4  0  0  0
  1 10  1  0  0  0
  2  3  4  0  0  0
  3  4  4  0  0  0
  4  5  4  0  0  0
  4  7  4  0  0  0
  5  6  4  0  0  0
  5  9  4  0  0  0
  6 13  1  0  0  0
  7  8  4  0  0  0
  8  9  4  0  0  0
 10 11  1  0  0  0
 10 12  2  0  0  0
 13 14  1  0  0  0
 14 15  1  0  0  0
 14 18  1  0  0  0
 15 16  1  0  0  0
 16 17  1  0  0  0
 17 18  1  0  0  0
 18 19  1  0  0  0
 18 20  1  0  0  0
  2 21  1  0  0  0
  7 22  1  0  0  0
  8 23  1  0  0  0
  9 24  1  0  0  0
 11 25  1  0  0  0
 11 26  1  0  0  0
 13 27  1  0  0  0
 14 28  1  0  0  0
 15 29  1  0  0  0
 15 30  1  0  0  0
 16 31  1  0  0  0
 16 32  1  0  0  0
 17 33  1  0  0  0
 17 34  1  0  0  0
 19 35  1  0  0  0
 19 36  1  0  0  0
 19 37  1  0  0  0
M  END
$$$$
