### 
### Created by X-TOOL on Wed Jan  1 15:39:37 2020
### 

@<TRIPOS>MOLECULE
6cf6_ligand
  146   145     1     0     0
SMALL
GAST_HUCK


@<TRIPOS>ATOM
      1 N          63.6530   72.3360   -6.4060 N.4       1 LEU         0.2377
      2 CA         62.5710   71.4850   -7.0020 C.3       1 LEU         0.0621
      3 C          63.0860   70.5730   -8.1280 C.2       1 LEU         0.2264
      4 O          62.7720   69.3790   -8.1500 O.2       1 LEU        -0.3907
      5 CB         61.4140   72.3570   -7.5190 C.3       1 LEU        -0.0040
      6 N          63.8600   71.1450   -9.0550 N.am      1 ALA        -0.2613
      7 CA         64.3920   70.4120  -10.2140 C.3       1 ALA         0.1283
      8 C          65.6830   69.6520   -9.8760 C.2       1 ALA         0.2036
      9 O          66.6130   70.2180   -9.3000 O.2       1 ALA        -0.3944
     10 CB         64.6380   71.3650  -11.3720 C.3       1 ALA        -0.0244
     11 N          65.7340   68.3760  -10.2570 N.am      1 ARG        -0.2637
     12 CA         66.9010   67.5200  -10.0270 C.3       1 ARG         0.1311
     13 C          68.1090   68.0570  -10.7850 C.2       1 ARG         0.2039
     14 O          68.0180   68.2910  -11.9890 O.2       1 ARG        -0.3944
     15 CB         66.5970   66.0910  -10.5040 C.3       1 ARG        -0.0092
     16 CG         67.6820   65.0660  -10.2070 C.3       1 ARG        -0.0156
     17 CD         67.2890   63.6880  -10.7070 C.3       1 ARG         0.0627
     18 NE         68.2010   62.6710  -10.1880 N.pl3     1 ARG        -0.2723
     19 CZ         69.2970   62.2060  -10.7950 C.cat     1 ARG         0.2882
     20 NH1        70.0300   61.2770  -10.1830 N.pl3     1 ARG        -0.2849
     21 NH2        69.6680   62.6300  -12.0030 N.pl3     1 ARG        -0.2849
     22 N          69.2250   68.2610  -10.0860 N.am      1 GLU        -0.2636
     23 CA         70.4860   68.6080  -10.7420 C.3       1 GLU         0.1325
     24 C          71.0240   67.3340  -11.3690 C.2       1 GLU         0.2041
     25 O          71.2850   66.3670  -10.6640 O.2       1 GLU        -0.3944
     26 CB         71.5160   69.1490   -9.7510 C.3       1 GLU        -0.0008
     27 CG         71.1300   70.4320   -9.0300 C.3       1 GLU         0.0044
     28 CD         72.0710   70.7640   -7.8770 C.2       1 GLU         0.0350
     29 OE1        71.6290   71.4620   -6.9400 O.co2     1 GLU        -0.5690
     30 OE2        73.2470   70.3300   -7.8950 O.co2     1 GLU        -0.5690
     31 N          71.2130   67.3380  -12.6860 N.am      1 SER        -0.2616
     32 CA         71.5730   66.1210  -13.4370 C.3       1 SER         0.1539
     33 C          73.0790   65.7730  -13.4440 C.2       1 SER         0.2062
     34 O          73.5170   64.9670  -14.2740 O.2       1 SER        -0.3943
     35 CB         71.0570   66.2420  -14.8750 C.3       1 SER         0.0843
     36 OG         71.6820   67.3290  -15.5320 O.3       1 SER        -0.3903
     37 N          73.8590   66.3610  -12.5280 N.am      1 SER        -0.2615
     38 CA         75.2820   66.0550  -12.3820 C.3       1 SER         0.1539
     39 C          75.6520   65.7390  -10.9230 C.2       1 SER         0.2062
     40 O          75.5270   66.5910  -10.0390 O.2       1 SER        -0.3943
     41 CB         76.1150   67.2320  -12.8850 C.3       1 SER         0.0843
     42 OG         77.4920   66.9080  -12.8740 O.3       1 SER        -0.3903
     43 N          76.0950   64.5050  -10.6850 N.am      1 ALA        -0.2639
     44 CA         76.7410   64.1310   -9.4280 C.3       1 ALA         0.1282
     45 C          78.1920   64.6130   -9.4550 C.2       1 ALA         0.2037
     46 O          78.7150   64.9530  -10.5230 O.2       1 ALA        -0.3944
     47 CB         76.6910   62.6240   -9.2400 C.3       1 ALA        -0.0244
     48 N          78.8440   64.6380   -8.2920 N.am      1 ASP        -0.2622
     49 CA         80.2810   64.9470   -8.2320 C.3       1 ASP         0.1423
     50 C          81.0760   63.7930   -8.8470 C.2       1 ASP         0.2054
     51 O          80.8580   62.6300   -8.5010 O.2       1 ASP        -0.3943
     52 CB         80.7580   65.2140   -6.7920 C.3       1 ASP         0.0406
     53 CG         80.2780   66.5540   -6.2400 C.2       1 ASP         0.0393
     54 OD1        79.8730   67.4410   -7.0150 O.co2     1 ASP        -0.5688
     55 OD2        80.3180   66.7310   -5.0050 O.co2     1 ASP        -0.5688
     56 N          81.9780   64.1360   -9.7710 N.am      1 GLY        -0.2663
     57 CA         82.7740   63.1650  -10.5270 C.3       1 GLY         0.1201
     58 C          83.0410   63.6250  -11.9490 C.2       1 GLY         0.2007
     59 O          82.6920   64.7450  -12.3230 O.2       1 GLY        -0.3947
     60 N          83.6580   62.7470  -12.7350 N.am      1 ALA        -0.2642
     61 CA         84.0070   63.0360  -14.1280 C.3       1 ALA         0.1282
     62 C          84.3590   61.7560  -14.8850 C.2       1 ALA         0.2037
     63 O          84.7340   60.7510  -14.2770 O.2       1 ALA        -0.3944
     64 CB         85.1730   64.0120  -14.1880 C.3       1 ALA        -0.0244
     65 N          84.2450   61.8270  -16.2110 N.am      1 ASP        -0.2622
     66 CA         84.5410   60.7120  -17.1290 C.3       1 ASP         0.1423
     67 C          86.0390   60.3700  -17.1680 C.2       1 ASP         0.2051
     68 O          86.8750   61.2750  -17.2540 O.2       1 ASP        -0.3943
     69 CB         84.1080   61.0670  -18.5630 C.3       1 ASP         0.0406
     70 CG         82.6330   61.4310  -18.6720 C.2       1 ASP         0.0393
     71 OD1        81.7990   60.7410  -18.0660 O.co2     1 ASP        -0.5688
     72 OD2        82.3030   62.4050  -19.3780 O.co2     1 ASP        -0.5688
     73 N          86.3530   59.0680  -17.1120 N.am      1 SER        -0.2671
     74 CA         87.7230   58.5350  -17.2440 C.3       1 SER         0.1173
     75 C          87.7520   57.4950  -18.3610 C.2       1 SER         0.0623
     76 O          87.9960   57.8190  -19.5260 O.co2     1 SER        -0.5665
     77 CB         88.2010   57.8770  -15.9420 C.3       1 SER         0.0789
     78 OG         88.6400   58.8260  -14.9800 O.3       1 SER        -0.3910
     79 OXT        87.5320   56.3040  -18.1270 O.co2     1 SER        -0.5665
     80 H1         63.2637   72.9120   -5.6762 H         1 LEU         0.2015
     81 H2         64.0508   72.9238   -7.1217 H         1 LEU         0.2015
     82 H3         64.3715   71.7441   -6.0195 H         1 LEU         0.2015
     83 H4         62.1797   70.8391   -6.2022 H         1 LEU         0.1095
     84 H5         60.6339   71.7128   -7.9508 H         1 LEU         0.0310
     85 H6         61.7898   73.0450   -8.2906 H         1 LEU         0.0310
     86 H7         60.9909   72.9367   -6.6854 H         1 LEU         0.0310
     87 H8         64.0875   72.1138   -8.9565 H         1 ALA         0.1884
     88 H9         63.6361   69.6760  -10.5254 H         1 ALA         0.0797
     89 H10        65.0352   70.8038  -12.2306 H         1 ALA         0.0277
     90 H11        65.3651   72.1322  -11.0674 H         1 ALA         0.0277
     91 H12        63.6918   71.8487  -11.6562 H         1 ALA         0.0277
     92 H13        64.9394   67.9846  -10.7212 H         1 ARG         0.1883
     93 H14        67.1282   67.5032   -8.9509 H         1 ARG         0.0800
     94 H15        66.4452   66.1204  -11.5931 H         1 ARG         0.0313
     95 H16        65.6704   65.7580  -10.0135 H         1 ARG         0.0313
     96 H17        67.8441   65.0202   -9.1200 H         1 ARG         0.0301
     97 H18        68.6133   65.3755  -10.7039 H         1 ARG         0.0301
     98 H19        67.3256   63.6787  -11.8063 H         1 ARG         0.0689
     99 H20        66.2662   63.4605  -10.3722 H         1 ARG         0.0689
    100 H21        67.9773   62.2739   -9.2643 H         1 ARG         0.2642
    101 H22        70.8777   60.9081  -10.6372 H         1 ARG         0.2615
    102 H23        69.7490   60.9277   -9.2557 H         1 ARG         0.2615
    103 H24        69.1124   63.3477  -12.4900 H         1 ARG         0.2615
    104 H25        70.5102   62.2399  -12.4495 H         1 ARG         0.2615
    105 H26        69.2001   68.1749   -9.0900 H         1 GLU         0.1883
    106 H27        70.3010   69.3642  -11.5191 H         1 GLU         0.0801
    107 H28        72.4482   69.3394  -10.3031 H         1 GLU         0.0330
    108 H29        71.6921   68.3742   -8.9903 H         1 GLU         0.0330
    109 H30        70.1110   70.3190   -8.6314 H         1 GLU         0.0433
    110 H31        71.1514   71.2617   -9.7519 H         1 GLU         0.0433
    111 H32        71.1070   68.1981  -13.1850 H         1 SER         0.1884
    112 H33        71.0521   65.2796  -12.9567 H         1 SER         0.0823
    113 H34        69.9694   66.4055  -14.8576 H         1 SER         0.0606
    114 H35        71.2794   65.3126  -15.4197 H         1 SER         0.0606
    115 H36        71.3530   67.3918  -16.4210 H         1 SER         0.2097
    116 H37        73.4507   67.0391  -11.9169 H         1 SER         0.1884
    117 H38        75.5112   65.1716  -12.9960 H         1 SER         0.0823
    118 H39        75.9430   68.1013  -12.2334 H         1 SER         0.0606
    119 H40        75.8097   67.4780  -13.9128 H         1 SER         0.0606
    120 H41        77.7596   66.6976  -11.9871 H         1 SER         0.2097
    121 H42        75.9812   63.8082  -11.3932 H         1 ALA         0.1883
    122 H43        76.2140   64.6135   -8.5917 H         1 ALA         0.0797
    123 H44        77.1799   62.3564   -8.2916 H         1 ALA         0.0277
    124 H45        77.2144   62.1329  -10.0736 H         1 ALA         0.0277
    125 H46        75.6426   62.2917   -9.2186 H         1 ALA         0.0277
    126 H47        78.3475   64.4433   -7.4461 H         1 ASP         0.1884
    127 H48        80.4631   65.8548   -8.8258 H         1 ASP         0.0819
    128 H49        81.8579   65.2045   -6.7803 H         1 ASP         0.0478
    129 H50        80.3774   64.4117   -6.1429 H         1 ASP         0.0478
    130 H51        82.1177   65.1086   -9.9570 H         1 GLY         0.1881
    131 H52        82.2295   62.2098  -10.5601 H         1 GLY         0.0763
    132 H53        83.7367   63.0208  -10.0148 H         1 GLY         0.0763
    133 H54        83.8938   61.8510  -12.3587 H         1 ALA         0.1883
    134 H55        83.1361   63.4995  -14.6145 H         1 ALA         0.0797
    135 H56        85.4237   64.2195  -15.2387 H         1 ALA         0.0277
    136 H57        86.0456   63.5723  -13.6828 H         1 ALA         0.0277
    137 H58        84.8925   64.9497  -13.6859 H         1 ALA         0.0277
    138 H59        83.9391   62.6920  -16.6087 H         1 ASP         0.1884
    139 H60        83.9825   59.8271  -16.7898 H         1 ASP         0.0819
    140 H61        84.3030   60.2003  -19.2117 H         1 ASP         0.0478
    141 H62        84.7058   61.9241  -18.9066 H         1 ASP         0.0478
    142 H63        85.6094   58.4143  -16.9714 H         1 SER         0.1876
    143 H64        88.4032   59.3617  -17.4966 H         1 SER         0.0749
    144 H65        89.0358   57.1997  -16.1752 H         1 SER         0.0599
    145 H66        87.3690   57.2994  -15.5129 H         1 SER         0.0599
    146 H67        88.9245   58.3717  -14.1956 H         1 SER         0.2096
@<TRIPOS>BOND
     1    1    2 1  
     2    2    3 1  
     3    2    5 1  
     4    3    4 2  
     5    3    6 am 
     6    6    7 1  
     7    7    8 1  
     8    7   10 1  
     9    8    9 2  
    10    8   11 am 
    11   11   12 1  
    12   12   13 1  
    13   12   15 1  
    14   13   14 2  
    15   13   22 am 
    16   15   16 1  
    17   16   17 1  
    18   17   18 1  
    19   18   19 ar 
    20   19   20 ar 
    21   19   21 ar 
    22   22   23 1  
    23   23   24 1  
    24   23   26 1  
    25   24   25 2  
    26   24   31 am 
    27   26   27 1  
    28   27   28 1  
    29   28   29 ar 
    30   28   30 ar 
    31   31   32 1  
    32   32   33 1  
    33   32   35 1  
    34   33   34 2  
    35   33   37 am 
    36   35   36 1  
    37   37   38 1  
    38   38   39 1  
    39   38   41 1  
    40   39   40 2  
    41   39   43 am 
    42   41   42 1  
    43   43   44 1  
    44   44   45 1  
    45   44   47 1  
    46   45   46 2  
    47   45   48 am 
    48   48   49 1  
    49   49   50 1  
    50   49   52 1  
    51   50   51 2  
    52   50   56 am 
    53   52   53 1  
    54   53   54 ar 
    55   53   55 ar 
    56   56   57 1  
    57   57   58 1  
    58   58   59 2  
    59   58   60 am 
    60   60   61 1  
    61   61   62 1  
    62   61   64 1  
    63   62   63 2  
    64   62   65 am 
    65   65   66 1  
    66   66   67 1  
    67   66   69 1  
    68   67   68 2  
    69   67   73 am 
    70   69   70 1  
    71   70   71 ar 
    72   70   72 ar 
    73   73   74 1  
    74   74   75 1  
    75   74   77 1  
    76   75   76 ar 
    77   75   79 ar 
    78   77   78 1  
    79    1   80 1  
    80    1   81 1  
    81    1   82 1  
    82    2   83 1  
    83    5   84 1  
    84    5   85 1  
    85    5   86 1  
    86    6   87 1  
    87    7   88 1  
    88   10   89 1  
    89   10   90 1  
    90   10   91 1  
    91   11   92 1  
    92   12   93 1  
    93   15   94 1  
    94   15   95 1  
    95   16   96 1  
    96   16   97 1  
    97   17   98 1  
    98   17   99 1  
    99   18  100 1  
   100   20  101 1  
   101   20  102 1  
   102   21  103 1  
   103   21  104 1  
   104   22  105 1  
   105   23  106 1  
   106   26  107 1  
   107   26  108 1  
   108   27  109 1  
   109   27  110 1  
   110   31  111 1  
   111   32  112 1  
   112   35  113 1  
   113   35  114 1  
   114   36  115 1  
   115   37  116 1  
   116   38  117 1  
   117   41  118 1  
   118   41  119 1  
   119   42  120 1  
   120   43  121 1  
   121   44  122 1  
   122   47  123 1  
   123   47  124 1  
   124   47  125 1  
   125   48  126 1  
   126   49  127 1  
   127   52  128 1  
   128   52  129 1  
   129   56  130 1  
   130   57  131 1  
   131   57  132 1  
   132   60  133 1  
   133   61  134 1  
   134   64  135 1  
   135   64  136 1  
   136   64  137 1  
   137   65  138 1  
   138   66  139 1  
   139   69  140 1  
   140   69  141 1  
   141   73  142 1  
   142   74  143 1  
   143   77  144 1  
   144   77  145 1  
   145   78  146 1  
@<TRIPOS>SUBSTRUCTURE
     1 LEU         1

