6cf6_ligand
  -I-interpret- 

149148  0  0  0  0  0  0  0  0999 V2000
   63.6530   72.3360   -6.4060 N   0  3  0  0  0
   62.5710   71.4850   -7.0020 C   0  0  0  0  0
   63.0860   70.5730   -8.1280 C   0  0  0  0  0
   62.7720   69.3790   -8.1500 O   0  0  0  0  0
   61.4140   72.3570   -7.5190 C   0  0  0  0  0
   63.8600   71.1450   -9.0550 N   0  0  0  0  0
   64.3920   70.4120  -10.2140 C   0  0  0  0  0
   65.6830   69.6520   -9.8760 C   0  0  0  0  0
   66.6130   70.2180   -9.3000 O   0  0  0  0  0
   64.6380   71.3650  -11.3720 C   0  0  0  0  0
   65.7340   68.3760  -10.2570 N   0  0  0  0  0
   66.9010   67.5200  -10.0270 C   0  0  0  0  0
   68.1090   68.0570  -10.7850 C   0  0  0  0  0
   68.0180   68.2910  -11.9890 O   0  0  0  0  0
   66.5970   66.0910  -10.5040 C   0  0  0  0  0
   67.6820   65.0660  -10.2070 C   0  0  0  0  0
   67.2890   63.6880  -10.7070 C   0  0  0  0  0
   68.2010   62.6710  -10.1880 N   0  0  0  0  0
   69.2970   62.2060  -10.7950 C   0  0  0  0  0
   70.0300   61.2770  -10.1830 N   0  0  0  0  0
   69.6680   62.6300  -12.0030 N   0  0  0  0  0
   69.2250   68.2610  -10.0860 N   0  0  0  0  0
   70.4860   68.6080  -10.7420 C   0  0  0  0  0
   71.0240   67.3340  -11.3690 C   0  0  0  0  0
   71.2850   66.3670  -10.6640 O   0  0  0  0  0
   71.5160   69.1490   -9.7510 C   0  0  0  0  0
   71.1300   70.4320   -9.0300 C   0  0  0  0  0
   72.0710   70.7640   -7.8770 C   0  0  0  0  0
   71.6290   71.4620   -6.9400 O   0  0  0  0  0
   73.2470   70.3300   -7.8950 O   0  0  0  0  0
   71.2130   67.3380  -12.6860 N   0  0  0  0  0
   71.5730   66.1210  -13.4370 C   0  0  0  0  0
   73.0790   65.7730  -13.4440 C   0  0  0  0  0
   73.5170   64.9670  -14.2740 O   0  0  0  0  0
   71.0570   66.2420  -14.8750 C   0  0  0  0  0
   71.6820   67.3290  -15.5320 O   0  0  0  0  0
   73.8590   66.3610  -12.5280 N   0  0  0  0  0
   75.2820   66.0550  -12.3820 C   0  0  0  0  0
   75.6520   65.7390  -10.9230 C   0  0  0  0  0
   75.5270   66.5910  -10.0390 O   0  0  0  0  0
   76.1150   67.2320  -12.8850 C   0  0  0  0  0
   77.4920   66.9080  -12.8740 O   0  0  0  0  0
   76.0950   64.5050  -10.6850 N   0  0  0  0  0
   76.7410   64.1310   -9.4280 C   0  0  0  0  0
   78.1920   64.6130   -9.4550 C   0  0  0  0  0
   78.7150   64.9530  -10.5230 O   0  0  0  0  0
   76.6910   62.6240   -9.2400 C   0  0  0  0  0
   78.8440   64.6380   -8.2920 N   0  0  0  0  0
   80.2810   64.9470   -8.2320 C   0  0  0  0  0
   81.0760   63.7930   -8.8470 C   0  0  0  0  0
   80.8580   62.6300   -8.5010 O   0  0  0  0  0
   80.7580   65.2140   -6.7920 C   0  0  0  0  0
   80.2780   66.5540   -6.2400 C   0  0  0  0  0
   79.8730   67.4410   -7.0150 O   0  0  0  0  0
   80.3180   66.7310   -5.0050 O   0  0  0  0  0
   81.9780   64.1360   -9.7710 N   0  0  0  0  0
   82.7740   63.1650  -10.5270 C   0  0  0  0  0
   83.0410   63.6250  -11.9490 C   0  0  0  0  0
   82.6920   64.7450  -12.3230 O   0  0  0  0  0
   83.6580   62.7470  -12.7350 N   0  0  0  0  0
   84.0070   63.0360  -14.1280 C   0  0  0  0  0
   84.3590   61.7560  -14.8850 C   0  0  0  0  0
   84.7340   60.7510  -14.2770 O   0  0  0  0  0
   85.1730   64.0120  -14.1880 C   0  0  0  0  0
   84.2450   61.8270  -16.2110 N   0  0  0  0  0
   84.5410   60.7120  -17.1290 C   0  0  0  0  0
   86.0390   60.3700  -17.1680 C   0  0  0  0  0
   86.8750   61.2750  -17.2540 O   0  0  0  0  0
   84.1080   61.0670  -18.5630 C   0  0  0  0  0
   82.6330   61.4310  -18.6720 C   0  0  0  0  0
   81.7990   60.7410  -18.0660 O   0  0  0  0  0
   82.3030   62.4050  -19.3780 O   0  0  0  0  0
   86.3530   59.0680  -17.1120 N   0  0  0  0  0
   87.7230   58.5350  -17.2440 C   0  0  0  0  0
   87.7520   57.4950  -18.3610 C   0  0  0  0  0
   87.9960   57.8190  -19.5260 O   0  0  0  0  0
   88.2010   57.8770  -15.9420 C   0  0  0  0  0
   88.6400   58.8260  -14.9800 O   0  0  0  0  0
   87.5320   56.3040  -18.1270 O   0  0  0  0  0
   64.4082   71.7381   -6.0705 H   0  0  0  0  0
   64.0126   72.9736   -7.1164 H   0  0  0  0  0
   63.2714   72.8730   -5.6273 H   0  0  0  0  0
   62.2084   70.8397   -6.2019 H   0  0  0  0  0
   61.7663   72.9723   -8.3469 H   0  0  0  0  0
   60.6021   71.7154   -7.8613 H   0  0  0  0  0
   61.0567   72.9990   -6.7138 H   0  0  0  0  0
   64.0921   72.1332   -8.9545 H   0  0  0  0  0
   63.6426   69.6746  -10.5018 H   0  0  0  0  0
   65.4132   72.0793  -11.0947 H   0  0  0  0  0
   64.9602   70.7980  -12.2454 H   0  0  0  0  0
   63.7163   71.8989  -11.6036 H   0  0  0  0  0
   64.9235   67.9768  -10.7305 H   0  0  0  0  0
   67.1238   67.5126   -8.9600 H   0  0  0  0  0
   66.4974   66.1369  -11.5885 H   0  0  0  0  0
   65.7039   65.7657   -9.9706 H   0  0  0  0  0
   67.8264   65.0158   -9.1278 H   0  0  0  0  0
   68.5970   65.3717  -10.7144 H   0  0  0  0  0
   67.3366   63.6814  -11.7959 H   0  0  0  0  0
   66.2789   63.4635  -10.3643 H   0  0  0  0  0
   67.9795   62.2777   -9.2733 H   0  0  0  0  0
   69.7518   60.9311   -9.2647 H   0  0  0  0  0
   70.5021   62.2437  -12.4452 H   0  0  0  0  0
   69.1178   63.3408  -12.4852 H   0  0  0  0  0
   69.1996   68.1732   -9.0701 H   0  0  0  0  0
   70.3061   69.3886  -11.4812 H   0  0  0  0  0
   72.4102   69.3784  -10.3306 H   0  0  0  0  0
   71.6330   68.3863   -8.9812 H   0  0  0  0  0
   70.1300   70.2968   -8.6179 H   0  0  0  0  0
   71.1808   71.2490   -9.7497 H   0  0  0  0  0
   73.3862   69.8193   -8.6959 H   0  0  0  0  0
   71.1049   68.2153  -13.1950 H   0  0  0  0  0
   71.0946   65.2955  -12.9099 H   0  0  0  0  0
   69.9804   66.4109  -14.8535 H   0  0  0  0  0
   71.2854   65.3222  -15.4134 H   0  0  0  0  0
   71.3495   67.3925  -16.4303 H   0  0  0  0  0
   73.4426   67.0527  -11.9047 H   0  0  0  0  0
   75.4960   65.1674  -12.9774 H   0  0  0  0  0
   75.9483   68.0879  -12.2309 H   0  0  0  0  0
   75.8153   67.4659  -13.9066 H   0  0  0  0  0
   77.9987   67.6585  -13.1928 H   0  0  0  0  0
   75.9790   63.7943  -11.4074 H   0  0  0  0  0
   76.2163   64.5967   -8.5938 H   0  0  0  0  0
   75.6517   62.2960   -9.2190 H   0  0  0  0  0
   77.2099   62.1386  -10.0666 H   0  0  0  0  0
   77.1757   62.3601   -8.3000 H   0  0  0  0  0
   78.3376   64.4394   -7.4291 H   0  0  0  0  0
   80.4517   65.8610   -8.8009 H   0  0  0  0  0
   81.8478   65.2316   -6.8023 H   0  0  0  0  0
   80.3485   64.4286   -6.1568 H   0  0  0  0  0
   80.6563   65.9393   -4.5802 H   0  0  0  0  0
   82.1205   65.1280   -9.9607 H   0  0  0  0  0
   82.2150   62.2303  -10.5723 H   0  0  0  0  0
   83.7333   63.0473  -10.0230 H   0  0  0  0  0
   83.8985   61.8331  -12.3512 H   0  0  0  0  0
   83.1372   63.4874  -14.6053 H   0  0  0  0  0
   84.8938   64.9406  -13.6902 H   0  0  0  0  0
   86.0369   63.5752  -13.6871 H   0  0  0  0  0
   85.4205   64.2168  -15.2296 H   0  0  0  0  0
   83.9330   62.7093  -16.6167 H   0  0  0  0  0
   83.9868   59.8520  -16.7530 H   0  0  0  0  0
   84.2784   60.1891  -19.1862 H   0  0  0  0  0
   84.6866   61.9357  -18.8771 H   0  0  0  0  0
   83.0890   62.8039  -19.7585 H   0  0  0  0  0
   85.5946   58.4012  -16.9686 H   0  0  0  0  0
   88.3879   59.3678  -17.4729 H   0  0  0  0  0
   88.1470   58.7661  -19.5686 H   0  0  0  0  0
   89.0437   57.2291  -16.1831 H   0  0  0  0  0
   87.3609   57.3297  -15.5144 H   0  0  0  0  0
   88.9275   58.3670  -14.1874 H   0  0  0  0  0
  1  2  1  0  0  0
  2  3  1  0  0  0
  2  5  1  0  0  0
  3  4  2  0  0  0
  3  6  1  0  0  0
  6  7  1  0  0  0
  7  8  1  0  0  0
  7 10  1  0  0  0
  8  9  2  0  0  0
  8 11  1  0  0  0
 11 12  1  0  0  0
 12 13  1  0  0  0
 12 15  1  0  0  0
 13 14  2  0  0  0
 13 22  1  0  0  0
 15 16  1  0  0  0
 16 17  1  0  0  0
 17 18  1  0  0  0
 18 19  1  0  0  0
 19 20  2  0  0  0
 19 21  1  0  0  0
 22 23  1  0  0  0
 23 24  1  0  0  0
 23 26  1  0  0  0
 24 25  2  0  0  0
 24 31  1  0  0  0
 26 27  1  0  0  0
 27 28  1  0  0  0
 28 29  2  0  0  0
 28 30  1  0  0  0
 31 32  1  0  0  0
 32 33  1  0  0  0
 32 35  1  0  0  0
 33 34  2  0  0  0
 33 37  1  0  0  0
 35 36  1  0  0  0
 37 38  1  0  0  0
 38 39  1  0  0  0
 38 41  1  0  0  0
 39 40  2  0  0  0
 39 43  1  0  0  0
 41 42  1  0  0  0
 43 44  1  0  0  0
 44 45  1  0  0  0
 44 47  1  0  0  0
 45 46  2  0  0  0
 45 48  1  0  0  0
 48 49  1  0  0  0
 49 50  1  0  0  0
 49 52  1  0  0  0
 50 51  2  0  0  0
 50 56  1  0  0  0
 52 53  1  0  0  0
 53 54  2  0  0  0
 53 55  1  0  0  0
 56 57  1  0  0  0
 57 58  1  0  0  0
 58 59  2  0  0  0
 58 60  1  0  0  0
 60 61  1  0  0  0
 61 62  1  0  0  0
 61 64  1  0  0  0
 62 63  2  0  0  0
 62 65  1  0  0  0
 65 66  1  0  0  0
 66 67  1  0  0  0
 66 69  1  0  0  0
 67 68  2  0  0  0
 67 73  1  0  0  0
 69 70  1  0  0  0
 70 71  2  0  0  0
 70 72  1  0  0  0
 73 74  1  0  0  0
 74 75  1  0  0  0
 74 77  1  0  0  0
 75 76  1  0  0  0
 75 79  2  0  0  0
 77 78  1  0  0  0
  1 80  1  0  0  0
  1 81  1  0  0  0
  1 82  1  0  0  0
  2 83  1  0  0  0
  5 84  1  0  0  0
  5 85  1  0  0  0
  5 86  1  0  0  0
  6 87  1  0  0  0
  7 88  1  0  0  0
 10 89  1  0  0  0
 10 90  1  0  0  0
 10 91  1  0  0  0
 11 92  1  0  0  0
 12 93  1  0  0  0
 15 94  1  0  0  0
 15 95  1  0  0  0
 16 96  1  0  0  0
 16 97  1  0  0  0
 17 98  1  0  0  0
 17 99  1  0  0  0
 18100  1  0  0  0
 20101  1  0  0  0
 21102  1  0  0  0
 21103  1  0  0  0
 22104  1  0  0  0
 23105  1  0  0  0
 26106  1  0  0  0
 26107  1  0  0  0
 27108  1  0  0  0
 27109  1  0  0  0
 30110  1  0  0  0
 31111  1  0  0  0
 32112  1  0  0  0
 35113  1  0  0  0
 35114  1  0  0  0
 36115  1  0  0  0
 37116  1  0  0  0
 38117  1  0  0  0
 41118  1  0  0  0
 41119  1  0  0  0
 42120  1  0  0  0
 43121  1  0  0  0
 44122  1  0  0  0
 47123  1  0  0  0
 47124  1  0  0  0
 47125  1  0  0  0
 48126  1  0  0  0
 49127  1  0  0  0
 52128  1  0  0  0
 52129  1  0  0  0
 55130  1  0  0  0
 56131  1  0  0  0
 57132  1  0  0  0
 57133  1  0  0  0
 60134  1  0  0  0
 61135  1  0  0  0
 64136  1  0  0  0
 64137  1  0  0  0
 64138  1  0  0  0
 65139  1  0  0  0
 66140  1  0  0  0
 69141  1  0  0  0
 69142  1  0  0  0
 72143  1  0  0  0
 73144  1  0  0  0
 74145  1  0  0  0
 76146  1  0  0  0
 77147  1  0  0  0
 77148  1  0  0  0
 78149  1  0  0  0
M  END
$$$$
