6eum_ligand
  -I-interpret- 

 20 20  0  0  0  0  0  0  0  0999 V2000
   59.8100    9.6930   27.7920 C   0  0  0  0  0
   58.5700   10.2680   27.6360 C   0  0  0  0  0
   58.2490   10.8290   26.4100 C   0  0  0  0  0
   59.1870   10.8170   25.4040 C   0  0  0  0  0
   60.4270   10.2580   25.5850 C   0  0  0  0  0
   63.7680    7.2650   26.5950 C   0  0  0  0  0
   64.0290    6.2130   25.9240 O   0  0  0  0  0
   62.4780    7.9150   26.2740 C   0  0  0  0  0
   62.0660    8.9670   27.0190 C   0  0  0  0  0
   60.7860    9.6630   26.7930 C   0  0  0  0  0
   60.1070    9.0850   28.9690 F   0  0  0  0  0
   61.3410   10.3800   24.6030 F   0  0  0  0  0
   58.9050   11.3770   24.2000 F   0  0  0  0  0
   64.4740    7.6100   27.5290 O   0  0  0  0  0
   61.4610    7.2730   24.9150 S   0  0  0  0  0
   57.8553   10.2821   28.4589 H   0  0  0  0  0
   57.2674   11.2733   26.2454 H   0  0  0  0  0
   63.3700    6.1028   25.2347 H   0  0  0  0  0
   62.7114    9.3166   27.8248 H   0  0  0  0  0
   62.0837    6.2456   24.3445 H   0  0  0  0  0
  1  2  4  0  0  0
 10  1  4  0  0  0
  1 11  1  0  0  0
  2  3  4  0  0  0
  4  3  4  0  0  0
  5  4  4  0  0  0
  4 13  1  0  0  0
 10  5  4  0  0  0
  5 12  1  0  0  0
  6  7  1  0  0  0
  8  6  1  0  0  0
  6 14  2  0  0  0
  9  8  2  0  0  0
  8 15  1  0  0  0
  9 10  1  0  0  0
  2 16  1  0  0  0
  3 17  1  0  0  0
  7 18  1  0  0  0
  9 19  1  0  0  0
 15 20  1  0  0  0
M  END
$$$$
