### 
### Created by X-TOOL on Mon Sep 10 21:13:06 2018
### 

@<TRIPOS>MOLECULE
3qzv_ligand
   91    90     1     0     0
SMALL
GAST_HUCK


@<TRIPOS>ATOM
      1 N          -4.1410   -2.4300  -13.1970 N.4       1 GLY         0.2357
      2 CA         -3.7410   -1.4480  -12.1590 C.3       1 GLY         0.0545
      3 C          -4.0770   -1.8590  -10.7400 C.2       1 GLY         0.2236
      4 O          -5.2390   -1.8170  -10.3390 O.2       1 GLY        -0.3910
      5 N          -3.0500   -2.2320   -9.9760 N.am      1 LYS        -0.2613
      6 CA         -3.1980   -2.5380   -8.5480 C.3       1 LYS         0.1311
      7 C          -3.5750   -1.3210   -7.6910 C.2       1 LYS         0.2037
      8 O          -4.0530   -1.4860   -6.5650 O.2       1 LYS        -0.3944
      9 CB         -1.9290   -3.1960   -7.9870 C.3       1 LYS        -0.0122
     10 CG         -2.0210   -4.7070   -7.7590 C.3       1 LYS        -0.0440
     11 CD         -1.8140   -5.5100   -9.0400 C.3       1 LYS        -0.0124
     12 CE         -1.1590   -6.8620   -8.7590 C.3       1 LYS        -0.0354
     13 NZ         -1.8360   -7.6330   -7.6830 N.4       1 LYS         0.2185
     14 N          -3.3720   -0.1140   -8.2240 N.am      1 GLY        -0.2664
     15 CA         -3.6400    1.1230   -7.4760 C.3       1 GLY         0.1201
     16 C          -5.0730    1.6240   -7.5010 C.2       1 GLY         0.2007
     17 O          -5.8860    1.1590   -8.2980 O.2       1 GLY        -0.3947
     18 N          -5.3840    2.5730   -6.6190 N.am      1 LEU        -0.2640
     19 CA         -6.7250    3.1710   -6.5670 C.3       1 LEU         0.1312
     20 C          -6.9240    4.1320   -7.7360 C.2       1 LEU         0.2037
     21 O          -8.0540    4.3470   -8.1810 O.2       1 LEU        -0.3944
     22 CB         -7.0000    3.8650   -5.2230 C.3       1 LEU        -0.0101
     23 CG         -7.2460    2.9650   -4.0000 C.3       1 LEU        -0.0425
     24 CD1        -7.2000    3.7550   -2.6880 C.3       1 LEU        -0.0625
     25 CD2        -8.5540    2.1810   -4.1190 C.3       1 LEU        -0.0625
     26 N          -5.8180    4.6740   -8.2420 N.am      1 GLY        -0.2664
     27 CA         -5.8310    5.5290   -9.4230 C.3       1 GLY         0.1201
     28 C          -5.2600    6.9070   -9.1550 C.2       1 GLY         0.2002
     29 O          -5.2280    7.3730   -8.0120 O.2       1 GLY        -0.3947
     30 OH          2.2330    6.0520  -12.1830 O.2       1 ALY        -0.3974
     31 CH          2.4390    7.2550  -12.2640 C.2       1 ALY         0.1729
     32 CH3         3.6790    7.7730  -12.9650 C.3       1 ALY         0.0256
     33 NZ          1.6510    8.1880  -11.7290 N.am      1 ALY        -0.2872
     34 CE          0.4500    7.8360  -10.9760 C.3       1 ALY         0.0309
     35 CD         -0.7170    8.6620  -11.4710 C.3       1 ALY        -0.0326
     36 CG         -1.9730    8.1890  -10.7610 C.3       1 ALY        -0.0476
     37 CB         -3.1430    9.0650  -11.1490 C.3       1 ALY        -0.0179
     38 CA         -4.2880    8.9140  -10.1540 C.3       1 ALY         0.0944
     39 N          -4.8120    7.5570  -10.2250 N.am      1 ALY        -0.2697
     40 C          -5.3770    9.8950  -10.5620 C.2       1 ALY         0.0601
     41 O          -6.4210    9.4980  -11.0800 O.co2     1 ALY        -0.5666
     42 H          -3.8791   -2.0761  -14.1171 H         1 GLY         0.2012
     43 H          -3.6672   -3.3167  -13.0250 H         1 GLY         0.2012
     44 H          -5.1507   -2.5698  -13.1599 H         1 GLY         0.2012
     45 H          -4.2897   -0.5284  -12.3625 H         1 GLY         0.1061
     46 H          -2.6568   -1.3505  -12.2139 H         1 GLY         0.1061
     47 H          -2.1255   -2.3077  -10.4003 H         1 LYS         0.1884
     48 H          -4.0314   -3.2380   -8.4877 H         1 LYS         0.0800
     49 H          -1.7482   -2.7438   -7.0118 H         1 LYS         0.0312
     50 H          -1.1435   -3.0394   -8.7263 H         1 LYS         0.0312
     51 H          -3.0199   -4.9284   -7.3832 H         1 LYS         0.0269
     52 H          -1.2354   -4.9879   -7.0575 H         1 LYS         0.0269
     53 H          -1.1591   -4.9413   -9.7001 H         1 LYS         0.0317
     54 H          -2.7882   -5.6880   -9.4953 H         1 LYS         0.0317
     55 H          -0.1366   -6.6707   -8.4330 H         1 LYS         0.0813
     56 H          -1.2179   -7.4523   -9.6734 H         1 LYS         0.0813
     57 H          -1.3518   -8.5202   -7.5460 H         1 LYS         0.1994
     58 H          -1.8150   -7.0954   -6.8164 H         1 LYS         0.1994
     59 H          -2.8040   -7.8104   -7.9510 H         1 LYS         0.1994
     60 H          -3.0203   -0.0480   -9.1792 H         1 GLY         0.1881
     61 H          -3.0375    1.9000   -7.9466 H         1 GLY         0.0763
     62 H          -3.4124    0.9034   -6.4329 H         1 GLY         0.0763
     63 H          -4.6721    2.8929   -5.9623 H         1 LEU         0.1883
     64 H          -7.4497    2.3616   -6.6546 H         1 LEU         0.0800
     65 H          -7.9228    4.4274   -5.3653 H         1 LEU         0.0315
     66 H          -6.0978    4.4324   -4.9945 H         1 LEU         0.0315
     67 H          -6.4296    2.2431   -3.9797 H         1 LEU         0.0298
     68 H          -6.2196    4.2186   -2.5787 H         1 LEU         0.0232
     69 H          -7.9689    4.5274   -2.7033 H         1 LEU         0.0232
     70 H          -7.3789    3.0790   -1.8519 H         1 LEU         0.0232
     71 H          -9.3877    2.8782   -4.2024 H         1 LEU         0.0232
     72 H          -8.5176    1.5484   -5.0059 H         1 LEU         0.0232
     73 H          -8.6855    1.5596   -3.2332 H         1 LEU         0.0232
     74 H          -4.9261    4.4835   -7.7852 H         1 GLY         0.1881
     75 H          -6.8680    5.6518   -9.7354 H         1 GLY         0.0763
     76 H          -5.2144    5.0543  -10.1862 H         1 GLY         0.0763
     77 H           4.5664    7.3894  -12.4616 H         1 ALY         0.0467
     78 H           3.6749    7.4383  -14.0023 H         1 ALY         0.0467
     79 H           3.6842    8.8625  -12.9334 H         1 ALY         0.0467
     80 H           1.8928    9.1717  -11.8485 H         1 ALY         0.1850
     81 H           0.6136    8.0367   -9.9172 H         1 ALY         0.0520
     82 H           0.2309    6.7775  -11.1162 H         1 ALY         0.0520
     83 H          -0.8294    8.5414  -12.5485 H         1 ALY         0.0285
     84 H          -0.5437    9.7172  -11.2598 H         1 ALY         0.0285
     85 H          -1.8211    8.2479   -9.6833 H         1 ALY         0.0268
     86 H          -2.1833    7.1591  -11.0494 H         1 ALY         0.0268
     87 H          -3.4941    8.7644  -12.1362 H         1 ALY         0.0305
     88 H          -2.8165   10.1049  -11.1530 H         1 ALY         0.0305
     89 H          -3.9478    9.1110   -9.1374 H         1 ALY         0.0726
     90 H          -4.8363    7.0873  -11.1301 H         1 ALY         0.1875
     91 O          -5.2085   11.1284  -10.3674 O.co2     1 ALY        -0.5666
@<TRIPOS>BOND
     1    2    1 1  
     2    3    2 1  
     3    3    4 2  
     4    5    3 am 
     5    6    5 1  
     6    7    6 1  
     7    6    9 1  
     8    7    8 2  
     9   14    7 am 
    10    9   10 1  
    11   10   11 1  
    12   11   12 1  
    13   12   13 1  
    14   15   14 1  
    15   16   15 1  
    16   16   17 2  
    17   18   16 am 
    18   19   18 1  
    19   20   19 1  
    20   19   22 1  
    21   20   21 2  
    22   26   20 am 
    23   22   23 1  
    24   23   24 1  
    25   23   25 1  
    26   27   26 1  
    27   28   27 1  
    28   28   29 2  
    29   39   28 am 
    30   31   30 2  
    31   31   32 1  
    32   33   31 am 
    33   34   33 1  
    34   35   34 1  
    35   36   35 1  
    36   37   36 1  
    37   38   37 1  
    38   38   39 1  
    39   38   40 1  
    40   40   41 ar 
    41    1   42 1  
    42    1   43 1  
    43    1   44 1  
    44    2   45 1  
    45    2   46 1  
    46    5   47 1  
    47    6   48 1  
    48    9   49 1  
    49    9   50 1  
    50   10   51 1  
    51   10   52 1  
    52   11   53 1  
    53   11   54 1  
    54   12   55 1  
    55   12   56 1  
    56   13   57 1  
    57   13   58 1  
    58   13   59 1  
    59   14   60 1  
    60   15   61 1  
    61   15   62 1  
    62   18   63 1  
    63   19   64 1  
    64   22   65 1  
    65   22   66 1  
    66   23   67 1  
    67   24   68 1  
    68   24   69 1  
    69   24   70 1  
    70   25   71 1  
    71   25   72 1  
    72   25   73 1  
    73   26   74 1  
    74   27   75 1  
    75   27   76 1  
    76   32   77 1  
    77   32   78 1  
    78   32   79 1  
    79   33   80 1  
    80   34   81 1  
    81   34   82 1  
    82   35   83 1  
    83   35   84 1  
    84   36   85 1  
    85   36   86 1  
    86   37   87 1  
    87   37   88 1  
    88   38   89 1  
    89   39   90 1  
    90   40   91 ar 
@<TRIPOS>SUBSTRUCTURE
     1 GLY         1

