3qzv_ligand
  -I-interpret- 

 92 91  0  0  0  0  0  0  0  0999 V2000
   -4.1410   -2.4300  -13.1970 N   0  3  0  0  0
   -3.7410   -1.4480  -12.1590 C   0  0  0  0  0
   -4.0770   -1.8590  -10.7400 C   0  0  0  0  0
   -5.2390   -1.8170  -10.3390 O   0  0  0  0  0
   -3.0500   -2.2320   -9.9760 N   0  0  0  0  0
   -3.1980   -2.5380   -8.5480 C   0  0  0  0  0
   -3.5750   -1.3210   -7.6910 C   0  0  0  0  0
   -4.0530   -1.4860   -6.5650 O   0  0  0  0  0
   -1.9290   -3.1960   -7.9870 C   0  0  0  0  0
   -2.0210   -4.7070   -7.7590 C   0  0  0  0  0
   -1.8140   -5.5100   -9.0400 C   0  0  0  0  0
   -1.1590   -6.8620   -8.7590 C   0  0  0  0  0
   -1.8360   -7.6330   -7.6830 N   0  3  0  0  0
   -3.3720   -0.1140   -8.2240 N   0  0  0  0  0
   -3.6400    1.1230   -7.4760 C   0  0  0  0  0
   -5.0730    1.6240   -7.5010 C   0  0  0  0  0
   -5.8860    1.1590   -8.2980 O   0  0  0  0  0
   -5.3840    2.5730   -6.6190 N   0  0  0  0  0
   -6.7250    3.1710   -6.5670 C   0  0  0  0  0
   -6.9240    4.1320   -7.7360 C   0  0  0  0  0
   -8.0540    4.3470   -8.1810 O   0  0  0  0  0
   -7.0000    3.8650   -5.2230 C   0  0  0  0  0
   -7.2460    2.9650   -4.0000 C   0  0  0  0  0
   -7.2000    3.7550   -2.6880 C   0  0  0  0  0
   -8.5540    2.1810   -4.1190 C   0  0  0  0  0
   -5.8180    4.6740   -8.2420 N   0  0  0  0  0
   -5.8310    5.5290   -9.4230 C   0  0  0  0  0
   -5.2600    6.9070   -9.1550 C   0  0  0  0  0
   -5.2280    7.3730   -8.0120 O   0  0  0  0  0
    2.2330    6.0520  -12.1830 O   0  0  0  0  0
    2.4390    7.2550  -12.2640 C   0  0  0  0  0
    3.6790    7.7730  -12.9650 C   0  0  0  0  0
    1.6510    8.1880  -11.7290 N   0  0  0  0  0
    0.4500    7.8360  -10.9760 C   0  0  0  0  0
   -0.7170    8.6620  -11.4710 C   0  0  0  0  0
   -1.9730    8.1890  -10.7610 C   0  0  0  0  0
   -3.1430    9.0650  -11.1490 C   0  0  0  0  0
   -4.2880    8.9140  -10.1540 C   0  0  0  0  0
   -4.8120    7.5570  -10.2250 N   0  0  0  0  0
   -5.3770    9.8950  -10.5620 C   0  0  0  0  0
   -6.4210    9.4980  -11.0800 O   0  0  0  0  0
   -5.2085   11.1284  -10.3674 O   0  0  0  0  0
   -3.8791   -2.0761  -14.1171 H   0  0  0  0  0
   -3.6672   -3.3167  -13.0250 H   0  0  0  0  0
   -5.1507   -2.5698  -13.1599 H   0  0  0  0  0
   -4.2897   -0.5284  -12.3625 H   0  0  0  0  0
   -2.6568   -1.3505  -12.2139 H   0  0  0  0  0
   -2.1255   -2.3077  -10.4003 H   0  0  0  0  0
   -4.0314   -3.2380   -8.4877 H   0  0  0  0  0
   -1.7482   -2.7438   -7.0118 H   0  0  0  0  0
   -1.1435   -3.0394   -8.7263 H   0  0  0  0  0
   -3.0199   -4.9284   -7.3832 H   0  0  0  0  0
   -1.2354   -4.9879   -7.0575 H   0  0  0  0  0
   -1.1591   -4.9413   -9.7001 H   0  0  0  0  0
   -2.7882   -5.6880   -9.4953 H   0  0  0  0  0
   -0.1366   -6.6707   -8.4330 H   0  0  0  0  0
   -1.2179   -7.4523   -9.6734 H   0  0  0  0  0
   -1.3518   -8.5202   -7.5460 H   0  0  0  0  0
   -1.8150   -7.0954   -6.8164 H   0  0  0  0  0
   -2.8040   -7.8104   -7.9510 H   0  0  0  0  0
   -3.0203   -0.0480   -9.1792 H   0  0  0  0  0
   -3.0375    1.9000   -7.9466 H   0  0  0  0  0
   -3.4124    0.9034   -6.4329 H   0  0  0  0  0
   -4.6721    2.8929   -5.9623 H   0  0  0  0  0
   -7.4497    2.3616   -6.6546 H   0  0  0  0  0
   -7.9228    4.4274   -5.3653 H   0  0  0  0  0
   -6.0978    4.4324   -4.9945 H   0  0  0  0  0
   -6.4296    2.2431   -3.9797 H   0  0  0  0  0
   -6.2196    4.2186   -2.5787 H   0  0  0  0  0
   -7.9689    4.5274   -2.7033 H   0  0  0  0  0
   -7.3789    3.0790   -1.8519 H   0  0  0  0  0
   -9.3877    2.8782   -4.2024 H   0  0  0  0  0
   -8.5176    1.5484   -5.0059 H   0  0  0  0  0
   -8.6855    1.5596   -3.2332 H   0  0  0  0  0
   -4.9261    4.4835   -7.7852 H   0  0  0  0  0
   -6.8680    5.6518   -9.7354 H   0  0  0  0  0
   -5.2144    5.0543  -10.1862 H   0  0  0  0  0
    4.5664    7.3894  -12.4616 H   0  0  0  0  0
    3.6749    7.4383  -14.0023 H   0  0  0  0  0
    3.6842    8.8625  -12.9334 H   0  0  0  0  0
    1.8928    9.1717  -11.8485 H   0  0  0  0  0
    0.6136    8.0367   -9.9172 H   0  0  0  0  0
    0.2309    6.7775  -11.1162 H   0  0  0  0  0
   -0.8294    8.5414  -12.5485 H   0  0  0  0  0
   -0.5437    9.7172  -11.2598 H   0  0  0  0  0
   -1.8211    8.2479   -9.6833 H   0  0  0  0  0
   -2.1833    7.1591  -11.0494 H   0  0  0  0  0
   -3.4941    8.7644  -12.1362 H   0  0  0  0  0
   -2.8165   10.1049  -11.1530 H   0  0  0  0  0
   -3.9478    9.1110   -9.1374 H   0  0  0  0  0
   -4.8363    7.0873  -11.1301 H   0  0  0  0  0
   -4.3516   11.2727   -9.9594 H   0  0  0  0  0
  2  1  1  0  0  0
  3  2  1  0  0  0
  3  4  2  0  0  0
  5  3  1  0  0  0
  6  5  1  0  0  0
  7  6  1  0  0  0
  6  9  1  0  0  0
  7  8  2  0  0  0
 14  7  1  0  0  0
  9 10  1  0  0  0
 10 11  1  0  0  0
 11 12  1  0  0  0
 12 13  1  0  0  0
 15 14  1  0  0  0
 16 15  1  0  0  0
 16 17  2  0  0  0
 18 16  1  0  0  0
 19 18  1  0  0  0
 20 19  1  0  0  0
 19 22  1  0  0  0
 20 21  2  0  0  0
 26 20  1  0  0  0
 22 23  1  0  0  0
 23 24  1  0  0  0
 23 25  1  0  0  0
 27 26  1  0  0  0
 28 27  1  0  0  0
 28 29  2  0  0  0
 39 28  1  0  0  0
 31 30  2  0  0  0
 31 32  1  0  0  0
 33 31  1  0  0  0
 34 33  1  0  0  0
 35 34  1  0  0  0
 36 35  1  0  0  0
 37 36  1  0  0  0
 38 37  1  0  0  0
 38 39  1  0  0  0
 38 40  1  0  0  0
 40 41  2  0  0  0
 40 42  1  0  0  0
  1 43  1  0  0  0
  1 44  1  0  0  0
  1 45  1  0  0  0
  2 46  1  0  0  0
  2 47  1  0  0  0
  5 48  1  0  0  0
  6 49  1  0  0  0
  9 50  1  0  0  0
  9 51  1  0  0  0
 10 52  1  0  0  0
 10 53  1  0  0  0
 11 54  1  0  0  0
 11 55  1  0  0  0
 12 56  1  0  0  0
 12 57  1  0  0  0
 13 58  1  0  0  0
 13 59  1  0  0  0
 13 60  1  0  0  0
 14 61  1  0  0  0
 15 62  1  0  0  0
 15 63  1  0  0  0
 18 64  1  0  0  0
 19 65  1  0  0  0
 22 66  1  0  0  0
 22 67  1  0  0  0
 23 68  1  0  0  0
 24 69  1  0  0  0
 24 70  1  0  0  0
 24 71  1  0  0  0
 25 72  1  0  0  0
 25 73  1  0  0  0
 25 74  1  0  0  0
 26 75  1  0  0  0
 27 76  1  0  0  0
 27 77  1  0  0  0
 32 78  1  0  0  0
 32 79  1  0  0  0
 32 80  1  0  0  0
 33 81  1  0  0  0
 34 82  1  0  0  0
 34 83  1  0  0  0
 35 84  1  0  0  0
 35 85  1  0  0  0
 36 86  1  0  0  0
 36 87  1  0  0  0
 37 88  1  0  0  0
 37 89  1  0  0  0
 38 90  1  0  0  0
 39 91  1  0  0  0
 42 92  1  0  0  0
M  END
$$$$
