### 
### Created by X-TOOL on Mon Sep 10 21:13:10 2018
### 

@<TRIPOS>MOLECULE
4htp_ligand
  165   169     1     0     0
SMALL
GAST_HUCK


@<TRIPOS>ATOM
      1 N         -10.1310   -5.4170    4.4070 N.4       1 ASP         0.2377
      2 CA         -9.9840   -6.0320    3.0890 C.3       1 ASP         0.0621
      3 C          -8.5470   -5.9620    2.5890 C.2       1 ASP         0.2264
      4 O          -8.3130   -5.9810    1.3730 O.2       1 ASP        -0.3907
      5 CB        -10.9180   -5.3680    2.0790 C.3       1 ASP        -0.0040
      6 N          -7.5890   -5.8750    3.5160 N.am      1 VAL        -0.2608
      7 CA         -6.1840   -5.7350    3.1290 C.3       1 VAL         0.1336
      8 C          -5.5740   -7.0610    2.6980 C.2       1 VAL         0.2067
      9 O          -5.4690   -8.0000    3.4950 O.2       1 VAL        -0.3942
     10 CB         -5.3100   -5.0730    4.2240 C.3       1 VAL        -0.0062
     11 CG1        -3.8240   -5.2110    3.8850 C.3       1 VAL        -0.0584
     12 CG2        -5.6740   -3.6030    4.3700 C.3       1 VAL        -0.0584
     13 N          -5.1600   -7.1300    1.4240 N.am      1 PRO        -0.2498
     14 CA         -4.6080   -8.3450    0.8160 C.3       1 PRO         0.1338
     15 C          -3.2640   -8.7150    1.4250 C.2       1 PRO         0.2041
     16 O          -2.4870   -7.8310    1.7910 O.2       1 PRO        -0.3944
     17 CB         -4.4360   -7.9480   -0.6540 C.3       1 PRO        -0.0104
     18 CG         -4.2530   -6.4570   -0.6220 C.3       1 PRO        -0.0281
     19 CD         -5.1310   -5.9790    0.5010 C.3       1 PRO         0.0369
     20 N          -3.0180  -10.0150    1.5540 N.am      1 GLN        -0.2636
     21 CA         -1.7430  -10.5280    2.0240 C.3       1 GLN         0.1330
     22 C          -0.9420  -10.9360    0.8020 C.2       1 GLN         0.2041
     23 O          -1.4260  -11.6910   -0.0380 O.2       1 GLN        -0.3944
     24 CB         -1.9530  -11.7620    2.9030 C.3       1 GLN         0.0045
     25 CG         -3.0090  -11.5970    3.9690 C.3       1 GLN         0.0412
     26 CD         -2.5950  -10.5990    5.0220 C.2       1 GLN         0.1737
     27 OE1        -2.9360   -9.4110    4.9480 O.2       1 GLN        -0.3973
     28 NE2        -1.8420  -11.0710    6.0070 N.am      1 GLN        -0.3009
     29 N           0.2870  -10.4530    0.7250 N.am      1 TRP        -0.2627
     30 CA          1.1710  -10.7120   -0.3980 C.3       1 TRP         0.1352
     31 C           1.3790  -12.2040   -0.6360 C.2       1 TRP         0.2052
     32 O           1.5500  -12.6350   -1.7630 O.2       1 TRP        -0.3942
     33 CB          2.4990  -10.0340   -0.1230 C.3       1 TRP         0.0042
     34 CG          3.6030  -10.3140   -1.0800 C.2       1 TRP        -0.0418
     35 CD1         4.7940  -10.9270   -0.7980 C.2       1 TRP         0.0167
     36 CD2         3.6590   -9.9480   -2.4600 C.ar      1 TRP        -0.0214
     37 NE1         5.5820  -10.9680   -1.9190 N.pl3     1 TRP        -0.2890
     38 CE2         4.9080  -10.3780   -2.9560 C.ar      1 TRP         0.0603
     39 CE3         2.7720   -9.3020   -3.3290 C.ar      1 TRP        -0.0747
     40 CZ2         5.2940  -10.1840   -4.2850 C.ar      1 TRP        -0.0443
     41 CZ3         3.1590   -9.1100   -4.6540 C.ar      1 TRP        -0.0792
     42 CH2         4.4100   -9.5500   -5.1150 C.ar      1 TRP        -0.0768
     43 N           1.3250  -12.9860    0.4340 N.am      1 GLU        -0.2635
     44 CA          1.7070  -14.3890    0.3860 C.3       1 GLU         0.1325
     45 C           0.7340  -15.2540   -0.4180 C.2       1 GLU         0.2040
     46 O           1.0480  -16.3860   -0.7520 O.2       1 GLU        -0.3944
     47 CB          1.8280  -14.9530    1.8040 C.3       1 GLU        -0.0008
     48 CG          0.5040  -14.9330    2.5650 C.3       1 GLU         0.0044
     49 CD          0.6720  -14.8810    4.0830 C.2       1 GLU         0.0350
     50 OE1         1.7150  -15.3570    4.5890 O.co2     1 GLU        -0.5690
     51 OE2        -0.2430  -14.3580    4.7660 O.co2     1 GLU        -0.5690
     52 N          -0.4530  -14.7370   -0.7010 N.am      1 VAL        -0.2635
     53 CA         -1.4210  -15.4980   -1.4920 C.3       1 VAL         0.1333
     54 C          -1.3910  -15.0130   -2.9410 C.2       1 VAL         0.2043
     55 O          -2.1810  -15.4700   -3.7650 O.2       1 VAL        -0.3944
     56 CB         -2.8590  -15.4290   -0.9020 C.3       1 VAL        -0.0063
     57 CG1        -2.8380  -15.7970    0.5780 C.3       1 VAL        -0.0584
     58 CG2        -3.4490  -14.0390   -1.0660 C.3       1 VAL        -0.0584
     59 N          -0.4640  -14.0930   -3.2250 N.am      1 PHE        -0.2619
     60 CA         -0.2350  -13.5500   -4.5660 C.3       1 PHE         0.1404
     61 C           1.0960  -13.9990   -5.1400 C.2       1 PHE         0.2061
     62 O           1.2550  -14.0880   -6.3610 O.2       1 PHE        -0.3942
     63 CB         -0.2560  -12.0140   -4.5400 C.3       1 PHE         0.0214
     64 CG         -1.6230  -11.4450   -4.3430 C.ar      1 PHE        -0.0386
     65 CD1        -2.3460  -10.9670   -5.4210 C.ar      1 PHE        -0.0601
     66 CD2        -2.2030  -11.4260   -3.0790 C.ar      1 PHE        -0.0601
     67 CE1        -3.6150  -10.4580   -5.2450 C.ar      1 PHE        -0.0686
     68 CE2        -3.4720  -10.9260   -2.8970 C.ar      1 PHE        -0.0686
     69 CZ         -4.1820  -10.4350   -3.9780 C.ar      1 PHE        -0.0687
     70 N           2.0510  -14.2640   -4.2510 N.am      1 PHE        -0.2618
     71 CA          3.4110  -14.6000   -4.6460 C.3       1 PHE         0.1404
     72 C           4.1200  -15.4660   -3.6140 C.2       1 PHE         0.2054
     73 O           4.7560  -16.4620   -3.9540 O.2       1 PHE        -0.3942
     74 CB          4.2190  -13.3190   -4.8660 C.3       1 PHE         0.0214
     75 CG          5.6320  -13.5530   -5.3370 C.ar      1 PHE        -0.0386
     76 CD1         5.9250  -13.6010   -6.6940 C.ar      1 PHE        -0.0601
     77 CD2         6.6690  -13.7090   -4.4230 C.ar      1 PHE        -0.0601
     78 CE1         7.2290  -13.8020   -7.1280 C.ar      1 PHE        -0.0686
     79 CE2         7.9650  -13.9230   -4.8460 C.ar      1 PHE        -0.0686
     80 CZ          8.2500  -13.9650   -6.1990 C.ar      1 PHE        -0.0687
     81 N           4.0310  -15.0730   -2.3520 N.am      1 LYS        -0.2696
     82 CA          4.8310  -15.7320   -1.3110 C.3       1 LYS         0.0916
     83 C           3.9930  -16.6000   -0.3450 C.2       1 LYS         0.0598
     84 O           3.3913  -17.6319   -0.7458 O.co2     1 LYS        -0.5666
     85 CB          5.7240  -14.6820   -0.5230 C.3       1 LYS        -0.0300
     86 H          -9.5003   -5.8733    5.0661 H         1 ASP         0.2015
     87 H          -9.9010   -4.4252    4.3456 H         1 ASP         0.2015
     88 H         -11.0939   -5.5249    4.7257 H         1 ASP         0.2015
     89 H         -10.2539   -7.0831    3.1915 H         1 ASP         0.1095
     90 H         -10.6309   -4.3241    1.9522 H         1 ASP         0.0310
     91 H         -10.8436   -5.8854    1.1225 H         1 ASP         0.0310
     92 H         -11.9436   -5.4223    2.4441 H         1 ASP         0.0310
     93 H          -7.8392   -5.9065    4.5043 H         1 VAL         0.1885
     94 H          -6.1904   -5.0621    2.2715 H         1 VAL         0.0803
     95 H          -5.5004   -5.5825    5.1686 H         1 VAL         0.0343
     96 H          -3.5648   -6.2675    3.8168 H         1 VAL         0.0234
     97 H          -3.6236   -4.7241    2.9306 H         1 VAL         0.0234
     98 H          -3.2289   -4.7393    4.6670 H         1 VAL         0.0234
     99 H          -5.5060   -3.0925    3.4217 H         1 VAL         0.0234
    100 H          -6.7239   -3.5160    4.6499 H         1 VAL         0.0234
    101 H          -5.0520   -3.1510    5.1426 H         1 VAL         0.0234
    102 H          -5.2466   -9.2157    0.9649 H         1 PRO         0.0802
    103 H          -5.2935   -8.2415   -1.2595 H         1 PRO         0.0313
    104 H          -3.5889   -8.4538   -1.1174 H         1 PRO         0.0313
    105 H          -4.5265   -5.9968   -1.5715 H         1 PRO         0.0287
    106 H          -3.2102   -6.1821   -0.4635 H         1 PRO         0.0287
    107 H          -4.7519   -5.0726    0.9729 H         1 PRO         0.0524
    108 H          -6.1252   -5.6887    0.1614 H         1 PRO         0.0524
    109 H          -3.7541  -10.6788    1.3133 H         1 GLN         0.1883
    110 H          -1.2289   -9.7655    2.6091 H         1 GLN         0.0801
    111 H          -1.0099  -11.9542    3.4145 H         1 GLN         0.0337
    112 H          -2.2833  -12.5683    2.2481 H         1 GLN         0.0337
    113 H          -3.1593  -12.5619    4.4532 H         1 GLN         0.0504
    114 H          -3.9203  -11.2340    3.4938 H         1 GLN         0.0504
    115 H          -1.5186  -10.4466    6.7459 H         1 GLN         0.1814
    116 H          -1.5864  -12.0583    6.0254 H         1 GLN         0.1814
    117 H           0.6298   -9.8717    1.4898 H         1 TRP         0.1884
    118 H           0.7135  -10.3122   -1.3030 H         1 TRP         0.0815
    119 H           2.8352  -10.4126    0.8423 H         1 TRP         0.0397
    120 H           2.3086   -8.9628   -0.1894 H         1 TRP         0.0397
    121 H           5.0752  -11.3250    0.1770 H         1 TRP         0.0795
    122 H           6.5172  -11.3717   -1.9725 H         1 TRP         0.2216
    123 H           1.7999   -8.9567   -2.9771 H         1 TRP         0.0540
    124 H           6.2638  -10.5252   -4.6472 H         1 TRP         0.0541
    125 H           2.4792   -8.6099   -5.3438 H         1 TRP         0.0510
    126 H           4.6830   -9.3829   -6.1569 H         1 TRP         0.0530
    127 H           1.0055  -12.5912    1.3186 H         1 GLU         0.1883
    128 H           2.6698  -14.4250   -0.1238 H         1 GLU         0.0801
    129 H           2.5364  -14.3308    2.3510 H         1 GLU         0.0330
    130 H           2.1507  -15.9910    1.7236 H         1 GLU         0.0330
    131 H          -0.0245  -15.8559    2.3260 H         1 GLU         0.0433
    132 H          -0.0323  -14.0329    2.2644 H         1 GLU         0.0433
    133 H          -0.6931  -13.8040   -0.3658 H         1 VAL         0.1883
    134 H          -1.1313  -16.5483   -1.4582 H         1 VAL         0.0802
    135 H          -3.4796  -16.1398   -1.4476 H         1 VAL         0.0343
    136 H          -2.4519  -16.8097    0.6938 H         1 VAL         0.0234
    137 H          -2.1967  -15.0986    1.1157 H         1 VAL         0.0234
    138 H          -3.8504  -15.7447    0.9785 H         1 VAL         0.0234
    139 H          -2.8218  -13.3157   -0.5449 H         1 VAL         0.0234
    140 H          -3.4929  -13.7870   -2.1256 H         1 VAL         0.0234
    141 H          -4.4542  -14.0203   -0.6448 H         1 VAL         0.0234
    142 H           0.1189  -13.7484   -2.4622 H         1 PHE         0.1885
    143 H          -1.0394  -13.9290   -5.1964 H         1 PHE         0.0823
    144 H           0.1110  -11.6632   -5.5045 H         1 PHE         0.0474
    145 H           0.3596  -11.6903   -3.7008 H         1 PHE         0.0474
    146 H          -1.9083  -10.9930   -6.4189 H         1 PHE         0.0557
    147 H          -1.6469  -11.8109   -2.2242 H         1 PHE         0.0557
    148 H          -4.1724  -10.0741   -6.0994 H         1 PHE         0.0599
    149 H          -3.9173  -10.9168   -1.9022 H         1 PHE         0.0599
    150 H          -5.1843  -10.0310   -3.8353 H         1 PHE         0.0559
    151 H           1.8214  -14.2304   -3.2577 H         1 PHE         0.1885
    152 H           3.3429  -15.1729   -5.5708 H         1 PHE         0.0823
    153 H           4.2807  -12.8085   -3.9049 H         1 PHE         0.0474
    154 H           3.7113  -12.7479   -5.6433 H         1 PHE         0.0474
    155 H           5.1249  -13.4799   -7.4243 H         1 PHE         0.0557
    156 H           6.4544  -13.6614   -3.3554 H         1 PHE         0.0557
    157 H           7.4512  -13.8318   -8.1947 H         1 PHE         0.0599
    158 H           8.7625  -14.0587   -4.1155 H         1 PHE         0.0599
    159 H           9.2740  -14.1257   -6.5362 H         1 PHE         0.0559
    160 H           3.4036  -14.3087   -2.1018 H         1 LYS         0.1875
    161 H           5.4928  -16.4240   -1.8318 H         1 LYS         0.0723
    162 O           3.9099  -16.2689    0.8679 O.co2     1 LYS        -0.5666
    163 H           6.3995  -14.1860   -1.2200 H         1 LYS         0.0270
    164 H           5.0793  -13.9410   -0.0503 H         1 LYS         0.0270
    165 H           6.3040  -15.2007    0.2403 H         1 LYS         0.0270
@<TRIPOS>BOND
     1    1    2 1  
     2    2    3 1  
     3    2    5 1  
     4    3    4 2  
     5    3    6 am 
     6    6    7 1  
     7    7    8 1  
     8    7   10 1  
     9    8    9 2  
    10    8   13 am 
    11   10   11 1  
    12   10   12 1  
    13   13   14 1  
    14   13   19 1  
    15   14   15 1  
    16   14   17 1  
    17   15   16 2  
    18   15   20 am 
    19   17   18 1  
    20   18   19 1  
    21   20   21 1  
    22   21   22 1  
    23   21   24 1  
    24   22   23 2  
    25   22   29 am 
    26   24   25 1  
    27   25   26 1  
    28   26   27 2  
    29   26   28 am 
    30   29   30 1  
    31   30   31 1  
    32   30   33 1  
    33   31   32 2  
    34   31   43 am 
    35   33   34 1  
    36   34   35 2  
    37   34   36 1  
    38   35   37 1  
    39   36   38 ar 
    40   36   39 ar 
    41   37   38 1  
    42   38   40 ar 
    43   39   41 ar 
    44   40   42 ar 
    45   41   42 ar 
    46   43   44 1  
    47   44   45 1  
    48   44   47 1  
    49   45   46 2  
    50   45   52 am 
    51   47   48 1  
    52   48   49 1  
    53   49   50 ar 
    54   49   51 ar 
    55   52   53 1  
    56   53   54 1  
    57   53   56 1  
    58   54   55 2  
    59   54   59 am 
    60   56   57 1  
    61   56   58 1  
    62   59   60 1  
    63   60   61 1  
    64   60   63 1  
    65   61   62 2  
    66   61   70 am 
    67   63   64 1  
    68   64   65 ar 
    69   64   66 ar 
    70   65   67 ar 
    71   66   68 ar 
    72   67   69 ar 
    73   68   69 ar 
    74   70   71 1  
    75   71   72 1  
    76   71   74 1  
    77   72   73 2  
    78   72   81 am 
    79   74   75 1  
    80   75   76 ar 
    81   75   77 ar 
    82   76   78 ar 
    83   77   79 ar 
    84   78   80 ar 
    85   79   80 ar 
    86   81   82 1  
    87   82   83 1  
    88   82   85 1  
    89   83   84 ar 
    90    1   86 1  
    91    1   87 1  
    92    1   88 1  
    93    2   89 1  
    94    5   90 1  
    95    5   91 1  
    96    5   92 1  
    97    6   93 1  
    98    7   94 1  
    99   10   95 1  
   100   11   96 1  
   101   11   97 1  
   102   11   98 1  
   103   12   99 1  
   104   12  100 1  
   105   12  101 1  
   106   14  102 1  
   107   17  103 1  
   108   17  104 1  
   109   18  105 1  
   110   18  106 1  
   111   19  107 1  
   112   19  108 1  
   113   20  109 1  
   114   21  110 1  
   115   24  111 1  
   116   24  112 1  
   117   25  113 1  
   118   25  114 1  
   119   28  115 1  
   120   28  116 1  
   121   29  117 1  
   122   30  118 1  
   123   33  119 1  
   124   33  120 1  
   125   35  121 1  
   126   37  122 1  
   127   39  123 1  
   128   40  124 1  
   129   41  125 1  
   130   42  126 1  
   131   43  127 1  
   132   44  128 1  
   133   47  129 1  
   134   47  130 1  
   135   48  131 1  
   136   48  132 1  
   137   52  133 1  
   138   53  134 1  
   139   56  135 1  
   140   57  136 1  
   141   57  137 1  
   142   57  138 1  
   143   58  139 1  
   144   58  140 1  
   145   58  141 1  
   146   59  142 1  
   147   60  143 1  
   148   63  144 1  
   149   63  145 1  
   150   65  146 1  
   151   66  147 1  
   152   67  148 1  
   153   68  149 1  
   154   69  150 1  
   155   70  151 1  
   156   71  152 1  
   157   74  153 1  
   158   74  154 1  
   159   76  155 1  
   160   77  156 1  
   161   78  157 1  
   162   79  158 1  
   163   80  159 1  
   164   81  160 1  
   165   82  161 1  
   166   83  162 ar 
   167   85  163 1  
   168   85  164 1  
   169   85  165 1  
@<TRIPOS>SUBSTRUCTURE
     1 ASP         1

