4htp_ligand
  -I-interpret- 

166170  0  0  0  0  0  0  0  0999 V2000
  -10.1310   -5.4170    4.4070 N   0  3  0  0  0
   -9.9840   -6.0320    3.0890 C   0  0  0  0  0
   -8.5470   -5.9620    2.5890 C   0  0  0  0  0
   -8.3130   -5.9810    1.3730 O   0  0  0  0  0
  -10.9180   -5.3680    2.0790 C   0  0  0  0  0
   -7.5890   -5.8750    3.5160 N   0  0  0  0  0
   -6.1840   -5.7350    3.1290 C   0  0  0  0  0
   -5.5740   -7.0610    2.6980 C   0  0  0  0  0
   -5.4690   -8.0000    3.4950 O   0  0  0  0  0
   -5.3100   -5.0730    4.2240 C   0  0  0  0  0
   -3.8240   -5.2110    3.8850 C   0  0  0  0  0
   -5.6740   -3.6030    4.3700 C   0  0  0  0  0
   -5.1600   -7.1300    1.4240 N   0  0  0  0  0
   -4.6080   -8.3450    0.8160 C   0  0  0  0  0
   -3.2640   -8.7150    1.4250 C   0  0  0  0  0
   -2.4870   -7.8310    1.7910 O   0  0  0  0  0
   -4.4360   -7.9480   -0.6540 C   0  0  0  0  0
   -4.2530   -6.4570   -0.6220 C   0  0  0  0  0
   -5.1310   -5.9790    0.5010 C   0  0  0  0  0
   -3.0180  -10.0150    1.5540 N   0  0  0  0  0
   -1.7430  -10.5280    2.0240 C   0  0  0  0  0
   -0.9420  -10.9360    0.8020 C   0  0  0  0  0
   -1.4260  -11.6910   -0.0380 O   0  0  0  0  0
   -1.9530  -11.7620    2.9030 C   0  0  0  0  0
   -3.0090  -11.5970    3.9690 C   0  0  0  0  0
   -2.5950  -10.5990    5.0220 C   0  0  0  0  0
   -2.9360   -9.4110    4.9480 O   0  0  0  0  0
   -1.8420  -11.0710    6.0070 N   0  0  0  0  0
    0.2870  -10.4530    0.7250 N   0  0  0  0  0
    1.1710  -10.7120   -0.3980 C   0  0  0  0  0
    1.3790  -12.2040   -0.6360 C   0  0  0  0  0
    1.5500  -12.6350   -1.7630 O   0  0  0  0  0
    2.4990  -10.0340   -0.1230 C   0  0  0  0  0
    3.6030  -10.3140   -1.0800 C   0  0  0  0  0
    4.7940  -10.9270   -0.7980 C   0  0  0  0  0
    3.6590   -9.9480   -2.4600 C   0  0  0  0  0
    5.5820  -10.9680   -1.9190 N   0  0  0  0  0
    4.9080  -10.3780   -2.9560 C   0  0  0  0  0
    2.7720   -9.3020   -3.3290 C   0  0  0  0  0
    5.2940  -10.1840   -4.2850 C   0  0  0  0  0
    3.1590   -9.1100   -4.6540 C   0  0  0  0  0
    4.4100   -9.5500   -5.1150 C   0  0  0  0  0
    1.3250  -12.9860    0.4340 N   0  0  0  0  0
    1.7070  -14.3890    0.3860 C   0  0  0  0  0
    0.7340  -15.2540   -0.4180 C   0  0  0  0  0
    1.0480  -16.3860   -0.7520 O   0  0  0  0  0
    1.8280  -14.9530    1.8040 C   0  0  0  0  0
    0.5040  -14.9330    2.5650 C   0  0  0  0  0
    0.6720  -14.8810    4.0830 C   0  0  0  0  0
    1.7150  -15.3570    4.5890 O   0  0  0  0  0
   -0.2430  -14.3580    4.7660 O   0  0  0  0  0
   -0.4530  -14.7370   -0.7010 N   0  0  0  0  0
   -1.4210  -15.4980   -1.4920 C   0  0  0  0  0
   -1.3910  -15.0130   -2.9410 C   0  0  0  0  0
   -2.1810  -15.4700   -3.7650 O   0  0  0  0  0
   -2.8590  -15.4290   -0.9020 C   0  0  0  0  0
   -2.8380  -15.7970    0.5780 C   0  0  0  0  0
   -3.4490  -14.0390   -1.0660 C   0  0  0  0  0
   -0.4640  -14.0930   -3.2250 N   0  0  0  0  0
   -0.2350  -13.5500   -4.5660 C   0  0  0  0  0
    1.0960  -13.9990   -5.1400 C   0  0  0  0  0
    1.2550  -14.0880   -6.3610 O   0  0  0  0  0
   -0.2560  -12.0140   -4.5400 C   0  0  0  0  0
   -1.6230  -11.4450   -4.3430 C   0  0  0  0  0
   -2.3460  -10.9670   -5.4210 C   0  0  0  0  0
   -2.2030  -11.4260   -3.0790 C   0  0  0  0  0
   -3.6150  -10.4580   -5.2450 C   0  0  0  0  0
   -3.4720  -10.9260   -2.8970 C   0  0  0  0  0
   -4.1820  -10.4350   -3.9780 C   0  0  0  0  0
    2.0510  -14.2640   -4.2510 N   0  0  0  0  0
    3.4110  -14.6000   -4.6460 C   0  0  0  0  0
    4.1200  -15.4660   -3.6140 C   0  0  0  0  0
    4.7560  -16.4620   -3.9540 O   0  0  0  0  0
    4.2190  -13.3190   -4.8660 C   0  0  0  0  0
    5.6320  -13.5530   -5.3370 C   0  0  0  0  0
    5.9250  -13.6010   -6.6940 C   0  0  0  0  0
    6.6690  -13.7090   -4.4230 C   0  0  0  0  0
    7.2290  -13.8020   -7.1280 C   0  0  0  0  0
    7.9650  -13.9230   -4.8460 C   0  0  0  0  0
    8.2500  -13.9650   -6.1990 C   0  0  0  0  0
    4.0310  -15.0730   -2.3520 N   0  0  0  0  0
    4.8310  -15.7320   -1.3110 C   0  0  0  0  0
    3.9930  -16.6000   -0.3450 C   0  0  0  0  0
    3.3913  -17.6319   -0.7458 O   0  0  0  0  0
    5.7240  -14.6820   -0.5230 C   0  0  0  0  0
    3.9099  -16.2689    0.8679 O   0  0  0  0  0
   -9.5003   -5.8733    5.0661 H   0  0  0  0  0
   -9.9010   -4.4252    4.3456 H   0  0  0  0  0
  -11.0939   -5.5249    4.7257 H   0  0  0  0  0
  -10.2539   -7.0831    3.1915 H   0  0  0  0  0
  -10.6309   -4.3241    1.9522 H   0  0  0  0  0
  -10.8436   -5.8854    1.1225 H   0  0  0  0  0
  -11.9436   -5.4223    2.4441 H   0  0  0  0  0
   -7.8392   -5.9065    4.5043 H   0  0  0  0  0
   -6.1904   -5.0621    2.2715 H   0  0  0  0  0
   -5.5004   -5.5825    5.1686 H   0  0  0  0  0
   -3.5648   -6.2675    3.8168 H   0  0  0  0  0
   -3.6236   -4.7241    2.9306 H   0  0  0  0  0
   -3.2289   -4.7393    4.6670 H   0  0  0  0  0
   -5.5060   -3.0925    3.4217 H   0  0  0  0  0
   -6.7239   -3.5160    4.6499 H   0  0  0  0  0
   -5.0520   -3.1510    5.1426 H   0  0  0  0  0
   -5.2466   -9.2157    0.9649 H   0  0  0  0  0
   -5.2935   -8.2415   -1.2595 H   0  0  0  0  0
   -3.5889   -8.4538   -1.1174 H   0  0  0  0  0
   -4.5265   -5.9968   -1.5715 H   0  0  0  0  0
   -3.2102   -6.1821   -0.4635 H   0  0  0  0  0
   -4.7519   -5.0726    0.9729 H   0  0  0  0  0
   -6.1252   -5.6887    0.1614 H   0  0  0  0  0
   -3.7541  -10.6788    1.3133 H   0  0  0  0  0
   -1.2289   -9.7655    2.6091 H   0  0  0  0  0
   -1.0099  -11.9542    3.4145 H   0  0  0  0  0
   -2.2833  -12.5683    2.2481 H   0  0  0  0  0
   -3.1593  -12.5619    4.4532 H   0  0  0  0  0
   -3.9203  -11.2340    3.4938 H   0  0  0  0  0
   -1.5186  -10.4466    6.7459 H   0  0  0  0  0
   -1.5864  -12.0583    6.0254 H   0  0  0  0  0
    0.6298   -9.8717    1.4898 H   0  0  0  0  0
    0.7135  -10.3122   -1.3030 H   0  0  0  0  0
    2.8352  -10.4126    0.8423 H   0  0  0  0  0
    2.3086   -8.9628   -0.1894 H   0  0  0  0  0
    5.0752  -11.3250    0.1770 H   0  0  0  0  0
    1.7999   -8.9567   -2.9771 H   0  0  0  0  0
    6.2638  -10.5252   -4.6472 H   0  0  0  0  0
    2.4792   -8.6099   -5.3438 H   0  0  0  0  0
    4.6830   -9.3829   -6.1569 H   0  0  0  0  0
    1.0055  -12.5912    1.3186 H   0  0  0  0  0
    2.6698  -14.4250   -0.1238 H   0  0  0  0  0
    2.5364  -14.3308    2.3510 H   0  0  0  0  0
    2.1507  -15.9910    1.7236 H   0  0  0  0  0
   -0.0245  -15.8559    2.3260 H   0  0  0  0  0
   -0.0323  -14.0329    2.2644 H   0  0  0  0  0
   -0.9454  -14.0601    4.1833 H   0  0  0  0  0
   -0.6931  -13.8040   -0.3658 H   0  0  0  0  0
   -1.1313  -16.5483   -1.4582 H   0  0  0  0  0
   -3.4796  -16.1398   -1.4476 H   0  0  0  0  0
   -2.4519  -16.8097    0.6938 H   0  0  0  0  0
   -2.1967  -15.0986    1.1157 H   0  0  0  0  0
   -3.8504  -15.7447    0.9785 H   0  0  0  0  0
   -2.8218  -13.3157   -0.5449 H   0  0  0  0  0
   -3.4929  -13.7870   -2.1256 H   0  0  0  0  0
   -4.4542  -14.0203   -0.6448 H   0  0  0  0  0
    0.1189  -13.7484   -2.4622 H   0  0  0  0  0
   -1.0394  -13.9290   -5.1964 H   0  0  0  0  0
    0.1110  -11.6632   -5.5045 H   0  0  0  0  0
    0.3596  -11.6903   -3.7008 H   0  0  0  0  0
   -1.9083  -10.9930   -6.4189 H   0  0  0  0  0
   -1.6469  -11.8109   -2.2242 H   0  0  0  0  0
   -4.1724  -10.0741   -6.0994 H   0  0  0  0  0
   -3.9173  -10.9168   -1.9022 H   0  0  0  0  0
   -5.1843  -10.0310   -3.8353 H   0  0  0  0  0
    1.8214  -14.2304   -3.2577 H   0  0  0  0  0
    3.3429  -15.1729   -5.5708 H   0  0  0  0  0
    4.2807  -12.8085   -3.9049 H   0  0  0  0  0
    3.7113  -12.7479   -5.6433 H   0  0  0  0  0
    5.1249  -13.4799   -7.4243 H   0  0  0  0  0
    6.4544  -13.6614   -3.3554 H   0  0  0  0  0
    7.4512  -13.8318   -8.1947 H   0  0  0  0  0
    8.7625  -14.0587   -4.1155 H   0  0  0  0  0
    9.2740  -14.1257   -6.5362 H   0  0  0  0  0
    3.4036  -14.3087   -2.1018 H   0  0  0  0  0
    5.4928  -16.4240   -1.8318 H   0  0  0  0  0
    6.3995  -14.1860   -1.2200 H   0  0  0  0  0
    5.0793  -13.9410   -0.0503 H   0  0  0  0  0
    6.3040  -15.2007    0.2403 H   0  0  0  0  0
    4.4185  -15.4681    1.0154 H   0  0  0  0  0
  1  2  1  0  0  0
  2  3  1  0  0  0
  2  5  1  0  0  0
  3  4  2  0  0  0
  3  6  1  0  0  0
  6  7  1  0  0  0
  7  8  1  0  0  0
  7 10  1  0  0  0
  8  9  2  0  0  0
  8 13  1  0  0  0
 10 11  1  0  0  0
 10 12  1  0  0  0
 13 14  1  0  0  0
 13 19  1  0  0  0
 14 15  1  0  0  0
 14 17  1  0  0  0
 15 16  2  0  0  0
 15 20  1  0  0  0
 17 18  1  0  0  0
 18 19  1  0  0  0
 20 21  1  0  0  0
 21 22  1  0  0  0
 21 24  1  0  0  0
 22 23  2  0  0  0
 22 29  1  0  0  0
 24 25  1  0  0  0
 25 26  1  0  0  0
 26 27  2  0  0  0
 26 28  1  0  0  0
 29 30  1  0  0  0
 30 31  1  0  0  0
 30 33  1  0  0  0
 31 32  2  0  0  0
 31 43  1  0  0  0
 33 34  1  0  0  0
 34 35  4  0  0  0
 34 36  4  0  0  0
 35 37  4  0  0  0
 36 38  4  0  0  0
 36 39  4  0  0  0
 37 38  4  0  0  0
 38 40  4  0  0  0
 39 41  4  0  0  0
 40 42  4  0  0  0
 41 42  4  0  0  0
 43 44  1  0  0  0
 44 45  1  0  0  0
 44 47  1  0  0  0
 45 46  2  0  0  0
 45 52  1  0  0  0
 47 48  1  0  0  0
 48 49  1  0  0  0
 49 50  2  0  0  0
 49 51  1  0  0  0
 52 53  1  0  0  0
 53 54  1  0  0  0
 53 56  1  0  0  0
 54 55  2  0  0  0
 54 59  1  0  0  0
 56 57  1  0  0  0
 56 58  1  0  0  0
 59 60  1  0  0  0
 60 61  1  0  0  0
 60 63  1  0  0  0
 61 62  2  0  0  0
 61 70  1  0  0  0
 63 64  1  0  0  0
 64 65  4  0  0  0
 64 66  4  0  0  0
 65 67  4  0  0  0
 66 68  4  0  0  0
 67 69  4  0  0  0
 68 69  4  0  0  0
 70 71  1  0  0  0
 71 72  1  0  0  0
 71 74  1  0  0  0
 72 73  2  0  0  0
 72 81  1  0  0  0
 74 75  1  0  0  0
 75 76  4  0  0  0
 75 77  4  0  0  0
 76 78  4  0  0  0
 77 79  4  0  0  0
 78 80  4  0  0  0
 79 80  4  0  0  0
 81 82  1  0  0  0
 82 83  1  0  0  0
 82 85  1  0  0  0
 83 84  2  0  0  0
 83 86  1  0  0  0
  1 87  1  0  0  0
  1 88  1  0  0  0
  1 89  1  0  0  0
  2 90  1  0  0  0
  5 91  1  0  0  0
  5 92  1  0  0  0
  5 93  1  0  0  0
  6 94  1  0  0  0
  7 95  1  0  0  0
 10 96  1  0  0  0
 11 97  1  0  0  0
 11 98  1  0  0  0
 11 99  1  0  0  0
 12100  1  0  0  0
 12101  1  0  0  0
 12102  1  0  0  0
 14103  1  0  0  0
 17104  1  0  0  0
 17105  1  0  0  0
 18106  1  0  0  0
 18107  1  0  0  0
 19108  1  0  0  0
 19109  1  0  0  0
 20110  1  0  0  0
 21111  1  0  0  0
 24112  1  0  0  0
 24113  1  0  0  0
 25114  1  0  0  0
 25115  1  0  0  0
 28116  1  0  0  0
 28117  1  0  0  0
 29118  1  0  0  0
 30119  1  0  0  0
 33120  1  0  0  0
 33121  1  0  0  0
 35122  1  0  0  0
 39123  1  0  0  0
 40124  1  0  0  0
 41125  1  0  0  0
 42126  1  0  0  0
 43127  1  0  0  0
 44128  1  0  0  0
 47129  1  0  0  0
 47130  1  0  0  0
 48131  1  0  0  0
 48132  1  0  0  0
 51133  1  0  0  0
 52134  1  0  0  0
 53135  1  0  0  0
 56136  1  0  0  0
 57137  1  0  0  0
 57138  1  0  0  0
 57139  1  0  0  0
 58140  1  0  0  0
 58141  1  0  0  0
 58142  1  0  0  0
 59143  1  0  0  0
 60144  1  0  0  0
 63145  1  0  0  0
 63146  1  0  0  0
 65147  1  0  0  0
 66148  1  0  0  0
 67149  1  0  0  0
 68150  1  0  0  0
 69151  1  0  0  0
 70152  1  0  0  0
 71153  1  0  0  0
 74154  1  0  0  0
 74155  1  0  0  0
 76156  1  0  0  0
 77157  1  0  0  0
 78158  1  0  0  0
 79159  1  0  0  0
 80160  1  0  0  0
 81161  1  0  0  0
 82162  1  0  0  0
 85163  1  0  0  0
 85164  1  0  0  0
 85165  1  0  0  0
 86166  1  0  0  0
M  END
$$$$
