5x5o_ligand
  -I-interpret- 

 44 47  0  0  0  0  0  0  0  0999 V2000
   15.2670    1.9340    2.2820 C   0  0  0  0  0
   14.5870    1.8390    3.5360 O   0  0  0  0  0
   13.2300    1.9160    3.4050 C   0  0  0  0  0
   12.3240    2.0050    4.3680 C   0  0  0  0  0
   12.4190    2.0420    5.7040 C   0  0  0  0  0
   12.6020    1.9430    2.2240 N   0  0  0  0  0
   11.3640    2.0410    2.4130 N   0  0  0  0  0
   11.1440    2.0910    3.7300 C   0  0  0  0  0
   10.0010    2.1910    4.4120 N   0  0  0  0  0
   10.0230    2.2110    5.7930 C   0  0  0  0  0
   11.2520    2.1430    6.4550 C   0  0  0  0  0
   11.1520    2.1900    7.9200 C   0  0  0  0  0
   11.0190    2.2290    9.1000 C   0  0  0  0  0
   10.8600    2.2810   10.5620 C   0  0  0  0  0
   10.9550    3.5060   11.2110 C   0  0  0  0  0
   11.1670    4.5290   10.5560 F   0  0  0  0  0
   10.6410    1.1290   11.3120 C   0  0  0  0  0
   10.5540   -0.0900   10.6850 F   0  0  0  0  0
   10.4950    1.2150   12.6900 C   0  0  0  0  0
   10.5820    2.4580   13.3350 C   0  0  0  0  0
   10.8150    3.6070   12.5850 C   0  0  0  0  0
   10.9340    4.8580   13.0710 N   0  0  0  0  0
   10.7390    5.1420   14.6520 S   0  0  0  0  0
   11.1250    6.5850   14.9310 O   0  0  0  0  0
   11.6100    4.2340   15.4820 O   0  0  0  0  0
    9.0370    4.9940   15.1490 C   0  0  0  0  0
    8.6880    4.5550   16.4180 C   0  0  0  0  0
    7.3520    4.4710   16.7960 C   0  0  0  0  0
    6.9300    3.8660   18.5060 Br  0  0  0  0  0
    6.3310    4.8390   15.9260 C   0  0  0  0  0
    6.6860    5.2910   14.6640 C   0  0  0  0  0
    8.0240    5.3750   14.2870 C   0  0  0  0  0
   14.9461    1.1188    1.6335 H   0  0  0  0  0
   15.0292    2.8886    1.8126 H   0  0  0  0  0
   16.3423    1.8668    2.4472 H   0  0  0  0  0
   13.3919    1.9939    6.1932 H   0  0  0  0  0
    9.0940    2.2789    6.3591 H   0  0  0  0  0
   10.3119    0.3127   13.2735 H   0  0  0  0  0
   10.4678    2.5234   14.4170 H   0  0  0  0  0
   11.1480    5.6297   12.4393 H   0  0  0  0  0
    9.4680    4.2733   17.1254 H   0  0  0  0  0
    5.2853    4.7742   16.2266 H   0  0  0  0  0
    5.9084    5.5841   13.9586 H   0  0  0  0  0
    8.2779    5.7477   13.2947 H   0  0  0  0  0
  1  2  1  0  0  0
  2  3  1  0  0  0
  3  4  4  0  0  0
  3  6  4  0  0  0
  4  5  4  0  0  0
  4  8  4  0  0  0
  5 11  4  0  0  0
  6  7  4  0  0  0
  7  8  4  0  0  0
  8  9  4  0  0  0
  9 10  4  0  0  0
 10 11  4  0  0  0
 11 12  1  0  0  0
 12 13  3  0  0  0
 13 14  1  0  0  0
 14 15  4  0  0  0
 14 17  4  0  0  0
 15 16  1  0  0  0
 15 21  4  0  0  0
 17 18  1  0  0  0
 17 19  4  0  0  0
 19 20  4  0  0  0
 20 21  4  0  0  0
 21 22  1  0  0  0
 22 23  1  0  0  0
 23 24  2  0  0  0
 23 25  2  0  0  0
 23 26  1  0  0  0
 26 27  4  0  0  0
 26 32  4  0  0  0
 27 28  4  0  0  0
 28 29  1  0  0  0
 28 30  4  0  0  0
 30 31  4  0  0  0
 31 32  4  0  0  0
  1 33  1  0  0  0
  1 34  1  0  0  0
  1 35  1  0  0  0
  5 36  1  0  0  0
 10 37  1  0  0  0
 19 38  1  0  0  0
 20 39  1  0  0  0
 22 40  1  0  0  0
 27 41  1  0  0  0
 30 42  1  0  0  0
 31 43  1  0  0  0
 32 44  1  0  0  0
M  END
$$$$
