5qa8_ligand
  -I-interpret- 

 26 27  0  0  0  0  0  0  0  0999 V2000
   28.1910  -14.2530  -23.7410 C   0  0  0  0  0
   28.9440  -14.8150  -24.7320 O   0  0  0  0  0
   27.9150  -12.8950  -23.7630 C   0  0  0  0  0
   25.3800  -11.6880  -18.4510 C   0  0  0  0  0
   25.9330  -11.3880  -17.0800 C   0  0  0  0  0
   26.2030  -12.2330  -19.4320 C   0  0  0  0  0
   27.1290  -12.3350  -22.7720 C   0  0  0  0  0
   27.6850  -15.0400  -22.7180 C   0  0  0  0  0
   26.9000  -14.4700  -21.7330 C   0  0  0  0  0
   26.5990  -13.1100  -21.7420 C   0  0  0  0  0
   25.7150  -12.5130  -20.7090 C   0  0  0  0  0
   24.3770  -12.2300  -20.9840 C   0  0  0  0  0
   23.5530  -11.6890  -20.0130 C   0  0  0  0  0
   24.0500  -11.4190  -18.7520 C   0  0  0  0  0
   27.1310  -11.0180  -17.0020 O   0  0  0  0  0
   25.1640  -11.5240  -16.0970 O   0  0  0  0  0
   29.0388  -15.7557  -24.5659 H   0  0  0  0  0
   28.3167  -12.2692  -24.5600 H   0  0  0  0  0
   27.2465  -12.4448  -19.1989 H   0  0  0  0  0
   26.9198  -11.2656  -22.7972 H   0  0  0  0  0
   27.9058  -16.1070  -22.6903 H   0  0  0  0  0
   26.5085  -15.0979  -20.9327 H   0  0  0  0  0
   23.9757  -12.4376  -21.9760 H   0  0  0  0  0
   22.5093  -11.4752  -20.2432 H   0  0  0  0  0
   23.3964  -10.9934  -17.9905 H   0  0  0  0  0
   27.5136  -10.9887  -17.8820 H   0  0  0  0  0
  1  2  1  0  0  0
  3  1  4  0  0  0
  8  1  4  0  0  0
  7  3  4  0  0  0
  4  5  1  0  0  0
  6  4  4  0  0  0
  4 14  4  0  0  0
  5 15  1  0  0  0
  5 16  2  0  0  0
 11  6  4  0  0  0
 10  7  4  0  0  0
  9  8  4  0  0  0
 10  9  4  0  0  0
 10 11  1  0  0  0
 11 12  4  0  0  0
 12 13  4  0  0  0
 13 14  4  0  0  0
  2 17  1  0  0  0
  3 18  1  0  0  0
  6 19  1  0  0  0
  7 20  1  0  0  0
  8 21  1  0  0  0
  9 22  1  0  0  0
 12 23  1  0  0  0
 13 24  1  0  0  0
 14 25  1  0  0  0
 15 26  1  0  0  0
M  END
$$$$
