6q4g_ligand
  -I-interpret- 

 30 32  0  0  0  0  0  0  0  0999 V2000
   -0.5940   -8.2750  -26.4200 C   0  0  0  0  0
   -1.0490   -9.3910  -25.7280 C   0  0  0  0  0
   -1.2670   -9.2990  -24.3630 C   0  0  0  0  0
   -0.2910   -4.5080  -26.2600 C   0  0  0  0  0
   -1.1810   -8.0860  -23.6910 C   0  0  0  0  0
   -1.4060   -7.9470  -22.1910 C   0  0  0  0  0
   -2.4480   -8.8260  -21.4870 C   0  0  0  0  0
   -0.6930   -7.0080  -24.3900 C   0  0  0  0  0
   -1.0930   -2.5990  -25.7290 C   0  0  0  0  0
    0.3200   -3.5480  -27.0760 C   0  0  0  0  0
    2.3450   -5.5120  -29.1200 N   0  0  0  0  0
    0.9450   -6.1300  -27.4380 N   0  0  0  0  0
   -0.4130   -7.0650  -25.7530 C   0  0  0  0  0
   -1.1710   -3.8690  -25.3960 N   0  0  0  0  0
    1.4890   -5.1270  -28.1620 C   0  0  0  0  0
    0.0720   -5.8570  -26.4550 C   0  0  0  0  0
   -2.3250   -9.0030  -20.2980 O   0  0  0  0  0
   -3.5000   -9.1130  -22.1220 O   0  0  0  0  0
   -0.1950   -2.3410  -26.7210 N   0  0  0  0  0
    1.2160   -3.8060  -28.0290 N   0  0  0  0  0
   -0.3784   -8.3463  -27.4861 H   0  0  0  0  0
   -1.2323  -10.3283  -26.2534 H   0  0  0  0  0
   -1.5122  -10.2009  -23.8021 H   0  0  0  0  0
   -1.7769   -6.9299  -22.0641 H   0  0  0  0  0
   -0.4558   -8.2401  -21.7446 H   0  0  0  0  0
   -0.5185   -6.0731  -23.8574 H   0  0  0  0  0
   -1.6928   -1.8226  -25.2541 H   0  0  0  0  0
    2.5432   -6.5029  -29.2586 H   0  0  0  0  0
    2.7978   -4.8139  -29.7100 H   0  0  0  0  0
   -3.3830   -8.8927  -23.0490 H   0  0  0  0  0
  1  2  4  0  0  0
 13  1  4  0  0  0
  2  3  4  0  0  0
  5  3  4  0  0  0
  4 10  4  0  0  0
  4 14  4  0  0  0
 16  4  4  0  0  0
  5  6  1  0  0  0
  8  5  4  0  0  0
  6  7  1  0  0  0
  7 17  2  0  0  0
  7 18  1  0  0  0
 13  8  4  0  0  0
 14  9  4  0  0  0
  9 19  4  0  0  0
 10 19  4  0  0  0
 10 20  4  0  0  0
 15 11  1  0  0  0
 12 15  4  0  0  0
 16 12  4  0  0  0
 13 16  1  0  0  0
 15 20  4  0  0  0
  1 21  1  0  0  0
  2 22  1  0  0  0
  3 23  1  0  0  0
  6 24  1  0  0  0
  6 25  1  0  0  0
  8 26  1  0  0  0
  9 27  1  0  0  0
 11 28  1  0  0  0
 11 29  1  0  0  0
 18 30  1  0  0  0
M  END
$$$$
