6pl3_ligand
  -I-interpret- 

 56 59  0  0  0  0  0  0  0  0999 V2000
   12.4890   15.0990   19.3790 C   0  0  0  0  0
   13.0420   14.6630   21.7200 C   0  0  0  0  0
   13.6900   13.5720   22.5400 C   0  0  0  0  0
   14.5250   12.9560   24.7670 C   0  0  0  0  0
   12.4290   14.6510   28.7730 C   0  0  0  0  0
   11.1680   14.8460   28.2220 C   0  0  0  0  0
   10.8940   14.3690   26.9460 C   0  0  0  0  0
   11.8720   13.6920   26.2250 C   0  0  0  0  0
   16.9100   10.3710   25.9270 C   0  0  0  0  0
   16.9310    9.9030   27.3860 C   0  0  0  0  0
   12.6870   14.8580   17.9270 C   0  0  0  0  0
   11.6260   15.0250   17.0160 C   0  0  0  0  0
   14.1270   14.2210   16.0880 C   0  0  0  0  0
   12.3870   13.7230   12.8950 C   0  0  0  0  0
   11.6100   15.8540   19.7410 O   0  0  0  0  0
   13.2770   14.4750   20.2930 O   0  0  0  0  0
   13.9440   12.4990   22.0210 O   0  0  0  0  0
   13.9390   13.8420   23.8510 N   0  0  0  0  0
   15.5660   12.1030   24.5450 C   0  0  0  0  0
   15.8340   11.4160   25.7320 C   0  0  0  0  0
   14.9940   11.8390   26.6410 N   0  0  0  0  0
   14.1570   12.8100   26.0750 N   0  0  0  0  0
   13.1410   13.4910   26.7730 C   0  0  0  0  0
   13.4090   13.9780   28.0560 C   0  0  0  0  0
   18.2740   10.9690   25.5710 C   0  0  0  0  0
   16.6440    9.1780   25.0080 C   0  0  0  0  0
   11.8190   14.7930   15.6630 C   0  0  0  0  0
   13.0720   14.3910   15.1830 C   0  0  0  0  0
   13.9420   14.4530   17.4400 C   0  0  0  0  0
   13.2870   14.1390   13.8160 N   0  0  0  0  0
   13.0150   13.5970   11.7550 N   0  0  0  0  0
   14.2550   13.8990   11.8870 N   0  0  0  0  0
   14.5000   14.2350   13.1070 N   0  0  0  0  0
   13.4738   15.6188   22.0167 H   0  0  0  0  0
   11.9670   14.6348   21.8982 H   0  0  0  0  0
   12.6493   15.0279   29.7718 H   0  0  0  0  0
   10.3980   15.3704   28.7879 H   0  0  0  0  0
    9.9083   14.5261   26.5081 H   0  0  0  0  0
   11.6469   13.3163   25.2269 H   0  0  0  0  0
   17.1355   10.7536   28.0362 H   0  0  0  0  0
   15.9628    9.4727   27.6422 H   0  0  0  0  0
   17.7096    9.1509   27.5138 H   0  0  0  0  0
   10.6466   15.3387   17.3772 H   0  0  0  0  0
   15.1039   13.9027   15.7240 H   0  0  0  0  0
   11.3292   13.5281   13.0716 H   0  0  0  0  0
   13.6776   14.7657   24.1959 H   0  0  0  0  0
   16.0983   11.9784   23.6020 H   0  0  0  0  0
   14.3947   13.8281   28.4965 H   0  0  0  0  0
   18.4796   11.8165   26.2250 H   0  0  0  0  0
   19.0467   10.2115   25.7020 H   0  0  0  0  0
   18.2632   11.3032   24.5336 H   0  0  0  0  0
   17.4323    8.4368   25.1395 H   0  0  0  0  0
   15.6808    8.7344   25.2602 H   0  0  0  0  0
   16.6299    9.5154   23.9716 H   0  0  0  0  0
   10.9899   14.9243   14.9678 H   0  0  0  0  0
   14.7744   14.3209   18.1312 H   0  0  0  0  0
 11  1  1  0  0  0
  1 15  2  0  0  0
  1 16  1  0  0  0
  2  3  1  0  0  0
 16  2  1  0  0  0
  3 17  2  0  0  0
  3 18  1  0  0  0
 18  4  1  0  0  0
  4 19  4  0  0  0
  4 22  4  0  0  0
  5  6  4  0  0  0
 24  5  4  0  0  0
  7  6  4  0  0  0
  8  7  4  0  0  0
 23  8  4  0  0  0
  9 10  1  0  0  0
 20  9  1  0  0  0
  9 25  1  0  0  0
  9 26  1  0  0  0
 12 11  4  0  0  0
 29 11  4  0  0  0
 27 12  4  0  0  0
 28 13  4  0  0  0
 13 29  4  0  0  0
 30 14  4  0  0  0
 14 31  4  0  0  0
 19 20  4  0  0  0
 21 20  4  0  0  0
 22 21  4  0  0  0
 22 23  1  0  0  0
 23 24  4  0  0  0
 28 27  4  0  0  0
 28 30  1  0  0  0
 30 33  4  0  0  0
 31 32  4  0  0  0
 32 33  4  0  0  0
  2 34  1  0  0  0
  2 35  1  0  0  0
  5 36  1  0  0  0
  6 37  1  0  0  0
  7 38  1  0  0  0
  8 39  1  0  0  0
 10 40  1  0  0  0
 10 41  1  0  0  0
 10 42  1  0  0  0
 12 43  1  0  0  0
 13 44  1  0  0  0
 14 45  1  0  0  0
 18 46  1  0  0  0
 19 47  1  0  0  0
 24 48  1  0  0  0
 25 49  1  0  0  0
 25 50  1  0  0  0
 25 51  1  0  0  0
 26 52  1  0  0  0
 26 53  1  0  0  0
 26 54  1  0  0  0
 27 55  1  0  0  0
 29 56  1  0  0  0
M  END
$$$$
