3ay0_ligand
  -I-interpret- 

 32 34  0  0  0  0  0  0  0  0999 V2000
  -53.1560   -6.8460  -39.0590 O   0  0  0  0  0
  -52.7630   -5.4900  -39.2840 C   0  0  0  0  0
  -53.9070   -4.7400  -39.9680 C   0  0  0  0  0
  -55.0600   -4.7130  -39.1090 O   0  0  0  0  0
  -53.4980   -3.2780  -40.1710 C   0  0  0  0  0
  -53.5710   -2.9250  -41.5540 O   0  0  0  0  0
  -54.5550   -2.5080  -39.3820 C   0  0  0  0  0
  -54.8440   -1.2400  -39.9760 O   0  0  0  0  0
  -55.7270   -3.4850  -39.4370 C   0  0  0  0  0
  -56.7810   -3.1250  -38.4610 N   0  0  0  0  0
  -56.6160   -2.9630  -37.1490 C   0  0  0  0  0
  -57.7800   -2.6640  -36.5780 N   0  0  0  0  0
  -58.7020   -2.6330  -37.5370 C   0  0  0  0  0
  -60.0680   -2.3880  -37.5570 C   0  0  0  0  0
  -60.7250   -2.1150  -36.4330 N   0  0  0  0  0
  -60.7200   -2.4420  -38.7260 N   0  0  0  0  0
  -60.0820   -2.7240  -39.8480 C   0  0  0  0  0
  -58.7830   -2.9630  -39.8670 N   0  0  0  0  0
  -58.0670   -2.9260  -38.7350 C   0  0  0  0  0
  -52.4392   -7.3187  -38.6296 H   0  0  0  0  0
  -51.8788   -5.4669  -39.9210 H   0  0  0  0  0
  -52.5323   -5.0137  -38.3311 H   0  0  0  0  0
  -54.1276   -5.2395  -40.9114 H   0  0  0  0  0
  -52.4771   -3.0725  -39.8491 H   0  0  0  0  0
  -52.9042   -3.4125  -42.0432 H   0  0  0  0  0
  -54.2638   -2.2383  -38.3668 H   0  0  0  0  0
  -54.0718   -0.6735  -39.9100 H   0  0  0  0  0
  -56.2620   -3.5133  -40.3862 H   0  0  0  0  0
  -55.6674   -3.0610  -36.6212 H   0  0  0  0  0
  -60.2249   -2.0841  -35.5446 H   0  0  0  0  0
  -61.7289   -1.9366  -36.4596 H   0  0  0  0  0
  -60.6421   -2.7604  -40.7824 H   0  0  0  0  0
  1  2  1  0  0  0
  2  3  1  0  0  0
  3  4  1  0  0  0
  3  5  1  0  0  0
  4  9  1  0  0  0
  5  6  1  0  0  0
  5  7  1  0  0  0
  7  8  1  0  0  0
  7  9  1  0  0  0
  9 10  1  0  0  0
 10 11  4  0  0  0
 10 19  4  0  0  0
 11 12  4  0  0  0
 12 13  4  0  0  0
 13 14  4  0  0  0
 13 19  4  0  0  0
 14 15  1  0  0  0
 14 16  4  0  0  0
 16 17  4  0  0  0
 17 18  4  0  0  0
 18 19  4  0  0  0
  1 20  1  0  0  0
  2 21  1  0  0  0
  2 22  1  0  0  0
  3 23  1  0  0  0
  5 24  1  0  0  0
  6 25  1  0  0  0
  7 26  1  0  0  0
  8 27  1  0  0  0
  9 28  1  0  0  0
 11 29  1  0  0  0
 15 30  1  0  0  0
 15 31  1  0  0  0
 17 32  1  0  0  0
M  END
$$$$
