6dzv_ligand
  -I-interpret- 

 49 53  0  0  0  0  0  0  0  0999 V2000
  144.3530  148.8740  158.9890 N   0  3  0  0  0
  143.4430  149.2380  160.1080 C   0  0  0  0  0
  141.7360  152.5390  159.2090 N   0  0  0  0  0
  143.2650  150.7540  160.2180 C   0  0  0  0  0
  145.6990  150.4260  160.4800 C   0  0  0  0  0
  138.2090  151.9530  154.9380 O   0  0  0  0  0
  144.3290  147.2410  161.3660 C   0  0  0  0  0
  141.8500  150.6120  157.9540 C   0  0  0  0  0
  142.3530  149.3300  157.3720 C   0  0  0  0  0
  140.8880  151.4870  157.3980 C   0  0  0  0  0
  143.1310  146.3260  161.7130 C   0  0  0  0  0
  140.8080  152.6850  158.2110 C   0  0  0  0  0
  140.0120  151.2800  156.3150 C   0  0  0  0  0
  139.9160  153.6570  157.8990 C   0  0  0  0  0
  139.1090  152.2540  155.9870 C   0  0  0  0  0
  139.0510  153.4010  156.7830 C   0  0  0  0  0
  137.2280  152.9560  154.6560 C   0  0  0  0  0
  144.1190  148.7930  161.4370 C   0  0  0  0  0
  144.6330  151.5020  160.2830 C   0  0  0  0  0
  145.3720  149.6780  161.7450 C   0  0  0  0  0
  145.6590  149.4680  159.2830 C   0  0  0  0  0
  142.3040  151.2550  159.1450 C   0  0  0  0  0
  143.8800  148.9940  157.5930 C   0  0  0  0  0
  144.4085  147.8556  158.9765 H   0  0  0  0  0
  142.4794  148.7614  159.9280 H   0  0  0  0  0
  142.7935  150.9915  161.1716 H   0  0  0  0  0
  146.6933  150.8665  160.5531 H   0  0  0  0  0
  144.5602  147.0292  160.3221 H   0  0  0  0  0
  145.0880  147.0185  162.1160 H   0  0  0  0  0
  142.2208  149.4201  156.2938 H   0  0  0  0  0
  141.7979  148.5371  157.8733 H   0  0  0  0  0
  142.8108  146.5212  162.7365 H   0  0  0  0  0
  142.3083  146.5314  161.0281 H   0  0  0  0  0
  143.4327  145.2829  161.6180 H   0  0  0  0  0
  140.0530  150.3527  155.7436 H   0  0  0  0  0
  139.8588  154.5856  158.4669 H   0  0  0  0  0
  138.2986  154.1513  156.5400 H   0  0  0  0  0
  136.6185  153.1259  155.5435 H   0  0  0  0  0
  137.7282  153.8826  154.3743 H   0  0  0  0  0
  136.5928  152.6208  153.8361 H   0  0  0  0  0
  143.4947  148.9656  162.3136 H   0  0  0  0  0
  144.6476  152.2234  161.0999 H   0  0  0  0  0
  144.8132  152.0709  159.3709 H   0  0  0  0  0
  145.1661  150.3699  162.5617 H   0  0  0  0  0
  146.2141  149.0611  162.0587 H   0  0  0  0  0
  145.9351  150.0558  158.4076 H   0  0  0  0  0
  146.3265  148.6414  159.5265 H   0  0  0  0  0
  144.0342  148.0129  157.1439 H   0  0  0  0  0
  144.4312  149.8317  157.1657 H   0  0  0  0  0
  2  1  1  0  0  0
  1 21  1  0  0  0
 23  1  1  0  0  0
  4  2  1  0  0  0
  2 18  1  0  0  0
 12  3  4  0  0  0
  3 22  4  0  0  0
  4 19  1  0  0  0
 22  4  1  0  0  0
 19  5  1  0  0  0
  5 20  1  0  0  0
  5 21  1  0  0  0
 15  6  1  0  0  0
  6 17  1  0  0  0
  7 11  1  0  0  0
 18  7  1  0  0  0
  8  9  1  0  0  0
 10  8  4  0  0  0
  8 22  4  0  0  0
  9 23  1  0  0  0
 10 12  4  0  0  0
 13 10  4  0  0  0
 12 14  4  0  0  0
 13 15  4  0  0  0
 14 16  4  0  0  0
 15 16  4  0  0  0
 18 20  1  0  0  0
  1 24  1  0  0  0
  2 25  1  0  0  0
  4 26  1  0  0  0
  5 27  1  0  0  0
  7 28  1  0  0  0
  7 29  1  0  0  0
  9 30  1  0  0  0
  9 31  1  0  0  0
 11 32  1  0  0  0
 11 33  1  0  0  0
 11 34  1  0  0  0
 13 35  1  0  0  0
 14 36  1  0  0  0
 16 37  1  0  0  0
 17 38  1  0  0  0
 17 39  1  0  0  0
 17 40  1  0  0  0
 18 41  1  0  0  0
 19 42  1  0  0  0
 19 43  1  0  0  0
 20 44  1  0  0  0
 20 45  1  0  0  0
 21 46  1  0  0  0
 21 47  1  0  0  0
 23 48  1  0  0  0
 23 49  1  0  0  0
M  END
$$$$
