6cjv_ligand
  -I-interpret- 

 42 43  0  0  0  0  0  0  0  0999 V2000
  -23.2230    8.9990    8.6370 C   0  0  0  0  0
  -24.7120    9.0740    8.7650 C   0  0  0  0  0
  -25.0620    9.6600   10.0930 C   0  0  0  0  0
  -24.5600    8.6740   11.1440 C   0  0  0  0  0
  -22.5750    8.4020    9.9010 C   0  0  0  0  0
  -21.1040    8.6000    9.8750 C   0  0  0  0  0
  -25.2860    8.0710   13.4770 C   0  0  0  0  0
  -23.6320    6.3440   13.1250 C   0  0  0  0  0
  -25.1420    6.5730   13.0540 C   0  0  0  0  0
  -23.0330    7.5360   13.4610 C   0  0  0  0  0
  -26.6680    8.7200   13.4010 C   0  0  0  0  0
  -22.0380    7.4450   14.5860 C   0  0  0  0  0
  -23.0990    8.9660   11.1700 O   0  0  0  0  0
  -25.2880    9.8660    7.7000 O   0  0  0  0  0
  -26.4640    9.9380   10.2150 O   0  0  0  0  0
  -20.6010    7.7520   10.8860 O   0  0  0  0  0
  -25.2210    8.9130   12.3020 O   0  0  0  0  0
  -24.1680    8.5940   13.8660 O   0  0  0  0  0
  -25.7120    6.2570   11.8620 O   0  0  0  0  0
  -23.4140    5.2480   14.1110 O   0  0  0  0  0
  -22.5210   10.6680    8.3120 Cl  0  0  0  0  0
  -21.5630    9.0260   15.3000 Cl  0  0  0  0  0
  -27.2470    8.3900   15.0380 Cl  0  0  0  0  0
  -23.0006    8.3419    7.7962 H   0  0  0  0  0
  -25.1223    8.0671    8.6883 H   0  0  0  0  0
  -24.5859   10.6315   10.2260 H   0  0  0  0  0
  -24.7301    7.6144   10.9530 H   0  0  0  0  0
  -22.8306    7.3426    9.8809 H   0  0  0  0  0
  -20.8342    9.6413   10.0511 H   0  0  0  0  0
  -20.6819    8.3586    8.8995 H   0  0  0  0  0
  -23.1856    6.0352   12.1798 H   0  0  0  0  0
  -25.6975    5.9009   13.7080 H   0  0  0  0  0
  -22.4715    7.8473   12.5801 H   0  0  0  0  0
  -27.3071    8.3306   12.6085 H   0  0  0  0  0
  -26.6572    9.7756   13.1297 H   0  0  0  0  0
  -21.1331    6.9987   14.1736 H   0  0  0  0  0
  -22.5100    6.8672   15.3807 H   0  0  0  0  0
  -25.0555    9.4786    6.8530 H   0  0  0  0  0
  -26.7261   10.5607    9.5330 H   0  0  0  0  0
  -19.6451    7.8322   10.9231 H   0  0  0  0  0
  -25.5771    5.3238   11.6815 H   0  0  0  0  0
  -22.4737    5.0702   14.1875 H   0  0  0  0  0
  2  1  1  0  0  0
  5  1  1  0  0  0
  1 21  1  0  0  0
  3  2  1  0  0  0
  2 14  1  0  0  0
  4  3  1  0  0  0
  3 15  1  0  0  0
  4 13  1  0  0  0
 17  4  1  0  0  0
  5  6  1  0  0  0
 13  5  1  0  0  0
  6 16  1  0  0  0
  7  9  1  0  0  0
  7 11  1  0  0  0
  7 17  1  0  0  0
  7 18  1  0  0  0
  9  8  1  0  0  0
  8 10  1  0  0  0
  8 20  1  0  0  0
  9 19  1  0  0  0
 10 12  1  0  0  0
 10 18  1  0  0  0
 11 23  1  0  0  0
 12 22  1  0  0  0
  1 24  1  0  0  0
  2 25  1  0  0  0
  3 26  1  0  0  0
  4 27  1  0  0  0
  5 28  1  0  0  0
  6 29  1  0  0  0
  6 30  1  0  0  0
  8 31  1  0  0  0
  9 32  1  0  0  0
 10 33  1  0  0  0
 11 34  1  0  0  0
 11 35  1  0  0  0
 12 36  1  0  0  0
 12 37  1  0  0  0
 14 38  1  0  0  0
 15 39  1  0  0  0
 16 40  1  0  0  0
 19 41  1  0  0  0
 20 42  1  0  0  0
M  END
$$$$
