2uwd_ligand
  -I-interpret- 

 44 46  0  0  0  0  0  0  0  0999 V2000
   35.1100    5.6100   21.6240 C   0  0  0  0  0
   35.4350    6.2380   22.9030 O   0  0  0  0  0
   34.4180    6.7760   23.6490 C   0  0  0  0  0
   33.0590    6.7530   23.2680 C   0  0  0  0  0
   32.0940    7.3320   24.1290 C   0  0  0  0  0
   34.7730    7.3510   24.8900 C   0  0  0  0  0
   33.8030    7.9190   25.7240 C   0  0  0  0  0
   32.4480    7.9140   25.3780 C   0  0  0  0  0
   31.4680    8.5170   26.2370 C   0  0  0  0  0
   31.0410    8.0900   27.5120 C   0  0  0  0  0
   31.5650    6.9080   28.2960 C   0  0  0  0  0
   32.0520    5.9280   27.7380 O   0  0  0  0  0
   31.5370    7.0580   29.6330 N   0  0  0  0  0
   32.0110    5.9860   30.5390 C   0  0  0  0  0
   33.4920    6.2160   30.8900 C   0  0  0  0  0
   30.0930    8.8920   28.0040 N   0  0  0  0  0
   30.7040    9.6700   25.9840 C   0  0  0  0  0
   30.7220   10.4920   24.8390 C   0  0  0  0  0
   31.9450   11.0010   24.3910 C   0  0  0  0  0
   32.0160   11.8130   23.2580 C   0  0  0  0  0
   33.5480   12.4520   22.7020 Cl  0  0  0  0  0
   30.8300   12.1310   22.5810 C   0  0  0  0  0
   30.8780   12.8740   21.4710 O   0  0  0  0  0
   29.5990   11.6240   23.0020 C   0  0  0  0  0
   29.5450   10.8400   24.1630 C   0  0  0  0  0
   28.3380   10.3530   24.5620 O   0  0  0  0  0
   29.8850    9.8740   27.0470 O   0  0  0  0  0
   34.4212    4.7820   21.7919 H   0  0  0  0  0
   34.6436    6.3450   20.9679 H   0  0  0  0  0
   36.0236    5.2363   21.1617 H   0  0  0  0  0
   32.7564    6.2966   22.3255 H   0  0  0  0  0
   31.0473    7.3315   23.8248 H   0  0  0  0  0
   35.8173    7.3522   25.2023 H   0  0  0  0  0
   34.1107    8.3757   26.6647 H   0  0  0  0  0
   31.1821    7.9276   30.0308 H   0  0  0  0  0
   31.9041    5.0215   30.0426 H   0  0  0  0  0
   31.4179    5.9989   31.4534 H   0  0  0  0  0
   34.0865    6.2054   29.9764 H   0  0  0  0  0
   33.6012    7.1811   31.3848 H   0  0  0  0  0
   33.8334    5.4239   31.5564 H   0  0  0  0  0
   32.8578   10.7596   24.9356 H   0  0  0  0  0
   29.9884   12.9998   21.1328 H   0  0  0  0  0
   28.6920   11.8350   22.4355 H   0  0  0  0  0
   27.6500   10.6956   23.9868 H   0  0  0  0  0
  1  2  1  0  0  0
  2  3  1  0  0  0
  3  4  4  0  0  0
  3  6  4  0  0  0
  4  5  4  0  0  0
  5  8  4  0  0  0
  6  7  4  0  0  0
  7  8  4  0  0  0
  8  9  1  0  0  0
  9 10  4  0  0  0
  9 17  4  0  0  0
 10 11  1  0  0  0
 10 16  4  0  0  0
 11 12  2  0  0  0
 11 13  1  0  0  0
 13 14  1  0  0  0
 14 15  1  0  0  0
 16 27  4  0  0  0
 17 18  1  0  0  0
 17 27  4  0  0  0
 18 19  4  0  0  0
 18 25  4  0  0  0
 19 20  4  0  0  0
 20 21  1  0  0  0
 20 22  4  0  0  0
 22 23  1  0  0  0
 22 24  4  0  0  0
 24 25  4  0  0  0
 25 26  1  0  0  0
  1 28  1  0  0  0
  1 29  1  0  0  0
  1 30  1  0  0  0
  4 31  1  0  0  0
  5 32  1  0  0  0
  6 33  1  0  0  0
  7 34  1  0  0  0
 13 35  1  0  0  0
 14 36  1  0  0  0
 14 37  1  0  0  0
 15 38  1  0  0  0
 15 39  1  0  0  0
 15 40  1  0  0  0
 19 41  1  0  0  0
 23 42  1  0  0  0
 24 43  1  0  0  0
 26 44  1  0  0  0
M  END
$$$$
