5lpr_ligand
  -I-interpret- 

 49 49  0  0  0  0  0  0  0  0999 V2000
   13.9020   42.0570   18.2560 N   0  3  0  0  0
   14.4150   40.6780   18.0700 C   0  0  0  0  0
   13.5250   39.4980   18.4480 C   0  0  0  0  0
   12.8230   39.5030   19.4780 O   0  0  0  0  0
   15.7280   40.4580   18.8120 C   0  0  0  0  0
   13.5630   38.4850   17.5990 N   0  0  0  0  0
   12.7270   37.2850   17.8560 C   0  0  0  0  0
   13.6010   36.0760   17.4920 C   0  0  0  0  0
   14.4650   36.3430   16.6620 O   0  0  0  0  0
   11.4930   37.3440   16.9870 C   0  0  0  0  0
   13.3030   34.9450   18.1060 N   0  0  0  0  0
   14.0870   33.7280   17.7800 C   0  0  0  0  0
   13.8220   33.3140   16.3330 C   0  0  0  0  0
   12.6300   33.4940   15.9170 O   0  0  0  0  0
   13.4620   32.7120   18.7410 C   0  0  0  0  0
   12.6230   33.4770   19.7270 C   0  0  0  0  0
   12.1690   34.7540   19.0330 C   0  0  0  0  0
   14.7600   32.7510   15.5990 N   0  0  0  0  0
   14.5530   32.3020   14.1920 C   0  0  0  0  0
   15.4040   33.2070   13.2610 C   0  0  0  0  0
   14.8050   30.7660   14.0360 B   0  0  0  0  0
   14.8240   30.2030   12.6530 O   0  0  0  0  0
   13.9120   29.9530   14.9440 O   0  0  0  0  0
   13.0252   42.1640   17.7459 H   0  0  0  0  0
   13.7421   42.2280   19.2488 H   0  0  0  0  0
   14.5870   42.7241   17.9008 H   0  0  0  0  0
   14.5007   40.6628   16.9835 H   0  0  0  0  0
   15.5376   40.4320   19.8849 H   0  0  0  0  0
   16.1679   39.5119   18.4967 H   0  0  0  0  0
   16.4142   41.2734   18.5831 H   0  0  0  0  0
   14.1617   38.5275   16.7743 H   0  0  0  0  0
   12.3955   37.2220   18.8925 H   0  0  0  0  0
   11.7900   37.4294   15.9417 H   0  0  0  0  0
   10.9080   36.4350   17.1267 H   0  0  0  0  0
   10.8936   38.2101   17.2676 H   0  0  0  0  0
   15.1670   33.8390   17.8771 H   0  0  0  0  0
   14.2391   32.1493   19.2583 H   0  0  0  0  0
   12.8483   31.9972   18.1928 H   0  0  0  0  0
   13.1986   33.7098   20.6229 H   0  0  0  0  0
   11.7642   32.8845   20.0426 H   0  0  0  0  0
   11.1937   34.6875   18.5508 H   0  0  0  0  0
   11.9825   35.5937   19.7024 H   0  0  0  0  0
   15.6804   32.6144   16.0169 H   0  0  0  0  0
   13.5119   32.4221   13.8924 H   0  0  0  0  0
   15.0857   34.2434   13.3738 H   0  0  0  0  0
   16.4560   33.1172   13.5316 H   0  0  0  0  0
   15.2656   32.8937   12.2262 H   0  0  0  0  0
   14.9867   29.2579   12.6957 H   0  0  0  0  0
   14.0960   29.0191   14.8194 H   0  0  0  0  0
  1  2  1  0  0  0
  2  3  1  0  0  0
  2  5  1  0  0  0
  3  4  2  0  0  0
  3  6  1  0  0  0
  6  7  1  0  0  0
  7  8  1  0  0  0
  7 10  1  0  0  0
  8  9  2  0  0  0
  8 11  1  0  0  0
 11 12  1  0  0  0
 11 17  1  0  0  0
 12 13  1  0  0  0
 12 15  1  0  0  0
 13 14  2  0  0  0
 13 18  1  0  0  0
 15 16  1  0  0  0
 16 17  1  0  0  0
 18 19  1  0  0  0
 19 20  1  0  0  0
 19 21  1  0  0  0
 21 22  1  0  0  0
 21 23  1  0  0  0
  1 24  1  0  0  0
  1 25  1  0  0  0
  1 26  1  0  0  0
  2 27  1  0  0  0
  5 28  1  0  0  0
  5 29  1  0  0  0
  5 30  1  0  0  0
  6 31  1  0  0  0
  7 32  1  0  0  0
 10 33  1  0  0  0
 10 34  1  0  0  0
 10 35  1  0  0  0
 12 36  1  0  0  0
 15 37  1  0  0  0
 15 38  1  0  0  0
 16 39  1  0  0  0
 16 40  1  0  0  0
 17 41  1  0  0  0
 17 42  1  0  0  0
 18 43  1  0  0  0
 19 44  1  0  0  0
 20 45  1  0  0  0
 20 46  1  0  0  0
 20 47  1  0  0  0
 22 48  1  0  0  0
 23 49  1  0  0  0
M  END
$$$$
