### 
### Created by X-TOOL on Mon Sep 10 21:12:44 2018
### 

@<TRIPOS>MOLECULE
5lpr_ligand
   49    49     1     0     0
SMALL
GAST_HUCK


@<TRIPOS>ATOM
      1 N          13.9020   42.0570   18.2560 N.4       1 ALA         0.2377
      2 CA         14.4150   40.6780   18.0700 C.3       1 ALA         0.0621
      3 C          13.5250   39.4980   18.4480 C.2       1 ALA         0.2264
      4 O          12.8230   39.5030   19.4780 O.2       1 ALA        -0.3907
      5 CB         15.7280   40.4580   18.8120 C.3       1 ALA        -0.0040
      6 N          13.5630   38.4850   17.5990 N.am      1 ALA        -0.2613
      7 CA         12.7270   37.2850   17.8560 C.3       1 ALA         0.1285
      8 C          13.6010   36.0760   17.4920 C.2       1 ALA         0.2061
      9 O          14.4650   36.3430   16.6620 O.2       1 ALA        -0.3942
     10 CB         11.4930   37.3440   16.9870 C.3       1 ALA        -0.0244
     11 N          13.3030   34.9450   18.1060 N.am      1 PRO        -0.2498
     12 CA         14.0870   33.7280   17.7800 C.3       1 PRO         0.1336
     13 C          13.8220   33.3140   16.3330 C.2       1 PRO         0.2010
     14 O          12.6300   33.4940   15.9170 O.2       1 PRO        -0.3946
     15 CB         13.4620   32.7120   18.7410 C.3       1 PRO        -0.0104
     16 CG         12.6230   33.4770   19.7270 C.3       1 PRO        -0.0281
     17 CD         12.1690   34.7540   19.0330 C.3       1 PRO         0.0369
     18 N          14.7600   32.7510   15.5990 N.am      1 B2A        -0.2921
     19 CA         14.5530   32.3020   14.1920 C.3       1 B2A         0.0504
     20 CB         15.4040   33.2070   13.2610 C.3       1 B2A        -0.0510
     21 B          14.8050   30.7660   14.0360 B         1 B2A         0.7161
     22 O1         14.8240   30.2030   12.6530 O.3       1 B2A        -0.4967
     23 O2         13.9120   29.9530   14.9440 O.3       1 B2A        -0.4967
     24 H1         14.6033   42.7188   17.9623 H         1 ALA         0.2015
     25 H2         13.6854   42.2066   19.2290 H         1 ALA         0.2015
     26 H3         13.0687   42.1830   17.7031 H         1 ALA         0.2015
     27 H4         14.6148   40.5851   16.9923 H         1 ALA         0.1095
     28 H5         16.0731   39.4264   18.6486 H         1 ALA         0.0310
     29 H6         15.5739   40.6270   19.8880 H         1 ALA         0.0310
     30 H7         16.4847   41.1618   18.4349 H         1 ALA         0.0310
     31 H8         14.1499   38.5267   16.7904 H         1 ALA         0.1884
     32 H9         12.4317   37.2371   18.9145 H         1 ALA         0.0797
     33 H10        10.8702   36.4568   17.1739 H         1 ALA         0.0277
     34 H11        11.7908   37.3665   15.9283 H         1 ALA         0.0277
     35 H12        10.9193   38.2516   17.2260 H         1 ALA         0.0277
     36 H13        15.1647   33.8625   17.9543 H         1 PRO         0.0802
     37 H14        14.2528   32.1600   19.2699 H         1 PRO         0.0313
     38 H15        12.8322   32.0045   18.1817 H         1 PRO         0.0313
     39 H16        13.2188   33.7234   20.6183 H         1 PRO         0.0287
     40 H17        11.7495   32.8780   20.0239 H         1 PRO         0.0287
     41 H18        11.2193   34.6136   18.4960 H         1 PRO         0.0524
     42 H19        12.0707   35.5918   19.7390 H         1 PRO         0.0524
     43 H20        15.6623   32.6171   16.0087 H         1 B2A         0.1840
     44 H21        13.4974   32.4736   13.9348 H         1 B2A         0.0429
     45 H22        15.1541   34.2620   13.4468 H         1 B2A         0.0239
     46 H23        15.1887   32.9586   12.2113 H         1 B2A         0.0239
     47 H24        16.4721   33.0418   13.4653 H         1 B2A         0.0239
     48 H25        15.1495   29.3109   12.6799 H         1 B2A         0.1667
     49 H26        13.9184   30.3323   15.8150 H         1 B2A         0.1667
@<TRIPOS>BOND
     1    1    2 1  
     2    2    3 1  
     3    2    5 1  
     4    3    4 2  
     5    3    6 am 
     6    6    7 1  
     7    7    8 1  
     8    7   10 1  
     9    8    9 2  
    10    8   11 am 
    11   11   12 1  
    12   11   17 1  
    13   12   13 1  
    14   12   15 1  
    15   13   14 2  
    16   13   18 am 
    17   15   16 1  
    18   16   17 1  
    19   18   19 1  
    20   19   20 1  
    21   19   21 1  
    22   21   22 1  
    23   21   23 1  
    24    1   24 1  
    25    1   25 1  
    26    1   26 1  
    27    2   27 1  
    28    5   28 1  
    29    5   29 1  
    30    5   30 1  
    31    6   31 1  
    32    7   32 1  
    33   10   33 1  
    34   10   34 1  
    35   10   35 1  
    36   12   36 1  
    37   15   37 1  
    38   15   38 1  
    39   16   39 1  
    40   16   40 1  
    41   17   41 1  
    42   17   42 1  
    43   18   43 1  
    44   19   44 1  
    45   20   45 1  
    46   20   46 1  
    47   20   47 1  
    48   22   48 1  
    49   23   49 1  
@<TRIPOS>SUBSTRUCTURE
     1 ALA         1

