6bgy_ligand
  -I-interpret- 

 50 53  0  0  0  0  0  0  0  0999 V2000
  -24.2860   23.2290    1.9270 C   0  0  0  0  0
  -25.7280   22.3310   -2.6010 C   0  0  0  0  0
  -25.4340   21.5090   -0.4760 C   0  0  0  0  0
  -24.7580   20.2150    3.2640 C   0  0  0  0  0
  -24.1750   19.1560    3.9900 C   0  0  0  0  0
  -24.1080   19.5610    5.3320 C   0  0  0  0  0
  -23.4760   19.1740    7.7270 C   0  0  0  0  0
  -23.2400   17.1380    4.5230 C   0  0  0  0  0
  -27.6220   23.0350    5.4390 C   0  0  0  0  0
  -28.9800   23.0740    5.7520 C   0  0  0  0  0
  -29.8690   22.6040    4.8060 C   0  0  0  0  0
  -29.3940   22.1130    3.5670 C   0  0  0  0  0
  -28.0150   22.0550    3.3000 C   0  0  0  0  0
  -27.1080   22.5470    4.2460 C   0  0  0  0  0
  -25.6090   22.5690    3.9250 C   0  0  0  0  0
  -24.5980   23.7890    0.5190 C   0  0  0  0  0
  -24.5150   22.7040   -0.6450 C   0  0  0  0  0
  -25.2070   24.7300   -2.0730 C   0  0  0  0  0
  -25.7700   21.1770   -1.8930 C   0  0  0  0  0
  -24.9860   21.2360    4.1700 C   0  0  0  0  0
  -23.5760   18.7210    6.2910 C   0  0  0  0  0
  -23.1310   17.4610    5.8760 C   0  0  0  0  0
  -24.9830   23.2900   -1.9280 N   0  0  0  0  0
  -24.6170   20.8350    5.3960 N   0  0  0  0  0
  -23.7650   17.9430    3.5910 N   0  0  0  0  0
  -25.5720   22.8320    2.5230 O   0  0  0  0  0
  -24.1600   20.1630    8.0720 O   0  0  0  0  0
  -22.7110   18.5430    8.4770 O   0  0  0  0  0
  -26.4760   23.6030    6.6410 Cl  0  0  0  0  0
  -23.7904   23.9807    2.5414 H   0  0  0  0  0
  -23.6095   22.3767    1.8633 H   0  0  0  0  0
  -26.2120   22.4853   -3.5654 H   0  0  0  0  0
  -26.3093   21.7195    0.1385 H   0  0  0  0  0
  -24.9739   20.6821    0.0649 H   0  0  0  0  0
  -24.9847   20.2271    2.1979 H   0  0  0  0  0
  -22.8724   16.1631    4.2028 H   0  0  0  0  0
  -29.3275   23.4618    6.7096 H   0  0  0  0  0
  -30.9389   22.6112    5.0141 H   0  0  0  0  0
  -30.1044   21.7763    2.8119 H   0  0  0  0  0
  -27.6546   21.6300    2.3632 H   0  0  0  0  0
  -25.0730   23.2952    4.5360 H   0  0  0  0  0
  -23.8507   24.5524    0.3025 H   0  0  0  0  0
  -25.6219   24.1623    0.5398 H   0  0  0  0  0
  -23.4699   22.3952   -0.6220 H   0  0  0  0  0
  -25.9657   25.0520   -1.3597 H   0  0  0  0  0
  -24.2757   25.2625   -1.8800 H   0  0  0  0  0
  -25.5457   24.9434   -3.0868 H   0  0  0  0  0
  -26.0057   20.1877   -2.2853 H   0  0  0  0  0
  -22.7111   16.7519    6.5894 H   0  0  0  0  0
  -24.6686   20.4767    7.3206 H   0  0  0  0  0
 16  1  1  0  0  0
  1 26  1  0  0  0
 19  2  2  0  0  0
  2 23  1  0  0  0
 17  3  1  0  0  0
  3 19  1  0  0  0
  4  5  4  0  0  0
 20  4  4  0  0  0
  5  6  4  0  0  0
  5 25  4  0  0  0
  6 21  4  0  0  0
  6 24  4  0  0  0
 21  7  1  0  0  0
  7 27  1  0  0  0
  7 28  2  0  0  0
  8 22  4  0  0  0
 25  8  4  0  0  0
  9 10  4  0  0  0
 14  9  4  0  0  0
  9 29  1  0  0  0
 10 11  4  0  0  0
 12 11  4  0  0  0
 13 12  4  0  0  0
 14 13  4  0  0  0
 15 14  1  0  0  0
 15 20  1  0  0  0
 26 15  1  0  0  0
 16 17  1  0  0  0
 17 23  1  0  0  0
 23 18  1  0  0  0
 20 24  4  0  0  0
 21 22  4  0  0  0
  1 30  1  0  0  0
  1 31  1  0  0  0
  2 32  1  0  0  0
  3 33  1  0  0  0
  3 34  1  0  0  0
  4 35  1  0  0  0
  8 36  1  0  0  0
 10 37  1  0  0  0
 11 38  1  0  0  0
 12 39  1  0  0  0
 13 40  1  0  0  0
 15 41  1  0  0  0
 16 42  1  0  0  0
 16 43  1  0  0  0
 17 44  1  0  0  0
 18 45  1  0  0  0
 18 46  1  0  0  0
 18 47  1  0  0  0
 19 48  1  0  0  0
 22 49  1  0  0  0
 27 50  1  0  0  0
M  END
$$$$
