5zk3_ligand
  -I-interpret- 

 49 52  0  0  0  0  0  0  0  0999 V2000
  183.2750   25.8000  527.6850 C   0  0  0  0  0
  183.9070   26.8450  528.6140 C   0  0  0  0  0
  184.1980   28.1250  528.1570 C   0  0  0  0  0
  184.7710   29.0630  529.0000 C   0  0  0  0  0
  185.0600   28.7370  530.3060 C   0  0  0  0  0
  184.7790   27.4720  530.7730 C   0  0  0  0  0
  184.2050   26.5310  529.9340 C   0  0  0  0  0
  183.8870   25.8690  526.2810 C   0  0  0  0  0
  185.2490   25.6650  526.0910 C   0  0  0  0  0
  185.8040   25.7280  524.8250 C   0  0  0  0  0
  185.0100   25.9950  523.7320 C   0  0  0  0  0
  183.6590   26.2000  523.9040 C   0  0  0  0  0
  183.1000   26.1370  525.1680 C   0  0  0  0  0
  181.7450   25.9890  527.6360 C   0  0  0  0  0
  183.5460   24.5020  528.2210 O   0  0  0  0  0
  180.9700   25.0790  527.7320 O   0  0  0  0  0
  181.3850   27.2720  527.4990 O   0  0  0  0  0
  179.9650   27.5880  527.5920 C   0  0  0  0  0
  179.8130   28.9670  528.1970 C   0  0  0  0  0
  179.3420   29.9400  527.2100 N   0  3  0  0  0
  180.2530   29.9670  526.0620 C   0  0  0  0  0
  180.3010   28.6090  525.3710 C   0  0  0  0  0
  179.4400   27.6310  526.1650 C   0  0  0  0  0
  178.0010   28.1420  526.1970 C   0  0  0  0  0
  178.0030   29.5640  526.7450 C   0  0  0  0  0
  183.9730   28.3934  527.1248 H   0  0  0  0  0
  184.9939   30.0630  528.6279 H   0  0  0  0  0
  185.5095   29.4772  530.9680 H   0  0  0  0  0
  185.0090   27.2106  531.8059 H   0  0  0  0  0
  183.9848   25.5333  530.3137 H   0  0  0  0  0
  185.8869   25.4530  526.9490 H   0  0  0  0  0
  186.8737   25.5657  524.6924 H   0  0  0  0  0
  185.4487   26.0439  522.7354 H   0  0  0  0  0
  183.0279   26.4127  523.0411 H   0  0  0  0  0
  182.0294   26.2996  525.2920 H   0  0  0  0  0
  183.1708   24.4362  529.1022 H   0  0  0  0  0
  179.4310   26.8580  528.2004 H   0  0  0  0  0
  180.7871   29.2917  528.5628 H   0  0  0  0  0
  179.0801   28.9109  529.0019 H   0  0  0  0  0
  179.3112   30.8620  527.6451 H   0  0  0  0  0
  181.2538   30.2152  526.4154 H   0  0  0  0  0
  179.8953   30.7098  525.3490 H   0  0  0  0  0
  181.3291   28.2495  525.3281 H   0  0  0  0  0
  179.9223   28.6961  524.3526 H   0  0  0  0  0
  179.4742   26.6424  525.7071 H   0  0  0  0  0
  177.3927   27.4995  526.8336 H   0  0  0  0  0
  177.5809   28.1321  525.1913 H   0  0  0  0  0
  177.7015   30.2474  525.9512 H   0  0  0  0  0
  177.3107   29.6182  527.5852 H   0  0  0  0  0
  1  2  1  0  0  0
  1  8  1  0  0  0
  1 14  1  0  0  0
  1 15  1  0  0  0
  2  3  4  0  0  0
  2  7  4  0  0  0
  3  4  4  0  0  0
  4  5  4  0  0  0
  5  6  4  0  0  0
  6  7  4  0  0  0
  8  9  4  0  0  0
  8 13  4  0  0  0
  9 10  4  0  0  0
 10 11  4  0  0  0
 11 12  4  0  0  0
 12 13  4  0  0  0
 14 16  2  0  0  0
 14 17  1  0  0  0
 17 18  1  0  0  0
 18 19  1  0  0  0
 18 23  1  0  0  0
 19 20  1  0  0  0
 20 21  1  0  0  0
 20 25  1  0  0  0
 21 22  1  0  0  0
 22 23  1  0  0  0
 23 24  1  0  0  0
 24 25  1  0  0  0
  3 26  1  0  0  0
  4 27  1  0  0  0
  5 28  1  0  0  0
  6 29  1  0  0  0
  7 30  1  0  0  0
  9 31  1  0  0  0
 10 32  1  0  0  0
 11 33  1  0  0  0
 12 34  1  0  0  0
 13 35  1  0  0  0
 15 36  1  0  0  0
 18 37  1  0  0  0
 19 38  1  0  0  0
 19 39  1  0  0  0
 20 40  1  0  0  0
 21 41  1  0  0  0
 21 42  1  0  0  0
 22 43  1  0  0  0
 22 44  1  0  0  0
 23 45  1  0  0  0
 24 46  1  0  0  0
 24 47  1  0  0  0
 25 48  1  0  0  0
 25 49  1  0  0  0
M  END
$$$$
