5vsc_ligand
  -I-interpret- 

 59 61  0  0  0  0  0  0  0  0999 V2000
    7.4660   14.8050   28.0890 C   0  0  0  0  0
    6.1310   15.1860   28.1300 C   0  0  0  0  0
    5.7790   16.4940   27.7930 C   0  0  0  0  0
   12.2560   18.4770   28.4020 C   0  0  0  0  0
    6.7360   17.3780   27.4320 N   0  0  0  0  0
    8.4030   15.7240   27.7300 N   0  0  0  0  0
    8.6380   19.3020   26.7580 C   0  0  0  0  0
    8.0420   16.9930   27.4040 C   0  0  0  0  0
    8.5100   10.8630   29.1770 C   0  0  0  0  0
    3.2080   12.3750   29.4250 C   0  0  0  0  0
    1.4790   21.2890   26.5790 C   0  0  0  0  0
    7.8110   13.4930   28.4270 C   0  0  0  0  0
    5.1520   14.2590   28.4960 C   0  0  0  0  0
   10.9600   17.6950   28.3720 C   0  0  0  0  0
   10.4260   17.5570   26.9520 C   0  0  0  0  0
    3.5420   18.1940   26.0830 C   0  0  0  0  0
    4.2650   19.2700   28.1440 C   0  0  0  0  0
    2.4210   19.2110   25.8930 C   0  0  0  0  0
    3.1440   20.3030   28.0060 C   0  0  0  0  0
    6.8260   12.5740   28.7980 C   0  0  0  0  0
    5.4990   12.9520   28.8340 C   0  0  0  0  0
    3.6710   17.9900   27.5820 C   0  0  0  0  0
    9.0260   17.9280   27.0400 N   0  0  0  0  0
    4.4560   16.7780   27.8430 N   0  0  0  0  0
    2.7040   20.4750   26.6020 N   0  3  0  0  0
    7.1450   11.2820   29.1280 O   0  0  0  0  0
    4.5730   12.0060   29.1990 O   0  0  0  0  0
   13.0039   17.9616   27.7994 H   0  0  0  0  0
   12.0862   19.4748   27.9974 H   0  0  0  0  0
   12.6077   18.5556   29.4307 H   0  0  0  0  0
    7.9325   19.3158   25.9272 H   0  0  0  0  0
    8.1690   19.7344   27.6418 H   0  0  0  0  0
    9.5229   19.8813   26.4945 H   0  0  0  0  0
    8.9664   11.0008   28.1968 H   0  0  0  0  0
    9.0455   11.4594   29.9157 H   0  0  0  0  0
    8.5558    9.8102   29.4557 H   0  0  0  0  0
    3.1598   13.1090   30.2294 H   0  0  0  0  0
    2.7936   12.8054   28.5133 H   0  0  0  0  0
    2.6352   11.4905   29.7037 H   0  0  0  0  0
    1.1972   21.4899   25.5454 H   0  0  0  0  0
    0.6750   20.7475   27.0775 H   0  0  0  0  0
    1.6603   22.2307   27.0971 H   0  0  0  0  0
    8.8562   13.1847   28.4009 H   0  0  0  0  0
    4.1050   14.5612   28.5175 H   0  0  0  0  0
   10.2204   18.2282   28.9694 H   0  0  0  0  0
   11.1486   16.6976   28.7691 H   0  0  0  0  0
   10.5524   16.5442   26.5694 H   0  0  0  0  0
   10.9692   18.1923   26.2525 H   0  0  0  0  0
    4.4768   18.5510   25.6509 H   0  0  0  0  0
    3.3155   17.2567   25.5747 H   0  0  0  0  0
    4.5876   19.1518   29.1784 H   0  0  0  0  0
    5.1669   19.5711   27.6111 H   0  0  0  0  0
    1.5017   18.7884   26.2984 H   0  0  0  0  0
    2.3304   19.4273   24.8285 H   0  0  0  0  0
    3.5233   21.2615   28.3603 H   0  0  0  0  0
    2.2902   19.9536   28.5865 H   0  0  0  0  0
    2.7169   17.8186   28.0805 H   0  0  0  0  0
    3.8839   15.9806   28.1209 H   0  0  0  0  0
    3.4823   20.9230   26.1184 H   0  0  0  0  0
  2  1  4  0  0  0
  1  6  4  0  0  0
  1 12  4  0  0  0
  3  2  4  0  0  0
  2 13  4  0  0  0
  3  5  4  0  0  0
 24  3  1  0  0  0
 14  4  1  0  0  0
  5  8  4  0  0  0
  8  6  4  0  0  0
 23  7  1  0  0  0
  8 23  1  0  0  0
 26  9  1  0  0  0
 27 10  1  0  0  0
 25 11  1  0  0  0
 12 20  4  0  0  0
 13 21  4  0  0  0
 15 14  1  0  0  0
 23 15  1  0  0  0
 16 18  1  0  0  0
 22 16  1  0  0  0
 17 19  1  0  0  0
 22 17  1  0  0  0
 18 25  1  0  0  0
 19 25  1  0  0  0
 21 20  4  0  0  0
 20 26  1  0  0  0
 21 27  1  0  0  0
 22 24  1  0  0  0
  4 28  1  0  0  0
  4 29  1  0  0  0
  4 30  1  0  0  0
  7 31  1  0  0  0
  7 32  1  0  0  0
  7 33  1  0  0  0
  9 34  1  0  0  0
  9 35  1  0  0  0
  9 36  1  0  0  0
 10 37  1  0  0  0
 10 38  1  0  0  0
 10 39  1  0  0  0
 11 40  1  0  0  0
 11 41  1  0  0  0
 11 42  1  0  0  0
 12 43  1  0  0  0
 13 44  1  0  0  0
 14 45  1  0  0  0
 14 46  1  0  0  0
 15 47  1  0  0  0
 15 48  1  0  0  0
 16 49  1  0  0  0
 16 50  1  0  0  0
 17 51  1  0  0  0
 17 52  1  0  0  0
 18 53  1  0  0  0
 18 54  1  0  0  0
 19 55  1  0  0  0
 19 56  1  0  0  0
 22 57  1  0  0  0
 24 58  1  0  0  0
 25 59  1  0  0  0
M  END
$$$$
