4a6w_ligand
  -I-interpret- 

 23 24  0  0  0  0  0  0  0  0999 V2000
   -1.9840   -0.4470    8.1340 C   0  0  0  0  0
    1.2690    0.3000    9.6770 O   0  0  0  0  0
   -3.8560   -1.2130    7.3880 C   0  0  0  0  0
   -4.1080   -0.7990    8.6510 C   0  0  0  0  0
   -0.5470   -0.1410    8.2650 C   0  0  0  0  0
   -5.3710   -0.8280    9.4480 C   0  0  0  0  0
   -5.6910    0.1970   10.3560 C   0  0  0  0  0
   -6.7860    0.1230   11.2020 C   0  0  0  0  0
   -7.4700   -1.0620   11.2050 C   0  0  0  0  0
   -2.6460   -0.9900    7.1670 N   0  0  0  0  0
   -7.1900   -2.1130   10.3470 C   0  0  0  0  0
   -6.1000   -2.0130    9.5260 C   0  0  0  0  0
   -0.0210    0.1010    9.5600 N   0  0  0  0  0
   -2.8260   -0.2970    9.1060 O   0  0  0  0  0
    0.2030   -0.2140    7.2920 O   0  0  0  0  0
   -4.7400    1.6060   10.4630 Cl  0  0  0  0  0
    1.4861    0.4500   10.6000 H   0  0  0  0  0
   -4.5714   -1.6563    6.6953 H   0  0  0  0  0
   -7.0857    0.9620   11.8300 H   0  0  0  0  0
   -8.2808   -1.1861   11.9228 H   0  0  0  0  0
   -7.8237   -2.9996   10.3264 H   0  0  0  0  0
   -5.7981   -2.8711    8.9254 H   0  0  0  0  0
   -0.6303    0.1196   10.3778 H   0  0  0  0  0
  5  1  1  0  0  0
  1 10  4  0  0  0
  1 14  4  0  0  0
 13  2  1  0  0  0
  4  3  4  0  0  0
 10  3  4  0  0  0
  4  6  1  0  0  0
 14  4  4  0  0  0
  5 13  1  0  0  0
  5 15  2  0  0  0
  6  7  4  0  0  0
  6 12  4  0  0  0
  7  8  4  0  0  0
  7 16  1  0  0  0
  8  9  4  0  0  0
  9 11  4  0  0  0
 11 12  4  0  0  0
  2 17  1  0  0  0
  3 18  1  0  0  0
  8 19  1  0  0  0
  9 20  1  0  0  0
 11 21  1  0  0  0
 12 22  1  0  0  0
 13 23  1  0  0  0
M  END
$$$$
