3da6_ligand
  -I-interpret- 

 58 63  0  0  0  0  0  0  0  0999 V2000
  -19.2570   17.1450  -33.1670 N   0  0  0  0  0
  -17.5010   18.3170  -33.8350 C   0  0  0  0  0
  -16.8280   19.3150  -34.5840 C   0  0  0  0  0
  -17.5670   20.2010  -35.3850 C   0  0  0  0  0
  -18.9820   20.0290  -35.4140 C   0  0  0  0  0
  -19.6400   19.0140  -34.7280 C   0  0  0  0  0
  -19.7590   12.6610  -33.0490 C   0  0  0  0  0
  -18.4510   13.2750  -35.3900 C   0  0  0  0  0
  -19.9060   11.8580  -34.1710 C   0  0  0  0  0
  -20.4450   12.3340  -31.8800 C   0  0  0  0  0
  -18.8540   14.5980  -31.9150 C   0  0  0  0  0
  -22.8340    9.6020  -31.7690 C   0  0  0  0  0
  -24.2200    9.3610  -31.7680 C   0  0  0  0  0
  -24.5270   11.7490  -31.6190 C   0  0  0  0  0
  -22.4140   10.9190  -31.7430 C   0  0  0  0  0
  -22.0180    8.5020  -31.9280 C   0  0  0  0  0
  -23.8990    4.8560  -30.7440 C   0  0  0  0  0
  -22.5790    4.9760  -31.3970 N   0  0  0  0  0
  -21.9780    6.1320  -31.7390 C   0  0  0  0  0
  -22.5580    7.3150  -31.5900 N   0  0  0  0  0
  -20.7910    6.1080  -32.3360 N   0  0  0  0  0
  -20.1910    7.2220  -32.6380 C   0  0  0  0  0
  -20.7130    8.5020  -32.4940 C   0  0  0  0  0
  -25.0600   10.4790  -31.6710 C   0  0  0  0  0
  -23.1970   11.9400  -31.6790 N   0  0  0  0  0
  -21.1250   11.1470  -31.8350 O   0  0  0  0  0
  -20.3490   13.1240  -30.7350 C   0  0  0  0  0
  -21.1060   12.7550  -29.4500 C   0  0  0  0  0
  -19.5770   14.2830  -30.7760 C   0  0  0  0  0
  -19.2190   12.1410  -35.3690 C   0  0  0  0  0
  -18.2620   14.0740  -34.2710 C   0  0  0  0  0
  -18.9370   13.7900  -33.0770 C   0  0  0  0  0
  -18.1020   15.6920  -31.7760 N   0  0  0  0  0
  -18.1350   16.6910  -32.6180 C   0  0  0  0  0
  -17.0420   17.3740  -33.0030 N   0  0  0  0  0
  -18.8990   18.1720  -33.9210 C   0  0  0  0  0
  -15.7418   19.3944  -34.5384 H   0  0  0  0  0
  -17.0789   20.9875  -35.9606 H   0  0  0  0  0
  -19.5771   20.7272  -36.0026 H   0  0  0  0  0
  -20.7180   18.8853  -34.8249 H   0  0  0  0  0
  -17.9683   13.5618  -36.3243 H   0  0  0  0  0
  -20.5656   10.9914  -34.1252 H   0  0  0  0  0
  -24.6225    8.3506  -31.8394 H   0  0  0  0  0
  -25.1911   12.6086  -31.5282 H   0  0  0  0  0
  -23.8760    5.3710  -29.7836 H   0  0  0  0  0
  -24.6603    5.3062  -31.3810 H   0  0  0  0  0
  -24.1310    3.8026  -30.5873 H   0  0  0  0  0
  -22.0810    4.1108  -31.6064 H   0  0  0  0  0
  -19.1820    7.1441  -33.0429 H   0  0  0  0  0
  -20.1801    9.4077  -32.7834 H   0  0  0  0  0
  -26.1410   10.3432  -31.6365 H   0  0  0  0  0
  -22.1766   12.7340  -29.6538 H   0  0  0  0  0
  -20.7807   11.7726  -29.1076 H   0  0  0  0  0
  -20.8959   13.4975  -28.6801 H   0  0  0  0  0
  -19.5418   14.9436  -29.9097 H   0  0  0  0  0
  -19.2954   11.4878  -36.2382 H   0  0  0  0  0
  -17.5849   14.9267  -34.3216 H   0  0  0  0  0
  -17.4725   15.7511  -30.9756 H   0  0  0  0  0
 34  1  4  0  0  0
  1 36  4  0  0  0
  2  3  4  0  0  0
  2 35  4  0  0  0
 36  2  4  0  0  0
  3  4  4  0  0  0
  5  4  4  0  0  0
  6  5  4  0  0  0
 36  6  4  0  0  0
  7  9  4  0  0  0
  7 10  4  0  0  0
 32  7  4  0  0  0
  8 30  4  0  0  0
 31  8  4  0  0  0
  9 30  4  0  0  0
 10 26  1  0  0  0
 27 10  4  0  0  0
 11 29  4  0  0  0
 11 32  4  0  0  0
 33 11  1  0  0  0
 12 13  4  0  0  0
 15 12  4  0  0  0
 12 16  1  0  0  0
 13 24  4  0  0  0
 14 24  4  0  0  0
 25 14  4  0  0  0
 15 25  4  0  0  0
 26 15  1  0  0  0
 16 20  4  0  0  0
 16 23  4  0  0  0
 18 17  1  0  0  0
 19 18  1  0  0  0
 20 19  4  0  0  0
 19 21  4  0  0  0
 22 21  4  0  0  0
 23 22  4  0  0  0
 27 28  1  0  0  0
 29 27  4  0  0  0
 32 31  4  0  0  0
 33 34  1  0  0  0
 34 35  4  0  0  0
  3 37  1  0  0  0
  4 38  1  0  0  0
  5 39  1  0  0  0
  6 40  1  0  0  0
  8 41  1  0  0  0
  9 42  1  0  0  0
 13 43  1  0  0  0
 14 44  1  0  0  0
 17 45  1  0  0  0
 17 46  1  0  0  0
 17 47  1  0  0  0
 18 48  1  0  0  0
 22 49  1  0  0  0
 23 50  1  0  0  0
 24 51  1  0  0  0
 28 52  1  0  0  0
 28 53  1  0  0  0
 28 54  1  0  0  0
 29 55  1  0  0  0
 30 56  1  0  0  0
 31 57  1  0  0  0
 33 58  1  0  0  0
M  END
$$$$
