4c61_ligand
  -I-interpret- 

 44 47  0  0  0  0  0  0  0  0999 V2000
   10.6370    7.4690   43.5650 F   0  0  0  0  0
   11.6050    6.5200   43.6400 C   0  0  0  0  0
   11.3470    5.2000   44.0990 C   0  0  0  0  0
   12.3470    4.3160   44.2220 N   0  0  0  0  0
   13.5630    4.7640   43.8730 C   0  0  0  0  0
   13.9020    5.9700   43.3940 N   0  0  0  0  0
   12.9050    6.8560   43.2790 C   0  0  0  0  0
   14.7600    3.7720   44.0640 C   0  0  0  0  0
   15.3030    3.9670   45.4770 C   0  0  0  0  0
   15.8400    4.0140   43.0940 N   0  0  0  0  0
   15.7910    3.7760   41.7670 C   0  0  0  0  0
   16.8960    4.0740   41.0670 N   0  0  0  0  0
   16.8500    3.7280   39.7710 C   0  0  0  0  0
   17.9670    3.8670   38.8050 C   0  0  0  0  0
   19.3600    4.3440   39.0980 C   0  0  0  0  0
   14.6680    3.2120   41.2840 N   0  0  0  0  0
   14.6160    2.8840   39.9840 C   0  0  0  0  0
   15.7420    3.1300   39.1490 C   0  0  0  0  0
   16.0220    2.7760   37.4790 S   0  0  0  0  0
   17.6150    3.4150   37.5660 C   0  0  0  0  0
   13.4650    2.2720   39.4490 N   0  0  0  0  0
   12.3020    1.9500   40.1300 C   0  0  0  0  0
   11.2970    1.3210   39.4640 N   0  0  0  0  0
   10.3140    1.1200   40.3110 C   0  0  0  0  0
   10.6860    1.6190   41.5660 N   0  0  0  0  0
    9.9000    1.6050   42.8030 C   0  0  0  0  0
   11.9420    2.1320   41.4280 C   0  0  0  0  0
   10.3290    4.9044   44.3527 H   0  0  0  0  0
   13.1154    7.8549   42.8969 H   0  0  0  0  0
   14.4023    2.7547   43.9049 H   0  0  0  0  0
   16.1175    3.2642   45.6520 H   0  0  0  0  0
   15.6718    4.9869   45.5856 H   0  0  0  0  0
   14.5061    3.7887   46.1989 H   0  0  0  0  0
   16.7104    4.3992   43.4608 H   0  0  0  0  0
   19.3195    5.3589   39.4935 H   0  0  0  0  0
   19.8215    3.6845   39.8330 H   0  0  0  0  0
   19.9469    4.3337   38.1796 H   0  0  0  0  0
   18.2853    3.4558   36.7074 H   0  0  0  0  0
   13.4906    2.0417   38.4557 H   0  0  0  0  0
    9.3629    0.6424   40.0758 H   0  0  0  0  0
    8.9736    2.1585   42.6496 H   0  0  0  0  0
    9.6687    0.5747   43.0733 H   0  0  0  0  0
   10.4753    2.0714   43.6028 H   0  0  0  0  0
   12.5423    2.5986   42.2090 H   0  0  0  0  0
  1  2  1  0  0  0
  2  3  4  0  0  0
  2  7  4  0  0  0
  3  4  4  0  0  0
  4  5  4  0  0  0
  5  6  4  0  0  0
  5  8  1  0  0  0
  6  7  4  0  0  0
  8  9  1  0  0  0
  8 10  1  0  0  0
 10 11  1  0  0  0
 11 12  4  0  0  0
 11 16  4  0  0  0
 12 13  4  0  0  0
 13 14  4  0  0  0
 13 18  4  0  0  0
 14 15  1  0  0  0
 14 20  4  0  0  0
 16 17  4  0  0  0
 17 18  4  0  0  0
 17 21  1  0  0  0
 18 19  4  0  0  0
 19 20  4  0  0  0
 21 22  1  0  0  0
 22 23  4  0  0  0
 22 27  4  0  0  0
 23 24  4  0  0  0
 24 25  4  0  0  0
 25 26  1  0  0  0
 25 27  4  0  0  0
  3 28  1  0  0  0
  7 29  1  0  0  0
  8 30  1  0  0  0
  9 31  1  0  0  0
  9 32  1  0  0  0
  9 33  1  0  0  0
 10 34  1  0  0  0
 15 35  1  0  0  0
 15 36  1  0  0  0
 15 37  1  0  0  0
 20 38  1  0  0  0
 21 39  1  0  0  0
 24 40  1  0  0  0
 26 41  1  0  0  0
 26 42  1  0  0  0
 26 43  1  0  0  0
 27 44  1  0  0  0
M  END
$$$$
