4az3_ligand
  -I-interpret- 

 65 67  0  0  0  0  0  0  0  0999 V2000
  -36.2570    9.5860   15.4020 C   0  0  0  0  0
  -35.0480    8.7390   15.8270 C   0  0  0  0  0
  -35.2460    7.3580   15.9480 C   0  0  0  0  0
  -34.1980    6.5160   16.3310 C   0  0  0  0  0
  -32.9390    7.0600   16.5960 C   0  0  0  0  0
  -32.7350    8.4370   16.4730 C   0  0  0  0  0
  -33.7740    9.2990   16.0790 C   0  0  0  0  0
  -33.5290   10.8340   15.9660 C   0  0  0  0  0
  -32.0610   11.2200   15.6830 C   0  0  0  0  0
  -31.5580   10.8240   14.2860 C   0  0  0  0  0
  -32.3350   10.9850   13.3220 O   0  0  0  0  0
  -30.3800   10.4170   14.2100 O   0  0  0  0  0
  -33.9400   11.4910   17.2190 N   0  0  0  0  0
  -34.5870   12.6590   17.3070 C   0  0  0  0  0
  -34.9460   13.3540   16.3530 O   0  0  0  0  0
  -34.8410   13.1040   18.7530 C   0  0  0  0  0
  -34.7920   12.2730   19.7910 N   0  0  0  0  0
  -35.0910   14.3430   19.1730 C   0  0  0  0  0
  -35.2330   14.2080   20.4940 C   0  0  0  0  0
  -35.4530   15.2000   21.4170 O   0  0  0  0  0
  -36.4210   16.2360   21.0980 C   0  0  0  0  0
  -35.7530   17.6350   21.1320 C   0  0  0  0  0
  -36.6870   18.8680   21.3740 C   0  0  0  0  0
  -35.9900   20.1210   20.8340 C   0  0  0  0  0
  -38.0300   18.7430   20.6350 C   0  0  0  0  0
  -36.9720   19.0880   22.8700 C   0  0  0  0  0
  -34.6310   17.6280   22.0330 O   0  0  0  0  0
  -34.9870   12.9340   20.8080 N   0  0  0  0  0
  -35.0460   12.3890   22.0230 C   0  0  0  0  0
  -33.8760   12.1840   22.7630 C   0  0  0  0  0
  -33.9450   11.5770   24.0220 C   0  0  0  0  0
  -35.1770   11.1610   24.5370 C   0  0  0  0  0
  -36.3450   11.3540   23.7920 C   0  0  0  0  0
  -36.2770   11.9570   22.5300 C   0  0  0  0  0
  -37.4020   12.1360   21.8080 F   0  0  0  0  0
  -36.6058    9.2541   14.4241 H   0  0  0  0  0
  -37.0565    9.4685   16.1335 H   0  0  0  0  0
  -35.9635   10.6344   15.3479 H   0  0  0  0  0
  -36.2289    6.9347   15.7411 H   0  0  0  0  0
  -34.3621    5.4423   16.4222 H   0  0  0  0  0
  -32.1168    6.4113   16.8983 H   0  0  0  0  0
  -31.7499    8.8517   16.6869 H   0  0  0  0  0
  -34.1217   11.1669   15.1140 H   0  0  0  0  0
  -31.4450   10.6873   16.4075 H   0  0  0  0  0
  -31.9975   12.3061   15.7497 H   0  0  0  0  0
  -29.9978   10.3808   15.0899 H   0  0  0  0  0
  -33.7123   11.0158   18.0924 H   0  0  0  0  0
  -35.1628   15.2535   18.5781 H   0  0  0  0  0
  -37.2233   16.2093   21.8354 H   0  0  0  0  0
  -36.8143   16.0563   20.0974 H   0  0  0  0  0
  -35.4185   17.7964   20.1072 H   0  0  0  0  0
  -35.0439   20.2626   21.3565 H   0  0  0  0  0
  -35.8027   19.9997   19.7671 H   0  0  0  0  0
  -36.6292   20.9890   20.9956 H   0  0  0  0  0
  -37.8476   18.6644   19.5633 H   0  0  0  0  0
  -38.5527   17.8518   20.9822 H   0  0  0  0  0
  -38.6382   19.6246   20.8376 H   0  0  0  0  0
  -37.4605   18.2037   23.2794 H   0  0  0  0  0
  -36.0331   19.2621   23.3956 H   0  0  0  0  0
  -37.6236   19.9534   22.9910 H   0  0  0  0  0
  -34.2264   18.4985   22.0453 H   0  0  0  0  0
  -32.9129   12.4965   22.3595 H   0  0  0  0  0
  -33.0352   11.4279   24.6035 H   0  0  0  0  0
  -35.2269   10.6872   25.5173 H   0  0  0  0  0
  -37.3070   11.0354   24.1933 H   0  0  0  0  0
  1  2  1  0  0  0
  2  3  4  0  0  0
  2  7  4  0  0  0
  3  4  4  0  0  0
  4  5  4  0  0  0
  5  6  4  0  0  0
  6  7  4  0  0  0
  7  8  1  0  0  0
  8  9  1  0  0  0
  8 13  1  0  0  0
  9 10  1  0  0  0
 10 11  2  0  0  0
 10 12  1  0  0  0
 13 14  1  0  0  0
 14 15  2  0  0  0
 14 16  1  0  0  0
 16 17  4  0  0  0
 16 18  4  0  0  0
 17 28  4  0  0  0
 18 19  4  0  0  0
 19 20  1  0  0  0
 19 28  4  0  0  0
 20 21  1  0  0  0
 21 22  1  0  0  0
 22 23  1  0  0  0
 22 27  1  0  0  0
 23 24  1  0  0  0
 23 25  1  0  0  0
 23 26  1  0  0  0
 28 29  1  0  0  0
 29 30  4  0  0  0
 29 34  4  0  0  0
 30 31  4  0  0  0
 31 32  4  0  0  0
 32 33  4  0  0  0
 33 34  4  0  0  0
 34 35  1  0  0  0
  1 36  1  0  0  0
  1 37  1  0  0  0
  1 38  1  0  0  0
  3 39  1  0  0  0
  4 40  1  0  0  0
  5 41  1  0  0  0
  6 42  1  0  0  0
  8 43  1  0  0  0
  9 44  1  0  0  0
  9 45  1  0  0  0
 12 46  1  0  0  0
 13 47  1  0  0  0
 18 48  1  0  0  0
 21 49  1  0  0  0
 21 50  1  0  0  0
 22 51  1  0  0  0
 24 52  1  0  0  0
 24 53  1  0  0  0
 24 54  1  0  0  0
 25 55  1  0  0  0
 25 56  1  0  0  0
 25 57  1  0  0  0
 26 58  1  0  0  0
 26 59  1  0  0  0
 26 60  1  0  0  0
 27 61  1  0  0  0
 30 62  1  0  0  0
 31 63  1  0  0  0
 32 64  1  0  0  0
 33 65  1  0  0  0
M  END
$$$$
