2a5u_ligand
  -I-interpret- 

 25 27  0  0  0  0  0  0  0  0999 V2000
   43.6770   12.6420   29.7220 C   0  0  0  0  0
   42.7360   13.2970   30.6610 C   0  0  0  0  0
   43.1450   14.3460   31.4720 C   0  0  0  0  0
   40.2380   15.2630   33.9000 C   0  0  0  0  0
   38.4880   14.1470   32.7760 C   0  0  0  0  0
   45.4170   14.2090   30.5130 C   0  0  0  0  0
   44.9610   13.0780   29.6650 C   0  0  0  0  0
   47.1300   12.8870   28.7660 C   0  0  0  0  0
   46.7620   14.6190   30.4190 N   0  0  0  0  0
   44.5620   14.8140   31.3680 C   0  0  0  0  0
   42.2430   15.0400   32.4810 C   0  0  0  0  0
   40.9350   14.7990   32.7170 C   0  0  0  0  0
   39.8030   13.9080   31.6910 S   0  0  0  0  0
   38.8610   14.8910   33.9230 N   0  0  0  0  0
   40.7720   15.9160   34.8020 O   0  0  0  0  0
   37.3430   13.7130   32.5670 O   0  0  0  0  0
   45.8980   12.4730   28.8120 N   0  0  0  0  0
   47.5870   14.0280   29.6180 C   0  0  0  0  0
   43.3428   11.8220   29.0864 H   0  0  0  0  0
   41.7046   12.9487   30.7155 H   0  0  0  0  0
   47.8382   12.3964   28.0983 H   0  0  0  0  0
   44.9063   15.6452   31.9833 H   0  0  0  0  0
   42.7054   15.8221   33.0832 H   0  0  0  0  0
   38.2190   15.1326   34.6779 H   0  0  0  0  0
   48.6226   14.3636   29.5633 H   0  0  0  0  0
  2  1  4  0  0  0
  1  7  4  0  0  0
  3  2  4  0  0  0
  3 10  4  0  0  0
 11  3  1  0  0  0
 12  4  1  0  0  0
  4 14  1  0  0  0
  4 15  2  0  0  0
  5 13  1  0  0  0
 14  5  1  0  0  0
  5 16  2  0  0  0
  6  7  4  0  0  0
  6  9  4  0  0  0
 10  6  4  0  0  0
  7 17  4  0  0  0
 17  8  4  0  0  0
 18  8  4  0  0  0
  9 18  4  0  0  0
 11 12  2  0  0  0
 12 13  1  0  0  0
  1 19  1  0  0  0
  2 20  1  0  0  0
  8 21  1  0  0  0
 10 22  1  0  0  0
 11 23  1  0  0  0
 14 24  1  0  0  0
 18 25  1  0  0  0
M  END
$$$$
