4xqb_ligand
  -I-interpret- 

173178  0  0  0  0  0  0  0  0999 V2000
  -24.1140   10.2700  -34.2230 O   0  0  0  0  0
  -25.3420    9.5900  -34.4840 C   0  0  0  0  0
  -26.1480    9.4800  -33.1880 C   0  0  0  0  0
  -27.4180    8.8590  -33.4220 O   0  0  0  0  0
  -25.3840    8.6960  -32.1200 C   0  0  0  0  0
  -24.2270    9.4500  -31.7860 O   0  0  0  0  0
  -26.3410    8.6650  -30.9460 C   0  0  0  0  0
  -26.5950   10.0130  -30.5110 O   0  0  0  0  0
  -25.7180    7.8940  -29.7690 C   0  0  0  0  0
  -25.3040    6.5430  -30.1790 N   0  0  0  0  0
  -24.1120    5.9970  -29.8750 C   0  0  0  0  0
  -23.1590    6.6060  -29.3830 O   0  0  0  0  0
  -23.9310    4.5850  -30.4190 C   0  0  0  0  0
  -26.7110    7.8800  -28.5820 C   0  0  0  0  0
  -26.1400    7.2520  -27.4130 O   0  0  0  0  0
  -26.9450    9.3220  -28.2300 C   0  0  0  0  0
  -27.5130   10.0730  -29.4150 C   0  0  0  0  0
  -28.9310    9.5940  -29.8810 C   0  0  0  0  0
  -29.8180    9.5880  -29.0120 O   0  0  0  0  0
  -29.1430    9.3580  -31.1000 O   0  0  0  0  0
  -27.7010   11.4160  -29.0120 O   0  0  0  0  0
  -28.1920   12.3480  -29.9680 C   0  0  0  0  0
  -27.9860   13.7310  -29.3300 C   0  0  0  0  0
  -28.5260   14.8080  -30.2670 C   0  0  0  0  0
  -29.5510   15.6100  -30.0170 C   0  0  0  0  0
  -28.0530   15.0740  -31.4710 N   0  0  0  0  0
  -28.7440   15.9860  -31.9310 N   0  0  0  0  0
  -29.6510   16.3590  -31.1160 N   0  0  0  0  0
  -30.5240   17.3460  -31.4210 C   0  0  0  0  0
  -29.7590   18.6770  -31.4950 C   0  0  0  0  0
  -29.2390   19.0450  -30.3210 N   0  3  0  0  0
  -28.3670   20.1830  -30.6180 C   0  0  0  0  0
  -27.0530   19.7070  -31.2410 C   0  0  0  0  0
  -26.3010   18.8540  -30.2550 N   0  0  0  0  0
  -25.8600   17.6020  -30.3650 C   0  0  0  0  0
  -25.9680   19.3010  -29.0970 N   0  0  0  0  0
  -25.3340   18.4130  -28.4320 N   0  0  0  0  0
  -25.2590   17.3390  -29.2090 C   0  0  0  0  0
  -24.6600   16.1860  -28.8970 C   0  0  0  0  0
  -23.1520   16.3970  -28.6410 C   0  0  0  0  0
  -22.5860   15.1850  -28.3460 O   0  0  0  0  0
  -21.1770   15.2010  -28.0020 C   0  0  0  0  0
  -20.4850   15.7180  -29.2910 C   0  0  0  0  0
  -20.7030   15.0510  -30.3230 O   0  0  0  0  0
  -19.8460   16.7940  -29.2720 O   0  0  0  0  0
  -20.9660   16.0270  -26.8550 O   0  0  0  0  0
  -20.7100   13.7800  -27.6800 C   0  0  0  0  0
  -19.2350   13.7520  -27.3060 C   0  0  0  0  0
  -18.9370   12.3850  -26.9910 O   0  0  0  0  0
  -19.1350   14.6650  -26.0650 C   0  0  0  0  0
  -17.7450   14.6420  -25.5330 N   0  0  0  0  0
  -17.3550   13.8630  -24.4980 C   0  0  0  0  0
  -15.8770   13.9830  -24.0970 C   0  0  0  0  0
  -18.1420   13.2900  -23.7410 O   0  0  0  0  0
  -19.6040   16.0880  -26.4190 C   0  0  0  0  0
  -19.5260   16.9900  -25.2050 C   0  0  0  0  0
  -20.4690   16.4820  -24.2590 O   0  0  0  0  0
  -19.9770   18.3830  -25.6210 C   0  0  0  0  0
  -18.9470   18.8900  -26.4660 O   0  0  0  0  0
  -20.0540   19.3060  -24.4020 C   0  0  0  0  0
  -18.7860   19.4160  -23.7650 O   0  0  0  0  0
  -30.3620   19.5050  -29.5060 C   0  0  0  0  0
  -29.9020   19.7960  -28.0730 C   0  0  0  0  0
  -29.4200   18.5480  -27.3940 N   0  0  0  0  0
  -28.2550   18.2660  -26.8110 C   0  0  0  0  0
  -30.1930   17.5450  -27.2760 N   0  0  0  0  0
  -29.6260   16.6010  -26.6690 N   0  0  0  0  0
  -28.4080   17.0270  -26.3650 C   0  0  0  0  0
  -27.3540   16.2200  -25.6100 C   0  0  0  0  0
  -27.8510   15.8850  -24.1960 C   0  0  0  0  0
  -26.7820   15.1720  -23.5840 O   0  0  0  0  0
  -27.0450   14.5010  -22.3560 C   0  0  0  0  0
  -27.4700   15.6390  -21.3590 C   0  0  0  0  0
  -28.6750   15.7380  -21.0070 O   0  0  0  0  0
  -26.5890   16.4600  -21.0400 O   0  0  0  0  0
  -28.0990   13.5730  -22.5100 O   0  0  0  0  0
  -25.7930   13.7570  -21.9380 C   0  0  0  0  0
  -25.9940   13.0150  -20.6360 C   0  0  0  0  0
  -24.7600   12.2850  -20.4230 O   0  0  0  0  0
  -27.1370   12.0230  -20.9220 C   0  0  0  0  0
  -27.4100   11.2870  -19.6690 N   0  0  0  0  0
  -27.0970    9.9850  -19.4970 C   0  0  0  0  0
  -26.7060    9.2500  -20.4040 O   0  0  0  0  0
  -27.4580    9.3980  -18.1270 C   0  0  0  0  0
  -28.3790   12.8630  -21.3160 C   0  0  0  0  0
  -29.5350   11.9270  -21.6150 C   0  0  0  0  0
  -29.1690   11.1230  -22.7450 O   0  0  0  0  0
  -30.6930   12.8430  -22.0340 C   0  0  0  0  0
  -30.9900   13.7340  -20.9620 O   0  0  0  0  0
  -31.9650   12.0620  -22.3940 C   0  0  0  0  0
  -32.3990   11.3210  -21.2550 O   0  0  0  0  0
  -23.6085   10.3389  -35.0362 H   0  0  0  0  0
  -25.1307    8.5916  -34.8669 H   0  0  0  0  0
  -25.9166   10.1477  -35.2236 H   0  0  0  0  0
  -26.3106   10.4951  -32.8257 H   0  0  0  0  0
  -27.8957    9.3527  -34.0926 H   0  0  0  0  0
  -25.0742    7.6963  -32.4246 H   0  0  0  0  0
  -23.6277    9.4634  -32.5358 H   0  0  0  0  0
  -27.2633    8.1758  -31.2594 H   0  0  0  0  0
  -24.8100    8.3999  -29.4408 H   0  0  0  0  0
  -25.9601    5.9865  -30.7268 H   0  0  0  0  0
  -23.1909    4.5974  -31.2191 H   0  0  0  0  0
  -23.5907    3.9291  -29.6177 H   0  0  0  0  0
  -24.8824    4.2221  -30.8079 H   0  0  0  0  0
  -27.6113    7.3344  -28.8645 H   0  0  0  0  0
  -26.7826    7.2618  -26.6998 H   0  0  0  0  0
  -25.9952    9.7754  -27.9463 H   0  0  0  0  0
  -27.6555    9.3738  -27.4050 H   0  0  0  0  0
  -28.3164    9.4170  -31.5847 H   0  0  0  0  0
  -29.2409   12.1668  -30.2025 H   0  0  0  0  0
  -27.6654   12.2625  -30.9185 H   0  0  0  0  0
  -26.9225   13.8978  -29.1588 H   0  0  0  0  0
  -28.5177   13.7759  -28.3796 H   0  0  0  0  0
  -30.1695   15.6486  -29.1203 H   0  0  0  0  0
  -31.2969   17.4059  -30.6547 H   0  0  0  0  0
  -30.9972   17.1376  -32.3806 H   0  0  0  0  0
  -30.4642   19.4490  -31.8029 H   0  0  0  0  0
  -28.9357   18.5486  -32.1976 H   0  0  0  0  0
  -28.7278   18.3023  -29.8441 H   0  0  0  0  0
  -28.1469   20.7107  -29.6900 H   0  0  0  0  0
  -28.8739   20.8415  -31.3233 H   0  0  0  0  0
  -26.4454   20.5723  -31.5060 H   0  0  0  0  0
  -27.2691   19.1204  -32.1339 H   0  0  0  0  0
  -25.9688   16.9353  -31.2205 H   0  0  0  0  0
  -24.7796   15.4933  -29.7301 H   0  0  0  0  0
  -25.1163   15.7892  -27.9901 H   0  0  0  0  0
  -23.0093   17.0861  -27.8086 H   0  0  0  0  0
  -22.6805   16.8213  -29.5274 H   0  0  0  0  0
  -19.8056   17.1250  -28.3718 H   0  0  0  0  0
  -20.8549   13.1592  -28.5641 H   0  0  0  0  0
  -21.2888   13.4086  -26.8343 H   0  0  0  0  0
  -18.5442   14.0926  -28.0773 H   0  0  0  0  0
  -18.0119   12.3086  -26.7461 H   0  0  0  0  0
  -19.7920   14.2954  -25.2777 H   0  0  0  0  0
  -17.0497   15.2455  -25.9721 H   0  0  0  0  0
  -15.7998   14.5333  -23.1593 H   0  0  0  0  0
  -15.4540   12.9864  -23.9708 H   0  0  0  0  0
  -15.3321   14.5142  -24.8774 H   0  0  0  0  0
  -18.9617   16.4886  -27.2033 H   0  0  0  0  0
  -18.5180   17.0259  -24.7919 H   0  0  0  0  0
  -20.4531   17.0270  -23.4688 H   0  0  0  0  0
  -20.9542   18.3392  -26.1020 H   0  0  0  0  0
  -19.1815   19.7734  -26.7597 H   0  0  0  0  0
  -20.7673   18.8884  -23.6915 H   0  0  0  0  0
  -20.3666   20.2966  -24.7324 H   0  0  0  0  0
  -18.8601   19.9985  -23.0055 H   0  0  0  0  0
  -31.1243   18.7263  -29.4819 H   0  0  0  0  0
  -30.7641   20.4198  -29.9414 H   0  0  0  0  0
  -30.7465   20.1941  -27.5105 H   0  0  0  0  0
  -29.0805   20.5115  -28.1098 H   0  0  0  0  0
  -27.3779   18.9069  -26.7215 H   0  0  0  0  0
  -26.4403   16.8096  -25.5356 H   0  0  0  0  0
  -27.1627   15.2921  -26.1491 H   0  0  0  0  0
  -28.7664   15.2938  -24.2210 H   0  0  0  0  0
  -28.1070   16.7845  -23.6361 H   0  0  0  0  0
  -29.1733   14.9994  -21.3644 H   0  0  0  0  0
  -24.9914   14.4826  -21.8003 H   0  0  0  0  0
  -25.5490   13.0311  -22.7136 H   0  0  0  0  0
  -26.2255   13.6430  -19.7757 H   0  0  0  0  0
  -24.8212   11.7872  -19.6044 H   0  0  0  0  0
  -26.8882   11.3204  -21.7173 H   0  0  0  0  0
  -27.8554   11.7860  -18.8989 H   0  0  0  0  0
  -28.2656    8.6753  -18.2441 H   0  0  0  0  0
  -26.5841    8.9028  -17.7036 H   0  0  0  0  0
  -27.7800   10.2001  -17.4629 H   0  0  0  0  0
  -28.6245   13.5448  -20.5018 H   0  0  0  0  0
  -29.7919   11.2880  -20.7701 H   0  0  0  0  0
  -29.8869   10.5209  -22.9539 H   0  0  0  0  0
  -30.3749   13.3843  -22.9250 H   0  0  0  0  0
  -31.7140   14.3103  -21.2176 H   0  0  0  0  0
  -31.7539   11.3783  -23.2163 H   0  0  0  0  0
  -32.7475   12.7575  -22.6976 H   0  0  0  0  0
  -33.1944   10.8315  -21.4772 H   0  0  0  0  0
  1  2  1  0  0  0
  2  3  1  0  0  0
  3  4  1  0  0  0
  3  5  1  0  0  0
  5  6  1  0  0  0
  5  7  1  0  0  0
  7  8  1  0  0  0
  7  9  1  0  0  0
  8 17  1  0  0  0
  9 10  1  0  0  0
  9 14  1  0  0  0
 10 11  1  0  0  0
 11 12  2  0  0  0
 11 13  1  0  0  0
 14 15  1  0  0  0
 14 16  1  0  0  0
 16 17  1  0  0  0
 17 18  1  0  0  0
 17 21  1  0  0  0
 18 19  2  0  0  0
 18 20  1  0  0  0
 21 22  1  0  0  0
 22 23  1  0  0  0
 23 24  1  0  0  0
 24 25  4  0  0  0
 24 26  4  0  0  0
 25 28  4  0  0  0
 26 27  4  0  0  0
 27 28  4  0  0  0
 28 29  1  0  0  0
 29 30  1  0  0  0
 30 31  1  0  0  0
 31 32  1  0  0  0
 31 62  1  0  0  0
 32 33  1  0  0  0
 33 34  1  0  0  0
 34 35  4  0  0  0
 34 36  4  0  0  0
 35 38  4  0  0  0
 36 37  4  0  0  0
 37 38  4  0  0  0
 38 39  1  0  0  0
 39 40  1  0  0  0
 40 41  1  0  0  0
 41 42  1  0  0  0
 42 43  1  0  0  0
 42 46  1  0  0  0
 42 47  1  0  0  0
 43 44  2  0  0  0
 43 45  1  0  0  0
 46 55  1  0  0  0
 47 48  1  0  0  0
 48 49  1  0  0  0
 48 50  1  0  0  0
 50 51  1  0  0  0
 50 55  1  0  0  0
 51 52  1  0  0  0
 52 53  1  0  0  0
 52 54  2  0  0  0
 55 56  1  0  0  0
 56 57  1  0  0  0
 56 58  1  0  0  0
 58 59  1  0  0  0
 58 60  1  0  0  0
 60 61  1  0  0  0
 62 63  1  0  0  0
 63 64  1  0  0  0
 64 65  4  0  0  0
 64 66  4  0  0  0
 65 68  4  0  0  0
 66 67  4  0  0  0
 67 68  4  0  0  0
 68 69  1  0  0  0
 69 70  1  0  0  0
 70 71  1  0  0  0
 71 72  1  0  0  0
 72 73  1  0  0  0
 72 76  1  0  0  0
 72 77  1  0  0  0
 73 74  1  0  0  0
 73 75  2  0  0  0
 76 85  1  0  0  0
 77 78  1  0  0  0
 78 79  1  0  0  0
 78 80  1  0  0  0
 80 81  1  0  0  0
 80 85  1  0  0  0
 81 82  1  0  0  0
 82 83  2  0  0  0
 82 84  1  0  0  0
 85 86  1  0  0  0
 86 87  1  0  0  0
 86 88  1  0  0  0
 88 89  1  0  0  0
 88 90  1  0  0  0
 90 91  1  0  0  0
  1 92  1  0  0  0
  2 93  1  0  0  0
  2 94  1  0  0  0
  3 95  1  0  0  0
  4 96  1  0  0  0
  5 97  1  0  0  0
  6 98  1  0  0  0
  7 99  1  0  0  0
  9100  1  0  0  0
 10101  1  0  0  0
 13102  1  0  0  0
 13103  1  0  0  0
 13104  1  0  0  0
 14105  1  0  0  0
 15106  1  0  0  0
 16107  1  0  0  0
 16108  1  0  0  0
 20109  1  0  0  0
 22110  1  0  0  0
 22111  1  0  0  0
 23112  1  0  0  0
 23113  1  0  0  0
 25114  1  0  0  0
 29115  1  0  0  0
 29116  1  0  0  0
 30117  1  0  0  0
 30118  1  0  0  0
 31119  1  0  0  0
 32120  1  0  0  0
 32121  1  0  0  0
 33122  1  0  0  0
 33123  1  0  0  0
 35124  1  0  0  0
 39125  1  0  0  0
 39126  1  0  0  0
 40127  1  0  0  0
 40128  1  0  0  0
 45129  1  0  0  0
 47130  1  0  0  0
 47131  1  0  0  0
 48132  1  0  0  0
 49133  1  0  0  0
 50134  1  0  0  0
 51135  1  0  0  0
 53136  1  0  0  0
 53137  1  0  0  0
 53138  1  0  0  0
 55139  1  0  0  0
 56140  1  0  0  0
 57141  1  0  0  0
 58142  1  0  0  0
 59143  1  0  0  0
 60144  1  0  0  0
 60145  1  0  0  0
 61146  1  0  0  0
 62147  1  0  0  0
 62148  1  0  0  0
 63149  1  0  0  0
 63150  1  0  0  0
 65151  1  0  0  0
 69152  1  0  0  0
 69153  1  0  0  0
 70154  1  0  0  0
 70155  1  0  0  0
 74156  1  0  0  0
 77157  1  0  0  0
 77158  1  0  0  0
 78159  1  0  0  0
 79160  1  0  0  0
 80161  1  0  0  0
 81162  1  0  0  0
 84163  1  0  0  0
 84164  1  0  0  0
 84165  1  0  0  0
 85166  1  0  0  0
 86167  1  0  0  0
 87168  1  0  0  0
 88169  1  0  0  0
 89170  1  0  0  0
 90171  1  0  0  0
 90172  1  0  0  0
 91173  1  0  0  0
M  END
$$$$
