### 
### Created by X-TOOL on Mon Sep 10 21:13:21 2018
### 

@<TRIPOS>MOLECULE
4xqb_ligand
  170   175     1     0     0
SMALL
GAST_HUCK


@<TRIPOS>ATOM
      1 OCH       -24.1140   10.2700  -34.2230 O.3       1 425        -0.3924
      2 CCG       -25.3420    9.5900  -34.4840 C.3       1 425         0.0727
      3 CCE       -26.1480    9.4800  -33.1880 C.3       1 425         0.1065
      4 OCF       -27.4180    8.8590  -33.4220 O.3       1 425        -0.3869
      5 CCC       -25.3840    8.6960  -32.1200 C.3       1 425         0.1114
      6 OCD       -24.2270    9.4500  -31.7860 O.3       1 425        -0.3865
      7 CBW       -26.3410    8.6650  -30.9460 C.3       1 425         0.1143
      8 OBX       -26.5950   10.0130  -30.5110 O.3       1 425        -0.3384
      9 CBS       -25.7180    7.8940  -29.7690 C.3       1 425         0.0964
     10 NBR       -25.3040    6.5430  -30.1790 N.am      1 425        -0.2790
     11 CBP       -24.1120    5.9970  -29.8750 C.2       1 425         0.1733
     12 OBO       -23.1590    6.6060  -29.3830 O.2       1 425        -0.3974
     13 CBQ       -23.9310    4.5850  -30.4190 C.3       1 425         0.0257
     14 CBT       -26.7110    7.8800  -28.5820 C.3       1 425         0.0850
     15 OBU       -26.1400    7.2520  -27.4130 O.3       1 425        -0.3893
     16 CBV       -26.9450    9.3220  -28.2300 C.3       1 425         0.0353
     17 CBY       -27.5130   10.0730  -29.4150 C.3       1 425         0.2205
     18 CBZ       -28.9310    9.5940  -29.8810 C.2       1 425         0.1041
     19 OCB       -29.8180    9.5880  -29.0120 O.co2     1 425        -0.5426
     20 OCA       -29.1430    9.3580  -31.1000 O.co2     1 425        -0.5426
     21 OCI       -27.7010   11.4160  -29.0120 O.3       1 425        -0.3452
     22 CCJ       -28.1920   12.3480  -29.9680 C.3       1 425         0.0565
     23 CCK       -27.9860   13.7310  -29.3300 C.3       1 425         0.0050
     24 CDF       -28.5260   14.8080  -30.2670 C.2       1 425         0.0391
     25 CDB       -29.5510   15.6100  -30.0170 C.2       1 425         0.0696
     26 NDE       -28.0530   15.0740  -31.4710 N.2       1 425        -0.2264
     27 NDD       -28.7440   15.9860  -31.9310 N.2       1 425        -0.1018
     28 NDC       -29.6510   16.3590  -31.1160 N.pl3     1 425        -0.1761
     29 CDG       -30.5240   17.3460  -31.4210 C.3       1 425         0.1150
     30 CDJ       -29.7590   18.6770  -31.4950 C.3       1 425        -0.0006
     31 NDK       -29.2390   19.0450  -30.3210 N.4       1 425         0.2416
     32 CDM       -28.3670   20.1830  -30.6180 C.3       1 425        -0.0006
     33 CDI       -27.0530   19.7070  -31.2410 C.3       1 425         0.1150
     34 NCX       -26.3010   18.8540  -30.2550 N.pl3     1 425        -0.1761
     35 CCW       -25.8600   17.6020  -30.3650 C.2       1 425         0.0696
     36 NCY       -25.9680   19.3010  -29.0970 N.2       1 425        -0.1018
     37 NCZ       -25.3340   18.4130  -28.4320 N.2       1 425        -0.2264
     38 CDA       -25.2590   17.3390  -29.2090 C.2       1 425         0.0391
     39 CCQ       -24.6600   16.1860  -28.8970 C.3       1 425         0.0050
     40 CCP       -23.1520   16.3970  -28.6410 C.3       1 425         0.0565
     41 OCO       -22.5860   15.1850  -28.3460 O.3       1 425        -0.3452
     42 CAK       -21.1770   15.2010  -28.0020 C.3       1 425         0.2205
     43 CAL       -20.4850   15.7180  -29.2910 C.2       1 425         0.1041
     44 OAN       -20.7030   15.0510  -30.3230 O.co2     1 425        -0.5426
     45 OAM       -19.8460   16.7940  -29.2720 O.co2     1 425        -0.5426
     46 OAJ       -20.9660   16.0270  -26.8550 O.3       1 425        -0.3384
     47 CAH       -20.7100   13.7800  -27.6800 C.3       1 425         0.0353
     48 CAF       -19.2350   13.7520  -27.3060 C.3       1 425         0.0850
     49 OAG       -18.9370   12.3850  -26.9910 O.3       1 425        -0.3893
     50 CAE       -19.1350   14.6650  -26.0650 C.3       1 425         0.0964
     51 NAD       -17.7450   14.6420  -25.5330 N.am      1 425        -0.2790
     52 CAB       -17.3550   13.8630  -24.4980 C.2       1 425         0.1733
     53 CAC       -15.8770   13.9830  -24.0970 C.3       1 425         0.0257
     54 OAA       -18.1420   13.2900  -23.7410 O.2       1 425        -0.3974
     55 CAI       -19.6040   16.0880  -26.4190 C.3       1 425         0.1143
     56 CAO       -19.5260   16.9900  -25.2050 C.3       1 425         0.1114
     57 OAP       -20.4690   16.4820  -24.2590 O.3       1 425        -0.3865
     58 CAQ       -19.9770   18.3830  -25.6210 C.3       1 425         0.1065
     59 OAR       -18.9470   18.8900  -26.4660 O.3       1 425        -0.3869
     60 CAS       -20.0540   19.3060  -24.4020 C.3       1 425         0.0727
     61 OAT       -18.7860   19.4160  -23.7650 O.3       1 425        -0.3924
     62 CDL       -30.3620   19.5050  -29.5060 C.3       1 425        -0.0006
     63 CDH       -29.9020   19.7960  -28.0730 C.3       1 425         0.1150
     64 NCS       -29.4200   18.5480  -27.3940 N.pl3     1 425        -0.1761
     65 CCR       -28.2550   18.2660  -26.8110 C.2       1 425         0.0696
     66 NCT       -30.1930   17.5450  -27.2760 N.2       1 425        -0.1018
     67 NCU       -29.6260   16.6010  -26.6690 N.2       1 425        -0.2264
     68 CCV       -28.4080   17.0270  -26.3650 C.2       1 425         0.0391
     69 CCN       -27.3540   16.2200  -25.6100 C.3       1 425         0.0050
     70 CCM       -27.8510   15.8850  -24.1960 C.3       1 425         0.0565
     71 OCL       -26.7820   15.1720  -23.5840 O.3       1 425        -0.3452
     72 CBE       -27.0450   14.5010  -22.3560 C.3       1 425         0.2205
     73 CBF       -27.4700   15.6390  -21.3590 C.2       1 425         0.1041
     74 OBH       -28.6750   15.7380  -21.0070 O.co2     1 425        -0.5426
     75 OBG       -26.5890   16.4600  -21.0400 O.co2     1 425        -0.5426
     76 OBD       -28.0990   13.5730  -22.5100 O.3       1 425        -0.3384
     77 CBB       -25.7930   13.7570  -21.9380 C.3       1 425         0.0353
     78 CAZ       -25.9940   13.0150  -20.6360 C.3       1 425         0.0850
     79 OBA       -24.7600   12.2850  -20.4230 O.3       1 425        -0.3893
     80 CAY       -27.1370   12.0230  -20.9220 C.3       1 425         0.0964
     81 NAX       -27.4100   11.2870  -19.6690 N.am      1 425        -0.2790
     82 CAV       -27.0970    9.9850  -19.4970 C.2       1 425         0.1733
     83 OAU       -26.7060    9.2500  -20.4040 O.2       1 425        -0.3974
     84 CAW       -27.4580    9.3980  -18.1270 C.3       1 425         0.0257
     85 CBC       -28.3790   12.8630  -21.3160 C.3       1 425         0.1143
     86 CBI       -29.5350   11.9270  -21.6150 C.3       1 425         0.1114
     87 OBJ       -29.1690   11.1230  -22.7450 O.3       1 425        -0.3865
     88 CBK       -30.6930   12.8430  -22.0340 C.3       1 425         0.1065
     89 OBL       -30.9900   13.7340  -20.9620 O.3       1 425        -0.3869
     90 CBM       -31.9650   12.0620  -22.3940 C.3       1 425         0.0727
     91 OBN       -32.3990   11.3210  -21.2550 O.3       1 425        -0.3924
     92 H1        -23.6143    9.7828  -33.5786 H         1 425         0.2095
     93 H2        -25.1286    8.5823  -34.8699 H         1 425         0.0584
     94 H3        -25.9219   10.1532  -35.2300 H         1 425         0.0584
     95 H4        -26.3241   10.4977  -32.8096 H         1 425         0.0643
     96 H5        -27.2828    7.9860  -33.7716 H         1 425         0.2100
     97 H6        -25.1142    7.6837  -32.4553 H         1 425         0.0647
     98 H7        -23.6909    9.5657  -32.5617 H         1 425         0.2100
     99 H8        -27.2821    8.1834  -31.2501 H         1 425         0.0646
    100 H9        -24.8149    8.4327  -29.4463 H         1 425         0.0608
    101 H10       -25.9473    5.9974  -30.7161 H         1 425         0.1856
    102 H11       -22.9389    4.2061  -30.1324 H         1 425         0.0467
    103 H12       -24.0146    4.6010  -31.5157 H         1 425         0.0467
    104 H13       -24.7088    3.9287  -30.0015 H         1 425         0.0467
    105 H14       -27.6465    7.3768  -28.8675 H         1 425         0.0618
    106 H15       -25.9075    6.3542  -27.6189 H         1 425         0.2099
    107 H16       -25.9904    9.7817  -27.9343 H         1 425         0.0336
    108 H17       -27.6548    9.3791  -27.3916 H         1 425         0.0336
    109 H18       -29.2593   12.1704  -30.1662 H         1 425         0.0576
    110 H19       -27.6264   12.2695  -30.9082 H         1 425         0.0576
    111 H20       -26.9127   13.8993  -29.1576 H         1 425         0.0402
    112 H21       -28.5229   13.7763  -28.3710 H         1 425         0.0402
    113 H22       -30.1689   15.6485  -29.1211 H         1 425         0.0899
    114 H23       -31.2992   17.4077  -30.6430 H         1 425         0.0702
    115 H24       -30.9953   17.1358  -32.3924 H         1 425         0.0702
    116 H25       -30.4520   19.4615  -31.8329 H         1 425         0.0844
    117 H26       -28.9413   18.5715  -32.2231 H         1 425         0.0844
    118 H27       -28.7360   18.2956  -29.8722 H         1 425         0.2037
    119 H28       -28.1495   20.7247  -29.6857 H         1 425         0.0844
    120 H29       -28.8781   20.8558  -31.3224 H         1 425         0.0844
    121 H30       -26.4399   20.5793  -31.5113 H         1 425         0.0702
    122 H31       -27.2695   19.1170  -32.1438 H         1 425         0.0702
    123 H32       -25.9687   16.9360  -31.2197 H         1 425         0.0899
    124 H33       -24.7879   15.4776  -29.7288 H         1 425         0.0402
    125 H34       -25.1246   15.7734  -27.9893 H         1 425         0.0402
    126 H35       -23.0124   17.0869  -27.7957 H         1 425         0.0576
    127 H36       -22.6786   16.8182  -29.5402 H         1 425         0.0576
    128 H37       -20.8676   13.1427  -28.5626 H         1 425         0.0336
    129 H38       -21.3004   13.3915  -26.8371 H         1 425         0.0336
    130 H39       -18.5896   14.1161  -28.1189 H         1 425         0.0618
    131 H40       -18.0216   12.3094  -26.7486 H         1 425         0.2099
    132 H41       -19.8043   14.2705  -25.2863 H         1 425         0.0608
    133 H42       -17.0634   15.2337  -25.9634 H         1 425         0.1856
    134 H43       -15.6708   13.3106  -23.2512 H         1 425         0.0467
    135 H44       -15.6601   15.0203  -23.8021 H         1 425         0.0467
    136 H45       -15.2417   13.7040  -24.9505 H         1 425         0.0467
    137 H46       -18.9712   16.4950  -27.2215 H         1 425         0.0646
    138 H47       -18.5092   17.0120  -24.7859 H         1 425         0.0647
    139 H48       -21.3391   16.4999  -24.6400 H         1 425         0.2100
    140 H49       -20.9456   18.3439  -26.1409 H         1 425         0.0643
    141 H50       -18.1297   18.9223  -25.9828 H         1 425         0.2100
    142 H51       -20.7819   18.8966  -23.6861 H         1 425         0.0584
    143 H52       -20.3812   20.3047  -24.7270 H         1 425         0.0584
    144 H53       -18.1545   19.7727  -24.3786 H         1 425         0.2095
    145 H54       -31.1378   18.7255  -29.4858 H         1 425         0.0844
    146 H55       -30.7766   20.4237  -29.9466 H         1 425         0.0844
    147 H56       -30.7458   20.2117  -27.5027 H         1 425         0.0702
    148 H57       -29.0820   20.5287  -28.1012 H         1 425         0.0702
    149 H58       -27.3787   18.9064  -26.7216 H         1 425         0.0899
    150 H59       -26.4279   16.8093  -25.5389 H         1 425         0.0402
    151 H60       -27.1533   15.2857  -26.1548 H         1 425         0.0402
    152 H61       -28.7548   15.2597  -24.2428 H         1 425         0.0576
    153 H62       -28.0708   16.8059  -23.6361 H         1 425         0.0576
    154 H63       -24.9731   14.4797  -21.8139 H         1 425         0.0336
    155 H64       -25.5286   13.0339  -22.7236 H         1 425         0.0336
    156 H65       -26.2280   13.6824  -19.7935 H         1 425         0.0618
    157 H66       -24.6174   11.6880  -21.1481 H         1 425         0.2099
    158 H67       -26.8661   11.3267  -21.7293 H         1 425         0.0608
    159 H68       -27.8467   11.7762  -18.9140 H         1 425         0.1856
    160 H69       -27.1625    8.3390  -18.0925 H         1 425         0.0467
    161 H70       -28.5431    9.4812  -17.9668 H         1 425         0.0467
    162 H71       -26.9274    9.9526  -17.3391 H         1 425         0.0467
    163 H72       -28.6420   13.5574  -20.5045 H         1 425         0.0646
    164 H73       -29.7967   11.3041  -20.7470 H         1 425         0.0647
    165 H74       -28.9992   11.6860  -23.4911 H         1 425         0.2100
    166 H75       -30.3783   13.4241  -22.9134 H         1 425         0.0643
    167 H76       -31.2388   13.2324  -20.1945 H         1 425         0.2100
    168 H77       -31.7503   11.3709  -23.2224 H         1 425         0.0584
    169 H78       -32.7545   12.7649  -22.6982 H         1 425         0.0584
    170 H79       -32.5833   11.9195  -20.5407 H         1 425         0.2095
@<TRIPOS>BOND
     1    1    2 1  
     2    2    3 1  
     3    3    4 1  
     4    3    5 1  
     5    5    6 1  
     6    5    7 1  
     7    7    8 1  
     8    7    9 1  
     9    8   17 1  
    10    9   10 1  
    11    9   14 1  
    12   10   11 am 
    13   11   12 2  
    14   11   13 1  
    15   14   15 1  
    16   14   16 1  
    17   16   17 1  
    18   17   18 1  
    19   17   21 1  
    20   18   19 ar 
    21   18   20 ar 
    22   21   22 1  
    23   22   23 1  
    24   23   24 1  
    25   24   25 2  
    26   24   26 1  
    27   25   28 1  
    28   26   27 2  
    29   27   28 1  
    30   28   29 1  
    31   29   30 1  
    32   30   31 1  
    33   31   32 1  
    34   31   62 1  
    35   32   33 1  
    36   33   34 1  
    37   34   35 1  
    38   34   36 1  
    39   35   38 2  
    40   36   37 2  
    41   37   38 1  
    42   38   39 1  
    43   39   40 1  
    44   40   41 1  
    45   41   42 1  
    46   42   43 1  
    47   42   46 1  
    48   42   47 1  
    49   43   44 ar 
    50   43   45 ar 
    51   46   55 1  
    52   47   48 1  
    53   48   49 1  
    54   48   50 1  
    55   50   51 1  
    56   50   55 1  
    57   51   52 am 
    58   52   53 1  
    59   52   54 2  
    60   55   56 1  
    61   56   57 1  
    62   56   58 1  
    63   58   59 1  
    64   58   60 1  
    65   60   61 1  
    66   62   63 1  
    67   63   64 1  
    68   64   65 1  
    69   64   66 1  
    70   65   68 2  
    71   66   67 2  
    72   67   68 1  
    73   68   69 1  
    74   69   70 1  
    75   70   71 1  
    76   71   72 1  
    77   72   73 1  
    78   72   76 1  
    79   72   77 1  
    80   73   74 ar 
    81   73   75 ar 
    82   76   85 1  
    83   77   78 1  
    84   78   79 1  
    85   78   80 1  
    86   80   81 1  
    87   80   85 1  
    88   81   82 am 
    89   82   83 2  
    90   82   84 1  
    91   85   86 1  
    92   86   87 1  
    93   86   88 1  
    94   88   89 1  
    95   88   90 1  
    96   90   91 1  
    97    1   92 1  
    98    2   93 1  
    99    2   94 1  
   100    3   95 1  
   101    4   96 1  
   102    5   97 1  
   103    6   98 1  
   104    7   99 1  
   105    9  100 1  
   106   10  101 1  
   107   13  102 1  
   108   13  103 1  
   109   13  104 1  
   110   14  105 1  
   111   15  106 1  
   112   16  107 1  
   113   16  108 1  
   114   22  109 1  
   115   22  110 1  
   116   23  111 1  
   117   23  112 1  
   118   25  113 1  
   119   29  114 1  
   120   29  115 1  
   121   30  116 1  
   122   30  117 1  
   123   31  118 1  
   124   32  119 1  
   125   32  120 1  
   126   33  121 1  
   127   33  122 1  
   128   35  123 1  
   129   39  124 1  
   130   39  125 1  
   131   40  126 1  
   132   40  127 1  
   133   47  128 1  
   134   47  129 1  
   135   48  130 1  
   136   49  131 1  
   137   50  132 1  
   138   51  133 1  
   139   53  134 1  
   140   53  135 1  
   141   53  136 1  
   142   55  137 1  
   143   56  138 1  
   144   57  139 1  
   145   58  140 1  
   146   59  141 1  
   147   60  142 1  
   148   60  143 1  
   149   61  144 1  
   150   62  145 1  
   151   62  146 1  
   152   63  147 1  
   153   63  148 1  
   154   65  149 1  
   155   69  150 1  
   156   69  151 1  
   157   70  152 1  
   158   70  153 1  
   159   77  154 1  
   160   77  155 1  
   161   78  156 1  
   162   79  157 1  
   163   80  158 1  
   164   81  159 1  
   165   84  160 1  
   166   84  161 1  
   167   84  162 1  
   168   85  163 1  
   169   86  164 1  
   170   87  165 1  
   171   88  166 1  
   172   89  167 1  
   173   90  168 1  
   174   90  169 1  
   175   91  170 1  
@<TRIPOS>SUBSTRUCTURE
     1 425         1

