3ehw_ligand
  -I-interpret- 

 44 45  0  0  0  0  0  0  0  0999 V2000
   -6.0080    7.7860   26.1160 O   0  0  0  0  0
   -5.6140    8.9010   26.4230 C   0  0  0  0  0
   -5.0070    9.1170   27.6520 C   0  0  0  0  0
   -4.5660   10.4150   27.9230 C   0  0  0  0  0
   -5.8000    9.9410   25.5360 N   0  0  0  0  0
   -5.4030   11.2200   25.8290 C   0  0  0  0  0
   -5.6140   12.1440   25.0180 O   0  0  0  0  0
   -4.7690   11.4430   27.0260 N   0  0  0  0  0
   -4.3380   12.8260   27.3660 C   0  0  0  0  0
   -5.4640   13.4050   28.1880 C   0  0  0  0  0
   -4.9800   13.2530   29.6080 C   0  0  0  0  0
   -5.5100   14.2610   30.4180 O   0  0  0  0  0
   -3.1840   12.7880   28.1950 O   0  0  0  0  0
   -3.4730   13.4000   29.4460 C   0  0  0  0  0
   -2.6730   12.7080   30.5480 C   0  0  0  0  0
   -3.1910   11.4170   30.7520 O   0  0  0  0  0
   -2.4830   10.3790   31.7770 P   0  0  0  0  0
   -2.1920   11.1590   33.0160 O   0  0  0  0  0
   -3.4080    9.2130   31.9450 O   0  0  0  0  0
   -1.0470    9.9230   31.0660 N   0  0  0  0  0
    0.4690   10.4560   31.5100 P   0  0  0  0  0
    0.6270   10.5270   33.0150 O   0  0  0  0  0
    1.5010    9.6160   30.7880 O   0  0  0  0  0
    0.5020   11.9760   30.9850 O   0  0  0  0  0
    0.8820   13.2660   31.8820 P   0  0  0  0  0
    0.0200   13.3440   33.1050 O   0  0  0  0  0
    2.3300   13.1140   32.2470 O   0  0  0  0  0
    0.6820   14.4430   30.9780 O   0  0  0  0  0
   -4.8799    8.3102   28.3738 H   0  0  0  0  0
   -4.0514   10.6192   28.8619 H   0  0  0  0  0
   -6.2451    9.7532   24.6376 H   0  0  0  0  0
   -4.1142   13.3990   26.4662 H   0  0  0  0  0
   -6.4120   12.8961   28.0138 H   0  0  0  0  0
   -5.6789   14.4418   27.9293 H   0  0  0  0  0
   -5.2745   12.3181   30.0848 H   0  0  0  0  0
   -5.1916   14.1484   31.3166 H   0  0  0  0  0
   -3.1911   14.4514   29.5015 H   0  0  0  0  0
   -2.7477   13.2828   31.4711 H   0  0  0  0  0
   -1.6258   12.6403   30.2531 H   0  0  0  0  0
   -3.5314    8.7792   31.0975 H   0  0  0  0  0
   -1.0999    9.2605   30.2922 H   0  0  0  0  0
   -0.0678   11.0779   33.3829 H   0  0  0  0  0
    0.1777   12.5738   33.6559 H   0  0  0  0  0
    2.4350   12.3552   32.8256 H   0  0  0  0  0
  1  2  2  0  0  0
  2  3  1  0  0  0
  2  5  1  0  0  0
  3  4  2  0  0  0
  4  8  1  0  0  0
  5  6  1  0  0  0
  6  7  2  0  0  0
  6  8  1  0  0  0
  8  9  1  0  0  0
  9 10  1  0  0  0
  9 13  1  0  0  0
 10 11  1  0  0  0
 11 12  1  0  0  0
 11 14  1  0  0  0
 13 14  1  0  0  0
 14 15  1  0  0  0
 15 16  1  0  0  0
 16 17  1  0  0  0
 17 18  2  0  0  0
 17 19  1  0  0  0
 17 20  1  0  0  0
 20 21  1  0  0  0
 21 22  1  0  0  0
 21 23  2  0  0  0
 21 24  1  0  0  0
 24 25  1  0  0  0
 25 26  1  0  0  0
 25 27  1  0  0  0
 25 28  2  0  0  0
  3 29  1  0  0  0
  4 30  1  0  0  0
  5 31  1  0  0  0
  9 32  1  0  0  0
 10 33  1  0  0  0
 10 34  1  0  0  0
 11 35  1  0  0  0
 12 36  1  0  0  0
 14 37  1  0  0  0
 15 38  1  0  0  0
 15 39  1  0  0  0
 19 40  1  0  0  0
 20 41  1  0  0  0
 22 42  1  0  0  0
 26 43  1  0  0  0
 27 44  1  0  0  0
M  END
$$$$
