### 
### Created by X-TOOL on Mon Sep 10 21:12:57 2018
### 

@<TRIPOS>MOLECULE
3ehw_ligand
   40    41     1     0     0
SMALL
GAST_HUCK


@<TRIPOS>ATOM
      1 O4         -6.0080    7.7860   26.1160 O.2       1 DUP        -0.4124
      2 C4         -5.6140    8.9010   26.4230 C.2       1 DUP         0.1822
      3 C5         -5.0070    9.1170   27.6520 C.2       1 DUP         0.0062
      4 C6         -4.5660   10.4150   27.9230 C.2       1 DUP         0.0590
      5 N3         -5.8000    9.9410   25.5360 N.am      1 DUP        -0.1865
      6 C2         -5.4030   11.2200   25.8290 C.2       1 DUP         0.3327
      7 O2         -5.6140   12.1440   25.0180 O.2       1 DUP        -0.3815
      8 N1         -4.7690   11.4430   27.0260 N.am      1 DUP        -0.1618
      9 C1'        -4.3380   12.8260   27.3660 C.3       1 DUP         0.1800
     10 C2'        -5.4640   13.4050   28.1880 C.3       1 DUP         0.0316
     11 C3'        -4.9800   13.2530   29.6080 C.3       1 DUP         0.0890
     12 O3'        -5.5100   14.2610   30.4180 O.3       1 DUP        -0.3889
     13 O4'        -3.1840   12.7880   28.1950 O.3       1 DUP        -0.3386
     14 C4'        -3.4730   13.4000   29.4460 C.3       1 DUP         0.1166
     15 C5'        -2.6730   12.7080   30.5480 C.3       1 DUP         0.1132
     16 O5'        -3.1910   11.4170   30.7520 O.3       1 DUP        -0.2529
     17 PA         -2.4830   10.3790   31.7770 P.3       1 DUP         0.2362
     18 O1A        -2.1920   11.1590   33.0160 O.co2     1 DUP        -0.6036
     19 O2A        -3.4080    9.2130   31.9450 O.co2     1 DUP        -0.6036
     20 N3A        -1.0470    9.9230   31.0660 N.am      1 DUP        -0.1581
     21 PB          0.4690   10.4560   31.5100 P.3       1 DUP         0.2871
     22 O1B         0.6270   10.5270   33.0150 O.co2     1 DUP        -0.5685
     23 O2B         1.5010    9.6160   30.7880 O.co2     1 DUP        -0.5685
     24 O3B         0.5020   11.9760   30.9850 O.3       1 DUP        -0.1659
     25 PG          0.8820   13.2660   31.8820 P.3       1 DUP         0.2047
     26 O2G         0.0200   13.3440   33.1050 O.co2     1 DUP        -0.5893
     27 O1G         2.3300   13.1140   32.2470 O.co2     1 DUP        -0.5893
     28 O3G         0.6820   14.4430   30.9780 O.co2     1 DUP        -0.5893
     29 H1         -4.8800    8.3109   28.3731 H         1 DUP         0.0258
     30 H2         -4.0518   10.6190   28.8611 H         1 DUP         0.1178
     31 H3         -6.2363    9.7569   24.6552 H         1 DUP         0.2259
     32 H4         -4.1483   13.4184   26.4587 H         1 DUP         0.0970
     33 H5         -6.3961   12.8431   28.0284 H         1 DUP         0.0345
     34 H6         -5.6272   14.4641   27.9399 H         1 DUP         0.0345
     35 H7         -5.2440   12.2686   30.0218 H         1 DUP         0.0622
     36 H8         -5.1949   14.1496   31.3073 H         1 DUP         0.2099
     37 H9         -3.2029   14.4661   29.4269 H         1 DUP         0.0650
     38 H10        -2.7517   13.2877   31.4795 H         1 DUP         0.0651
     39 H11        -1.6171   12.6378   30.2478 H         1 DUP         0.0651
     40 H12        -1.0989    9.2735   30.3074 H         1 DUP         0.2175
@<TRIPOS>BOND
     1    1    2 2  
     2    2    3 1  
     3    2    5 am 
     4    3    4 2  
     5    4    8 1  
     6    5    6 am 
     7    6    7 2  
     8    6    8 am 
     9    8    9 1  
    10    9   10 1  
    11    9   13 1  
    12   10   11 1  
    13   11   12 1  
    14   11   14 1  
    15   13   14 1  
    16   14   15 1  
    17   15   16 1  
    18   16   17 1  
    19   17   18 ar 
    20   17   19 ar 
    21   17   20 am 
    22   20   21 1  
    23   21   22 ar 
    24   21   23 ar 
    25   21   24 1  
    26   24   25 1  
    27   25   26 ar 
    28   25   27 ar 
    29   25   28 ar 
    30    3   29 1  
    31    4   30 1  
    32    5   31 1  
    33    9   32 1  
    34   10   33 1  
    35   10   34 1  
    36   11   35 1  
    37   12   36 1  
    38   14   37 1  
    39   15   38 1  
    40   15   39 1  
    41   20   40 1  
@<TRIPOS>SUBSTRUCTURE
     1 DUP         1

