### 
### Created by X-TOOL on Mon Sep 10 21:13:01 2018
### 

@<TRIPOS>MOLECULE
3k5k_ligand
   78    81     1     0     0
SMALL
GAST_HUCK


@<TRIPOS>ATOM
      1 N1        -38.7770   15.9130   47.5210 N.ar      1 DXQ        -0.2471
      2 C2        -37.4490   15.6330   47.5040 C.ar      1 DXQ         0.1558
      3 N3        -37.0030   14.4500   48.0140 N.ar      1 DXQ        -0.3043
      4 C4        -37.8570   13.5280   48.5240 C.ar      1 DXQ         0.0078
      5 C5        -39.2230   13.8220   48.5450 C.ar      1 DXQ         0.0267
      6 C6        -39.6740   15.0420   48.0260 C.ar      1 DXQ         0.1243
      7 CAA       -41.9220   11.0810   50.0540 C.3       1 DXQ         0.0572
      8 CAB       -38.5760    5.9330   48.4780 C.3       1 DXQ        -0.1260
      9 CAC       -36.2480    5.8140   48.7130 C.3       1 DXQ        -0.1260
     10 CAD       -35.3610   20.3800   48.6450 C.3       1 DXQ        -0.1255
     11 CAE       -44.4990   19.1530   46.1560 C.3       1 DXQ        -0.1256
     12 CAF       -37.3950   12.3090   49.0460 C.ar      1 DXQ        -0.0244
     13 CAG       -40.1330   12.9040   49.0760 C.ar      1 DXQ        -0.0226
     14 CAH       -36.4600    8.2880   50.5860 C.3       1 DXQ        -0.0436
     15 CAI       -34.3000   16.8470   48.1410 C.3       1 DXQ        -0.0509
     16 CAJ       -36.6090    9.6460   49.8580 C.3       1 DXQ         0.0691
     17 CAK       -41.7860   16.5160   46.0070 C.3       1 DXQ        -0.0477
     18 CAL       -41.6870   17.6730   48.1980 C.3       1 DXQ        -0.0477
     19 CAM       -37.5320    7.2360   50.2180 C.3       1 DXQ        -0.1114
     20 CAN       -34.9220   18.0370   48.9040 C.3       1 DXQ        -0.1115
     21 CAO       -35.1320   16.2510   46.9870 C.3       1 DXQ         0.0311
     22 CAP       -42.9960   17.3670   45.5810 C.3       1 DXQ        -0.1112
     23 CAQ       -42.9380   18.5040   47.8710 C.3       1 DXQ        -0.1112
     24 CAR       -36.9170   18.8200   47.7460 C.3       1 DXQ        -0.0923
     25 CAS       -37.1060   17.8550   46.5700 C.3       1 DXQ         0.0146
     26 NAV       -40.9950   15.2560   48.0730 N.pl3     1 DXQ        -0.2940
     27 OAW       -40.5330   10.7670   50.1180 O.3       1 DXQ        -0.3230
     28 OAX       -37.9330   10.1690   50.1010 O.3       1 DXQ        -0.3142
     29 CAY       -39.6770   11.6860   49.5940 C.ar      1 DXQ         0.1272
     30 CAZ       -38.3080   11.3800   49.5720 C.ar      1 DXQ         0.1280
     31 CBE       -41.8670   16.3200   47.5160 C.3       1 DXQ         0.0395
     32 NBF       -37.3920    6.7200   48.8310 N.4       1 DXQ         0.3987
     33 NBG       -35.4850   19.0550   47.9960 N.4       1 DXQ         0.4022
     34 NBH       -43.1620   18.5950   46.4070 N.4       1 DXQ         0.4009
     35 NBI       -36.5810   16.5440   47.0050 N.pl3     1 DXQ        -0.2843
     36 H         -42.1093   12.0069   50.5978 H         1 DXQ         0.0573
     37 H         -42.2178   11.2038   49.0121 H         1 DXQ         0.0573
     38 H         -42.4973   10.2715   50.5033 H         1 DXQ         0.0573
     39 H         -38.4732    5.5617   47.4583 H         1 DXQ        -0.0019
     40 H         -38.6694    5.0917   49.1647 H         1 DXQ        -0.0019
     41 H         -39.4633    6.5621   48.5492 H         1 DXQ        -0.0019
     42 H         -36.3790    4.9746   49.3959 H         1 DXQ        -0.0019
     43 H         -36.1827    5.4447   47.6896 H         1 DXQ        -0.0019
     44 H         -35.3336    6.3506   48.9660 H         1 DXQ        -0.0019
     45 H         -35.9101   20.3748   49.5866 H         1 DXQ        -0.0019
     46 H         -34.3093   20.5919   48.8374 H         1 DXQ        -0.0019
     47 H         -35.7727   21.1454   47.9871 H         1 DXQ        -0.0019
     48 H         -44.5954   19.4006   45.0989 H         1 DXQ        -0.0019
     49 H         -45.2555   18.4171   46.4285 H         1 DXQ        -0.0019
     50 H         -44.6338   20.0535   46.7552 H         1 DXQ        -0.0019
     51 H         -36.3285   12.0838   49.0430 H         1 DXQ         0.0461
     52 H         -41.1979   13.1363   49.0869 H         1 DXQ         0.0541
     53 H         -36.5639    8.4869   51.6526 H         1 DXQ         0.0271
     54 H         -35.4955    7.8744   50.2914 H         1 DXQ         0.0271
     55 H         -34.1873   16.0475   48.8732 H         1 DXQ         0.0265
     56 H         -33.3858   17.2278   47.6858 H         1 DXQ         0.0265
     57 H         -36.4605    9.5065   48.7872 H         1 DXQ         0.0614
     58 H         -35.8631   10.3470   50.2328 H         1 DXQ         0.0614
     59 H         -40.8560   17.0172   45.7386 H         1 DXQ         0.0269
     60 H         -41.8013   15.5525   45.4976 H         1 DXQ         0.0269
     61 H         -41.5723   17.5522   49.2752 H         1 DXQ         0.0269
     62 H         -40.7860   18.1711   47.8399 H         1 DXQ         0.0269
     63 H         -38.5073    7.7164   50.2954 H         1 DXQ         0.0017
     64 H         -37.4149    6.3924   50.8983 H         1 DXQ         0.0017
     65 H         -34.1351   18.5085   49.4928 H         1 DXQ         0.0017
     66 H         -35.7320   17.6535   49.5244 H         1 DXQ         0.0017
     67 H         -35.0401   15.1684   47.0741 H         1 DXQ         0.0525
     68 H         -34.7436   16.6964   46.0711 H         1 DXQ         0.0525
     69 H         -43.8914   16.7582   45.7067 H         1 DXQ         0.0018
     70 H         -42.8359   17.6795   44.5491 H         1 DXQ         0.0018
     71 H         -42.7956   19.5114   48.2621 H         1 DXQ         0.0018
     72 H         -43.8030   18.0190   48.3235 H         1 DXQ         0.0018
     73 H         -37.3649   18.3826   48.6383 H         1 DXQ         0.0037
     74 H         -37.3947   19.7696   47.5049 H         1 DXQ         0.0037
     75 H         -36.5754   18.2114   45.6871 H         1 DXQ         0.0506
     76 H         -38.1583   17.7795   46.2959 H         1 DXQ         0.0506
     77 H         -41.5045   14.5446   48.5971 H         1 DXQ         0.1901
     78 H         -42.8605   15.9292   47.7360 H         1 DXQ         0.0566
@<TRIPOS>BOND
     1    2    1 ar 
     2    6    1 ar 
     3    3    2 ar 
     4    2   35 1  
     5    4    3 ar 
     6    4    5 ar 
     7   12    4 ar 
     8    5    6 ar 
     9    5   13 ar 
    10    6   26 1  
    11   27    7 1  
    12   32    8 1  
    13   32    9 1  
    14   33   10 1  
    15   34   11 1  
    16   30   12 ar 
    17   13   29 ar 
    18   16   14 1  
    19   14   19 1  
    20   15   20 1  
    21   21   15 1  
    22   28   16 1  
    23   17   22 1  
    24   31   17 1  
    25   18   23 1  
    26   31   18 1  
    27   19   32 1  
    28   33   20 1  
    29   35   21 1  
    30   22   34 1  
    31   23   34 1  
    32   25   24 1  
    33   24   33 1  
    34   35   25 1  
    35   26   31 1  
    36   29   27 1  
    37   28   30 1  
    38   29   30 ar 
    39    7   36 1  
    40    7   37 1  
    41    7   38 1  
    42    8   39 1  
    43    8   40 1  
    44    8   41 1  
    45    9   42 1  
    46    9   43 1  
    47    9   44 1  
    48   10   45 1  
    49   10   46 1  
    50   10   47 1  
    51   11   48 1  
    52   11   49 1  
    53   11   50 1  
    54   12   51 1  
    55   13   52 1  
    56   14   53 1  
    57   14   54 1  
    58   15   55 1  
    59   15   56 1  
    60   16   57 1  
    61   16   58 1  
    62   17   59 1  
    63   17   60 1  
    64   18   61 1  
    65   18   62 1  
    66   19   63 1  
    67   19   64 1  
    68   20   65 1  
    69   20   66 1  
    70   21   67 1  
    71   21   68 1  
    72   22   69 1  
    73   22   70 1  
    74   23   71 1  
    75   23   72 1  
    76   24   73 1  
    77   24   74 1  
    78   25   75 1  
    79   25   76 1  
    80   26   77 1  
    81   31   78 1  
@<TRIPOS>SUBSTRUCTURE
     1 DXQ         1

