3k5k_ligand
  -I-interpret- 

 81 84  0  0  0  0  0  0  0  0999 V2000
  -38.7770   15.9130   47.5210 N   0  0  0  0  0
  -37.4490   15.6330   47.5040 C   0  0  0  0  0
  -37.0030   14.4500   48.0140 N   0  0  0  0  0
  -37.8570   13.5280   48.5240 C   0  0  0  0  0
  -39.2230   13.8220   48.5450 C   0  0  0  0  0
  -39.6740   15.0420   48.0260 C   0  0  0  0  0
  -41.9220   11.0810   50.0540 C   0  0  0  0  0
  -38.5760    5.9330   48.4780 C   0  0  0  0  0
  -36.2480    5.8140   48.7130 C   0  0  0  0  0
  -35.3610   20.3800   48.6450 C   0  0  0  0  0
  -44.4990   19.1530   46.1560 C   0  0  0  0  0
  -37.3950   12.3090   49.0460 C   0  0  0  0  0
  -40.1330   12.9040   49.0760 C   0  0  0  0  0
  -36.4600    8.2880   50.5860 C   0  0  0  0  0
  -34.3000   16.8470   48.1410 C   0  0  0  0  0
  -36.6090    9.6460   49.8580 C   0  0  0  0  0
  -41.7860   16.5160   46.0070 C   0  0  0  0  0
  -41.6870   17.6730   48.1980 C   0  0  0  0  0
  -37.5320    7.2360   50.2180 C   0  0  0  0  0
  -34.9220   18.0370   48.9040 C   0  0  0  0  0
  -35.1320   16.2510   46.9870 C   0  0  0  0  0
  -42.9960   17.3670   45.5810 C   0  0  0  0  0
  -42.9380   18.5040   47.8710 C   0  0  0  0  0
  -36.9170   18.8200   47.7460 C   0  0  0  0  0
  -37.1060   17.8550   46.5700 C   0  0  0  0  0
  -40.9950   15.2560   48.0730 N   0  0  0  0  0
  -40.5330   10.7670   50.1180 O   0  0  0  0  0
  -37.9330   10.1690   50.1010 O   0  0  0  0  0
  -39.6770   11.6860   49.5940 C   0  0  0  0  0
  -38.3080   11.3800   49.5720 C   0  0  0  0  0
  -41.8670   16.3200   47.5160 C   0  0  0  0  0
  -37.3920    6.7200   48.8310 N   0  3  0  0  0
  -35.4850   19.0550   47.9960 N   0  3  0  0  0
  -43.1620   18.5950   46.4070 N   0  3  0  0  0
  -36.5810   16.5440   47.0050 N   0  0  0  0  0
  -42.1093   12.0069   50.5978 H   0  0  0  0  0
  -42.2178   11.2038   49.0121 H   0  0  0  0  0
  -42.4973   10.2715   50.5033 H   0  0  0  0  0
  -38.4732    5.5617   47.4583 H   0  0  0  0  0
  -38.6694    5.0917   49.1647 H   0  0  0  0  0
  -39.4633    6.5621   48.5492 H   0  0  0  0  0
  -36.3790    4.9746   49.3959 H   0  0  0  0  0
  -36.1827    5.4447   47.6896 H   0  0  0  0  0
  -35.3336    6.3506   48.9660 H   0  0  0  0  0
  -35.9101   20.3748   49.5866 H   0  0  0  0  0
  -34.3093   20.5919   48.8374 H   0  0  0  0  0
  -35.7727   21.1454   47.9871 H   0  0  0  0  0
  -44.5954   19.4006   45.0989 H   0  0  0  0  0
  -45.2555   18.4171   46.4285 H   0  0  0  0  0
  -44.6338   20.0535   46.7552 H   0  0  0  0  0
  -36.3285   12.0838   49.0430 H   0  0  0  0  0
  -41.1979   13.1363   49.0869 H   0  0  0  0  0
  -36.5639    8.4869   51.6526 H   0  0  0  0  0
  -35.4955    7.8744   50.2914 H   0  0  0  0  0
  -34.1873   16.0475   48.8732 H   0  0  0  0  0
  -33.3858   17.2278   47.6858 H   0  0  0  0  0
  -36.4605    9.5065   48.7872 H   0  0  0  0  0
  -35.8631   10.3470   50.2328 H   0  0  0  0  0
  -40.8560   17.0172   45.7386 H   0  0  0  0  0
  -41.8013   15.5525   45.4976 H   0  0  0  0  0
  -41.5723   17.5522   49.2752 H   0  0  0  0  0
  -40.7860   18.1711   47.8399 H   0  0  0  0  0
  -38.5073    7.7164   50.2954 H   0  0  0  0  0
  -37.4149    6.3924   50.8983 H   0  0  0  0  0
  -34.1351   18.5085   49.4928 H   0  0  0  0  0
  -35.7320   17.6535   49.5244 H   0  0  0  0  0
  -35.0401   15.1684   47.0741 H   0  0  0  0  0
  -34.7436   16.6964   46.0711 H   0  0  0  0  0
  -43.8914   16.7582   45.7067 H   0  0  0  0  0
  -42.8359   17.6795   44.5491 H   0  0  0  0  0
  -42.7956   19.5114   48.2621 H   0  0  0  0  0
  -43.8030   18.0190   48.3235 H   0  0  0  0  0
  -37.3649   18.3826   48.6383 H   0  0  0  0  0
  -37.3947   19.7696   47.5049 H   0  0  0  0  0
  -36.5754   18.2114   45.6871 H   0  0  0  0  0
  -38.1583   17.7795   46.2959 H   0  0  0  0  0
  -41.5045   14.5446   48.5971 H   0  0  0  0  0
  -42.8605   15.9292   47.7360 H   0  0  0  0  0
  -37.2711    7.5279   48.2203 H   0  0  0  0  0
  -34.9778   19.0095   47.1122 H   0  0  0  0  0
  -42.3966   19.1942   46.0979 H   0  0  0  0  0
  2  1  4  0  0  0
  6  1  4  0  0  0
  3  2  4  0  0  0
  2 35  1  0  0  0
  4  3  4  0  0  0
  4  5  4  0  0  0
 12  4  4  0  0  0
  5  6  4  0  0  0
  5 13  4  0  0  0
  6 26  1  0  0  0
 27  7  1  0  0  0
 32  8  1  0  0  0
 32  9  1  0  0  0
 33 10  1  0  0  0
 34 11  1  0  0  0
 30 12  4  0  0  0
 13 29  4  0  0  0
 16 14  1  0  0  0
 14 19  1  0  0  0
 15 20  1  0  0  0
 21 15  1  0  0  0
 28 16  1  0  0  0
 17 22  1  0  0  0
 31 17  1  0  0  0
 18 23  1  0  0  0
 31 18  1  0  0  0
 19 32  1  0  0  0
 33 20  1  0  0  0
 35 21  1  0  0  0
 22 34  1  0  0  0
 23 34  1  0  0  0
 25 24  1  0  0  0
 24 33  1  0  0  0
 35 25  1  0  0  0
 26 31  1  0  0  0
 29 27  1  0  0  0
 28 30  1  0  0  0
 29 30  4  0  0  0
  7 36  1  0  0  0
  7 37  1  0  0  0
  7 38  1  0  0  0
  8 39  1  0  0  0
  8 40  1  0  0  0
  8 41  1  0  0  0
  9 42  1  0  0  0
  9 43  1  0  0  0
  9 44  1  0  0  0
 10 45  1  0  0  0
 10 46  1  0  0  0
 10 47  1  0  0  0
 11 48  1  0  0  0
 11 49  1  0  0  0
 11 50  1  0  0  0
 12 51  1  0  0  0
 13 52  1  0  0  0
 14 53  1  0  0  0
 14 54  1  0  0  0
 15 55  1  0  0  0
 15 56  1  0  0  0
 16 57  1  0  0  0
 16 58  1  0  0  0
 17 59  1  0  0  0
 17 60  1  0  0  0
 18 61  1  0  0  0
 18 62  1  0  0  0
 19 63  1  0  0  0
 19 64  1  0  0  0
 20 65  1  0  0  0
 20 66  1  0  0  0
 21 67  1  0  0  0
 21 68  1  0  0  0
 22 69  1  0  0  0
 22 70  1  0  0  0
 23 71  1  0  0  0
 23 72  1  0  0  0
 24 73  1  0  0  0
 24 74  1  0  0  0
 25 75  1  0  0  0
 25 76  1  0  0  0
 26 77  1  0  0  0
 31 78  1  0  0  0
 32 79  1  0  0  0
 33 80  1  0  0  0
 34 81  1  0  0  0
M  END
$$$$
