2uyn_ligand
  -I-interpret- 

 13 12  0  0  0  0  0  0  0  0999 V2000
   -0.6220   19.0560   22.4850 C   0  0  0  0  0
    0.0780   18.6560   23.7600 C   0  0  0  0  0
    1.1630   17.8700   23.6290 C   0  0  0  0  0
    1.5420   17.4830   22.4430 O   0  0  0  0  0
    1.9430   17.4260   24.7670 C   0  0  0  0  0
    1.3260   16.9420   25.7270 O   0  0  0  0  0
    3.1950   17.5340   24.7070 O   0  0  0  0  0
    0.0708   19.6074   21.8493 H   0  0  0  0  0
   -0.9628   18.1618   21.9632 H   0  0  0  0  0
   -1.4780   19.6868   22.7245 H   0  0  0  0  0
   -0.6464   18.0771   24.3330 H   0  0  0  0  0
    0.4297   19.5823   24.2144 H   0  0  0  0  0
    3.4406   17.9368   23.8709 H   0  0  0  0  0
  1  2  1  0  0  0
  2  3  1  0  0  0
  3  4  2  0  0  0
  3  5  1  0  0  0
  5  6  2  0  0  0
  5  7  1  0  0  0
  1  8  1  0  0  0
  1  9  1  0  0  0
  1 10  1  0  0  0
  2 11  1  0  0  0
  2 12  1  0  0  0
  7 13  1  0  0  0
M  END
$$$$
