5aqf_ligand
  -I-interpret- 

 32 34  0  0  0  0  0  0  0  0999 V2000
  -27.7500  -16.2170   34.9850 O   0  0  0  0  0
  -27.8330  -17.5610   34.5160 C   0  0  0  0  0
  -26.5550  -18.0230   33.8430 C   0  0  0  0  0
  -26.3690  -17.3200   32.5930 O   0  0  0  0  0
  -25.2550  -17.8450   34.6440 C   0  0  0  0  0
  -24.4610  -19.0240   34.5540 O   0  0  0  0  0
  -24.5810  -16.6610   33.9420 C   0  0  0  0  0
  -23.1650  -16.6880   34.0060 O   0  0  0  0  0
  -25.0220  -16.9010   32.5050 C   0  0  0  0  0
  -24.9240  -15.7270   31.6400 N   0  0  0  0  0
  -25.5320  -14.5090   31.7990 C   0  0  0  0  0
  -25.1610  -13.6060   30.9240 N   0  0  0  0  0
  -24.2420  -14.2770   30.1330 C   0  0  0  0  0
  -23.4520  -13.8670   29.0450 C   0  0  0  0  0
  -23.4380  -12.6200   28.5670 N   0  0  0  0  0
  -22.6470  -14.7880   28.4710 N   0  0  0  0  0
  -22.6250  -16.0310   28.9700 C   0  0  0  0  0
  -23.3000  -16.5260   30.0120 N   0  0  0  0  0
  -24.0990  -15.5920   30.5520 C   0  0  0  0  0
  -28.5799  -15.9727   35.4012 H   0  0  0  0  0
  -28.6364  -17.6111   33.7811 H   0  0  0  0  0
  -28.0116  -18.2063   35.3761 H   0  0  0  0  0
  -26.7105  -19.0953   33.7242 H   0  0  0  0  0
  -25.4099  -17.6703   35.7087 H   0  0  0  0  0
  -24.9092  -19.7452   35.0019 H   0  0  0  0  0
  -24.8526  -15.7036   34.3866 H   0  0  0  0  0
  -22.8838  -16.5369   34.9114 H   0  0  0  0  0
  -24.3617  -17.6368   32.0460 H   0  0  0  0  0
  -26.2606  -14.3086   32.5846 H   0  0  0  0  0
  -24.0234  -11.9030   28.9955 H   0  0  0  0  0
  -22.8419  -12.3847   27.7735 H   0  0  0  0  0
  -21.9680  -16.7334   28.4571 H   0  0  0  0  0
  1  2  1  0  0  0
  2  3  1  0  0  0
  3  4  1  0  0  0
  3  5  1  0  0  0
  4  9  1  0  0  0
  5  6  1  0  0  0
  5  7  1  0  0  0
  7  8  1  0  0  0
  7  9  1  0  0  0
  9 10  1  0  0  0
 10 11  4  0  0  0
 10 19  4  0  0  0
 11 12  4  0  0  0
 12 13  4  0  0  0
 13 14  4  0  0  0
 13 19  4  0  0  0
 14 15  1  0  0  0
 14 16  4  0  0  0
 16 17  4  0  0  0
 17 18  4  0  0  0
 18 19  4  0  0  0
  1 20  1  0  0  0
  2 21  1  0  0  0
  2 22  1  0  0  0
  3 23  1  0  0  0
  5 24  1  0  0  0
  6 25  1  0  0  0
  7 26  1  0  0  0
  8 27  1  0  0  0
  9 28  1  0  0  0
 11 29  1  0  0  0
 15 30  1  0  0  0
 15 31  1  0  0  0
 17 32  1  0  0  0
M  END
$$$$
