3iub_ligand
  -I-interpret- 

 38 40  0  0  0  0  0  0  0  0999 V2000
   10.8770    9.4100   -5.0490 C   0  0  0  0  0
   20.1760    7.7200    4.4200 C   0  0  0  0  0
   16.6800   11.2270    0.9690 O   0  0  0  0  0
   14.1780   10.3500    4.3490 O   0  0  0  0  0
   15.4650   12.3990    3.7040 O   0  0  0  0  0
   19.1370    9.9050    4.1180 C   0  0  0  0  0
   17.9810   10.6580    3.8810 C   0  0  0  0  0
   14.5280    9.8560   -4.8460 C   0  0  0  0  0
   15.5000   10.1140   -3.8770 C   0  0  0  0  0
   17.8180    7.8980    4.0050 C   0  0  0  0  0
   12.8560    9.9910   -3.1000 C   0  0  0  0  0
   13.7790   10.4290   -0.8570 C   0  0  0  0  0
   16.6770    8.6680    3.7610 N   0  0  0  0  0
   14.6890   10.6340    1.8330 N   0  0  0  0  0
   15.8550   10.4990   -1.4940 N   0  0  0  0  0
   12.2640    9.5650   -5.4360 O   0  0  0  0  0
   15.5220   10.8470    0.7990 C   0  0  0  0  0
   19.0480    8.5140    4.1830 C   0  0  0  0  0
   13.1900    9.7990   -4.4600 C   0  0  0  0  0
   16.7520   10.0120    3.7060 C   0  0  0  0  0
   15.0480   10.6080   -0.4490 C   0  0  0  0  0
   13.8270   10.2250   -2.1910 C   0  0  0  0  0
   15.1220   10.2680   -2.5810 C   0  0  0  0  0
   15.2520   10.9220    3.4070 S   0  0  0  0  0
   10.7837    8.5648   -4.3671 H   0  0  0  0  0
   10.5360   10.3184   -4.5525 H   0  0  0  0  0
   10.2712    9.2305   -5.9372 H   0  0  0  0  0
   20.9084    7.8865    3.6301 H   0  0  0  0  0
   20.6112    7.9874    5.3829 H   0  0  0  0  0
   19.8838    6.6699    4.4309 H   0  0  0  0  0
   20.0985   10.4010    4.2506 H   0  0  0  0  0
   18.0380   11.7454    3.8329 H   0  0  0  0  0
   14.8111    9.7017   -5.8872 H   0  0  0  0  0
   16.5505   10.1910   -4.1573 H   0  0  0  0  0
   17.7410    6.8119    4.0555 H   0  0  0  0  0
   11.8135    9.9501   -2.7845 H   0  0  0  0  0
   12.8858   10.4454   -0.2325 H   0  0  0  0  0
   13.7366   10.3055    1.6738 H   0  0  0  0  0
 16  1  1  0  0  0
 18  2  1  0  0  0
 17  3  2  0  0  0
 24  4  2  0  0  0
 24  5  2  0  0  0
  7  6  4  0  0  0
  6 18  4  0  0  0
 20  7  4  0  0  0
  9  8  4  0  0  0
  8 19  4  0  0  0
 23  9  4  0  0  0
 13 10  4  0  0  0
 10 18  4  0  0  0
 11 19  4  0  0  0
 22 11  4  0  0  0
 21 12  4  0  0  0
 12 22  4  0  0  0
 20 13  4  0  0  0
 14 17  1  0  0  0
 24 14  1  0  0  0
 21 15  4  0  0  0
 15 23  4  0  0  0
 19 16  1  0  0  0
 17 21  1  0  0  0
 20 24  1  0  0  0
 22 23  4  0  0  0
  1 25  1  0  0  0
  1 26  1  0  0  0
  1 27  1  0  0  0
  2 28  1  0  0  0
  2 29  1  0  0  0
  2 30  1  0  0  0
  6 31  1  0  0  0
  7 32  1  0  0  0
  8 33  1  0  0  0
  9 34  1  0  0  0
 10 35  1  0  0  0
 11 36  1  0  0  0
 12 37  1  0  0  0
 14 38  1  0  0  0
M  END
$$$$
