### 
### Created by X-TOOL on Wed Jan  1 15:39:35 2020
### 

@<TRIPOS>MOLECULE
6b1y_ligand
   40    41     1     0     0
SMALL
GAST_HUCK


@<TRIPOS>ATOM
      1 OAB         8.8770    1.1280   -2.1800 O.2       1 CD7        -0.3825
      2 CAE         9.1480    0.0750   -2.7710 C.2       1 CD7         0.1771
      3 N          10.4060   -0.3340   -3.0160 N.am      1 CD7        -0.2320
      4 CAL        10.6500   -1.6850   -3.5770 C.3       1 CD7         0.1000
      5 CAP        11.6140   -2.2300   -2.6400 C.2       1 CD7         0.0309
      6 NAA        11.6490   -3.5260   -2.4040 N.2       1 CD7        -0.3845
      7 CAH        12.5490   -1.4980   -1.8760 C.3       1 CD7         0.0175
      8 CB         12.1520   -0.1180   -1.5750 C.3       1 CD7         0.0066
      9 CA         11.5090    0.5870   -2.7830 C.3       1 CD7         0.1418
     10 C          12.3650    0.8500   -3.9130 C.2       1 CD7         0.2235
     11 O          11.9660    0.6560   -5.0760 O.2       1 CD7        -0.3925
     12 NAO        13.6000    1.3680   -3.6150 N.am      1 CD7        -0.1805
     13 NAN        14.3100    1.9050   -4.6040 N.am      1 CD7        -0.1820
     14 CAQ        14.0310    3.1670   -4.9880 C.2       1 CD7         0.2054
     15 OAC        13.0160    3.7390   -4.6330 O.2       1 CD7        -0.3946
     16 CAS        15.0830    3.8300   -5.9110 C.3       1 CD7         0.0949
     17 CAI        16.3180    4.1570   -5.1770 C.3       1 CD7         0.0122
     18 CAF        15.8050    5.4370   -4.3580 C.3       1 CD7        -0.0310
     19 NAM        14.7120    6.0610   -5.2050 N.4       1 CD7         0.2290
     20 CAK        14.6450    5.2090   -6.4090 C.3       1 CD7        -0.0135
     21 H1          8.3256   -0.5530   -3.1103 H         1 CD7         0.1550
     22 H2         11.0685   -1.6266   -4.5926 H         1 CD7         0.0815
     23 H3          9.7272   -2.2833   -3.5945 H         1 CD7         0.0815
     24 H4         12.3200   -3.9017   -1.7523 H         1 CD7         0.0795
     25 H5         13.4970   -1.4675   -2.4330 H         1 CD7         0.0550
     26 H6         12.7004   -2.0260   -0.9230 H         1 CD7         0.0550
     27 H7         13.0450    0.4476   -1.2707 H         1 CD7         0.0348
     28 H8         11.4271   -0.1319   -0.7477 H         1 CD7         0.0348
     29 H9         11.1124    1.5632   -2.4673 H         1 CD7         0.0810
     30 H10        13.9565    1.3427   -2.6810 H         1 CD7         0.2166
     31 H11        15.0354    1.3834   -5.0531 H         1 CD7         0.2165
     32 H12        15.2912    3.1568   -6.7556 H         1 CD7         0.0594
     33 H13        17.1453    4.4089   -5.8567 H         1 CD7         0.0346
     34 H14        16.6278    3.3394   -4.5095 H         1 CD7         0.0346
     35 H15        16.6283    6.1511   -4.2088 H         1 CD7         0.0815
     36 H16        15.4038    5.1305   -3.3807 H         1 CD7         0.0815
     37 H17        14.9501    7.0088   -5.4521 H         1 CD7         0.2015
     38 H18        13.8320    6.0529   -4.7135 H         1 CD7         0.2015
     39 H19        13.6200    5.1738   -6.8066 H         1 CD7         0.0842
     40 H20        15.3280    5.5786   -7.1880 H         1 CD7         0.0842
@<TRIPOS>BOND
     1    1    2 2  
     2    2    3 am 
     3    3    4 1  
     4    3    9 1  
     5    4    5 1  
     6    5    6 2  
     7    5    7 1  
     8    7    8 1  
     9    8    9 1  
    10    9   10 1  
    11   10   11 2  
    12   10   12 am 
    13   12   13 1  
    14   13   14 am 
    15   14   15 2  
    16   14   16 1  
    17   16   17 1  
    18   16   20 1  
    19   17   18 1  
    20   18   19 1  
    21   19   20 1  
    22    2   21 1  
    23    4   22 1  
    24    4   23 1  
    25    6   24 1  
    26    7   25 1  
    27    7   26 1  
    28    8   27 1  
    29    8   28 1  
    30    9   29 1  
    31   12   30 1  
    32   13   31 1  
    33   16   32 1  
    34   17   33 1  
    35   17   34 1  
    36   18   35 1  
    37   18   36 1  
    38   19   37 1  
    39   19   38 1  
    40   20   39 1  
    41   20   40 1  
@<TRIPOS>SUBSTRUCTURE
     1 CD7         1

