6b1y_ligand
  -I-interpret- 

 40 41  0  0  0  0  0  0  0  0999 V2000
    8.8770    1.1280   -2.1800 O   0  0  0  0  0
    9.1480    0.0750   -2.7710 C   0  0  0  0  0
   10.4060   -0.3340   -3.0160 N   0  0  0  0  0
   10.6500   -1.6850   -3.5770 C   0  0  0  0  0
   11.6140   -2.2300   -2.6400 C   0  0  0  0  0
   11.6490   -3.5260   -2.4040 N   0  0  0  0  0
   12.5490   -1.4980   -1.8760 C   0  0  0  0  0
   12.1520   -0.1180   -1.5750 C   0  0  0  0  0
   11.5090    0.5870   -2.7830 C   0  0  0  0  0
   12.3650    0.8500   -3.9130 C   0  0  0  0  0
   11.9660    0.6560   -5.0760 O   0  0  0  0  0
   13.6000    1.3680   -3.6150 N   0  0  0  0  0
   14.3100    1.9050   -4.6040 N   0  0  0  0  0
   14.0310    3.1670   -4.9880 C   0  0  0  0  0
   13.0160    3.7390   -4.6330 O   0  0  0  0  0
   15.0830    3.8300   -5.9110 C   0  0  0  0  0
   16.3180    4.1570   -5.1770 C   0  0  0  0  0
   15.8050    5.4370   -4.3580 C   0  0  0  0  0
   14.7120    6.0610   -5.2050 N   0  3  0  0  0
   14.6450    5.2090   -6.4090 C   0  0  0  0  0
    8.3248   -0.5536   -3.1106 H   0  0  0  0  0
   11.0099   -1.6671   -4.6057 H   0  0  0  0  0
    9.7451   -2.2863   -3.6647 H   0  0  0  0  0
   12.3095   -3.9029   -1.7242 H   0  0  0  0  0
   13.4646   -1.4426   -2.4648 H   0  0  0  0  0
   12.6501   -2.0136   -0.9210 H   0  0  0  0  0
   13.0485    0.4374   -1.2994 H   0  0  0  0  0
   11.4159   -0.1474   -0.7717 H   0  0  0  0  0
   11.2198    1.6222   -2.6017 H   0  0  0  0  0
   13.9636    1.3422   -2.6624 H   0  0  0  0  0
   15.0499    1.3730   -5.0621 H   0  0  0  0  0
   15.2160    3.1045   -6.7135 H   0  0  0  0  0
   17.1887    4.3380   -5.8073 H   0  0  0  0  0
   16.7096    3.3481   -4.5603 H   0  0  0  0  0
   16.6162    6.1420   -4.1764 H   0  0  0  0  0
   15.4304    5.1536   -3.3744 H   0  0  0  0  0
   14.9156    7.0335   -5.4358 H   0  0  0  0  0
   13.8198    6.0967   -4.7119 H   0  0  0  0  0
   13.6476    5.1921   -6.8484 H   0  0  0  0  0
   15.2809    5.5792   -7.2132 H   0  0  0  0  0
  1  2  2  0  0  0
  2  3  1  0  0  0
  3  4  1  0  0  0
  3  9  1  0  0  0
  4  5  1  0  0  0
  5  6  2  0  0  0
  5  7  1  0  0  0
  7  8  1  0  0  0
  8  9  1  0  0  0
  9 10  1  0  0  0
 10 11  2  0  0  0
 10 12  1  0  0  0
 12 13  1  0  0  0
 13 14  1  0  0  0
 14 15  2  0  0  0
 14 16  1  0  0  0
 16 17  1  0  0  0
 16 20  1  0  0  0
 17 18  1  0  0  0
 18 19  1  0  0  0
 19 20  1  0  0  0
  2 21  1  0  0  0
  4 22  1  0  0  0
  4 23  1  0  0  0
  6 24  1  0  0  0
  7 25  1  0  0  0
  7 26  1  0  0  0
  8 27  1  0  0  0
  8 28  1  0  0  0
  9 29  1  0  0  0
 12 30  1  0  0  0
 13 31  1  0  0  0
 16 32  1  0  0  0
 17 33  1  0  0  0
 17 34  1  0  0  0
 18 35  1  0  0  0
 18 36  1  0  0  0
 19 37  1  0  0  0
 19 38  1  0  0  0
 20 39  1  0  0  0
 20 40  1  0  0  0
M  END
$$$$
