5nlk_ligand
  -I-interpret- 

 56 58  0  0  0  0  0  0  0  0999 V2000
   13.5950   16.9720    8.7760 C   0  0  0  0  0
   14.6700    8.6080   13.4050 C   0  0  0  0  0
    6.4080   12.0500    9.3140 C   0  0  0  0  0
   17.8690    8.0400    3.4450 C   0  0  0  0  0
   17.1120    8.4370    2.4160 C   0  0  0  0  0
   17.2530    8.3530    4.5930 C   0  0  0  0  0
    8.2250   15.3520    8.9220 C   0  0  0  0  0
    9.5490   15.7880    8.8550 C   0  0  0  0  0
   14.9780    9.2810    8.7550 C   0  0  0  0  0
   13.3390   10.7530    9.7240 C   0  0  0  0  0
   13.8900   10.9020    7.3810 C   0  0  0  0  0
    9.0020   13.0970    9.2330 C   0  0  0  0  0
   12.0920   16.6860    8.7990 C   0  0  0  0  0
   14.2810    9.5570   12.2630 C   0  0  0  0  0
    6.6240   13.5630    9.1580 C   0  0  0  0  0
   12.2250   12.4140    8.2990 C   0  0  0  0  0
   15.1940    9.4160    5.1830 C   0  0  0  0  0
   14.2650    9.7110    9.8720 C   0  0  0  0  0
   14.7990    9.8470    7.5000 C   0  0  0  0  0
    7.9480   14.0010    9.1100 C   0  0  0  0  0
   13.1510   11.3670    8.4820 C   0  0  0  0  0
   10.3330   13.5170    9.1680 C   0  0  0  0  0
   10.6020   14.8840    8.9830 C   0  0  0  0  0
   16.0990    8.9470    4.3030 C   0  0  0  0  0
   14.5250    9.0520   11.0260 N   0  0  0  0  0
   15.5660    9.3710    6.4890 N   0  0  0  0  0
   11.3310   12.6100    9.2940 N   0  0  0  0  0
   13.7990   10.6600   12.5270 O   0  0  0  0  0
    5.6770   14.3360    9.0290 O   0  0  0  0  0
   12.2260   13.0680    7.2590 O   0  0  0  0  0
   14.1190    9.8440    4.7640 O   0  0  0  0  0
   11.9090   15.2720    8.9270 O   0  0  0  0  0
   15.9550    9.0290    2.9530 O   0  0  0  0  0
   14.0453   16.6173    9.7031 H   0  0  0  0  0
   14.0488   16.4563    7.9297 H   0  0  0  0  0
   13.7579   18.0454    8.6789 H   0  0  0  0  0
   15.4216    9.0863   14.0331 H   0  0  0  0  0
   13.7874    8.3795   14.0024 H   0  0  0  0  0
   15.0763    7.6867   12.9876 H   0  0  0  0  0
    5.8075   11.8598   10.2036 H   0  0  0  0  0
    5.8899   11.6657    8.4353 H   0  0  0  0  0
    7.3739   11.5547    9.4134 H   0  0  0  0  0
   18.8344    7.5408    3.3626 H   0  0  0  0  0
   17.3481    8.3228    1.3580 H   0  0  0  0  0
   17.6333    8.1544    5.5950 H   0  0  0  0  0
    7.4090   16.0684    8.8272 H   0  0  0  0  0
    9.7617   16.8459    8.7011 H   0  0  0  0  0
   15.7006    8.4731    8.8703 H   0  0  0  0  0
   12.7603   11.0876   10.5850 H   0  0  0  0  0
   13.7508   11.3761    6.4094 H   0  0  0  0  0
    8.7831   12.0398    9.3831 H   0  0  0  0  0
   11.6281   17.0427    7.8794 H   0  0  0  0  0
   11.6246   17.2023    9.6375 H   0  0  0  0  0
   14.9294    8.1178   10.9623 H   0  0  0  0  0
   16.4693    8.9576    6.7206 H   0  0  0  0  0
   11.4093   12.0661   10.1533 H   0  0  0  0  0
 13  1  1  0  0  0
 14  2  1  0  0  0
 15  3  1  0  0  0
  4  5  4  0  0  0
  6  4  4  0  0  0
  5 33  4  0  0  0
 24  6  4  0  0  0
  8  7  4  0  0  0
  7 20  4  0  0  0
 23  8  4  0  0  0
 18  9  4  0  0  0
 19  9  4  0  0  0
 10 18  4  0  0  0
 21 10  4  0  0  0
 11 19  4  0  0  0
 21 11  4  0  0  0
 12 20  4  0  0  0
 22 12  4  0  0  0
 32 13  1  0  0  0
 25 14  1  0  0  0
 14 28  2  0  0  0
 20 15  1  0  0  0
 15 29  2  0  0  0
 16 21  1  0  0  0
 27 16  1  0  0  0
 16 30  2  0  0  0
 17 24  1  0  0  0
 26 17  1  0  0  0
 17 31  2  0  0  0
 18 25  1  0  0  0
 19 26  1  0  0  0
 23 22  4  0  0  0
 22 27  1  0  0  0
 23 32  1  0  0  0
 24 33  4  0  0  0
  1 34  1  0  0  0
  1 35  1  0  0  0
  1 36  1  0  0  0
  2 37  1  0  0  0
  2 38  1  0  0  0
  2 39  1  0  0  0
  3 40  1  0  0  0
  3 41  1  0  0  0
  3 42  1  0  0  0
  4 43  1  0  0  0
  5 44  1  0  0  0
  6 45  1  0  0  0
  7 46  1  0  0  0
  8 47  1  0  0  0
  9 48  1  0  0  0
 10 49  1  0  0  0
 11 50  1  0  0  0
 12 51  1  0  0  0
 13 52  1  0  0  0
 13 53  1  0  0  0
 25 54  1  0  0  0
 26 55  1  0  0  0
 27 56  1  0  0  0
M  END
$$$$
