2x7t_ligand
  -I-interpret- 

 60 63  0  0  0  0  0  0  0  0999 V2000
   -7.2590    1.0810   17.1950 O   0  0  0  0  0
   -5.8440    1.1230   16.8590 S   0  0  0  0  0
   -5.0640    1.7200   17.8900 O   0  0  0  0  0
   -5.2570   -0.2570   16.5960 N   0  0  0  0  0
   -5.7450    1.9740   15.4580 O   0  0  0  0  0
   -4.4780    2.1930   14.8150 C   0  0  0  0  0
   -4.3360    1.3680   13.5120 C   0  0  0  0  0
   -3.3380    2.1590   12.6430 C   0  0  0  0  0
   -4.2720    3.6400   14.3690 C   0  0  0  0  0
   -2.9700    3.3090   13.5950 C   0  0  0  0  0
   -5.5180    4.0930   13.5180 C   0  0  0  0  0
   -4.0290    4.7390   15.4340 C   0  0  0  0  0
   -3.2790    5.9790   14.8850 C   0  0  0  0  0
   -1.9960    5.5750   14.1090 C   0  0  0  0  0
   -2.3100    4.5640   12.9310 C   0  0  0  0  0
   -1.0130    4.1990   12.1530 C   0  0  0  0  0
   -0.4090    5.4620   11.4650 C   0  0  0  0  0
   -0.4900    6.7330   12.3220 C   0  0  0  0  0
    0.2120    7.9250   11.8830 C   0  0  0  0  0
   -1.2440    6.7840   13.5670 C   0  0  0  0  0
   -1.0960    7.9940   14.0470 C   0  0  0  0  0
   -0.5640    9.1860   13.8900 C   0  0  0  0  0
   -0.6830   10.3940   14.8140 C   0  0  0  0  0
   -1.8820   11.2210   14.3680 C   0  0  0  0  0
    0.1890    9.1500   12.6430 C   0  0  0  0  0
    0.8930   10.2470   12.1610 O   0  0  0  0  0
    2.5430   10.2540   12.2570 S   0  0  0  0  0
    3.0080   11.6470   12.0590 O   0  0  0  0  0
    3.1160    9.4060   11.1880 O   0  0  0  0  0
    3.0410    9.7330   13.6050 N   0  0  0  0  0
   -5.8491   -1.0847   16.6649 H   0  0  0  0  0
   -4.2716   -0.3538   16.3509 H   0  0  0  0  0
   -3.7525    1.9028   15.5750 H   0  0  0  0  0
   -5.2947    1.2398   13.0095 H   0  0  0  0  0
   -3.9829    0.3563   13.7118 H   0  0  0  0  0
   -3.7486    2.4897   11.6890 H   0  0  0  0  0
   -2.4827    1.5723   12.3078 H   0  0  0  0  0
   -2.1685    2.9834   14.2581 H   0  0  0  0  0
   -5.2686    4.9983   12.9645 H   0  0  0  0  0
   -5.7865    3.3007   12.8192 H   0  0  0  0  0
   -6.3579    4.2923   14.1836 H   0  0  0  0  0
   -3.4101    4.3032   16.2183 H   0  0  0  0  0
   -5.0045    5.0757   15.7850 H   0  0  0  0  0
   -2.9882    6.6062   15.7277 H   0  0  0  0  0
   -3.9428    6.5076   14.2008 H   0  0  0  0  0
   -1.3547    5.0732   14.8336 H   0  0  0  0  0
   -2.9832    5.0027   12.1945 H   0  0  0  0  0
   -1.2569    3.4631   11.3869 H   0  0  0  0  0
   -0.2825    3.7967   12.8548 H   0  0  0  0  0
   -0.9849    5.6446   10.5577 H   0  0  0  0  0
    0.6464    5.2595   11.2830 H   0  0  0  0  0
    0.7741    7.8931   10.9497 H   0  0  0  0  0
   -1.6568    8.0266   14.9811 H   0  0  0  0  0
    0.2252   10.9946   14.7631 H   0  0  0  0  0
   -0.8183   10.0648   15.8443 H   0  0  0  0  0
   -1.7327   11.5496   13.3395 H   0  0  0  0  0
   -2.7843   10.6126   14.4291 H   0  0  0  0  0
   -1.9838   12.0905   15.0174 H   0  0  0  0  0
    3.6041   10.3334   14.2073 H   0  0  0  0  0
    2.8102    8.7849   13.9022 H   0  0  0  0  0
  1  2  2  0  0  0
  2  3  2  0  0  0
  2  4  1  0  0  0
  2  5  1  0  0  0
  5  6  1  0  0  0
  6  7  1  0  0  0
  6  9  1  0  0  0
  7  8  1  0  0  0
  8 10  1  0  0  0
  9 10  1  0  0  0
  9 11  1  0  0  0
  9 12  1  0  0  0
 10 15  1  0  0  0
 12 13  1  0  0  0
 13 14  1  0  0  0
 14 15  1  0  0  0
 14 20  1  0  0  0
 15 16  1  0  0  0
 16 17  1  0  0  0
 17 18  1  0  0  0
 18 19  4  0  0  0
 18 20  4  0  0  0
 19 25  4  0  0  0
 20 21  4  0  0  0
 21 22  4  0  0  0
 22 23  1  0  0  0
 22 25  4  0  0  0
 23 24  1  0  0  0
 25 26  1  0  0  0
 26 27  1  0  0  0
 27 28  2  0  0  0
 27 29  2  0  0  0
 27 30  1  0  0  0
  4 31  1  0  0  0
  4 32  1  0  0  0
  6 33  1  0  0  0
  7 34  1  0  0  0
  7 35  1  0  0  0
  8 36  1  0  0  0
  8 37  1  0  0  0
 10 38  1  0  0  0
 11 39  1  0  0  0
 11 40  1  0  0  0
 11 41  1  0  0  0
 12 42  1  0  0  0
 12 43  1  0  0  0
 13 44  1  0  0  0
 13 45  1  0  0  0
 14 46  1  0  0  0
 15 47  1  0  0  0
 16 48  1  0  0  0
 16 49  1  0  0  0
 17 50  1  0  0  0
 17 51  1  0  0  0
 19 52  1  0  0  0
 21 53  1  0  0  0
 23 54  1  0  0  0
 23 55  1  0  0  0
 24 56  1  0  0  0
 24 57  1  0  0  0
 24 58  1  0  0  0
 30 59  1  0  0  0
 30 60  1  0  0  0
M  END
$$$$
