1o41_ligand
  -I-interpret- 

 26 26  0  0  0  0  0  0  0  0999 V2000
   17.6820   24.5520   19.5270 C   0  0  0  0  0
   18.4290   24.9980   20.6370 C   0  0  0  0  0
   18.2370   26.3260   21.0830 C   0  0  0  0  0
   17.2770   27.1930   20.4760 C   0  0  0  0  0
   16.5390   26.7270   19.3340 C   0  0  0  0  0
   16.7650   25.4030   18.8060 C   0  0  0  0  0
   16.2630   24.7830   17.5220 C   0  0  0  0  0
   15.5490   27.6080   18.8030 O   0  0  0  0  0
   17.0190   28.4500   21.0590 O   0  0  0  0  0
   17.3820   28.6490   22.4330 C   0  0  0  0  0
   15.9060   28.5960   17.6640 P   0  0  0  0  0
   14.6080   29.0560   17.0320 O   0  0  0  0  0
   16.7310   27.7490   16.6580 O   0  0  0  0  0
   16.7140   29.7560   18.1590 O   0  0  0  0  0
   16.5360   24.9600   16.5970 O   0  0  0  0  0
   17.8022   23.5195   19.1990 H   0  0  0  0  0
   19.1357   24.3364   21.1379 H   0  0  0  0  0
   18.8378   26.6986   21.9126 H   0  0  0  0  0
   15.2413   25.1622   17.5040 H   0  0  0  0  0
   16.6193   23.7599   17.6424 H   0  0  0  0  0
   16.8451   27.9341   23.0565 H   0  0  0  0  0
   18.4555   28.5000   22.5491 H   0  0  0  0  0
   17.1201   29.6635   22.7334 H   0  0  0  0  0
   14.1142   28.2919   16.7256 H   0  0  0  0  0
   16.1992   27.0110   16.3512 H   0  0  0  0  0
   16.0285   24.4026   16.0025 H   0  0  0  0  0
  1  2  4  0  0  0
  1  6  4  0  0  0
  2  3  4  0  0  0
  3  4  4  0  0  0
  4  5  4  0  0  0
  4  9  1  0  0  0
  5  6  4  0  0  0
  5  8  1  0  0  0
  6  7  1  0  0  0
  7 15  1  0  0  0
  8 11  1  0  0  0
  9 10  1  0  0  0
 11 12  1  0  0  0
 11 13  1  0  0  0
 11 14  2  0  0  0
  1 16  1  0  0  0
  2 17  1  0  0  0
  3 18  1  0  0  0
  7 19  1  0  0  0
  7 20  1  0  0  0
 10 21  1  0  0  0
 10 22  1  0  0  0
 10 23  1  0  0  0
 12 24  1  0  0  0
 13 25  1  0  0  0
 15 26  1  0  0  0
M  END
$$$$
