### 
### Created by X-TOOL on Mon Sep 10 21:12:51 2018
### 

@<TRIPOS>MOLECULE
1o41_ligand
   24    24     1     0     0
SMALL
GAST_HUCK


@<TRIPOS>ATOM
      1 C1         17.6820   24.5520   19.5270 C.ar      1 300        -0.0415
      2 C2         18.4290   24.9980   20.6370 C.ar      1 300        -0.0541
      3 C3         18.2370   26.3260   21.0830 C.ar      1 300        -0.0078
      4 C4         17.2770   27.1930   20.4760 C.ar      1 300         0.1793
      5 C5         16.5390   26.7270   19.3340 C.ar      1 300         0.2232
      6 C6         16.7650   25.4030   18.8060 C.ar      1 300         0.0548
      7 C10        16.2630   24.7830   17.5220 C.3       1 300         0.0858
      8 O11        15.5490   27.6080   18.8030 O.3       1 300        -0.2006
      9 O12        17.0190   28.4500   21.0590 O.3       1 300        -0.2925
     10 C13        17.3820   28.6490   22.4330 C.3       1 300         0.0695
     11 P17        15.9060   28.5960   17.6640 P.3       1 300         0.1343
     12 O18        14.6080   29.0560   17.0320 O.co2     1 300        -0.6652
     13 O19        16.7310   27.7490   16.6580 O.co2     1 300        -0.6652
     14 O20        16.7140   29.7560   18.1590 O.co2     1 300        -0.6652
     15 O21        16.5360   24.9600   16.5970 O.3       1 300        -0.3820
     16 H1         17.8015   23.5252   19.2008 H         1 300         0.0602
     17 H2         19.1319   24.3400   21.1351 H         1 300         0.0731
     18 H3         18.8345   26.6965   21.9081 H         1 300         0.0547
     19 H4         15.1814   24.9831   17.5287 H         1 300         0.0729
     20 H5         16.4373   23.7051   17.6548 H         1 300         0.0729
     21 H6         17.1182   29.6726   22.7374 H         1 300         0.0603
     22 H7         18.4652   28.4989   22.5515 H         1 300         0.0603
     23 H8         16.8408   27.9281   23.0634 H         1 300         0.0603
     24 H9         16.3763   25.8734   16.3901 H         1 300         0.2128
@<TRIPOS>BOND
     1    1    2 ar 
     2    1    6 ar 
     3    2    3 ar 
     4    3    4 ar 
     5    4    5 ar 
     6    4    9 1  
     7    5    6 ar 
     8    5    8 1  
     9    6    7 1  
    10    7   15 1  
    11    8   11 1  
    12    9   10 1  
    13   11   12 ar 
    14   11   13 ar 
    15   11   14 ar 
    16    1   16 1  
    17    2   17 1  
    18    3   18 1  
    19    7   19 1  
    20    7   20 1  
    21   10   21 1  
    22   10   22 1  
    23   10   23 1  
    24   15   24 1  
@<TRIPOS>SUBSTRUCTURE
     1 300         1

