### 
### Created by X-TOOL on Mon Sep 10 21:13:01 2018
### 

@<TRIPOS>MOLECULE
3dvp_ligand
  128   128     1     0     0
SMALL
GAST_HUCK


@<TRIPOS>ATOM
      1 N          15.6030    9.9530  -16.3890 N.4       1 PRO         0.2377
      2 CA         14.7200   10.5890  -15.4050 C.3       1 PRO         0.0621
      3 C          14.9740   10.0850  -13.9820 C.2       1 PRO         0.2265
      4 O          14.1240    9.3450  -13.4940 O.2       1 PRO        -0.3907
      5 CB         13.2390   10.3700  -15.8650 C.3       1 PRO        -0.0040
      6 N          16.0810   10.4960  -13.3150 N.am      1 THR        -0.2586
      7 CA         16.5660    9.8840  -12.0290 C.3       1 THR         0.1566
      8 C          17.2450   10.7890  -11.0190 C.2       1 THR         0.2065
      9 O          17.9080   11.7390  -11.4460 O.2       1 THR        -0.3943
     10 CB         17.5940    8.7830  -12.3370 C.3       1 THR         0.0924
     11 OG1        16.8690    7.6430  -12.7790 O.3       1 THR        -0.3874
     12 CG2        18.3750    8.4120  -11.1180 C.3       1 THR        -0.0346
     13 N          17.1110   10.4520   -9.7080 N.am      1 ARG        -0.2636
     14 CA         17.7150   11.1660   -8.5640 C.3       1 ARG         0.1311
     15 C          18.2910   10.2460   -7.4810 C.2       1 ARG         0.2040
     16 O          17.7500    9.1870   -7.2490 O.2       1 ARG        -0.3944
     17 CB         16.6910   12.0940   -7.8980 C.3       1 ARG        -0.0092
     18 CG         16.2200   13.3280   -8.7000 C.3       1 ARG        -0.0156
     19 CD         15.6360   14.3560   -7.6980 C.3       1 ARG         0.0627
     20 NE         15.5560   15.6950   -8.2250 N.pl3     1 ARG        -0.2723
     21 CZ         14.5050   16.1070   -8.9430 C.cat     1 ARG         0.2882
     22 NH1        13.4800   15.2520   -9.1520 N.pl3     1 ARG        -0.2849
     23 NH2        14.4500   17.3600   -9.4380 N.pl3     1 ARG        -0.2849
     24 N          19.3440   10.6740   -6.7820 N.am      1 ASP        -0.2622
     25 CA         19.9220    9.9180   -5.6880 C.3       1 ASP         0.1423
     26 C          19.5640   10.6030   -4.4420 C.2       1 ASP         0.2056
     27 O          19.8800   11.8180   -4.2840 O.2       1 ASP        -0.3943
     28 CB         21.4530    9.8400   -5.7470 C.3       1 ASP         0.0406
     29 CG         21.9500    9.0940   -6.9440 C.2       1 ASP         0.0393
     30 OD1        21.2510    8.1460   -7.3740 O.co2     1 ASP        -0.5688
     31 OD2        23.0510    9.4380   -7.4600 O.co2     1 ASP        -0.5688
     32 N          19.0060    9.8590   -3.4980 N.am      1 VAL        -0.2634
     33 CA         18.6150   10.5290   -2.2370 C.3       1 VAL         0.1333
     34 C          18.9510    9.6020   -1.0710 C.2       1 VAL         0.2041
     35 O          18.7940    8.3990   -1.2250 O.2       1 VAL        -0.3944
     36 CB         17.1250   10.9710   -2.2040 C.3       1 VAL        -0.0063
     37 CG1        16.3020    9.7410   -2.0780 C.3       1 VAL        -0.0584
     38 CG2        16.8760   12.0050   -1.0720 C.3       1 VAL        -0.0584
     39 N          19.5010   10.1710    0.0170 N.am      1 ALA        -0.2640
     40 CA         19.5220    9.5380    1.3640 C.3       1 ALA         0.1282
     41 C          18.3040    9.8650    2.2620 C.2       1 ALA         0.2037
     42 O          17.7800   10.9970    2.2690 O.2       1 ALA        -0.3944
     43 CB         20.7910    9.9170    2.1140 C.3       1 ALA        -0.0244
     44 N          17.8720    8.8530    3.0190 N.am      1 THR        -0.2613
     45 CA         16.9050    9.0040    4.1430 C.3       1 THR         0.1565
     46 C          17.6060    8.6910    5.4390 C.2       1 THR         0.2065
     47 O          18.4040    7.7880    5.5240 O.2       1 THR        -0.3943
     48 CB         15.6190    8.1350    3.9050 C.3       1 THR         0.0924
     49 OG1        15.8490    6.7080    4.0710 O.3       1 THR        -0.3874
     50 CG2        14.9930    8.4050    2.4770 C.3       1 THR        -0.0346
     51 N          17.2730    9.4640    6.4460 N.am      1 SER        -0.2615
     52 CA         17.6650    9.3070    7.8880 C.3       1 SER         0.1541
     53 C          16.5640    8.8760    8.8680 C.2       1 SER         0.2081
     54 O          15.4400    9.3600    8.7770 O.2       1 SER        -0.3941
     55 CB         18.2670   10.6380    8.3730 C.3       1 SER         0.0843
     56 OG         19.3160   11.0850    7.5250 O.3       1 SER        -0.3903
     57 N          16.8760    8.0040    9.8320 N.am      1 PRO        -0.2555
     58 CA         15.7790    7.7030   10.8320 C.3       1 PRO         0.0972
     59 C          15.2310    8.9360   11.5240 C.2       1 PRO         0.0603
     60 O          15.9700    9.9280   11.7010 O.co2     1 PRO        -0.5666
     61 CB         16.4400    6.7910   11.8690 C.3       1 PRO        -0.0159
     62 CG         18.0480    6.8910   11.5900 C.3       1 PRO        -0.0288
     63 CD         18.1170    7.2220   10.0720 C.3       1 PRO         0.0362
     64 OXT        14.0470    8.9680   11.9420 O.co2     1 PRO        -0.5666
     65 H1         15.3991   10.3155  -17.3072 H         1 PRO         0.2015
     66 H2         15.4531    8.9563  -16.3803 H         1 PRO         0.2015
     67 H3         16.5635   10.1504  -16.1556 H         1 PRO         0.2015
     68 H4         14.9234   11.6700  -15.4101 H         1 PRO         0.1095
     69 H5         12.5569   10.8394  -15.1408 H         1 PRO         0.0310
     70 H6         13.0282    9.2919  -15.9216 H         1 PRO         0.0310
     71 H7         13.0916   10.8250  -16.8556 H         1 PRO         0.0310
     72 H8         16.6076   11.2529  -13.7020 H         1 THR         0.1885
     73 H9         15.6885    9.4371  -11.5389 H         1 THR         0.0826
     74 H10        18.2825    9.1260  -13.1233 H         1 THR         0.0639
     75 H11        17.4766    6.9406  -12.9788 H         1 THR         0.2101
     76 H12        19.0994    7.6242  -11.3724 H         1 THR         0.0257
     77 H13        17.6891    8.0425  -10.3414 H         1 THR         0.0257
     78 H14        18.9114    9.2961  -10.7430 H         1 THR         0.0257
     79 H15        16.5534    9.6485   -9.4996 H         1 ARG         0.1883
     80 H16        18.5384   11.7793   -8.9589 H         1 ARG         0.0800
     81 H17        17.1378   12.4602   -6.9619 H         1 ARG         0.0313
     82 H18        15.8003   11.4909   -7.6678 H         1 ARG         0.0313
     83 H19        15.4462   13.0303   -9.4229 H         1 ARG         0.0301
     84 H20        17.0716   13.7719   -9.2364 H         1 ARG         0.0301
     85 H21        16.2762   14.3721   -6.8037 H         1 ARG         0.0689
     86 H22        14.6229   14.0316   -7.4179 H         1 ARG         0.0689
     87 H23        16.3283   16.3521   -8.0441 H         1 ARG         0.2642
     88 H24        12.6629   15.5524   -9.7024 H         1 ARG         0.2615
     89 H25        13.5157   14.2998   -8.7609 H         1 ARG         0.2615
     90 H26        15.2316   18.0115   -9.2784 H         1 ARG         0.2615
     91 H27        13.6264   17.6656   -9.9757 H         1 ARG         0.2615
     92 H28        19.7523   11.5544   -7.0231 H         1 ASP         0.1884
     93 H29        19.5085    8.8987   -5.6959 H         1 ASP         0.0819
     94 H30        21.8141    9.3312   -4.8411 H         1 ASP         0.0478
     95 H31        21.8560   10.8630   -5.7783 H         1 ASP         0.0478
     96 H32        18.8544    8.8798   -3.6326 H         1 VAL         0.1883
     97 H33        19.2252   11.4388   -2.1379 H         1 VAL         0.0802
     98 H34        16.8769   11.4570   -3.1591 H         1 VAL         0.0343
     99 H35        15.2367   10.0138   -2.0512 H         1 VAL         0.0234
    100 H36        16.5691    9.2146   -1.1498 H         1 VAL         0.0234
    101 H37        16.4906    9.0837   -2.9396 H         1 VAL         0.0234
    102 H38        17.5171   12.8845   -1.2313 H         1 VAL         0.0234
    103 H39        17.1143   11.5489   -0.0998 H         1 VAL         0.0234
    104 H40        15.8203   12.3139   -1.0832 H         1 VAL         0.0234
    105 H41        19.9207   11.0729   -0.0853 H         1 ALA         0.1883
    106 H42        19.5287    8.4495    1.2056 H         1 ALA         0.0797
    107 H43        20.7873    9.4401    3.1052 H         1 ALA         0.0277
    108 H44        20.8341   11.0097    2.2330 H         1 ALA         0.0277
    109 H45        21.6687    9.5751    1.5459 H         1 ALA         0.0277
    110 H46        18.2191    7.9367    2.8191 H         1 THR         0.1884
    111 H47        16.5859   10.0560    4.1811 H         1 THR         0.0826
    112 H48        14.8793    8.4400    4.6599 H         1 THR         0.0639
    113 H49        16.5080    6.4203    3.4502 H         1 THR         0.2101
    114 H50        14.0967    7.7810    2.3457 H         1 THR         0.0257
    115 H51        15.7306    8.1553    1.7001 H         1 THR         0.0257
    116 H52        14.7165    9.4663    2.3925 H         1 THR         0.0257
    117 H53        16.6913   10.2478    6.2285 H         1 SER         0.1884
    118 H54        18.4464    8.5337    7.9257 H         1 SER         0.0823
    119 H55        18.6656   10.4989    9.3887 H         1 SER         0.0606
    120 H56        17.4749   11.4010    8.3912 H         1 SER         0.0606
    121 H57        19.6609   11.9061    7.8557 H         1 SER         0.2097
    122 H58        14.9514    7.1813   10.3291 H         1 PRO         0.0728
    123 H59        16.0934    5.7546   11.7440 H         1 PRO         0.0306
    124 H60        16.2058    7.1357   12.8870 H         1 PRO         0.0306
    125 H61        18.5480    5.9362   11.8100 H         1 PRO         0.0286
    126 H62        18.5049    7.6912   12.1907 H         1 PRO         0.0286
    127 H63        19.0102    7.8206    9.8401 H         1 PRO         0.0524
    128 H64        18.1252    6.3022    9.4688 H         1 PRO         0.0524
@<TRIPOS>BOND
     1    1    2 1  
     2    2    3 1  
     3    2    5 1  
     4    3    4 2  
     5    3    6 am 
     6    6    7 1  
     7    7    8 1  
     8    7   10 1  
     9    8    9 2  
    10    8   13 am 
    11   10   11 1  
    12   10   12 1  
    13   13   14 1  
    14   14   15 1  
    15   14   17 1  
    16   15   16 2  
    17   15   24 am 
    18   17   18 1  
    19   18   19 1  
    20   19   20 1  
    21   20   21 ar 
    22   21   22 ar 
    23   21   23 ar 
    24   24   25 1  
    25   25   26 1  
    26   25   28 1  
    27   26   27 2  
    28   26   32 am 
    29   28   29 1  
    30   29   30 ar 
    31   29   31 ar 
    32   32   33 1  
    33   33   34 1  
    34   33   36 1  
    35   34   35 2  
    36   34   39 am 
    37   36   37 1  
    38   36   38 1  
    39   39   40 1  
    40   40   41 1  
    41   40   43 1  
    42   41   42 2  
    43   41   44 am 
    44   44   45 1  
    45   45   46 1  
    46   45   48 1  
    47   46   47 2  
    48   46   51 am 
    49   48   49 1  
    50   48   50 1  
    51   51   52 1  
    52   52   53 1  
    53   52   55 1  
    54   53   54 2  
    55   53   57 am 
    56   55   56 1  
    57   57   58 1  
    58   57   63 1  
    59   58   59 1  
    60   58   61 1  
    61   59   60 ar 
    62   59   64 ar 
    63   61   62 1  
    64   62   63 1  
    65    1   65 1  
    66    1   66 1  
    67    1   67 1  
    68    2   68 1  
    69    5   69 1  
    70    5   70 1  
    71    5   71 1  
    72    6   72 1  
    73    7   73 1  
    74   10   74 1  
    75   11   75 1  
    76   12   76 1  
    77   12   77 1  
    78   12   78 1  
    79   13   79 1  
    80   14   80 1  
    81   17   81 1  
    82   17   82 1  
    83   18   83 1  
    84   18   84 1  
    85   19   85 1  
    86   19   86 1  
    87   20   87 1  
    88   22   88 1  
    89   22   89 1  
    90   23   90 1  
    91   23   91 1  
    92   24   92 1  
    93   25   93 1  
    94   28   94 1  
    95   28   95 1  
    96   32   96 1  
    97   33   97 1  
    98   36   98 1  
    99   37   99 1  
   100   37  100 1  
   101   37  101 1  
   102   38  102 1  
   103   38  103 1  
   104   38  104 1  
   105   39  105 1  
   106   40  106 1  
   107   43  107 1  
   108   43  108 1  
   109   43  109 1  
   110   44  110 1  
   111   45  111 1  
   112   48  112 1  
   113   49  113 1  
   114   50  114 1  
   115   50  115 1  
   116   50  116 1  
   117   51  117 1  
   118   52  118 1  
   119   55  119 1  
   120   55  120 1  
   121   56  121 1  
   122   58  122 1  
   123   61  123 1  
   124   61  124 1  
   125   62  125 1  
   126   62  126 1  
   127   63  127 1  
   128   63  128 1  
@<TRIPOS>SUBSTRUCTURE
     1 PRO         1

