3dvp_ligand
  -I-interpret- 

129129  0  0  0  0  0  0  0  0999 V2000
   15.6030    9.9530  -16.3890 N   0  3  0  0  0
   14.7200   10.5890  -15.4050 C   0  0  0  0  0
   14.9740   10.0850  -13.9820 C   0  0  0  0  0
   14.1240    9.3450  -13.4940 O   0  0  0  0  0
   13.2390   10.3700  -15.8650 C   0  0  0  0  0
   16.0810   10.4960  -13.3150 N   0  0  0  0  0
   16.5660    9.8840  -12.0290 C   0  0  0  0  0
   17.2450   10.7890  -11.0190 C   0  0  0  0  0
   17.9080   11.7390  -11.4460 O   0  0  0  0  0
   17.5940    8.7830  -12.3370 C   0  0  0  0  0
   16.8690    7.6430  -12.7790 O   0  0  0  0  0
   18.3750    8.4120  -11.1180 C   0  0  0  0  0
   17.1110   10.4520   -9.7080 N   0  0  0  0  0
   17.7150   11.1660   -8.5640 C   0  0  0  0  0
   18.2910   10.2460   -7.4810 C   0  0  0  0  0
   17.7500    9.1870   -7.2490 O   0  0  0  0  0
   16.6910   12.0940   -7.8980 C   0  0  0  0  0
   16.2200   13.3280   -8.7000 C   0  0  0  0  0
   15.6360   14.3560   -7.6980 C   0  0  0  0  0
   15.5560   15.6950   -8.2250 N   0  0  0  0  0
   14.5050   16.1070   -8.9430 C   0  0  0  0  0
   13.4800   15.2520   -9.1520 N   0  0  0  0  0
   14.4500   17.3600   -9.4380 N   0  0  0  0  0
   19.3440   10.6740   -6.7820 N   0  0  0  0  0
   19.9220    9.9180   -5.6880 C   0  0  0  0  0
   19.5640   10.6030   -4.4420 C   0  0  0  0  0
   19.8800   11.8180   -4.2840 O   0  0  0  0  0
   21.4530    9.8400   -5.7470 C   0  0  0  0  0
   21.9500    9.0940   -6.9440 C   0  0  0  0  0
   21.2510    8.1460   -7.3740 O   0  0  0  0  0
   23.0510    9.4380   -7.4600 O   0  0  0  0  0
   19.0060    9.8590   -3.4980 N   0  0  0  0  0
   18.6150   10.5290   -2.2370 C   0  0  0  0  0
   18.9510    9.6020   -1.0710 C   0  0  0  0  0
   18.7940    8.3990   -1.2250 O   0  0  0  0  0
   17.1250   10.9710   -2.2040 C   0  0  0  0  0
   16.3020    9.7410   -2.0780 C   0  0  0  0  0
   16.8760   12.0050   -1.0720 C   0  0  0  0  0
   19.5010   10.1710    0.0170 N   0  0  0  0  0
   19.5220    9.5380    1.3640 C   0  0  0  0  0
   18.3040    9.8650    2.2620 C   0  0  0  0  0
   17.7800   10.9970    2.2690 O   0  0  0  0  0
   20.7910    9.9170    2.1140 C   0  0  0  0  0
   17.8720    8.8530    3.0190 N   0  0  0  0  0
   16.9050    9.0040    4.1430 C   0  0  0  0  0
   17.6060    8.6910    5.4390 C   0  0  0  0  0
   18.4040    7.7880    5.5240 O   0  0  0  0  0
   15.6190    8.1350    3.9050 C   0  0  0  0  0
   15.8490    6.7080    4.0710 O   0  0  0  0  0
   14.9930    8.4050    2.4770 C   0  0  0  0  0
   17.2730    9.4640    6.4460 N   0  0  0  0  0
   17.6650    9.3070    7.8880 C   0  0  0  0  0
   16.5640    8.8760    8.8680 C   0  0  0  0  0
   15.4400    9.3600    8.7770 O   0  0  0  0  0
   18.2670   10.6380    8.3730 C   0  0  0  0  0
   19.3160   11.0850    7.5250 O   0  0  0  0  0
   16.8760    8.0040    9.8320 N   0  0  0  0  0
   15.7790    7.7030   10.8320 C   0  0  0  0  0
   15.2310    8.9360   11.5240 C   0  0  0  0  0
   15.9700    9.9280   11.7010 O   0  0  0  0  0
   16.4400    6.7910   11.8690 C   0  0  0  0  0
   18.0480    6.8910   11.5900 C   0  0  0  0  0
   18.1170    7.2220   10.0720 C   0  0  0  0  0
   14.0470    8.9680   11.9420 O   0  0  0  0  0
   16.5745   10.0844  -16.1073 H   0  0  0  0  0
   15.3937    8.9559  -16.4375 H   0  0  0  0  0
   15.4525   10.3781  -17.3039 H   0  0  0  0  0
   14.9306   11.6577  -15.3637 H   0  0  0  0  0
   13.0055    9.3056  -15.8392 H   0  0  0  0  0
   12.5683   10.9068  -15.1940 H   0  0  0  0  0
   13.1161   10.7457  -16.8808 H   0  0  0  0  0
   16.6182   11.2680  -13.7097 H   0  0  0  0  0
   15.6352    9.5471  -11.5728 H   0  0  0  0  0
   18.2955    9.1403  -13.0909 H   0  0  0  0  0
   17.4830    6.9332  -12.9809 H   0  0  0  0  0
   17.6909    8.0819  -10.3363 H   0  0  0  0  0
   19.0660    7.6052  -11.3624 H   0  0  0  0  0
   18.9357    9.2793  -10.7694 H   0  0  0  0  0
   16.5422    9.6324   -9.4954 H   0  0  0  0  0
   18.5415   11.7302   -8.9960 H   0  0  0  0  0
   17.1870   12.4912   -7.0124 H   0  0  0  0  0
   15.7996   11.4857   -7.7447 H   0  0  0  0  0
   15.4613   13.0377   -9.4268 H   0  0  0  0  0
   17.0572   13.7658   -9.2437 H   0  0  0  0  0
   16.3005   14.3841   -6.8344 H   0  0  0  0  0
   14.6213   14.0382   -7.4583 H   0  0  0  0  0
   16.3208   16.3457   -8.0459 H   0  0  0  0  0
   12.6642   15.5543   -9.6844 H   0  0  0  0  0
   13.5220   14.3042   -8.7774 H   0  0  0  0  0
   15.2172   18.0100   -9.2670 H   0  0  0  0  0
   19.7604   11.5720   -7.0280 H   0  0  0  0  0
   19.5365    8.9003   -5.7497 H   0  0  0  0  0
   21.7946    9.3099   -4.8580 H   0  0  0  0  0
   21.8370   10.8585   -5.8055 H   0  0  0  0  0
   23.4124   10.1825   -6.9735 H   0  0  0  0  0
   18.8514    8.8602   -3.6353 H   0  0  0  0  0
   19.1823   11.4563   -2.1570 H   0  0  0  0  0
   16.8425   11.4880   -3.1211 H   0  0  0  0  0
   16.4898    9.0906   -2.9323 H   0  0  0  0  0
   16.5676    9.2203   -1.1580 H   0  0  0  0  0
   15.2467   10.0126   -2.0516 H   0  0  0  0  0
   17.1299   11.5579   -0.1109 H   0  0  0  0  0
   17.4983   12.8838   -1.2411 H   0  0  0  0  0
   15.8257   12.2964   -1.0724 H   0  0  0  0  0
   19.9291   11.0909   -0.0874 H   0  0  0  0  0
   19.4822    8.4678    1.1611 H   0  0  0  0  0
   21.6599    9.5777    1.5500 H   0  0  0  0  0
   20.8325   10.9999    2.2312 H   0  0  0  0  0
   20.7862    9.4439    3.0959 H   0  0  0  0  0
   18.2260    7.9184    2.8151 H   0  0  0  0  0
   16.5525   10.0340    4.1972 H   0  0  0  0  0
   14.9146    8.4461    4.6764 H   0  0  0  0  0
   15.0300    6.2326    3.9134 H   0  0  0  0  0
   14.7195    9.4569    2.3946 H   0  0  0  0  0
   15.7248    8.1572    1.7081 H   0  0  0  0  0
   14.1050    7.7862    2.3481 H   0  0  0  0  0
   16.6797   10.2635    6.2242 H   0  0  0  0  0
   18.3719    8.4774    7.8958 H   0  0  0  0  0
   18.6764   10.4844    9.3714 H   0  0  0  0  0
   17.4792   11.3913    8.3685 H   0  0  0  0  0
   19.6646   11.9147    7.8592 H   0  0  0  0  0
   14.9250    7.2558   10.3232 H   0  0  0  0  0
   16.0849    5.7645   11.7779 H   0  0  0  0  0
   16.1937    7.1015   12.8844 H   0  0  0  0  0
   18.5802    5.9755   11.8483 H   0  0  0  0  0
   18.5393    7.6412   12.2096 H   0  0  0  0  0
   19.0178    7.7746    9.8049 H   0  0  0  0  0
   18.1746    6.3279    9.4512 H   0  0  0  0  0
   13.6120    8.1385   11.7315 H   0  0  0  0  0
  1  2  1  0  0  0
  2  3  1  0  0  0
  2  5  1  0  0  0
  3  4  2  0  0  0
  3  6  1  0  0  0
  6  7  1  0  0  0
  7  8  1  0  0  0
  7 10  1  0  0  0
  8  9  2  0  0  0
  8 13  1  0  0  0
 10 11  1  0  0  0
 10 12  1  0  0  0
 13 14  1  0  0  0
 14 15  1  0  0  0
 14 17  1  0  0  0
 15 16  2  0  0  0
 15 24  1  0  0  0
 17 18  1  0  0  0
 18 19  1  0  0  0
 19 20  1  0  0  0
 20 21  1  0  0  0
 21 22  1  0  0  0
 21 23  2  0  0  0
 24 25  1  0  0  0
 25 26  1  0  0  0
 25 28  1  0  0  0
 26 27  2  0  0  0
 26 32  1  0  0  0
 28 29  1  0  0  0
 29 30  2  0  0  0
 29 31  1  0  0  0
 32 33  1  0  0  0
 33 34  1  0  0  0
 33 36  1  0  0  0
 34 35  2  0  0  0
 34 39  1  0  0  0
 36 37  1  0  0  0
 36 38  1  0  0  0
 39 40  1  0  0  0
 40 41  1  0  0  0
 40 43  1  0  0  0
 41 42  2  0  0  0
 41 44  1  0  0  0
 44 45  1  0  0  0
 45 46  1  0  0  0
 45 48  1  0  0  0
 46 47  2  0  0  0
 46 51  1  0  0  0
 48 49  1  0  0  0
 48 50  1  0  0  0
 51 52  1  0  0  0
 52 53  1  0  0  0
 52 55  1  0  0  0
 53 54  2  0  0  0
 53 57  1  0  0  0
 55 56  1  0  0  0
 57 58  1  0  0  0
 57 63  1  0  0  0
 58 59  1  0  0  0
 58 61  1  0  0  0
 59 60  2  0  0  0
 59 64  1  0  0  0
 61 62  1  0  0  0
 62 63  1  0  0  0
  1 65  1  0  0  0
  1 66  1  0  0  0
  1 67  1  0  0  0
  2 68  1  0  0  0
  5 69  1  0  0  0
  5 70  1  0  0  0
  5 71  1  0  0  0
  6 72  1  0  0  0
  7 73  1  0  0  0
 10 74  1  0  0  0
 11 75  1  0  0  0
 12 76  1  0  0  0
 12 77  1  0  0  0
 12 78  1  0  0  0
 13 79  1  0  0  0
 14 80  1  0  0  0
 17 81  1  0  0  0
 17 82  1  0  0  0
 18 83  1  0  0  0
 18 84  1  0  0  0
 19 85  1  0  0  0
 19 86  1  0  0  0
 20 87  1  0  0  0
 22 88  1  0  0  0
 22 89  1  0  0  0
 23 90  1  0  0  0
 24 91  1  0  0  0
 25 92  1  0  0  0
 28 93  1  0  0  0
 28 94  1  0  0  0
 31 95  1  0  0  0
 32 96  1  0  0  0
 33 97  1  0  0  0
 36 98  1  0  0  0
 37 99  1  0  0  0
 37100  1  0  0  0
 37101  1  0  0  0
 38102  1  0  0  0
 38103  1  0  0  0
 38104  1  0  0  0
 39105  1  0  0  0
 40106  1  0  0  0
 43107  1  0  0  0
 43108  1  0  0  0
 43109  1  0  0  0
 44110  1  0  0  0
 45111  1  0  0  0
 48112  1  0  0  0
 49113  1  0  0  0
 50114  1  0  0  0
 50115  1  0  0  0
 50116  1  0  0  0
 51117  1  0  0  0
 52118  1  0  0  0
 55119  1  0  0  0
 55120  1  0  0  0
 56121  1  0  0  0
 58122  1  0  0  0
 61123  1  0  0  0
 61124  1  0  0  0
 62125  1  0  0  0
 62126  1  0  0  0
 63127  1  0  0  0
 63128  1  0  0  0
 64129  1  0  0  0
M  END
$$$$
