5tqg_ligand
  -I-interpret- 

 82 87  0  0  0  0  0  0  0  0999 V2000
    3.6070   38.6060   21.9550 C   0  0  0  0  0
    8.0440   39.5060   19.4650 C   0  0  0  0  0
    5.7130   40.0820   20.8980 C   0  0  0  0  0
    9.1310   38.9080   20.3000 C   0  0  0  0  0
    9.4780   39.7120   19.0950 C   0  0  0  0  0
    6.2720   40.2320   25.6320 C   0  0  0  0  0
    2.7310   35.3090   24.6150 C   0  0  0  0  0
    4.6350   39.7210   20.0950 C   0  0  0  0  0
    3.5900   38.9830   20.6200 C   0  0  0  0  0
    8.3780   35.8050   28.0980 C   0  0  0  0  0
    1.6400   36.2820   24.1310 C   0  0  0  0  0
    8.8410   34.9870   29.1530 C   0  0  0  0  0
    7.2310   37.3900   25.8640 C   0  0  0  0  0
    5.7850   37.0620   26.2090 C   0  0  0  0  0
    4.9770   36.3630   25.3090 C   0  0  0  0  0
    3.6730   35.9680   25.6330 C   0  0  0  0  0
    3.2120   36.2680   26.9260 C   0  0  0  0  0
    4.0080   36.9790   27.8290 C   0  0  0  0  0
    5.2750   37.3760   27.4590 C   0  0  0  0  0
    6.8600   40.1510   23.2040 C   0  0  0  0  0
    6.8370   39.4710   24.5170 N   0  0  0  0  0
    5.7450   39.7410   22.2650 C   0  0  0  0  0
    4.6670   39.0050   22.7650 C   0  0  0  0  0
    2.6160   37.7320   22.4620 N   0  0  0  0  0
    7.0480   40.8870   20.0250 S   0  0  0  0  0
    6.5000   41.5300   18.8600 O   0  0  0  0  0
    7.8420   41.6750   20.9290 O   0  0  0  0  0
    2.1860   37.6390   23.7400 C   0  0  0  0  0
    2.2950   38.5500   24.5640 O   0  0  0  0  0
    8.0220   36.1770   25.7350 N   0  0  0  0  0
    8.5130   35.4070   26.7830 C   0  0  0  0  0
    9.1430   34.2030   26.4790 C   0  0  0  0  0
    9.5740   33.3700   27.4680 C   0  0  0  0  0
    9.4460   33.7260   28.8370 C   0  0  0  0  0
    9.9190   32.9130   29.9380 C   0  0  0  0  0
    9.8140   33.3160   31.2220 N   0  0  0  0  0
    9.2370   34.4890   31.5020 C   0  0  0  0  0
    8.7390   35.3590   30.5180 C   0  0  0  0  0
   10.4480   31.6880   29.7480 N   0  0  0  0  0
    7.2690   38.1890   24.5560 C   0  0  0  0  0
    7.7250   37.6510   23.5630 O   0  0  0  0  0
    1.9670   35.7840   27.2410 O   0  0  0  0  0
    8.1380   36.5360   30.8570 F   0  0  0  0  0
    1.5630   35.8440   28.6160 C   0  0  0  0  0
    0.2050   35.1360   28.6980 C   0  0  0  0  0
   -0.6790   35.7170   27.8440 F   0  0  0  0  0
   -0.3140   35.3950   29.9280 F   0  0  0  0  0
    3.4160   34.6400   23.4050 C   0  0  0  0  0
    7.1559   39.1066   18.9752 H   0  0  0  0  0
    9.3863   37.9437   20.7395 H   0  0  0  0  0
    9.4141   38.8481   21.3509 H   0  0  0  0  0
   10.1416   40.5335   18.8250 H   0  0  0  0  0
   10.1137   39.6290   18.2135 H   0  0  0  0  0
    6.8496   41.1450   25.7768 H   0  0  0  0  0
    5.2363   40.4875   25.4080 H   0  0  0  0  0
    6.3107   39.6284   26.5388 H   0  0  0  0  0
    2.2781   34.4945   25.1804 H   0  0  0  0  0
    4.6144   40.0214   19.0474 H   0  0  0  0  0
    2.7520   38.6972   19.9842 H   0  0  0  0  0
    7.9084   36.7621   28.3252 H   0  0  0  0  0
    0.9402   36.4308   24.9533 H   0  0  0  0  0
    1.1745   35.8450   23.2476 H   0  0  0  0  0
    7.6602   37.9856   26.6697 H   0  0  0  0  0
    5.3738   36.1174   24.3239 H   0  0  0  0  0
    3.6280   37.2185   28.8221 H   0  0  0  0  0
    5.8852   37.9455   28.1600 H   0  0  0  0  0
    7.7992   39.8809   22.7212 H   0  0  0  0  0
    6.7404   41.2175   23.3949 H   0  0  0  0  0
    4.6558   38.7352   23.8210 H   0  0  0  0  0
    2.1781   37.1031   21.7889 H   0  0  0  0  0
    8.2363   35.8621   24.7888 H   0  0  0  0  0
    9.2935   33.9230   25.4364 H   0  0  0  0  0
   10.0250   32.4135   27.2036 H   0  0  0  0  0
    9.1485   34.7854   32.5472 H   0  0  0  0  0
   10.5250   31.3064   28.8052 H   0  0  0  0  0
   10.7713   31.1426   30.5470 H   0  0  0  0  0
    1.4877   36.8764   28.9574 H   0  0  0  0  0
    2.2964   35.3604   29.2612 H   0  0  0  0  0
    0.3485   34.0778   28.4795 H   0  0  0  0  0
    2.6736   34.0889   22.8277 H   0  0  0  0  0
    3.8708   35.4062   22.7772 H   0  0  0  0  0
    4.1858   33.9539   23.7584 H   0  0  0  0  0
  1  9  4  0  0  0
 23  1  4  0  0  0
  1 24  1  0  0  0
  2  4  1  0  0  0
  2  5  1  0  0  0
 25  2  1  0  0  0
  3  8  4  0  0  0
 22  3  4  0  0  0
  3 25  1  0  0  0
  5  4  1  0  0  0
 21  6  1  0  0  0
  7 11  1  0  0  0
 16  7  1  0  0  0
  7 48  1  0  0  0
  8  9  4  0  0  0
 10 12  4  0  0  0
 31 10  4  0  0  0
 11 28  1  0  0  0
 12 34  4  0  0  0
 12 38  4  0  0  0
 13 14  1  0  0  0
 30 13  1  0  0  0
 13 40  1  0  0  0
 14 15  4  0  0  0
 14 19  4  0  0  0
 15 16  4  0  0  0
 16 17  4  0  0  0
 18 17  4  0  0  0
 17 42  1  0  0  0
 19 18  4  0  0  0
 21 20  1  0  0  0
 20 22  1  0  0  0
 40 21  1  0  0  0
 22 23  4  0  0  0
 28 24  1  0  0  0
 25 26  2  0  0  0
 25 27  2  0  0  0
 28 29  2  0  0  0
 30 31  1  0  0  0
 31 32  4  0  0  0
 32 33  4  0  0  0
 33 34  4  0  0  0
 34 35  4  0  0  0
 35 36  4  0  0  0
 35 39  1  0  0  0
 36 37  4  0  0  0
 37 38  4  0  0  0
 38 43  1  0  0  0
 40 41  2  0  0  0
 42 44  1  0  0  0
 44 45  1  0  0  0
 45 46  1  0  0  0
 45 47  1  0  0  0
  2 49  1  0  0  0
  4 50  1  0  0  0
  4 51  1  0  0  0
  5 52  1  0  0  0
  5 53  1  0  0  0
  6 54  1  0  0  0
  6 55  1  0  0  0
  6 56  1  0  0  0
  7 57  1  0  0  0
  8 58  1  0  0  0
  9 59  1  0  0  0
 10 60  1  0  0  0
 11 61  1  0  0  0
 11 62  1  0  0  0
 13 63  1  0  0  0
 15 64  1  0  0  0
 18 65  1  0  0  0
 19 66  1  0  0  0
 20 67  1  0  0  0
 20 68  1  0  0  0
 23 69  1  0  0  0
 24 70  1  0  0  0
 30 71  1  0  0  0
 32 72  1  0  0  0
 33 73  1  0  0  0
 37 74  1  0  0  0
 39 75  1  0  0  0
 39 76  1  0  0  0
 44 77  1  0  0  0
 44 78  1  0  0  0
 45 79  1  0  0  0
 48 80  1  0  0  0
 48 81  1  0  0  0
 48 82  1  0  0  0
M  END
$$$$
