4cpx_ligand
  -I-interpret- 

108111  0  0  0  0  0  0  0  0999 V2000
    9.0030   25.6560    1.9760 C   0  0  0  0  0
   10.2710   25.1990    2.3140 C   0  0  0  0  0
   10.4210   23.9590    2.9200 C   0  0  0  0  0
   11.6560   23.5920    3.4420 C   0  0  0  0  0
    9.2990   23.1680    3.1590 C   0  0  0  0  0
    8.0350   23.6110    2.7840 C   0  0  0  0  0
    7.8800   24.8790    2.2360 C   0  0  0  0  0
    6.6290   25.3360    1.8300 C   0  0  0  0  0
    5.6240   24.9080    2.6950 C   0  0  0  0  0
    5.3100   25.5880    3.8710 C   0  0  0  0  0
    6.1580   26.5490    4.4160 C   0  0  0  0  0
    7.1270   25.8720    5.3020 N   0  0  0  0  0
    8.3080   26.5170    5.6800 C   0  0  0  0  0
    8.5600   27.6200    5.2010 O   0  0  0  0  0
    9.2690   25.8210    6.4140 C   0  0  0  0  0
    9.5760   26.6030    7.6980 C   0  0  0  0  0
   10.5400   25.8030    8.5790 C   0  0  0  0  0
    8.2720   26.8480    8.4680 C   0  0  0  0  0
   10.4890   25.6640    5.5750 N   0  0  0  0  0
   11.1680   24.4480    5.5150 C   0  0  0  0  0
   10.6680   23.4840    6.0960 O   0  0  0  0  0
   12.1710   24.2790    4.5430 C   0  0  0  0  0
   12.6200   25.5620    4.1010 O   0  0  0  0  0
   13.3710   23.5120    5.1150 C   0  0  0  0  0
   13.7950   24.1240    6.4560 C   0  0  0  0  0
   15.2450   23.7350    6.7650 C   0  0  0  0  0
   15.3620   22.3190    7.1540 N   0  3  0  0  0
   15.9370   21.7250    6.2770 N   0  0  0  0  0
   15.3040   20.6970    5.6810 C   0  0  0  0  0
   14.2220   20.2590    6.0700 O   0  0  0  0  0
   16.2240   19.8510    4.7810 C   0  0  0  0  0
   15.4800   19.1790    3.6170 C   0  0  0  0  0
   14.6120   20.1990    2.8710 C   0  0  0  0  0
   16.5140   18.6040    2.6520 C   0  0  0  0  0
   14.6050   18.0370    4.1430 C   0  0  0  0  0
   16.8610   18.8060    5.5920 N   0  0  0  0  0
   18.1850   18.7800    5.7670 C   0  0  0  0  0
   18.9000   19.5630    5.1420 O   0  0  0  0  0
   18.7300   17.9150    6.6670 O   0  0  0  0  0
   20.1590   17.9380    6.5590 C   0  0  0  0  0
   16.0870   22.2620    8.2760 C   0  0  0  0  0
   16.3600   20.9960    8.7970 C   0  0  0  0  0
   17.6720   20.5440    8.8780 C   0  0  0  0  0
   17.9570   19.3070    9.4450 C   0  0  0  0  0
   15.3310   20.1950    9.2850 C   0  0  0  0  0
   15.6130   18.9360    9.8090 C   0  0  0  0  0
   16.9260   18.4800    9.8730 C   0  0  0  0  0
   16.8770   15.5780   11.8750 C   0  0  0  0  0
   16.4580   16.7850   11.4330 C   0  0  0  0  0
   17.2140   17.3150   10.4580 C   0  0  0  0  0
   18.1060   16.1150    9.7130 S   0  0  0  0  0
   17.7440   14.8990   11.0040 C   0  0  0  0  0
    8.8880   26.6314    1.5033 H   0  0  0  0  0
   11.1466   25.8132    2.1036 H   0  0  0  0  0
   12.3649   23.7889    2.6378 H   0  0  0  0  0
   11.5134   22.5710    3.7960 H   0  0  0  0  0
    9.4124   22.1975    3.6421 H   0  0  0  0  0
    7.1676   22.9650    2.9196 H   0  0  0  0  0
    6.4219   24.9387    0.8364 H   0  0  0  0  0
    6.6430   26.4259    1.8291 H   0  0  0  0  0
    5.0625   24.0084    2.4430 H   0  0  0  0  0
    4.3728   25.3607    4.3790 H   0  0  0  0  0
    5.5788   27.2761    4.9852 H   0  0  0  0  0
    6.6859   27.0736    3.6196 H   0  0  0  0  0
    6.9333   24.9292    5.6396 H   0  0  0  0  0
    8.9065   24.8311    6.6911 H   0  0  0  0  0
   10.0355   27.5559    7.4354 H   0  0  0  0  0
   10.0842   24.8479    8.8398 H   0  0  0  0  0
   11.4676   25.6276    8.0341 H   0  0  0  0  0
   10.7519   26.3661    9.4879 H   0  0  0  0  0
    7.5865   27.4230    7.8455 H   0  0  0  0  0
    7.8171   25.8910    8.7234 H   0  0  0  0  0
    8.4892   27.4035    9.3803 H   0  0  0  0  0
   10.8333   26.4585    5.0358 H   0  0  0  0  0
   13.3046   25.4491    3.4375 H   0  0  0  0  0
   14.2032   23.5741    4.4138 H   0  0  0  0  0
   13.0898   22.4703    5.2695 H   0  0  0  0  0
   13.1440   23.7499    7.2462 H   0  0  0  0  0
   13.7161   25.2097    6.3991 H   0  0  0  0  0
   15.5940   24.3480    7.5960 H   0  0  0  0  0
   15.8406   23.8931    5.8659 H   0  0  0  0  0
   14.4429   21.9027    7.3032 H   0  0  0  0  0
   16.8791   21.9942    5.9936 H   0  0  0  0  0
   16.9589   20.5316    4.3510 H   0  0  0  0  0
   13.8816   20.6248    3.5590 H   0  0  0  0  0
   15.2456   20.9926    2.4748 H   0  0  0  0  0
   14.0939   19.7023    2.0507 H   0  0  0  0  0
   17.1457   19.4090    2.2764 H   0  0  0  0  0
   17.1291   17.8715    3.1747 H   0  0  0  0  0
   16.0028   18.1225    1.8184 H   0  0  0  0  0
   15.2338   17.2989    4.6409 H   0  0  0  0  0
   13.8784   18.4345    4.8516 H   0  0  0  0  0
   14.0823   17.5679    3.3094 H   0  0  0  0  0
   16.2831   18.0881    6.0290 H   0  0  0  0  0
   20.4508   17.6418    5.5514 H   0  0  0  0  0
   20.5213   18.9458    6.7620 H   0  0  0  0  0
   20.5879   17.2439    7.2817 H   0  0  0  0  0
   15.4959   22.7731    9.0360 H   0  0  0  0  0
   17.0559   22.6930    8.0239 H   0  0  0  0  0
   18.4827   21.1635    8.4945 H   0  0  0  0  0
   18.9926   18.9850    9.5541 H   0  0  0  0  0
   14.3023   20.5542    9.2568 H   0  0  0  0  0
   14.8013   18.3048   10.1707 H   0  0  0  0  0
   16.5656   15.1638   12.8339 H   0  0  0  0  0
   15.5781   17.2870   11.8353 H   0  0  0  0  0
   17.9203   18.0087   10.9140 H   0  0  0  0  0
   17.2977   13.9894   10.6020 H   0  0  0  0  0
   18.6454   14.5492   11.5072 H   0  0  0  0  0
  2  1  4  0  0  0
  1  7  4  0  0  0
  3  2  4  0  0  0
  4  3  1  0  0  0
  3  5  4  0  0  0
 22  4  1  0  0  0
  5  6  4  0  0  0
  6  7  4  0  0  0
  7  8  1  0  0  0
  8  9  1  0  0  0
 10  9  2  0  0  0
 11 10  1  0  0  0
 12 11  1  0  0  0
 13 12  1  0  0  0
 13 14  2  0  0  0
 15 13  1  0  0  0
 15 16  1  0  0  0
 19 15  1  0  0  0
 16 17  1  0  0  0
 16 18  1  0  0  0
 20 19  1  0  0  0
 20 21  2  0  0  0
 22 20  1  0  0  0
 22 23  1  0  0  0
 24 22  1  0  0  0
 25 24  1  0  0  0
 26 25  1  0  0  0
 27 26  1  0  0  0
 27 28  1  0  0  0
 41 27  1  0  0  0
 28 29  1  0  0  0
 29 30  2  0  0  0
 29 31  1  0  0  0
 31 32  1  0  0  0
 31 36  1  0  0  0
 32 33  1  0  0  0
 32 34  1  0  0  0
 32 35  1  0  0  0
 36 37  1  0  0  0
 37 38  2  0  0  0
 37 39  1  0  0  0
 39 40  1  0  0  0
 42 41  1  0  0  0
 43 42  4  0  0  0
 45 42  4  0  0  0
 44 43  4  0  0  0
 47 44  4  0  0  0
 46 45  4  0  0  0
 47 46  4  0  0  0
 50 47  1  0  0  0
 49 48  2  0  0  0
 48 52  1  0  0  0
 49 50  1  0  0  0
 50 51  1  0  0  0
 51 52  1  0  0  0
  1 53  1  0  0  0
  2 54  1  0  0  0
  4 55  1  0  0  0
  4 56  1  0  0  0
  5 57  1  0  0  0
  6 58  1  0  0  0
  8 59  1  0  0  0
  8 60  1  0  0  0
  9 61  1  0  0  0
 10 62  1  0  0  0
 11 63  1  0  0  0
 11 64  1  0  0  0
 12 65  1  0  0  0
 15 66  1  0  0  0
 16 67  1  0  0  0
 17 68  1  0  0  0
 17 69  1  0  0  0
 17 70  1  0  0  0
 18 71  1  0  0  0
 18 72  1  0  0  0
 18 73  1  0  0  0
 19 74  1  0  0  0
 23 75  1  0  0  0
 24 76  1  0  0  0
 24 77  1  0  0  0
 25 78  1  0  0  0
 25 79  1  0  0  0
 26 80  1  0  0  0
 26 81  1  0  0  0
 27 82  1  0  0  0
 28 83  1  0  0  0
 31 84  1  0  0  0
 33 85  1  0  0  0
 33 86  1  0  0  0
 33 87  1  0  0  0
 34 88  1  0  0  0
 34 89  1  0  0  0
 34 90  1  0  0  0
 35 91  1  0  0  0
 35 92  1  0  0  0
 35 93  1  0  0  0
 36 94  1  0  0  0
 40 95  1  0  0  0
 40 96  1  0  0  0
 40 97  1  0  0  0
 41 98  1  0  0  0
 41 99  1  0  0  0
 43100  1  0  0  0
 44101  1  0  0  0
 45102  1  0  0  0
 46103  1  0  0  0
 48104  1  0  0  0
 49105  1  0  0  0
 50106  1  0  0  0
 52107  1  0  0  0
 52108  1  0  0  0
M  END
$$$$
