5ug8_ligand
  -I-interpret- 

 56 59  0  0  0  0  0  0  0  0999 V2000
  -15.0170   16.8630  -25.8240 C   0  0  0  0  0
  -13.2780   16.0040  -27.3730 C   0  0  0  0  0
  -13.3460   13.6350  -27.8120 C   0  0  0  0  0
  -11.6860   15.1020  -28.7310 C   0  0  0  0  0
  -10.5940   15.0140  -29.5490 N   0  0  0  0  0
  -10.4750   13.6790  -29.8950 C   0  0  0  0  0
   -9.7540   16.1600  -29.9430 C   0  0  0  0  0
   -8.3040   15.7750  -30.2900 C   0  0  0  0  0
  -15.9450   12.9230  -26.1370 C   0  0  0  0  0
  -18.0080   12.5190  -24.7810 C   0  0  0  0  0
  -14.0410   18.1580  -21.6300 C   0  0  0  0  0
  -15.2510   18.2580  -25.2380 C   0  0  0  0  0
  -14.6040   19.1860  -26.2470 C   0  0  0  0  0
  -13.3840   18.4120  -26.7340 C   0  0  0  0  0
  -13.8590   17.0450  -26.6900 N   0  0  0  0  0
  -13.8400   14.7730  -27.2160 N   0  0  0  0  0
  -12.1870   13.8010  -28.6220 C   0  0  0  0  0
  -12.1790   16.2270  -28.1450 N   0  0  0  0  0
  -11.4160   12.9290  -29.3560 N   0  0  0  0  0
  -10.3700   16.9000  -31.1340 C   0  0  0  0  0
  -13.9800   12.3900  -27.6100 N   0  0  0  0  0
  -15.1060   12.0990  -26.8760 C   0  0  0  0  0
  -16.9070   12.1160  -25.6210 N   0  0  0  0  0
  -16.7670   10.8240  -25.9590 N   0  0  0  0  0
  -15.6680   10.8200  -26.7250 C   0  0  0  0  0
  -15.4690   19.3650  -27.2880 F   0  0  0  0  0
  -14.5500   18.3780  -23.9550 N   0  0  0  0  0
  -15.0180   17.8510  -22.7590 C   0  0  0  0  0
  -14.3920   17.5020  -20.3030 C   0  0  0  0  0
  -16.0730   17.2210  -22.6190 O   0  0  0  0  0
  -15.8860   16.4863  -26.3636 H   0  0  0  0  0
  -14.8475   16.1104  -25.0539 H   0  0  0  0  0
   -9.6891   13.2902  -30.5425 H   0  0  0  0  0
   -9.7180   16.8077  -29.0670 H   0  0  0  0  0
   -8.3012   15.1284  -31.1675 H   0  0  0  0  0
   -7.7302   16.6776  -30.5003 H   0  0  0  0  0
   -7.8578   15.2475  -29.4470 H   0  0  0  0  0
  -15.8502   14.0001  -25.9992 H   0  0  0  0  0
  -17.6203   12.9715  -23.8683 H   0  0  0  0  0
  -18.6238   13.2434  -25.3140 H   0  0  0  0  0
  -18.6090   11.6456  -24.5281 H   0  0  0  0  0
  -14.0633   19.2361  -21.4707 H   0  0  0  0  0
  -13.0686   17.7695  -21.9327 H   0  0  0  0  0
  -16.3052   18.4744  -25.0648 H   0  0  0  0  0
  -14.3471   20.1623  -25.8360 H   0  0  0  0  0
  -12.4947   18.5802  -26.1266 H   0  0  0  0  0
  -13.0435   18.7196  -27.7227 H   0  0  0  0  0
   -9.7893   17.7988  -31.3415 H   0  0  0  0  0
  -10.3603   16.2497  -32.0087 H   0  0  0  0  0
  -11.3973   17.1764  -30.8965 H   0  0  0  0  0
  -13.5413   11.5944  -28.0736 H   0  0  0  0  0
  -15.2542    9.9211  -27.1821 H   0  0  0  0  0
  -13.6625   18.8805  -23.9408 H   0  0  0  0  0
  -15.3741   17.8453  -19.9780 H   0  0  0  0  0
  -14.4069   16.4192  -20.4272 H   0  0  0  0  0
  -13.6455   17.7731  -19.5564 H   0  0  0  0  0
 12  1  1  0  0  0
  1 15  1  0  0  0
 15  2  1  0  0  0
  2 16  4  0  0  0
  2 18  4  0  0  0
 16  3  4  0  0  0
  3 17  4  0  0  0
  3 21  1  0  0  0
  4  5  4  0  0  0
  4 17  4  0  0  0
 18  4  4  0  0  0
  5  6  4  0  0  0
  5  7  1  0  0  0
 19  6  4  0  0  0
  7  8  1  0  0  0
  7 20  1  0  0  0
 22  9  4  0  0  0
  9 23  4  0  0  0
 23 10  1  0  0  0
 28 11  1  0  0  0
 11 29  1  0  0  0
 12 13  1  0  0  0
 27 12  1  0  0  0
 13 14  1  0  0  0
 13 26  1  0  0  0
 14 15  1  0  0  0
 17 19  4  0  0  0
 21 22  1  0  0  0
 22 25  4  0  0  0
 24 23  4  0  0  0
 25 24  4  0  0  0
 27 28  1  0  0  0
 28 30  2  0  0  0
  1 31  1  0  0  0
  1 32  1  0  0  0
  6 33  1  0  0  0
  7 34  1  0  0  0
  8 35  1  0  0  0
  8 36  1  0  0  0
  8 37  1  0  0  0
  9 38  1  0  0  0
 10 39  1  0  0  0
 10 40  1  0  0  0
 10 41  1  0  0  0
 11 42  1  0  0  0
 11 43  1  0  0  0
 12 44  1  0  0  0
 13 45  1  0  0  0
 14 46  1  0  0  0
 14 47  1  0  0  0
 20 48  1  0  0  0
 20 49  1  0  0  0
 20 50  1  0  0  0
 21 51  1  0  0  0
 25 52  1  0  0  0
 27 53  1  0  0  0
 29 54  1  0  0  0
 29 55  1  0  0  0
 29 56  1  0  0  0
M  END
$$$$
