4k76_ligand
  -I-interpret- 

145147  0  0  0  0  0  0  0  0999 V2000
   33.6390    0.6830   30.1150 N   0  3  0  0  0
   32.9380    1.5330   31.0710 C   0  0  0  0  0
   33.8370    1.9030   32.2500 C   0  0  0  0  0
   33.4390    1.7800   33.4120 O   0  0  0  0  0
   31.6550    0.8520   31.5580 C   0  0  0  0  0
   31.9210   -0.4060   32.1610 O   0  0  0  0  0
   35.0420    2.3740   31.9380 N   0  0  0  0  0
   36.0350    2.7030   32.9590 C   0  0  0  0  0
   35.6550    3.9540   33.7540 C   0  0  0  0  0
   35.9210    4.0420   34.9560 O   0  0  0  0  0
   37.4220    2.8720   32.3260 C   0  0  0  0  0
   38.0270    1.5820   31.7730 C   0  0  0  0  0
   39.1750    1.8610   30.8050 C   0  0  0  0  0
   40.3630    2.4040   31.4630 N   0  0  0  0  0
   41.4750    2.7480   30.8180 C   0  0  0  0  0
   41.5520    2.6070   29.5040 N   0  0  0  0  0
   42.5110    3.2370   31.4830 N   0  0  0  0  0
   35.0140    4.9080   33.0830 N   0  0  0  0  0
   34.6190    6.1680   33.7070 C   0  0  0  0  0
   33.1050    6.3460   33.6020 C   0  0  0  0  0
   32.4390    5.5480   32.9520 O   0  0  0  0  0
   35.3320    7.3350   33.0210 C   0  0  0  0  0
   36.7950    7.1210   32.8660 C   0  0  0  0  0
   37.7650    7.3030   33.8120 C   0  0  0  0  0
   37.4650    6.6920   31.6810 C   0  0  0  0  0
   39.0030    7.0060   33.2820 N   0  0  0  0  0
   38.8430    6.6210   31.9750 C   0  0  0  0  0
   37.0300    6.3470   30.3970 C   0  0  0  0  0
   39.7920    6.2250   31.0270 C   0  0  0  0  0
   37.9700    5.9500   29.4590 C   0  0  0  0  0
   39.3350    5.8960   29.7780 C   0  0  0  0  0
   32.5560    7.3870   34.2480 N   0  0  0  0  0
   31.1070    7.6210   34.1940 C   0  0  0  0  0
   30.6170    7.8270   32.7580 C   0  0  0  0  0
   31.3470    8.3920   31.9370 O   0  0  0  0  0
   30.9300    8.9190   34.9900 C   0  0  0  0  0
   32.1310    8.9760   35.8980 C   0  0  0  0  0
   33.2450    8.3830   35.0870 C   0  0  0  0  0
   29.4070    7.3660   32.4610 N   0  0  0  0  0
   28.8710    7.4970   31.1150 C   0  0  0  0  0
   27.5460    8.2410   31.1320 C   0  0  0  0  0
   26.7950    8.1880   32.1080 O   0  0  0  0  0
   28.7000    6.1250   30.4180 C   0  0  0  0  0
   27.5520    5.4530   30.9420 O   0  0  0  0  0
   29.9300    5.2560   30.6350 C   0  0  0  0  0
   27.2690    8.9490   30.0460 N   0  0  0  0  0
   26.0370    9.6960   29.9250 C   0  0  0  0  0
   25.4080    9.3830   28.5790 C   0  0  0  0  0
   26.0730    9.4320   27.5370 O   0  0  0  0  0
   26.2790   11.2080   30.0280 C   0  0  0  0  0
   26.8470   11.5200   31.3080 O   0  0  0  0  0
   24.9750   11.9610   29.8570 C   0  0  0  0  0
   24.1250    9.0500   28.5970 N   0  0  0  0  0
   23.4060    8.8220   27.3510 C   0  0  0  0  0
   22.8470   10.1400   26.8090 C   0  0  0  0  0
   22.2440   10.9260   27.5460 O   0  0  0  0  0
   22.2950    7.7900   27.5570 C   0  0  0  0  0
   21.5880    7.3950   26.2780 C   0  0  0  0  0
   20.7910    6.1170   26.4710 C   0  0  0  0  0
   20.0950    5.7230   25.2500 N   0  0  0  0  0
   19.4790    4.5580   25.0900 C   0  0  0  0  0
   19.4780    3.6700   26.0740 N   0  0  0  0  0
   18.8680    4.2790   23.9460 N   0  0  0  0  0
   23.0660   10.3850   25.5220 N   0  0  0  0  0
   22.6820   11.6400   24.8890 C   0  0  0  0  0
   21.8120   11.3850   23.6780 C   0  0  0  0  0
   21.7930   10.2780   23.1380 O   0  0  0  0  0
   23.9190   12.3890   24.4130 C   0  0  0  0  0
   24.9410   12.8390   25.4460 C   0  0  0  0  0
   26.1630   13.3530   24.7160 C   0  0  0  0  0
   24.3510   13.9120   26.3380 C   0  0  0  0  0
   21.1370   12.2980   23.2070 O   0  0  0  0  0
   34.4888    1.1531   29.8032 H   0  0  0  0  0
   33.8825   -0.2007   30.5623 H   0  0  0  0  0
   33.0341    0.5044   29.3134 H   0  0  0  0  0
   32.6658    2.4567   30.5603 H   0  0  0  0  0
   31.0062    0.6888   30.6975 H   0  0  0  0  0
   31.1868    1.4962   32.3022 H   0  0  0  0  0
   31.0959   -0.8007   32.4525 H   0  0  0  0  0
   35.2801    2.5097   30.9555 H   0  0  0  0  0
   36.0628    1.8694   33.6608 H   0  0  0  0  0
   38.0900    3.2271   33.1108 H   0  0  0  0  0
   37.3082    3.5570   31.4858 H   0  0  0  0  0
   37.2482    1.0430   31.2335 H   0  0  0  0  0
   38.4180    1.0019   32.6089 H   0  0  0  0  0
   38.8278    2.6022   30.0851 H   0  0  0  0  0
   39.4561    0.9143   30.3437 H   0  0  0  0  0
   40.3377    2.5261   32.4753 H   0  0  0  0  0
   40.7579    2.2340   28.9837 H   0  0  0  0  0
   43.3595    3.5015   30.9825 H   0  0  0  0  0
   42.4603    3.3490   32.4956 H   0  0  0  0  0
   34.7911    4.7540   32.0997 H   0  0  0  0  0
   34.9024    6.1496   34.7593 H   0  0  0  0  0
   35.1925    8.2184   33.6441 H   0  0  0  0  0
   34.9068    7.4399   32.0228 H   0  0  0  0  0
   37.5861    7.6342   34.8349 H   0  0  0  0  0
   35.9718    6.3896   30.1391 H   0  0  0  0  0
   40.8531    6.1799   31.2721 H   0  0  0  0  0
   37.6430    5.6750   28.4562 H   0  0  0  0  0
   40.0484    5.5852   29.0147 H   0  0  0  0  0
   30.5407    6.7763   34.5863 H   0  0  0  0  0
   29.9951    8.9287   35.5503 H   0  0  0  0  0
   30.8702    9.7910   34.3388 H   0  0  0  0  0
   31.9667    8.4296   36.8268 H   0  0  0  0  0
   32.3547    9.9945   36.2154 H   0  0  0  0  0
   33.7815    9.1287   34.5002 H   0  0  0  0  0
   34.0277    7.9433   35.7052 H   0  0  0  0  0
   28.8475    6.9151   33.1849 H   0  0  0  0  0
   29.5967    8.0722   30.5401 H   0  0  0  0  0
   28.5710    6.2977   29.3495 H   0  0  0  0  0
   27.4526    4.6038   30.5054 H   0  0  0  0  0
   30.8048    5.7566   30.2200 H   0  0  0  0  0
   30.0751    5.0941   31.7031 H   0  0  0  0  0
   29.7882    4.2969   30.1368 H   0  0  0  0  0
   27.9403    8.9672   29.2783 H   0  0  0  0  0
   25.3761    9.4048   30.7414 H   0  0  0  0  0
   26.9684   11.5081   29.2389 H   0  0  0  0  0
   26.9967   12.4663   31.3683 H   0  0  0  0  0
   24.5510   11.7332   28.8790 H   0  0  0  0  0
   24.2766   11.6574   30.6369 H   0  0  0  0  0
   25.1628   13.0320   29.9325 H   0  0  0  0  0
   23.6386    8.9529   29.4883 H   0  0  0  0  0
   24.1006    8.4231   26.6117 H   0  0  0  0  0
   21.5513    8.2383   28.2158 H   0  0  0  0  0
   22.7564    6.8910   27.9658 H   0  0  0  0  0
   22.3351    7.2281   25.5020 H   0  0  0  0  0
   20.9040    8.1949   25.9945 H   0  0  0  0  0
   20.0472    6.2911   27.2485 H   0  0  0  0  0
   21.4824    5.3198   26.7438 H   0  0  0  0  0
   20.0811    6.3829   24.4724 H   0  0  0  0  0
   19.9502    3.8821   26.9529 H   0  0  0  0  0
   18.3981    3.3819   23.8243 H   0  0  0  0  0
   18.8681    4.9616   23.1881 H   0  0  0  0  0
   23.5198    9.6681   24.9559 H   0  0  0  0  0
   22.1362   12.2260   25.6285 H   0  0  0  0  0
   22.3667    9.6781   23.6202 H   0  0  0  0  0
   23.5401   13.3095   23.9688 H   0  0  0  0  0
   24.4512   11.6824   23.7762 H   0  0  0  0  0
   25.2237   12.0014   26.0837 H   0  0  0  0  0
   26.5796   12.5552   24.1011 H   0  0  0  0  0
   25.8791   14.1923   24.0811 H   0  0  0  0  0
   26.9073   13.6804   25.4419 H   0  0  0  0  0
   24.0587   14.7681   25.7298 H   0  0  0  0  0
   23.4761   13.5145   26.8524 H   0  0  0  0  0
   25.0952   14.2228   27.0713 H   0  0  0  0  0
  1  2  1  0  0  0
  2  3  1  0  0  0
  2  5  1  0  0  0
  3  4  2  0  0  0
  3  7  1  0  0  0
  5  6  1  0  0  0
  7  8  1  0  0  0
  8  9  1  0  0  0
  8 11  1  0  0  0
  9 10  2  0  0  0
  9 18  1  0  0  0
 11 12  1  0  0  0
 12 13  1  0  0  0
 13 14  1  0  0  0
 14 15  1  0  0  0
 15 16  2  0  0  0
 15 17  1  0  0  0
 18 19  1  0  0  0
 19 20  1  0  0  0
 19 22  1  0  0  0
 20 21  2  0  0  0
 20 32  1  0  0  0
 22 23  1  0  0  0
 23 24  4  0  0  0
 23 25  4  0  0  0
 24 26  4  0  0  0
 25 27  4  0  0  0
 25 28  4  0  0  0
 26 27  4  0  0  0
 27 29  4  0  0  0
 28 30  4  0  0  0
 29 31  4  0  0  0
 30 31  4  0  0  0
 32 33  1  0  0  0
 32 38  1  0  0  0
 33 34  1  0  0  0
 33 36  1  0  0  0
 34 35  2  0  0  0
 34 39  1  0  0  0
 36 37  1  0  0  0
 37 38  1  0  0  0
 39 40  1  0  0  0
 40 41  1  0  0  0
 40 43  1  0  0  0
 41 42  2  0  0  0
 41 46  1  0  0  0
 43 44  1  0  0  0
 43 45  1  0  0  0
 46 47  1  0  0  0
 47 48  1  0  0  0
 47 50  1  0  0  0
 48 49  2  0  0  0
 48 53  1  0  0  0
 50 51  1  0  0  0
 50 52  1  0  0  0
 53 54  1  0  0  0
 54 55  1  0  0  0
 54 57  1  0  0  0
 55 56  2  0  0  0
 55 64  1  0  0  0
 57 58  1  0  0  0
 58 59  1  0  0  0
 59 60  1  0  0  0
 60 61  1  0  0  0
 61 62  2  0  0  0
 61 63  1  0  0  0
 64 65  1  0  0  0
 65 66  1  0  0  0
 65 68  1  0  0  0
 66 67  1  0  0  0
 66 72  2  0  0  0
 68 69  1  0  0  0
 69 70  1  0  0  0
 69 71  1  0  0  0
  1 73  1  0  0  0
  1 74  1  0  0  0
  1 75  1  0  0  0
  2 76  1  0  0  0
  5 77  1  0  0  0
  5 78  1  0  0  0
  6 79  1  0  0  0
  7 80  1  0  0  0
  8 81  1  0  0  0
 11 82  1  0  0  0
 11 83  1  0  0  0
 12 84  1  0  0  0
 12 85  1  0  0  0
 13 86  1  0  0  0
 13 87  1  0  0  0
 14 88  1  0  0  0
 16 89  1  0  0  0
 17 90  1  0  0  0
 17 91  1  0  0  0
 18 92  1  0  0  0
 19 93  1  0  0  0
 22 94  1  0  0  0
 22 95  1  0  0  0
 24 96  1  0  0  0
 28 97  1  0  0  0
 29 98  1  0  0  0
 30 99  1  0  0  0
 31100  1  0  0  0
 33101  1  0  0  0
 36102  1  0  0  0
 36103  1  0  0  0
 37104  1  0  0  0
 37105  1  0  0  0
 38106  1  0  0  0
 38107  1  0  0  0
 39108  1  0  0  0
 40109  1  0  0  0
 43110  1  0  0  0
 44111  1  0  0  0
 45112  1  0  0  0
 45113  1  0  0  0
 45114  1  0  0  0
 46115  1  0  0  0
 47116  1  0  0  0
 50117  1  0  0  0
 51118  1  0  0  0
 52119  1  0  0  0
 52120  1  0  0  0
 52121  1  0  0  0
 53122  1  0  0  0
 54123  1  0  0  0
 57124  1  0  0  0
 57125  1  0  0  0
 58126  1  0  0  0
 58127  1  0  0  0
 59128  1  0  0  0
 59129  1  0  0  0
 60130  1  0  0  0
 62131  1  0  0  0
 63132  1  0  0  0
 63133  1  0  0  0
 64134  1  0  0  0
 65135  1  0  0  0
 67136  1  0  0  0
 68137  1  0  0  0
 68138  1  0  0  0
 69139  1  0  0  0
 70140  1  0  0  0
 70141  1  0  0  0
 70142  1  0  0  0
 71143  1  0  0  0
 71144  1  0  0  0
 71145  1  0  0  0
M  END
$$$$
