### 
### Created by X-TOOL on Mon Sep 10 21:13:17 2018
### 

@<TRIPOS>MOLECULE
4k76_ligand
  147   149     1     0     0
SMALL
GAST_HUCK


@<TRIPOS>ATOM
      1 N          33.6390    0.6830   30.1150 N.4       1 SER         0.2396
      2 CA         32.9380    1.5330   31.0710 C.3       1 SER         0.0885
      3 C          33.8370    1.9030   32.2500 C.2       1 SER         0.2290
      4 O          33.4390    1.7800   33.4120 O.2       1 SER        -0.3906
      5 CB         31.6550    0.8520   31.5580 C.3       1 SER         0.1041
      6 OG         31.9210   -0.4060   32.1610 O.3       1 SER        -0.3870
      7 N          35.0420    2.3740   31.9380 N.am      1 ARG        -0.2609
      8 CA         36.0350    2.7030   32.9590 C.3       1 ARG         0.1312
      9 C          35.6550    3.9540   33.7540 C.2       1 ARG         0.2040
     10 O          35.9210    4.0420   34.9560 O.2       1 ARG        -0.3944
     11 CB         37.4220    2.8720   32.3260 C.3       1 ARG        -0.0092
     12 CG         38.0270    1.5820   31.7730 C.3       1 ARG        -0.0156
     13 CD         39.1750    1.8610   30.8050 C.3       1 ARG         0.0627
     14 NE         40.3630    2.4040   31.4630 N.pl3     1 ARG        -0.2723
     15 CZ         41.4750    2.7480   30.8180 C.cat     1 ARG         0.2882
     16 NH1        41.5520    2.6070   29.5040 N.pl3     1 ARG        -0.2849
     17 NH2        42.5110    3.2370   31.4830 N.pl3     1 ARG        -0.2849
     18 N          35.0140    4.9080   33.0830 N.am      1 TRP        -0.2627
     19 CA         34.6190    6.1680   33.7070 C.3       1 TRP         0.1354
     20 C          33.1050    6.3460   33.6020 C.2       1 TRP         0.2077
     21 O          32.4390    5.5480   32.9520 O.2       1 TRP        -0.3940
     22 CB         35.3320    7.3350   33.0210 C.3       1 TRP         0.0042
     23 CG         36.7950    7.1210   32.8660 C.2       1 TRP        -0.0418
     24 CD1        37.7650    7.3030   33.8120 C.2       1 TRP         0.0167
     25 CD2        37.4650    6.6920   31.6810 C.ar      1 TRP        -0.0214
     26 NE1        39.0030    7.0060   33.2820 N.pl3     1 TRP        -0.2890
     27 CE2        38.8430    6.6210   31.9750 C.ar      1 TRP         0.0603
     28 CE3        37.0300    6.3470   30.3970 C.ar      1 TRP        -0.0747
     29 CZ2        39.7920    6.2250   31.0270 C.ar      1 TRP        -0.0443
     30 CZ3        37.9700    5.9500   29.4590 C.ar      1 TRP        -0.0792
     31 CH2        39.3350    5.8960   29.7780 C.ar      1 TRP        -0.0768
     32 N          32.5560    7.3870   34.2480 N.am      1 PRO        -0.2497
     33 CA         31.1070    7.6210   34.1940 C.3       1 PRO         0.1338
     34 C          30.6170    7.8270   32.7580 C.2       1 PRO         0.2042
     35 O          31.3470    8.3920   31.9370 O.2       1 PRO        -0.3944
     36 CB         30.9300    8.9190   34.9900 C.3       1 PRO        -0.0104
     37 CG         32.1310    8.9760   35.8980 C.3       1 PRO        -0.0281
     38 CD         33.2450    8.3830   35.0870 C.3       1 PRO         0.0369
     39 N          29.4070    7.3660   32.4610 N.am      1 THR        -0.2613
     40 CA         28.8710    7.4970   31.1150 C.3       1 THR         0.1565
     41 C          27.5460    8.2410   31.1320 C.2       1 THR         0.2065
     42 O          26.7950    8.1880   32.1080 O.2       1 THR        -0.3943
     43 CB         28.7000    6.1250   30.4180 C.3       1 THR         0.0924
     44 OG1        27.5520    5.4530   30.9420 O.3       1 THR        -0.3874
     45 CG2        29.9300    5.2560   30.6350 C.3       1 THR        -0.0346
     46 N          27.2690    8.9490   30.0460 N.am      1 THR        -0.2613
     47 CA         26.0370    9.6960   29.9250 C.3       1 THR         0.1565
     48 C          25.4080    9.3830   28.5790 C.2       1 THR         0.2065
     49 O          26.0730    9.4320   27.5370 O.2       1 THR        -0.3943
     50 CB         26.2790   11.2080   30.0280 C.3       1 THR         0.0924
     51 OG1        26.8470   11.5200   31.3080 O.3       1 THR        -0.3874
     52 CG2        24.9750   11.9610   29.8570 C.3       1 THR        -0.0346
     53 N          24.1250    9.0500   28.5970 N.am      1 ARG        -0.2637
     54 CA         23.4060    8.8220   27.3510 C.3       1 ARG         0.1310
     55 C          22.8470   10.1400   26.8090 C.2       1 ARG         0.2033
     56 O          22.2440   10.9260   27.5460 O.2       1 ARG        -0.3944
     57 CB         22.2950    7.7900   27.5570 C.3       1 ARG        -0.0092
     58 CG         21.5880    7.3950   26.2780 C.3       1 ARG        -0.0156
     59 CD         20.7910    6.1170   26.4710 C.3       1 ARG         0.0627
     60 NE         20.0950    5.7230   25.2500 N.pl3     1 ARG        -0.2723
     61 CZ         19.4790    4.5580   25.0900 C.cat     1 ARG         0.2882
     62 NH1        19.4780    3.6700   26.0740 N.pl3     1 ARG        -0.2849
     63 NH2        18.8680    4.2790   23.9460 N.pl3     1 ARG        -0.2849
     64 N          23.0660   10.3850   25.5220 N.am      1 LEU        -0.2695
     65 CA         22.6820   11.6400   24.8890 C.3       1 LEU         0.0946
     66 C          21.8120   11.3850   23.6780 C.2       1 LEU         0.0601
     67 O          21.7930   10.2780   23.1380 O.co2     1 LEU        -0.5666
     68 CB         23.9190   12.3890   24.4130 C.3       1 LEU        -0.0156
     69 CG         24.9410   12.8390   25.4460 C.3       1 LEU        -0.0431
     70 CD1        26.1630   13.3530   24.7160 C.3       1 LEU        -0.0625
     71 CD2        24.3510   13.9120   26.3380 C.3       1 LEU        -0.0625
     72 OXT        21.1370   12.2980   23.2070 O.co2     1 LEU        -0.5666
     73 H          33.0217    0.4566   29.3510 H         1 SER         0.2016
     74 H          33.9328   -0.1658   30.5724 H         1 SER         0.2016
     75 H          34.4469    1.1708   29.7609 H         1 SER         0.2016
     76 H          32.6561    2.4628   30.5553 H         1 SER         0.1122
     77 H          30.9845    0.7003   30.6993 H         1 SER         0.0640
     78 H          31.1642    1.5036   32.2959 H         1 SER         0.0640
     79 H          32.4955   -0.2829   32.9075 H         1 SER         0.2099
     80 H          35.2755    2.5070   30.9748 H         1 ARG         0.1884
     81 H          36.0822    1.8598   33.6638 H         1 ARG         0.0800
     82 H          38.1033    3.2702   33.0923 H         1 ARG         0.0313
     83 H          37.3373    3.5935   31.5000 H         1 ARG         0.0313
     84 H          37.2436    1.0203   31.2432 H         1 ARG         0.0301
     85 H          38.4070    0.9795   32.6112 H         1 ARG         0.0301
     86 H          38.8300    2.5855   30.0526 H         1 ARG         0.0689
     87 H          39.4502    0.9191   30.3079 H         1 ARG         0.0689
     88 H          40.3375    2.5273   32.4853 H         1 ARG         0.2642
     89 H          42.4138    2.8740   29.0070 H         1 ARG         0.2615
     90 H          40.7501    2.2303   28.9786 H         1 ARG         0.2615
     91 H          42.4598    3.3501   32.5055 H         1 ARG         0.2615
     92 H          43.3678    3.5041   30.9776 H         1 ARG         0.2615
     93 H          34.7954    4.7570   32.1189 H         1 TRP         0.1884
     94 H          34.9049    6.1478   34.7690 H         1 TRP         0.0815
     95 H          35.1737    8.2427   33.6219 H         1 TRP         0.0397
     96 H          34.8919    7.4747   32.0226 H         1 TRP         0.0397
     97 H          37.5863    7.6339   34.8340 H         1 TRP         0.0795
     98 H          39.9001    7.0637   33.7847 H         1 TRP         0.2216
     99 H          35.9776    6.3894   30.1405 H         1 TRP         0.0540
    100 H          40.8473    6.1802   31.2708 H         1 TRP         0.0541
    101 H          37.6448    5.6765   28.4617 H         1 TRP         0.0510
    102 H          40.0444    5.5869   29.0189 H         1 TRP         0.0530
    103 H          30.5571    6.7885   34.6571 H         1 PRO         0.0802
    104 H          30.0004    8.8904   35.5774 H         1 PRO         0.0313
    105 H          30.9114    9.7882   34.3161 H         1 PRO         0.0313
    106 H          31.9573    8.3856   36.8097 H         1 PRO         0.0287
    107 H          32.3614   10.0159   36.1728 H         1 PRO         0.0287
    108 H          33.7340    9.1498   34.4682 H         1 PRO         0.0524
    109 H          33.9929    7.9032   35.7354 H         1 PRO         0.0524
    110 H          28.8584    6.9239   33.1707 H         1 THR         0.1884
    111 H          29.5877    8.0877   30.5255 H         1 THR         0.0826
    112 H          28.5621    6.2884   29.3390 H         1 THR         0.0639
    113 H          26.7785    5.9824   30.7872 H         1 THR         0.2101
    114 H          29.7881    4.2877   30.1327 H         1 THR         0.0257
    115 H          30.0775    5.0918   31.7126 H         1 THR         0.0257
    116 H          30.8136    5.7601   30.2165 H         1 THR         0.0257
    117 H          27.9271    8.9668   29.2933 H         1 THR         0.1884
    118 H          25.3526    9.3895   30.7297 H         1 THR         0.0826
    119 H          26.9786   11.5149   29.2366 H         1 THR         0.0639
    120 H          27.6726   11.0607   31.4073 H         1 THR         0.2101
    121 H          25.1632   13.0421   29.9330 H         1 THR         0.0257
    122 H          24.2693   11.6555   30.6435 H         1 THR         0.0257
    123 H          24.5460   11.7320   28.8703 H         1 THR         0.0257
    124 H          23.6482    8.9548   29.4708 H         1 ARG         0.1883
    125 H          24.1142    8.4201   26.6114 H         1 ARG         0.0800
    126 H          21.5515    8.2131   28.2485 H         1 ARG         0.0313
    127 H          22.7378    6.8869   28.0023 H         1 ARG         0.0313
    128 H          22.3361    7.2367   25.4872 H         1 ARG         0.0301
    129 H          20.9047    8.2038   25.9798 H         1 ARG         0.0301
    130 H          20.0496    6.2765   27.2678 H         1 ARG         0.0689
    131 H          21.4779    5.3099   26.7655 H         1 ARG         0.0689
    132 H          20.0810    6.3894   24.4648 H         1 ARG         0.2642
    133 H          19.0004    2.7657   25.9512 H         1 ARG         0.2615
    134 H          19.9548    3.8842   26.9615 H         1 ARG         0.2615
    135 H          18.8681    4.9683   23.1806 H         1 ARG         0.2615
    136 H          18.3935    3.3731   23.8232 H         1 ARG         0.2615
    137 H          23.5109    9.6821   24.9670 H         1 LEU         0.1875
    138 H          22.1320   12.2557   25.6159 H         1 LEU         0.0726
    139 H          23.5701   13.2906   23.8882 H         1 LEU         0.0308
    140 H          24.4431   11.7316   23.7037 H         1 LEU         0.0308
    141 H          25.2287   11.9798   26.0698 H         1 LEU         0.0297
    142 H          26.9150   13.6837   25.4476 H         1 LEU         0.0232
    143 H          25.8778   14.2001   24.0749 H         1 LEU         0.0232
    144 H          26.5845   12.5488   24.0951 H         1 LEU         0.0232
    145 H          23.4662   13.5129   26.8556 H         1 LEU         0.0232
    146 H          24.0582   14.7777   25.7258 H         1 LEU         0.0232
    147 H          25.1001   14.2245   27.0804 H         1 LEU         0.0232
@<TRIPOS>BOND
     1    1    2 1  
     2    2    3 1  
     3    2    5 1  
     4    3    4 2  
     5    3    7 am 
     6    5    6 1  
     7    7    8 1  
     8    8    9 1  
     9    8   11 1  
    10    9   10 2  
    11    9   18 am 
    12   11   12 1  
    13   12   13 1  
    14   13   14 1  
    15   14   15 ar 
    16   15   16 ar 
    17   15   17 ar 
    18   18   19 1  
    19   19   20 1  
    20   19   22 1  
    21   20   21 2  
    22   20   32 am 
    23   22   23 1  
    24   23   24 2  
    25   23   25 1  
    26   24   26 1  
    27   25   27 ar 
    28   25   28 ar 
    29   26   27 1  
    30   27   29 ar 
    31   28   30 ar 
    32   29   31 ar 
    33   30   31 ar 
    34   32   33 1  
    35   32   38 1  
    36   33   34 1  
    37   33   36 1  
    38   34   35 2  
    39   34   39 am 
    40   36   37 1  
    41   37   38 1  
    42   39   40 1  
    43   40   41 1  
    44   40   43 1  
    45   41   42 2  
    46   41   46 am 
    47   43   44 1  
    48   43   45 1  
    49   46   47 1  
    50   47   48 1  
    51   47   50 1  
    52   48   49 2  
    53   48   53 am 
    54   50   51 1  
    55   50   52 1  
    56   53   54 1  
    57   54   55 1  
    58   54   57 1  
    59   55   56 2  
    60   55   64 am 
    61   57   58 1  
    62   58   59 1  
    63   59   60 1  
    64   60   61 ar 
    65   61   62 ar 
    66   61   63 ar 
    67   64   65 1  
    68   65   66 1  
    69   65   68 1  
    70   66   67 ar 
    71   66   72 ar 
    72   68   69 1  
    73   69   70 1  
    74   69   71 1  
    75    1   73 1  
    76    1   74 1  
    77    1   75 1  
    78    2   76 1  
    79    5   77 1  
    80    5   78 1  
    81    6   79 1  
    82    7   80 1  
    83    8   81 1  
    84   11   82 1  
    85   11   83 1  
    86   12   84 1  
    87   12   85 1  
    88   13   86 1  
    89   13   87 1  
    90   14   88 1  
    91   16   89 1  
    92   16   90 1  
    93   17   91 1  
    94   17   92 1  
    95   18   93 1  
    96   19   94 1  
    97   22   95 1  
    98   22   96 1  
    99   24   97 1  
   100   26   98 1  
   101   28   99 1  
   102   29  100 1  
   103   30  101 1  
   104   31  102 1  
   105   33  103 1  
   106   36  104 1  
   107   36  105 1  
   108   37  106 1  
   109   37  107 1  
   110   38  108 1  
   111   38  109 1  
   112   39  110 1  
   113   40  111 1  
   114   43  112 1  
   115   44  113 1  
   116   45  114 1  
   117   45  115 1  
   118   45  116 1  
   119   46  117 1  
   120   47  118 1  
   121   50  119 1  
   122   51  120 1  
   123   52  121 1  
   124   52  122 1  
   125   52  123 1  
   126   53  124 1  
   127   54  125 1  
   128   57  126 1  
   129   57  127 1  
   130   58  128 1  
   131   58  129 1  
   132   59  130 1  
   133   59  131 1  
   134   60  132 1  
   135   62  133 1  
   136   62  134 1  
   137   63  135 1  
   138   63  136 1  
   139   64  137 1  
   140   65  138 1  
   141   68  139 1  
   142   68  140 1  
   143   69  141 1  
   144   70  142 1  
   145   70  143 1  
   146   70  144 1  
   147   71  145 1  
   148   71  146 1  
   149   71  147 1  
@<TRIPOS>SUBSTRUCTURE
     1 SER         1

