### 
### Created by X-TOOL on Mon Sep 10 21:13:07 2018
### 

@<TRIPOS>MOLECULE
3twx_ligand
  188   189     1     0     0
SMALL
GAST_HUCK


@<TRIPOS>ATOM
      1 N         -32.4460  -13.5520  -55.6260 N.4       1 GLN         0.2380
      2 CA        -32.8090  -12.2560  -55.0610 C.3       1 GLN         0.0671
      3 C         -31.5890  -11.3740  -54.7720 C.2       1 GLN         0.2269
      4 O         -30.4410  -11.7570  -55.0060 O.2       1 GLN        -0.3907
      5 CB        -33.6220  -12.4380  -53.7740 C.3       1 GLN         0.0247
      6 CG        -34.9380  -13.1790  -53.9470 C.3       1 GLN         0.0443
      7 CD        -36.0130  -12.3230  -54.5850 C.2       1 GLN         0.1738
      8 OE1       -35.7300  -11.2700  -55.1570 O.2       1 GLN        -0.3973
      9 NE2       -37.2600  -12.7680  -54.4830 N.am      1 GLN        -0.3009
     10 N         -31.8630  -10.1870  -54.2470 N.am      1 ARG        -0.2610
     11 CA        -30.8310   -9.2180  -53.9100 C.3       1 ARG         0.1312
     12 C         -30.2190   -9.5530  -52.5530 C.2       1 ARG         0.2039
     13 O         -30.9200   -9.6120  -51.5470 O.2       1 ARG        -0.3944
     14 CB        -31.4560   -7.8230  -53.8810 C.3       1 ARG        -0.0092
     15 CG        -30.5030   -6.7060  -53.5660 C.3       1 ARG        -0.0156
     16 CD        -31.1830   -5.3520  -53.6930 C.3       1 ARG         0.0627
     17 NE        -30.2010   -4.2900  -53.5400 N.pl3     1 ARG        -0.2723
     18 CZ        -29.8390   -3.7670  -52.3750 C.cat     1 ARG         0.2882
     19 NH1       -30.3990   -4.1880  -51.2430 N.pl3     1 ARG        -0.2849
     20 NH2       -28.9160   -2.8150  -52.3450 N.pl3     1 ARG        -0.2849
     21 N         -28.9120   -9.7760  -52.5140 N.am      1 GLU        -0.2636
     22 CA        -28.2690  -10.1350  -51.2600 C.3       1 GLU         0.1325
     23 C         -27.4780   -8.9610  -50.6950 C.2       1 GLU         0.2041
     24 O         -27.1570   -8.0240  -51.4150 O.2       1 GLU        -0.3944
     25 CB        -27.3680  -11.3550  -51.4550 C.3       1 GLU        -0.0008
     26 CG        -28.1000  -12.5780  -51.9720 C.3       1 GLU         0.0044
     27 CD        -27.2090  -13.8040  -52.0110 C.2       1 GLU         0.0350
     28 OE1       -25.9710  -13.6420  -51.9380 O.co2     1 GLU        -0.5690
     29 OE2       -27.7430  -14.9280  -52.1040 O.co2     1 GLU        -0.5690
     30 N         -27.1680   -9.0140  -49.4060 N.am      1 SER        -0.2616
     31 CA        -26.4710   -7.9050  -48.7390 C.3       1 SER         0.1541
     32 C         -25.0300   -7.7260  -49.2180 C.2       1 SER         0.2087
     33 O         -24.3840   -8.6760  -49.6360 O.2       1 SER        -0.3941
     34 CB        -26.4920   -8.1020  -47.2220 C.3       1 SER         0.0843
     35 OG        -25.7950   -9.2810  -46.8670 O.3       1 SER        -0.3903
     36 N         -24.5080   -6.4940  -49.1390 N.am      1 PRO        -0.2498
     37 CA        -23.1220   -6.2760  -49.5630 C.3       1 PRO         0.1338
     38 C         -22.1610   -7.0370  -48.6400 C.2       1 PRO         0.2042
     39 O         -22.5360   -7.3670  -47.5040 O.2       1 PRO        -0.3944
     40 CB        -22.9260   -4.7580  -49.3720 C.3       1 PRO        -0.0104
     41 CG        -24.2870   -4.1950  -49.0850 C.3       1 PRO        -0.0281
     42 CD        -25.1040   -5.3000  -48.5200 C.3       1 PRO         0.0369
     43 N         -20.9440   -7.3060  -49.1030 N.am      1 ASP        -0.2622
     44 CA        -19.9030   -7.7950  -48.1930 C.3       1 ASP         0.1423
     45 C         -19.5950   -6.7410  -47.1300 C.2       1 ASP         0.2054
     46 O         -19.3450   -5.5770  -47.4460 O.2       1 ASP        -0.3943
     47 CB        -18.6330   -8.1670  -48.9610 C.3       1 ASP         0.0406
     48 CG        -18.7240   -9.5380  -49.5950 C.2       1 ASP         0.0393
     49 OD1       -19.2720  -10.4500  -48.9400 O.co2     1 ASP        -0.5688
     50 OD2       -18.2640   -9.6990  -50.7420 O.co2     1 ASP        -0.5688
     51 N         -19.6230   -7.1450  -45.8630 N.am      1 GLY        -0.2663
     52 CA        -19.3080   -6.2290  -44.7810 C.3       1 GLY         0.1201
     53 C         -20.0790   -6.5630  -43.5180 C.2       1 GLY         0.2007
     54 O         -20.7770   -7.5840  -43.4590 O.2       1 GLY        -0.3947
     55 N         -19.9210   -5.7270  -42.5000 N.am      1 GLN        -0.2638
     56 CA        -20.7050   -5.8460  -41.2790 C.3       1 GLN         0.1330
     57 C         -20.6870   -4.5290  -40.5100 C.2       1 GLN         0.2041
     58 O         -19.7950   -3.6990  -40.6990 O.2       1 GLN        -0.3944
     59 CB        -20.2190   -7.0100  -40.4030 C.3       1 GLN         0.0045
     60 CG        -18.8440   -6.8130  -39.7800 C.3       1 GLN         0.0412
     61 CD        -18.3180   -8.0920  -39.1230 C.2       1 GLN         0.1737
     62 OE1       -18.5300   -9.1910  -39.6300 O.2       1 GLN        -0.3973
     63 NE2       -17.6330   -7.9480  -37.9920 N.am      1 GLN        -0.3009
     64 N         -21.6810   -4.3410  -39.6510 N.am      1 SER        -0.2616
     65 CA        -21.8830   -3.0480  -39.0220 C.3       1 SER         0.1539
     66 C         -20.8400   -2.7500  -37.9580 C.2       1 SER         0.2063
     67 O         -20.4180   -1.6020  -37.7990 O.2       1 SER        -0.3943
     68 CB        -23.2840   -2.9710  -38.4210 C.3       1 SER         0.0843
     69 OG        -24.2540   -3.0830  -39.4390 O.3       1 SER        -0.3903
     70 N         -20.4580   -3.7710  -37.2020 N.am      1 PHE        -0.2619
     71 CA        -19.5560   -3.5580  -36.0780 C.3       1 PHE         0.1404
     72 C         -18.2970   -4.3770  -36.2360 C.2       1 PHE         0.2060
     73 O         -18.3510   -5.5560  -36.5930 O.2       1 PHE        -0.3942
     74 CB        -20.2470   -3.8980  -34.7580 C.3       1 PHE         0.0214
     75 CG        -21.4330   -3.0210  -34.4620 C.ar      1 PHE        -0.0386
     76 CD1       -21.2500   -1.7090  -34.0760 C.ar      1 PHE        -0.0601
     77 CD2       -22.7260   -3.4940  -34.6140 C.ar      1 PHE        -0.0601
     78 CE1       -22.3250   -0.8850  -33.8010 C.ar      1 PHE        -0.0686
     79 CE2       -23.8110   -2.6710  -34.3460 C.ar      1 PHE        -0.0686
     80 CZ        -23.6040   -1.3620  -33.9380 C.ar      1 PHE        -0.0687
     81 N         -17.1670   -3.7430  -35.9640 N.am      1 ARG        -0.2636
     82 CA        -15.8830   -4.4070  -36.0510 C.3       1 ARG         0.1311
     83 C         -15.8060   -5.5240  -35.0120 C.2       1 ARG         0.2040
     84 O         -15.2120   -6.5700  -35.2660 O.2       1 ARG        -0.3944
     85 CB        -14.7340   -3.4100  -35.8960 C.3       1 ARG        -0.0092
     86 CG        -14.5320   -2.5330  -37.1310 C.3       1 ARG        -0.0156
     87 CD        -14.5200   -1.0270  -36.7620 C.3       1 ARG         0.0627
     88 NE        -13.2230   -0.6200  -36.2690 N.pl3     1 ARG        -0.2723
     89 CZ        -12.9790    0.4880  -35.5710 C.cat     1 ARG         0.2882
     90 NH1       -11.7480    0.7490  -35.1730 N.pl3     1 ARG        -0.2849
     91 NH2       -13.9560    1.3350  -35.2740 N.pl3     1 ARG        -0.2849
     92 N         -16.4360   -5.3240  -33.8560 N.am      1 SET        -0.2616
     93 CA        -16.3800   -6.3510  -32.7940 C.3       1 SET         0.1536
     94 CB        -16.7120   -5.7670  -31.4200 C.3       1 SET         0.0843
     95 OG        -18.0380   -5.2470  -31.4440 O.3       1 SET        -0.3903
     96 NT        -17.2240   -8.5560  -32.3610 N.am      1 SET        -0.2989
     97 C         -17.3640   -7.4960  -33.1350 C.2       1 SET         0.2015
     98 O         -18.2020   -7.4120  -34.0400 O.2       1 SET        -0.3947
     99 H         -31.9066  -13.4102  -56.4800 H         1 GLN         0.2015
    100 H         -31.8851  -14.0710  -54.9504 H         1 GLN         0.2015
    101 H         -33.2935  -14.0772  -55.8410 H         1 GLN         0.2015
    102 H         -33.4130  -11.7495  -55.8138 H         1 GLN         0.1100
    103 H         -33.8675  -11.4395  -53.4123 H         1 GLN         0.0370
    104 H         -33.0109  -13.0346  -53.0967 H         1 GLN         0.0370
    105 H         -35.2884  -13.4733  -52.9577 H         1 GLN         0.0506
    106 H         -34.7578  -14.0319  -54.6013 H         1 GLN         0.0506
    107 H         -38.0276  -12.2316  -54.8874 H         1 GLN         0.1814
    108 H         -37.4502  -13.6462  -54.0003 H         1 GLN         0.1814
    109 H         -32.8379   -9.9433  -54.0722 H         1 ARG         0.1884
    110 H         -30.0387   -9.2478  -54.6579 H         1 ARG         0.0800
    111 H         -32.2046   -7.8303  -53.0887 H         1 ARG         0.0313
    112 H         -31.8447   -7.6319  -54.8812 H         1 ARG         0.0313
    113 H         -29.6734   -6.7466  -54.2718 H         1 ARG         0.0301
    114 H         -30.1534   -6.8253  -52.5405 H         1 ARG         0.0301
    115 H         -31.9414   -5.2557  -52.9160 H         1 ARG         0.0689
    116 H         -31.6480   -5.2735  -54.6757 H         1 ARG         0.0689
    117 H         -29.7614   -3.9228  -54.3840 H         1 ARG         0.2642
    118 H         -31.1116   -4.9174  -51.2670 H         1 ARG         0.2615
    119 H         -30.1155   -3.7812  -50.3517 H         1 ARG         0.2615
    120 H         -28.4901   -2.4901  -53.2130 H         1 ARG         0.2615
    121 H         -28.6321   -2.4078  -51.4539 H         1 ARG         0.2615
    122 H         -28.3566   -9.6955  -53.3657 H         1 GLU         0.1883
    123 H         -29.0451  -10.3905  -50.5385 H         1 GLU         0.0801
    124 H         -26.9525  -11.6120  -50.4806 H         1 GLU         0.0330
    125 H         -26.6150  -11.0885  -52.1967 H         1 GLU         0.0330
    126 H         -28.4344  -12.3690  -52.9882 H         1 GLU         0.0433
    127 H         -28.9325  -12.7848  -51.2994 H         1 GLU         0.0433
    128 H         -27.4188   -9.8423  -48.8662 H         1 SER         0.1884
    129 H         -27.0103   -6.9960  -49.0054 H         1 SER         0.0823
    130 H         -27.5266   -8.1881  -46.8899 H         1 SER         0.0606
    131 H         -26.0093   -7.2480  -46.7468 H         1 SER         0.0606
    132 H         -24.8837   -9.2135  -47.1611 H         1 SER         0.2097
    133 H         -22.9292   -6.6164  -50.5804 H         1 PRO         0.0802
    134 H         -22.4910   -4.3022  -50.2615 H         1 PRO         0.0313
    135 H         -22.2339   -4.5500  -48.5560 H         1 PRO         0.0313
    136 H         -24.7427   -3.8049  -49.9951 H         1 PRO         0.0287
    137 H         -24.2206   -3.3656  -48.3809 H         1 PRO         0.0287
    138 H         -25.0817   -5.3305  -47.4307 H         1 PRO         0.0524
    139 H         -26.1672   -5.1954  -48.7362 H         1 PRO         0.0524
    140 H         -20.7342   -7.1721  -50.0922 H         1 ASP         0.1884
    141 H         -20.2739   -8.6941  -47.7009 H         1 ASP         0.0819
    142 H         -17.8022   -8.1759  -48.2554 H         1 ASP         0.0478
    143 H         -18.4935   -7.4356  -49.7570 H         1 ASP         0.0478
    144 H         -19.8691   -8.1113  -45.6485 H         1 GLY         0.1881
    145 H         -19.5827   -5.2216  -45.0939 H         1 GLY         0.0763
    146 H         -18.2429   -6.3088  -44.5635 H         1 GLY         0.0763
    147 H         -19.2307   -4.9798  -42.5749 H         1 GLN         0.1883
    148 H         -21.7346   -6.0685  -41.5593 H         1 GLN         0.0801
    149 H         -20.1498   -7.8843  -41.0502 H         1 GLN         0.0337
    150 H         -20.9278   -7.1029  -39.5801 H         1 GLN         0.0337
    151 H         -18.9273   -6.0459  -39.0101 H         1 GLN         0.0504
    152 H         -18.1507   -6.5285  -40.5715 H         1 GLN         0.0504
    153 H         -17.2617   -8.7682  -37.5127 H         1 GLN         0.1814
    154 H         -17.4790   -7.0173  -37.6040 H         1 GLN         0.1814
    155 H         -22.3099   -5.1132  -39.4303 H         1 SER         0.1884
    156 H         -21.7745   -2.2911  -39.7988 H         1 SER         0.0823
    157 H         -23.4046   -2.0129  -37.9154 H         1 SER         0.0606
    158 H         -23.4143   -3.7875  -37.7108 H         1 SER         0.0606
    159 H         -25.1307   -3.0334  -39.0510 H         1 SER         0.2097
    160 H         -20.7977   -4.7103  -37.4088 H         1 PHE         0.1885
    161 H         -19.2809   -2.5034  -36.0636 H         1 PHE         0.0823
    162 H         -19.5207   -3.7496  -33.9589 H         1 PHE         0.0474
    163 H         -20.6069   -4.9244  -34.8301 H         1 PHE         0.0474
    164 H         -20.2378   -1.3147  -33.9862 H         1 PHE         0.0557
    165 H         -22.8924   -4.5188  -34.9461 H         1 PHE         0.0557
    166 H         -22.1570    0.1417  -33.4759 H         1 PHE         0.0599
    167 H         -24.8257   -3.0536  -34.4562 H         1 PHE         0.0599
    168 H         -24.4547   -0.7141  -33.7268 H         1 PHE         0.0559
    169 H         -17.2017   -2.7622  -35.6862 H         1 ARG         0.1883
    170 H         -15.7833   -4.8529  -37.0406 H         1 ARG         0.0800
    171 H         -13.8184   -3.9807  -35.7413 H         1 ARG         0.0313
    172 H         -14.9747   -2.7541  -35.0593 H         1 ARG         0.0313
    173 H         -15.3563   -2.7130  -37.8211 H         1 ARG         0.0301
    174 H         -13.5721   -2.7861  -37.5812 H         1 ARG         0.0301
    175 H         -15.2594   -0.8544  -35.9800 H         1 ARG         0.0689
    176 H         -14.7498   -0.4477  -37.6563 H         1 ARG         0.0689
    177 H         -12.4314   -1.2303  -36.4720 H         1 ARG         0.2642
    178 H         -10.9910    0.1042  -35.4003 H         1 ARG         0.2615
    179 H         -11.5536    1.5955  -34.6382 H         1 ARG         0.2615
    180 H         -14.9093    1.1418  -35.5809 H         1 ARG         0.2615
    181 H         -13.7538    2.1794  -34.7387 H         1 ARG         0.2615
    182 H         -16.9579   -4.4611  -33.7030 H         1 SET         0.1884
    183 H         -15.3613   -6.7361  -32.7479 H         1 SET         0.0823
    184 H         -16.0090   -4.9691  -31.1806 H         1 SET         0.0606
    185 H         -16.6370   -6.5465  -30.6618 H         1 SET         0.0606
    186 H         -18.6538   -5.9532  -31.6532 H         1 SET         0.2097
    187 H         -17.8275   -9.3675  -32.4935 H         1 SET         0.1815
    188 H         -16.5123   -8.5636  -31.6304 H         1 SET         0.1815
@<TRIPOS>BOND
     1    1    2 1  
     2    2    3 1  
     3    2    5 1  
     4    3    4 2  
     5    3   10 am 
     6    5    6 1  
     7    6    7 1  
     8    7    8 2  
     9    7    9 am 
    10   10   11 1  
    11   11   12 1  
    12   11   14 1  
    13   12   13 2  
    14   12   21 am 
    15   14   15 1  
    16   15   16 1  
    17   16   17 1  
    18   17   18 ar 
    19   18   19 ar 
    20   18   20 ar 
    21   21   22 1  
    22   22   23 1  
    23   22   25 1  
    24   23   24 2  
    25   23   30 am 
    26   25   26 1  
    27   26   27 1  
    28   27   28 ar 
    29   27   29 ar 
    30   30   31 1  
    31   31   32 1  
    32   31   34 1  
    33   32   33 2  
    34   32   36 am 
    35   34   35 1  
    36   36   37 1  
    37   36   42 1  
    38   37   38 1  
    39   37   40 1  
    40   38   39 2  
    41   38   43 am 
    42   40   41 1  
    43   41   42 1  
    44   43   44 1  
    45   44   45 1  
    46   44   47 1  
    47   45   46 2  
    48   45   51 am 
    49   47   48 1  
    50   48   49 ar 
    51   48   50 ar 
    52   51   52 1  
    53   52   53 1  
    54   53   54 2  
    55   53   55 am 
    56   55   56 1  
    57   56   57 1  
    58   56   59 1  
    59   57   58 2  
    60   57   64 am 
    61   59   60 1  
    62   60   61 1  
    63   61   62 2  
    64   61   63 am 
    65   64   65 1  
    66   65   66 1  
    67   65   68 1  
    68   66   67 2  
    69   66   70 am 
    70   68   69 1  
    71   70   71 1  
    72   71   72 1  
    73   71   74 1  
    74   72   73 2  
    75   72   81 am 
    76   74   75 1  
    77   75   76 ar 
    78   75   77 ar 
    79   76   78 ar 
    80   77   79 ar 
    81   78   80 ar 
    82   79   80 ar 
    83   81   82 1  
    84   82   83 1  
    85   82   85 1  
    86   83   84 2  
    87   83   92 am 
    88   85   86 1  
    89   86   87 1  
    90   87   88 1  
    91   88   89 ar 
    92   89   90 ar 
    93   89   91 ar 
    94   92   93 1  
    95   93   94 1  
    96   93   97 1  
    97   94   95 1  
    98   97   96 am 
    99   97   98 2  
   100    1   99 1  
   101    1  100 1  
   102    1  101 1  
   103    2  102 1  
   104    5  103 1  
   105    5  104 1  
   106    6  105 1  
   107    6  106 1  
   108    9  107 1  
   109    9  108 1  
   110   10  109 1  
   111   11  110 1  
   112   14  111 1  
   113   14  112 1  
   114   15  113 1  
   115   15  114 1  
   116   16  115 1  
   117   16  116 1  
   118   17  117 1  
   119   19  118 1  
   120   19  119 1  
   121   20  120 1  
   122   20  121 1  
   123   21  122 1  
   124   22  123 1  
   125   25  124 1  
   126   25  125 1  
   127   26  126 1  
   128   26  127 1  
   129   30  128 1  
   130   31  129 1  
   131   34  130 1  
   132   34  131 1  
   133   35  132 1  
   134   37  133 1  
   135   40  134 1  
   136   40  135 1  
   137   41  136 1  
   138   41  137 1  
   139   42  138 1  
   140   42  139 1  
   141   43  140 1  
   142   44  141 1  
   143   47  142 1  
   144   47  143 1  
   145   51  144 1  
   146   52  145 1  
   147   52  146 1  
   148   55  147 1  
   149   56  148 1  
   150   59  149 1  
   151   59  150 1  
   152   60  151 1  
   153   60  152 1  
   154   63  153 1  
   155   63  154 1  
   156   64  155 1  
   157   65  156 1  
   158   68  157 1  
   159   68  158 1  
   160   69  159 1  
   161   70  160 1  
   162   71  161 1  
   163   74  162 1  
   164   74  163 1  
   165   76  164 1  
   166   77  165 1  
   167   78  166 1  
   168   79  167 1  
   169   80  168 1  
   170   81  169 1  
   171   82  170 1  
   172   85  171 1  
   173   85  172 1  
   174   86  173 1  
   175   86  174 1  
   176   87  175 1  
   177   87  176 1  
   178   88  177 1  
   179   90  178 1  
   180   90  179 1  
   181   91  180 1  
   182   91  181 1  
   183   92  182 1  
   184   93  183 1  
   185   94  184 1  
   186   94  185 1  
   187   95  186 1  
   188   96  187 1  
   189   96  188 1  
@<TRIPOS>SUBSTRUCTURE
     1 GLN         1

