3twx_ligand
  -I-interpret- 

188189  0  0  0  0  0  0  0  0999 V2000
  -32.4460  -13.5520  -55.6260 N   0  3  0  0  0
  -32.8090  -12.2560  -55.0610 C   0  0  0  0  0
  -31.5890  -11.3740  -54.7720 C   0  0  0  0  0
  -30.4410  -11.7570  -55.0060 O   0  0  0  0  0
  -33.6220  -12.4380  -53.7740 C   0  0  0  0  0
  -34.9380  -13.1790  -53.9470 C   0  0  0  0  0
  -36.0130  -12.3230  -54.5850 C   0  0  0  0  0
  -35.7300  -11.2700  -55.1570 O   0  0  0  0  0
  -37.2600  -12.7680  -54.4830 N   0  0  0  0  0
  -31.8630  -10.1870  -54.2470 N   0  0  0  0  0
  -30.8310   -9.2180  -53.9100 C   0  0  0  0  0
  -30.2190   -9.5530  -52.5530 C   0  0  0  0  0
  -30.9200   -9.6120  -51.5470 O   0  0  0  0  0
  -31.4560   -7.8230  -53.8810 C   0  0  0  0  0
  -30.5030   -6.7060  -53.5660 C   0  0  0  0  0
  -31.1830   -5.3520  -53.6930 C   0  0  0  0  0
  -30.2010   -4.2900  -53.5400 N   0  0  0  0  0
  -29.8390   -3.7670  -52.3750 C   0  0  0  0  0
  -30.3990   -4.1880  -51.2430 N   0  0  0  0  0
  -28.9160   -2.8150  -52.3450 N   0  0  0  0  0
  -28.9120   -9.7760  -52.5140 N   0  0  0  0  0
  -28.2690  -10.1350  -51.2600 C   0  0  0  0  0
  -27.4780   -8.9610  -50.6950 C   0  0  0  0  0
  -27.1570   -8.0240  -51.4150 O   0  0  0  0  0
  -27.3680  -11.3550  -51.4550 C   0  0  0  0  0
  -28.1000  -12.5780  -51.9720 C   0  0  0  0  0
  -27.2090  -13.8040  -52.0110 C   0  0  0  0  0
  -25.9710  -13.6420  -51.9380 O   0  0  0  0  0
  -27.7430  -14.9280  -52.1040 O   0  0  0  0  0
  -27.1680   -9.0140  -49.4060 N   0  0  0  0  0
  -26.4710   -7.9050  -48.7390 C   0  0  0  0  0
  -25.0300   -7.7260  -49.2180 C   0  0  0  0  0
  -24.3840   -8.6760  -49.6360 O   0  0  0  0  0
  -26.4920   -8.1020  -47.2220 C   0  0  0  0  0
  -25.7950   -9.2810  -46.8670 O   0  0  0  0  0
  -24.5080   -6.4940  -49.1390 N   0  0  0  0  0
  -23.1220   -6.2760  -49.5630 C   0  0  0  0  0
  -22.1610   -7.0370  -48.6400 C   0  0  0  0  0
  -22.5360   -7.3670  -47.5040 O   0  0  0  0  0
  -22.9260   -4.7580  -49.3720 C   0  0  0  0  0
  -24.2870   -4.1950  -49.0850 C   0  0  0  0  0
  -25.1040   -5.3000  -48.5200 C   0  0  0  0  0
  -20.9440   -7.3060  -49.1030 N   0  0  0  0  0
  -19.9030   -7.7950  -48.1930 C   0  0  0  0  0
  -19.5950   -6.7410  -47.1300 C   0  0  0  0  0
  -19.3450   -5.5770  -47.4460 O   0  0  0  0  0
  -18.6330   -8.1670  -48.9610 C   0  0  0  0  0
  -18.7240   -9.5380  -49.5950 C   0  0  0  0  0
  -19.2720  -10.4500  -48.9400 O   0  0  0  0  0
  -18.2640   -9.6990  -50.7420 O   0  0  0  0  0
  -19.6230   -7.1450  -45.8630 N   0  0  0  0  0
  -19.3080   -6.2290  -44.7810 C   0  0  0  0  0
  -20.0790   -6.5630  -43.5180 C   0  0  0  0  0
  -20.7770   -7.5840  -43.4590 O   0  0  0  0  0
  -19.9210   -5.7270  -42.5000 N   0  0  0  0  0
  -20.7050   -5.8460  -41.2790 C   0  0  0  0  0
  -20.6870   -4.5290  -40.5100 C   0  0  0  0  0
  -19.7950   -3.6990  -40.6990 O   0  0  0  0  0
  -20.2190   -7.0100  -40.4030 C   0  0  0  0  0
  -18.8440   -6.8130  -39.7800 C   0  0  0  0  0
  -18.3180   -8.0920  -39.1230 C   0  0  0  0  0
  -18.5300   -9.1910  -39.6300 O   0  0  0  0  0
  -17.6330   -7.9480  -37.9920 N   0  0  0  0  0
  -21.6810   -4.3410  -39.6510 N   0  0  0  0  0
  -21.8830   -3.0480  -39.0220 C   0  0  0  0  0
  -20.8400   -2.7500  -37.9580 C   0  0  0  0  0
  -20.4180   -1.6020  -37.7990 O   0  0  0  0  0
  -23.2840   -2.9710  -38.4210 C   0  0  0  0  0
  -24.2540   -3.0830  -39.4390 O   0  0  0  0  0
  -20.4580   -3.7710  -37.2020 N   0  0  0  0  0
  -19.5560   -3.5580  -36.0780 C   0  0  0  0  0
  -18.2970   -4.3770  -36.2360 C   0  0  0  0  0
  -18.3510   -5.5560  -36.5930 O   0  0  0  0  0
  -20.2470   -3.8980  -34.7580 C   0  0  0  0  0
  -21.4330   -3.0210  -34.4620 C   0  0  0  0  0
  -21.2500   -1.7090  -34.0760 C   0  0  0  0  0
  -22.7260   -3.4940  -34.6140 C   0  0  0  0  0
  -22.3250   -0.8850  -33.8010 C   0  0  0  0  0
  -23.8110   -2.6710  -34.3460 C   0  0  0  0  0
  -23.6040   -1.3620  -33.9380 C   0  0  0  0  0
  -17.1670   -3.7430  -35.9640 N   0  0  0  0  0
  -15.8830   -4.4070  -36.0510 C   0  0  0  0  0
  -15.8060   -5.5240  -35.0120 C   0  0  0  0  0
  -15.2120   -6.5700  -35.2660 O   0  0  0  0  0
  -14.7340   -3.4100  -35.8960 C   0  0  0  0  0
  -14.5320   -2.5330  -37.1310 C   0  0  0  0  0
  -14.5200   -1.0270  -36.7620 C   0  0  0  0  0
  -13.2230   -0.6200  -36.2690 N   0  0  0  0  0
  -12.9790    0.4880  -35.5710 C   0  0  0  0  0
  -11.7480    0.7490  -35.1730 N   0  0  0  0  0
  -13.9560    1.3350  -35.2740 N   0  0  0  0  0
  -16.4360   -5.3240  -33.8560 N   0  0  0  0  0
  -16.3800   -6.3510  -32.7940 C   0  0  0  0  0
  -16.7120   -5.7670  -31.4200 C   0  0  0  0  0
  -18.0380   -5.2470  -31.4440 O   0  0  0  0  0
  -17.2240   -8.5560  -32.3610 N   0  0  0  0  0
  -17.3640   -7.4960  -33.1350 C   0  0  0  0  0
  -18.2020   -7.4120  -34.0400 O   0  0  0  0  0
  -31.9066  -13.4102  -56.4800 H   0  0  0  0  0
  -31.8851  -14.0710  -54.9504 H   0  0  0  0  0
  -33.2935  -14.0772  -55.8410 H   0  0  0  0  0
  -33.4130  -11.7495  -55.8138 H   0  0  0  0  0
  -33.8675  -11.4395  -53.4123 H   0  0  0  0  0
  -33.0109  -13.0346  -53.0967 H   0  0  0  0  0
  -35.2884  -13.4733  -52.9577 H   0  0  0  0  0
  -34.7578  -14.0319  -54.6013 H   0  0  0  0  0
  -38.0276  -12.2316  -54.8874 H   0  0  0  0  0
  -37.4502  -13.6462  -54.0003 H   0  0  0  0  0
  -32.8379   -9.9433  -54.0722 H   0  0  0  0  0
  -30.0387   -9.2478  -54.6579 H   0  0  0  0  0
  -32.2046   -7.8303  -53.0887 H   0  0  0  0  0
  -31.8447   -7.6319  -54.8812 H   0  0  0  0  0
  -29.6734   -6.7466  -54.2718 H   0  0  0  0  0
  -30.1534   -6.8253  -52.5405 H   0  0  0  0  0
  -31.9414   -5.2557  -52.9160 H   0  0  0  0  0
  -31.6480   -5.2735  -54.6757 H   0  0  0  0  0
  -29.7614   -3.9228  -54.3840 H   0  0  0  0  0
  -30.1183   -3.7784  -50.3520 H   0  0  0  0  0
  -31.1088   -4.9202  -51.2666 H   0  0  0  0  0
  -28.4901   -2.4901  -53.2130 H   0  0  0  0  0
  -28.3566   -9.6955  -53.3657 H   0  0  0  0  0
  -29.0451  -10.3905  -50.5385 H   0  0  0  0  0
  -26.9525  -11.6120  -50.4806 H   0  0  0  0  0
  -26.6150  -11.0885  -52.1967 H   0  0  0  0  0
  -28.4344  -12.3690  -52.9882 H   0  0  0  0  0
  -28.9325  -12.7848  -51.2994 H   0  0  0  0  0
  -25.7754  -12.7044  -51.8732 H   0  0  0  0  0
  -27.4188   -9.8423  -48.8662 H   0  0  0  0  0
  -27.0103   -6.9960  -49.0054 H   0  0  0  0  0
  -27.5266   -8.1881  -46.8899 H   0  0  0  0  0
  -26.0093   -7.2480  -46.7468 H   0  0  0  0  0
  -25.8175   -9.3898  -45.9135 H   0  0  0  0  0
  -22.9292   -6.6164  -50.5804 H   0  0  0  0  0
  -22.4910   -4.3022  -50.2615 H   0  0  0  0  0
  -22.2339   -4.5500  -48.5560 H   0  0  0  0  0
  -24.7427   -3.8049  -49.9951 H   0  0  0  0  0
  -24.2206   -3.3656  -48.3809 H   0  0  0  0  0
  -25.0817   -5.3305  -47.4307 H   0  0  0  0  0
  -26.1672   -5.1954  -48.7362 H   0  0  0  0  0
  -20.7342   -7.1721  -50.0922 H   0  0  0  0  0
  -20.2739   -8.6941  -47.7009 H   0  0  0  0  0
  -17.8022   -8.1759  -48.2554 H   0  0  0  0  0
  -18.4935   -7.4356  -49.7570 H   0  0  0  0  0
  -19.5505  -10.1073  -48.0876 H   0  0  0  0  0
  -19.8691   -8.1113  -45.6485 H   0  0  0  0  0
  -19.5827   -5.2216  -45.0939 H   0  0  0  0  0
  -18.2429   -6.3088  -44.5635 H   0  0  0  0  0
  -19.2307   -4.9798  -42.5749 H   0  0  0  0  0
  -21.7346   -6.0685  -41.5593 H   0  0  0  0  0
  -20.1498   -7.8843  -41.0502 H   0  0  0  0  0
  -20.9278   -7.1029  -39.5801 H   0  0  0  0  0
  -18.9273   -6.0459  -39.0101 H   0  0  0  0  0
  -18.1507   -6.5285  -40.5715 H   0  0  0  0  0
  -17.2617   -8.7682  -37.5127 H   0  0  0  0  0
  -17.4790   -7.0173  -37.6040 H   0  0  0  0  0
  -22.3099   -5.1132  -39.4303 H   0  0  0  0  0
  -21.7745   -2.2911  -39.7988 H   0  0  0  0  0
  -23.4046   -2.0129  -37.9154 H   0  0  0  0  0
  -23.4143   -3.7875  -37.7108 H   0  0  0  0  0
  -25.1307   -3.0334  -39.0510 H   0  0  0  0  0
  -20.7977   -4.7103  -37.4088 H   0  0  0  0  0
  -19.2809   -2.5034  -36.0636 H   0  0  0  0  0
  -19.5207   -3.7496  -33.9589 H   0  0  0  0  0
  -20.6069   -4.9244  -34.8301 H   0  0  0  0  0
  -20.2378   -1.3147  -33.9862 H   0  0  0  0  0
  -22.8924   -4.5188  -34.9461 H   0  0  0  0  0
  -22.1570    0.1417  -33.4759 H   0  0  0  0  0
  -24.8257   -3.0536  -34.4562 H   0  0  0  0  0
  -24.4547   -0.7141  -33.7268 H   0  0  0  0  0
  -17.2017   -2.7622  -35.6862 H   0  0  0  0  0
  -15.7833   -4.8529  -37.0406 H   0  0  0  0  0
  -13.8184   -3.9807  -35.7413 H   0  0  0  0  0
  -14.9747   -2.7541  -35.0593 H   0  0  0  0  0
  -15.3563   -2.7130  -37.8211 H   0  0  0  0  0
  -13.5721   -2.7861  -37.5812 H   0  0  0  0  0
  -15.2594   -0.8544  -35.9800 H   0  0  0  0  0
  -14.7498   -0.4477  -37.6563 H   0  0  0  0  0
  -12.4314   -1.2303  -36.4720 H   0  0  0  0  0
  -10.9910    0.1042  -35.4003 H   0  0  0  0  0
  -13.7532    2.1810  -34.7416 H   0  0  0  0  0
  -14.9099    1.1402  -35.5781 H   0  0  0  0  0
  -16.9579   -4.4611  -33.7030 H   0  0  0  0  0
  -15.3613   -6.7361  -32.7479 H   0  0  0  0  0
  -16.0090   -4.9691  -31.1806 H   0  0  0  0  0
  -16.6370   -6.5465  -30.6618 H   0  0  0  0  0
  -18.2518   -4.8789  -30.5835 H   0  0  0  0  0
  -17.8275   -9.3675  -32.4935 H   0  0  0  0  0
  -16.5123   -8.5636  -31.6304 H   0  0  0  0  0
  1  2  1  0  0  0
  2  3  1  0  0  0
  2  5  1  0  0  0
  3  4  2  0  0  0
  3 10  1  0  0  0
  5  6  1  0  0  0
  6  7  1  0  0  0
  7  8  2  0  0  0
  7  9  1  0  0  0
 10 11  1  0  0  0
 11 12  1  0  0  0
 11 14  1  0  0  0
 12 13  2  0  0  0
 12 21  1  0  0  0
 14 15  1  0  0  0
 15 16  1  0  0  0
 16 17  1  0  0  0
 17 18  1  0  0  0
 18 19  1  0  0  0
 18 20  2  0  0  0
 21 22  1  0  0  0
 22 23  1  0  0  0
 22 25  1  0  0  0
 23 24  2  0  0  0
 23 30  1  0  0  0
 25 26  1  0  0  0
 26 27  1  0  0  0
 27 28  1  0  0  0
 27 29  2  0  0  0
 30 31  1  0  0  0
 31 32  1  0  0  0
 31 34  1  0  0  0
 32 33  2  0  0  0
 32 36  1  0  0  0
 34 35  1  0  0  0
 36 37  1  0  0  0
 36 42  1  0  0  0
 37 38  1  0  0  0
 37 40  1  0  0  0
 38 39  2  0  0  0
 38 43  1  0  0  0
 40 41  1  0  0  0
 41 42  1  0  0  0
 43 44  1  0  0  0
 44 45  1  0  0  0
 44 47  1  0  0  0
 45 46  2  0  0  0
 45 51  1  0  0  0
 47 48  1  0  0  0
 48 49  1  0  0  0
 48 50  2  0  0  0
 51 52  1  0  0  0
 52 53  1  0  0  0
 53 54  2  0  0  0
 53 55  1  0  0  0
 55 56  1  0  0  0
 56 57  1  0  0  0
 56 59  1  0  0  0
 57 58  2  0  0  0
 57 64  1  0  0  0
 59 60  1  0  0  0
 60 61  1  0  0  0
 61 62  2  0  0  0
 61 63  1  0  0  0
 64 65  1  0  0  0
 65 66  1  0  0  0
 65 68  1  0  0  0
 66 67  2  0  0  0
 66 70  1  0  0  0
 68 69  1  0  0  0
 70 71  1  0  0  0
 71 72  1  0  0  0
 71 74  1  0  0  0
 72 73  2  0  0  0
 72 81  1  0  0  0
 74 75  1  0  0  0
 75 76  4  0  0  0
 75 77  4  0  0  0
 76 78  4  0  0  0
 77 79  4  0  0  0
 78 80  4  0  0  0
 79 80  4  0  0  0
 81 82  1  0  0  0
 82 83  1  0  0  0
 82 85  1  0  0  0
 83 84  2  0  0  0
 83 92  1  0  0  0
 85 86  1  0  0  0
 86 87  1  0  0  0
 87 88  1  0  0  0
 88 89  1  0  0  0
 89 90  2  0  0  0
 89 91  1  0  0  0
 92 93  1  0  0  0
 93 94  1  0  0  0
 93 97  1  0  0  0
 94 95  1  0  0  0
 97 96  1  0  0  0
 97 98  2  0  0  0
  1 99  1  0  0  0
  1100  1  0  0  0
  1101  1  0  0  0
  2102  1  0  0  0
  5103  1  0  0  0
  5104  1  0  0  0
  6105  1  0  0  0
  6106  1  0  0  0
  9107  1  0  0  0
  9108  1  0  0  0
 10109  1  0  0  0
 11110  1  0  0  0
 14111  1  0  0  0
 14112  1  0  0  0
 15113  1  0  0  0
 15114  1  0  0  0
 16115  1  0  0  0
 16116  1  0  0  0
 17117  1  0  0  0
 19118  1  0  0  0
 19119  1  0  0  0
 20120  1  0  0  0
 21121  1  0  0  0
 22122  1  0  0  0
 25123  1  0  0  0
 25124  1  0  0  0
 26125  1  0  0  0
 26126  1  0  0  0
 28127  1  0  0  0
 30128  1  0  0  0
 31129  1  0  0  0
 34130  1  0  0  0
 34131  1  0  0  0
 35132  1  0  0  0
 37133  1  0  0  0
 40134  1  0  0  0
 40135  1  0  0  0
 41136  1  0  0  0
 41137  1  0  0  0
 42138  1  0  0  0
 42139  1  0  0  0
 43140  1  0  0  0
 44141  1  0  0  0
 47142  1  0  0  0
 47143  1  0  0  0
 49144  1  0  0  0
 51145  1  0  0  0
 52146  1  0  0  0
 52147  1  0  0  0
 55148  1  0  0  0
 56149  1  0  0  0
 59150  1  0  0  0
 59151  1  0  0  0
 60152  1  0  0  0
 60153  1  0  0  0
 63154  1  0  0  0
 63155  1  0  0  0
 64156  1  0  0  0
 65157  1  0  0  0
 68158  1  0  0  0
 68159  1  0  0  0
 69160  1  0  0  0
 70161  1  0  0  0
 71162  1  0  0  0
 74163  1  0  0  0
 74164  1  0  0  0
 76165  1  0  0  0
 77166  1  0  0  0
 78167  1  0  0  0
 79168  1  0  0  0
 80169  1  0  0  0
 81170  1  0  0  0
 82171  1  0  0  0
 85172  1  0  0  0
 85173  1  0  0  0
 86174  1  0  0  0
 86175  1  0  0  0
 87176  1  0  0  0
 87177  1  0  0  0
 88178  1  0  0  0
 90179  1  0  0  0
 91180  1  0  0  0
 91181  1  0  0  0
 92182  1  0  0  0
 93183  1  0  0  0
 94184  1  0  0  0
 94185  1  0  0  0
 95186  1  0  0  0
 96187  1  0  0  0
 96188  1  0  0  0
M  END
$$$$
