4pow_ligand
  -I-interpret- 

 41 41  0  0  0  0  0  0  0  0999 V2000
    3.6270   18.2040    2.9130 C   0  0  0  0  0
    2.3030   17.5440    3.2890 C   0  0  0  0  0
    2.3190   16.5140    4.0120 O   0  0  0  0  0
    4.2630   18.8010    4.1560 C   0  0  0  0  0
    3.3640   19.6380    4.9860 C   0  0  0  0  0
    4.0440   20.1050    6.2120 C   0  0  0  0  0
    3.2780   21.2540    6.7290 N   0  0  0  0  0
    3.6790   21.8850    7.9520 C   0  0  0  0  0
    2.9350   22.9470    8.2860 N   0  0  0  0  0
    4.6850   21.4410    8.6750 N   0  0  0  0  0
    3.4440   19.1650    1.8200 N   0  3  0  0  0
    3.8300   20.5530    1.6260 C   0  0  0  0  0
    3.1700   20.9910    0.3660 C   0  0  0  0  0
    2.9710   19.7560   -0.4650 C   0  0  0  0  0
    2.8980   18.6940    0.5760 C   0  0  0  0  0
    2.8840   17.3690    0.2630 O   0  0  0  0  0
    5.2910   20.6450    1.4570 C   0  0  0  0  0
    5.9990   19.6060    1.2410 O   0  0  0  0  0
    5.8640   21.7570    1.4910 O   0  0  0  0  0
    1.2100   18.0940    2.9220 O   0  0  0  0  0
    4.3212   17.4582    2.5258 H   0  0  0  0  0
    5.0681   19.4513    3.8138 H   0  0  0  0  0
    4.5755   17.9638    4.7802 H   0  0  0  0  0
    2.5010   19.0383    5.2753 H   0  0  0  0  0
    3.0644   20.5087    4.4027 H   0  0  0  0  0
    5.0707   20.3975    5.9922 H   0  0  0  0  0
    4.0851   19.3076    6.9540 H   0  0  0  0  0
    2.4653   21.5987    6.2180 H   0  0  0  0  0
    3.1358   23.4609    9.1439 H   0  0  0  0  0
    2.1674   23.2421    7.6826 H   0  0  0  0  0
    4.9356   21.9124    9.5442 H   0  0  0  0  0
    3.4018   19.2765    2.8330 H   0  0  0  0  0
    3.5395   21.1682    2.4776 H   0  0  0  0  0
    3.7837   21.7210   -0.1618 H   0  0  0  0  0
    2.2174   21.4781    0.5742 H   0  0  0  0  0
    3.7643   19.5929   -1.1945 H   0  0  0  0  0
    2.0867   19.8002   -1.1007 H   0  0  0  0  0
    1.8340   18.5219    0.7385 H   0  0  0  0  0
    2.4834   17.2497   -0.6012 H   0  0  0  0  0
    5.4344   18.8296    1.2416 H   0  0  0  0  0
    1.4057   18.8615    2.3796 H   0  0  0  0  0
  1  2  1  0  0  0
  1  4  1  0  0  0
  1 11  1  0  0  0
  2  3  2  0  0  0
  2 20  1  0  0  0
  4  5  1  0  0  0
  5  6  1  0  0  0
  6  7  1  0  0  0
  7  8  1  0  0  0
  8  9  1  0  0  0
  8 10  2  0  0  0
 11 12  1  0  0  0
 11 15  1  0  0  0
 12 13  1  0  0  0
 12 17  1  0  0  0
 13 14  1  0  0  0
 14 15  1  0  0  0
 15 16  1  0  0  0
 17 18  1  0  0  0
 17 19  2  0  0  0
  1 21  1  0  0  0
  4 22  1  0  0  0
  4 23  1  0  0  0
  5 24  1  0  0  0
  5 25  1  0  0  0
  6 26  1  0  0  0
  6 27  1  0  0  0
  7 28  1  0  0  0
  9 29  1  0  0  0
  9 30  1  0  0  0
 10 31  1  0  0  0
 11 32  1  0  0  0
 12 33  1  0  0  0
 13 34  1  0  0  0
 13 35  1  0  0  0
 14 36  1  0  0  0
 14 37  1  0  0  0
 15 38  1  0  0  0
 16 39  1  0  0  0
 18 40  1  0  0  0
 20 41  1  0  0  0
M  END
$$$$
