1elc_ligand
  -I-interpret- 

 70 71  0  0  0  0  0  0  0  0999 V2000
   42.8050   20.7570   36.2120 C   0  0  0  0  0
   43.2220   19.6600   35.7850 O   0  0  0  0  0
   43.3350   22.1690   35.5980 C   0  0  0  0  0
   44.5760   22.5880   35.9040 F   0  0  0  0  0
   43.3400   22.1380   34.2310 F   0  0  0  0  0
   42.5450   23.2360   35.9070 F   0  0  0  0  0
   41.9850   20.7120   37.3110 N   0  0  0  0  0
   41.1470   19.5470   37.7390 C   0  0  0  0  0
   39.9350   20.2470   38.3590 C   0  0  0  0  0
   39.5500   20.1350   39.5140 O   0  0  0  0  0
   41.6950   18.6340   38.8360 C   0  0  0  0  0
   41.7310   17.1930   38.3090 C   0  0  0  0  0
   42.0520   16.1940   39.4090 C   0  0  0  0  0
   42.4190   14.8100   38.8540 C   0  0  0  0  0
   43.7640   14.7820   38.3030 N   0  3  0  0  0
   39.2820   20.8490   37.3710 N   0  0  0  0  0
   38.3090   21.8990   37.4870 C   0  0  0  0  0
   36.8880   21.5760   36.9920 C   0  0  0  0  0
   36.1860   20.7300   37.5860 O   0  0  0  0  0
   39.0710   22.9630   36.7310 C   0  0  0  0  0
   39.5100   24.0670   37.6060 C   0  0  0  0  0
   40.4130   23.8390   38.6290 C   0  0  0  0  0
   38.9750   25.3110   37.3900 C   0  0  0  0  0
   40.7890   24.8850   39.4520 C   0  0  0  0  0
   39.3470   26.3550   38.2160 C   0  0  0  0  0
   40.2460   26.1450   39.2320 C   0  0  0  0  0
   36.5460   22.4810   36.0050 N   0  0  0  0  0
   35.5440   22.3810   35.1150 C   0  0  0  0  0
   35.2290   21.1470   34.5420 C   0  0  0  0  0
   34.3760   21.0890   33.4530 C   0  0  0  0  0
   33.8090   22.2580   32.9150 C   0  0  0  0  0
   34.1070   23.5020   33.4970 C   0  0  0  0  0
   34.9690   23.5580   34.5920 C   0  0  0  0  0
   32.9050   22.1250   31.6650 C   0  0  0  0  0
   33.7410   21.4370   30.5710 C   0  0  0  0  0
   32.3370   23.4620   31.2430 C   0  0  0  0  0
   41.9421   21.5502   37.8906 H   0  0  0  0  0
   41.0171   18.8908   36.8784 H   0  0  0  0  0
   41.0546   18.6892   39.7163 H   0  0  0  0  0
   42.7006   18.9513   39.1121 H   0  0  0  0  0
   42.5100   17.1266   37.5495 H   0  0  0  0  0
   40.7474   16.9523   37.9055 H   0  0  0  0  0
   41.1652   16.0828   40.0329 H   0  0  0  0  0
   42.9085   16.5712   39.9677 H   0  0  0  0  0
   41.7187   14.5671   38.0549 H   0  0  0  0  0
   42.3714   14.0915   39.6723 H   0  0  0  0  0
   43.9650   13.8475   37.9471 H   0  0  0  0  0
   43.8329   15.4586   37.5429 H   0  0  0  0  0
   44.4345   15.0203   39.0338 H   0  0  0  0  0
   39.4952   20.5303   36.4258 H   0  0  0  0  0
   38.0182   22.1658   38.5031 H   0  0  0  0  0
   38.4086   23.3773   35.9710 H   0  0  0  0  0
   39.9587   22.5005   36.2994 H   0  0  0  0  0
   40.8252   22.8421   38.7853 H   0  0  0  0  0
   38.2662   25.4743   36.5782 H   0  0  0  0  0
   41.5009   24.7233   40.2614 H   0  0  0  0  0
   38.9253   27.3480   38.0602 H   0  0  0  0  0
   40.5373   26.9765   39.8737 H   0  0  0  0  0
   37.1204   23.3218   35.9452 H   0  0  0  0  0
   35.6541   20.2307   34.9516 H   0  0  0  0  0
   34.1405   20.1231   33.0061 H   0  0  0  0  0
   33.6681   24.4156   33.0959 H   0  0  0  0  0
   35.2006   24.5206   35.0480 H   0  0  0  0  0
   32.0275   21.5146   31.8780 H   0  0  0  0  0
   34.6174   22.0457   30.3485 H   0  0  0  0  0
   34.0586   20.4551   30.9218 H   0  0  0  0  0
   33.1370   21.3247   29.6707 H   0  0  0  0  0
   31.7410   23.8753   32.0567 H   0  0  0  0  0
   33.1538   24.1439   31.0064 H   0  0  0  0  0
   31.7084   23.3268   30.3629 H   0  0  0  0  0
  7  8  1  0  0  0
  8 11  1  0  0  0
  8  9  1  0  0  0
  9 10  2  0  0  0
 11 12  1  0  0  0
 12 13  1  0  0  0
 13 14  1  0  0  0
 14 15  1  0  0  0
 16 17  1  0  0  0
 17 20  1  0  0  0
 17 18  1  0  0  0
 18 19  2  0  0  0
 20 21  1  0  0  0
 21 22  4  0  0  0
 21 23  4  0  0  0
 23 25  4  0  0  0
 25 26  4  0  0  0
 24 26  4  0  0  0
 22 24  4  0  0  0
  9 16  1  0  0  0
  1  2  2  0  0  0
  1  3  1  0  0  0
  7  1  1  0  0  0
  3  4  1  0  0  0
  3  5  1  0  0  0
  3  6  1  0  0  0
 18 27  1  0  0  0
 27 28  1  0  0  0
 28 29  4  0  0  0
 28 33  4  0  0  0
 29 30  4  0  0  0
 30 31  4  0  0  0
 31 32  4  0  0  0
 31 34  1  0  0  0
 32 33  4  0  0  0
 34 35  1  0  0  0
 34 36  1  0  0  0
  7 37  1  0  0  0
  8 38  1  0  0  0
 11 39  1  0  0  0
 11 40  1  0  0  0
 12 41  1  0  0  0
 12 42  1  0  0  0
 13 43  1  0  0  0
 13 44  1  0  0  0
 14 45  1  0  0  0
 14 46  1  0  0  0
 15 47  1  0  0  0
 15 48  1  0  0  0
 15 49  1  0  0  0
 16 50  1  0  0  0
 17 51  1  0  0  0
 20 52  1  0  0  0
 20 53  1  0  0  0
 22 54  1  0  0  0
 23 55  1  0  0  0
 24 56  1  0  0  0
 25 57  1  0  0  0
 26 58  1  0  0  0
 27 59  1  0  0  0
 29 60  1  0  0  0
 30 61  1  0  0  0
 32 62  1  0  0  0
 33 63  1  0  0  0
 34 64  1  0  0  0
 35 65  1  0  0  0
 35 66  1  0  0  0
 35 67  1  0  0  0
 36 68  1  0  0  0
 36 69  1  0  0  0
 36 70  1  0  0  0
M  END
$$$$
