4qfr_ligand
  -I-interpret- 

 38 41  0  0  0  0  0  0  0  0999 V2000
   42.1760  -80.8120  -39.3310 C   0  0  0  0  0
   40.5720  -82.8040  -39.0150 N   0  0  0  0  0
   46.2070  -78.5140  -39.4770 C   0  0  0  0  0
   45.8900  -79.7840  -39.3460 C   0  0  0  0  0
   46.8150  -81.9630  -40.1320 C   0  0  0  0  0
   48.0870  -80.7000  -38.5510 C   0  0  0  0  0
   41.2600  -81.9000  -39.1590 C   0  0  0  0  0
   46.9350  -80.8410  -39.3240 C   0  0  0  0  0
   51.2760  -85.6480  -38.4480 C   0  0  0  0  0
   51.3280  -85.3530  -40.8190 C   0  0  0  0  0
   50.4390  -84.5440  -38.3250 C   0  0  0  0  0
   44.4420  -79.9210  -39.3590 C   0  0  0  0  0
   43.8360  -78.6840  -39.5320 C   0  0  0  0  0
   42.4930  -78.4680  -39.6330 N   0  0  0  0  0
   41.5890  -79.5000  -39.5560 C   0  0  0  0  0
   43.5500  -81.0630  -39.2390 C   0  0  0  0  0
   44.9370  -77.3780  -39.6410 S   0  0  0  0  0
   47.8140  -82.9160  -40.1680 C   0  0  0  0  0
   48.9740  -82.7780  -39.4150 C   0  0  0  0  0
   49.0950  -81.6460  -38.6120 C   0  0  0  0  0
   50.0320  -83.8250  -39.4580 C   0  0  0  0  0
   50.5150  -84.2380  -40.7020 C   0  0  0  0  0
   51.7050  -86.0550  -39.6970 C   0  0  0  0  0
   50.0180  -84.2150  -37.0820 O   0  0  0  0  0
   44.0770  -82.3010  -39.0450 O   0  0  0  0  0
   40.3950  -79.2690  -39.7040 O   0  0  0  0  0
   47.7540  -77.8270  -39.5090 Cl  0  0  0  0  0
   45.9229  -82.0935  -40.7446 H   0  0  0  0  0
   48.1943  -79.8375  -37.8933 H   0  0  0  0  0
   51.5937  -86.1924  -37.5588 H   0  0  0  0  0
   51.6702  -85.6754  -41.8024 H   0  0  0  0  0
   42.1512  -77.5167  -39.7691 H   0  0  0  0  0
   47.6900  -83.7951  -40.8004 H   0  0  0  0  0
   49.9998  -81.5030  -38.0213 H   0  0  0  0  0
   50.2476  -83.6734  -41.5952 H   0  0  0  0  0
   52.3430  -86.9335  -39.7936 H   0  0  0  0  0
   49.4511  -83.4418  -37.1316 H   0  0  0  0  0
   45.0345  -82.2387  -39.0139 H   0  0  0  0  0
  1  7  1  0  0  0
  1 15  1  0  0  0
 16  1  2  0  0  0
  7  2  3  0  0  0
  4  3  4  0  0  0
  3 17  4  0  0  0
  3 27  1  0  0  0
  8  4  1  0  0  0
  4 12  4  0  0  0
  5  8  4  0  0  0
 18  5  4  0  0  0
  6  8  4  0  0  0
 20  6  4  0  0  0
 11  9  4  0  0  0
  9 23  4  0  0  0
 10 22  4  0  0  0
 23 10  4  0  0  0
 21 11  4  0  0  0
 11 24  1  0  0  0
 12 13  4  0  0  0
 12 16  1  0  0  0
 13 14  1  0  0  0
 13 17  4  0  0  0
 14 15  1  0  0  0
 15 26  2  0  0  0
 16 25  1  0  0  0
 19 18  4  0  0  0
 19 20  4  0  0  0
 19 21  1  0  0  0
 21 22  4  0  0  0
  5 28  1  0  0  0
  6 29  1  0  0  0
  9 30  1  0  0  0
 10 31  1  0  0  0
 14 32  1  0  0  0
 18 33  1  0  0  0
 20 34  1  0  0  0
 22 35  1  0  0  0
 23 36  1  0  0  0
 24 37  1  0  0  0
 25 38  1  0  0  0
M  END
$$$$
