4n98_ligand
  -I-interpret- 

 25 26  0  0  0  0  0  0  0  0999 V2000
    7.6940   -2.3870   -9.3480 C   0  0  0  0  0
    7.1210   -2.1510  -10.5810 C   0  0  0  0  0
    7.4240   -2.9870  -11.6510 C   0  0  0  0  0
    8.2940   -4.0560  -11.5040 C   0  0  0  0  0
    8.8810   -4.2920  -10.2690 C   0  0  0  0  0
    8.5670   -3.4560   -9.1940 C   0  0  0  0  0
    9.4230   -6.6310  -10.5790 C   0  0  0  0  0
    9.7430   -5.3670  -10.0680 C   0  0  0  0  0
   10.9060   -5.2080   -9.3140 C   0  0  0  0  0
   11.7440   -6.2960   -9.0960 C   0  0  0  0  0
   11.4420   -7.5500   -9.6100 C   0  0  0  0  0
   10.2710   -7.7140  -10.3570 C   0  0  0  0  0
    6.2500   -1.1010  -10.7510 F   0  0  0  0  0
   12.3040   -8.6200   -9.3570 C   0  0  0  0  0
   13.4340   -8.4170   -8.8520 O   0  0  0  0  0
   11.9330   -9.7970   -9.5910 O   0  0  0  0  0
    7.4633   -1.7397   -8.5019 H   0  0  0  0  0
    6.9687   -2.7978  -12.6231 H   0  0  0  0  0
    8.5151   -4.7055  -12.3510 H   0  0  0  0  0
    9.0147   -3.6462   -8.2186 H   0  0  0  0  0
    8.5065   -6.7682  -11.1529 H   0  0  0  0  0
   11.1572   -4.2329   -8.8966 H   0  0  0  0  0
   12.6541   -6.1621   -8.5113 H   0  0  0  0  0
   10.0209   -8.6925  -10.7669 H   0  0  0  0  0
   11.0527   -9.7837   -9.9739 H   0  0  0  0  0
  1  2  4  0  0  0
  1  6  4  0  0  0
  2  3  4  0  0  0
  2 13  1  0  0  0
  3  4  4  0  0  0
  4  5  4  0  0  0
  5  6  4  0  0  0
  5  8  1  0  0  0
  8  7  4  0  0  0
  7 12  4  0  0  0
  8  9  4  0  0  0
  9 10  4  0  0  0
 10 11  4  0  0  0
 11 12  4  0  0  0
 11 14  1  0  0  0
 14 15  2  0  0  0
 14 16  1  0  0  0
  1 17  1  0  0  0
  3 18  1  0  0  0
  4 19  1  0  0  0
  6 20  1  0  0  0
  7 21  1  0  0  0
  9 22  1  0  0  0
 10 23  1  0  0  0
 12 24  1  0  0  0
 16 25  1  0  0  0
M  END
$$$$
