3h06_ligand
  -I-interpret- 

 56 57  0  0  0  0  0  0  0  0999 V2000
   34.4200  -22.5340  -34.1430 C   0  0  0  0  0
   34.4900  -21.2200  -34.8740 C   0  0  0  0  0
   33.3900  -20.1720  -34.6740 C   0  0  0  0  0
   33.4630  -18.8160  -35.4230 C   0  0  0  0  0
   34.6350  -18.5250  -36.3630 C   0  0  0  0  0
   35.7400  -19.5940  -36.5570 C   0  0  0  0  0
   35.6770  -20.9490  -35.8130 C   0  0  0  0  0
   34.7150  -17.1990  -37.1000 C   0  0  0  0  0
   33.0280  -23.9510  -35.8460 C   0  0  0  0  0
   30.5160  -25.3840  -39.5530 C   0  0  0  0  0
   29.7490  -23.7760  -37.7920 N   0  3  0  0  0
   30.8830  -24.4780  -38.3830 C   0  0  0  0  0
   31.5090  -25.3790  -37.3420 C   0  0  0  0  0
   31.8100  -24.8070  -36.0750 N   0  3  0  0  0
   30.8690  -25.0820  -34.9500 C   0  0  0  0  0
   31.1060  -24.5200  -33.5850 C   0  0  0  0  0
   32.3300  -23.6540  -33.3470 C   0  0  0  0  0
   32.5660  -23.1180  -32.0750 O   0  0  0  0  0
   33.2860  -23.3680  -34.4690 N   0  3  0  0  0
   34.0400  -17.0750  -38.0790 O   0  0  0  0  0
   35.6480  -16.3030  -36.4720 O   0  0  0  0  0
   33.8980  -23.6970  -36.8740 O   0  0  0  0  0
   31.3490  -25.5240  -40.3600 O   0  0  0  0  0
   29.3250  -24.9700  -40.1620 O   0  0  0  0  0
   34.3348  -22.2951  -33.0829 H   0  0  0  0  0
   35.3099  -23.0952  -34.4278 H   0  0  0  0  0
   33.9632  -20.3418  -35.2472 H   0  0  0  0  0
   33.4581  -19.9042  -33.6196 H   0  0  0  0  0
   32.4882  -20.6474  -35.0597 H   0  0  0  0  0
   33.5561  -18.0718  -34.6320 H   0  0  0  0  0
   32.5864  -18.8144  -36.0709 H   0  0  0  0  0
   34.6526  -17.5701  -36.8883 H   0  0  0  0  0
   36.6393  -19.1188  -36.1651 H   0  0  0  0  0
   35.6624  -19.8665  -37.6095 H   0  0  0  0  0
   35.5947  -21.7003  -36.5984 H   0  0  0  0  0
   36.5564  -20.9602  -35.1691 H   0  0  0  0  0
   33.6514  -24.1527  -36.7171 H   0  0  0  0  0
   30.3845  -26.3650  -39.0965 H   0  0  0  0  0
   30.0755  -23.1942  -37.0204 H   0  0  0  0  0
   29.3081  -23.1884  -38.4996 H   0  0  0  0  0
   29.0733  -24.4563  -37.4441 H   0  0  0  0  0
   31.5504  -23.6951  -38.7431 H   0  0  0  0  0
   32.4671  -25.6887  -37.7595 H   0  0  0  0  0
   30.7714  -26.1570  -37.1452 H   0  0  0  0  0
   32.6441  -24.3566  -36.4517 H   0  0  0  0  0
   30.9409  -26.1600  -34.8057 H   0  0  0  0  0
   29.9370  -24.6146  -35.2677 H   0  0  0  0  0
   31.2492  -25.3902  -32.9444 H   0  0  0  0  0
   30.2568  -23.8619  -33.4013 H   0  0  0  0  0
   32.5441  -24.2335  -34.2450 H   0  0  0  0  0
   33.3735  -22.5992  -32.0924 H   0  0  0  0  0
   33.6095  -23.4053  -35.4356 H   0  0  0  0  0
   36.0196  -16.7240  -35.6934 H   0  0  0  0  0
   34.6126  -23.1399  -36.5567 H   0  0  0  0  0
   31.0277  -26.1065  -41.0522 H   0  0  0  0  0
   29.1197  -25.5574  -40.8931 H   0  0  0  0  0
  1  2  1  0  0  0
 19  1  1  0  0  0
  2  3  1  0  0  0
  2  7  1  0  0  0
  3  4  1  0  0  0
  4  5  1  0  0  0
  6  5  1  0  0  0
  5  8  1  0  0  0
  7  6  1  0  0  0
  8 20  2  0  0  0
  8 21  1  0  0  0
 14  9  1  0  0  0
  9 19  1  0  0  0
  9 22  1  0  0  0
 12 10  1  0  0  0
 10 23  1  0  0  0
 10 24  1  0  0  0
 12 11  1  0  0  0
 13 12  1  0  0  0
 13 14  1  0  0  0
 14 15  1  0  0  0
 15 16  1  0  0  0
 16 17  1  0  0  0
 17 18  1  0  0  0
 17 19  1  0  0  0
  1 25  1  0  0  0
  1 26  1  0  0  0
  2 27  1  0  0  0
  3 28  1  0  0  0
  3 29  1  0  0  0
  4 30  1  0  0  0
  4 31  1  0  0  0
  5 32  1  0  0  0
  6 33  1  0  0  0
  6 34  1  0  0  0
  7 35  1  0  0  0
  7 36  1  0  0  0
  9 37  1  0  0  0
 10 38  1  0  0  0
 11 39  1  0  0  0
 11 40  1  0  0  0
 11 41  1  0  0  0
 12 42  1  0  0  0
 13 43  1  0  0  0
 13 44  1  0  0  0
 14 45  1  0  0  0
 15 46  1  0  0  0
 15 47  1  0  0  0
 16 48  1  0  0  0
 16 49  1  0  0  0
 17 50  1  0  0  0
 18 51  1  0  0  0
 19 52  1  0  0  0
 21 53  1  0  0  0
 22 54  1  0  0  0
 23 55  1  0  0  0
 24 56  1  0  0  0
M  END
$$$$
