5ieg_ligand
  -I-interpret- 

 56 56  0  0  0  0  0  0  0  0999 V2000
   -3.6760   14.0010    9.1230 C   0  0  0  0  0
   -4.9510   15.7000    7.7190 C   0  0  0  0  0
   -6.2850   19.1220    8.1540 C   0  0  0  0  0
    4.0740   14.6050    7.9720 C   0  0  0  0  0
    4.6650   10.6360    9.3040 O   0  0  0  0  0
    3.7660   10.7970    8.1970 C   0  0  0  0  0
    3.9210   12.1770    7.5620 C   0  0  0  0  0
    5.2550   12.2290    6.7670 C   0  0  0  0  0
    5.2370   11.2460    5.7340 O   0  0  0  0  0
    5.5040   13.6160    6.1790 C   0  0  0  0  0
    6.7600   13.6390    5.4960 O   0  0  0  0  0
    3.8660   13.2700    8.5660 N   0  3  0  0  0
    5.4270   14.6730    7.2740 C   0  0  0  0  0
    5.6710   16.0010    6.8110 O   0  0  0  0  0
    2.6860   13.2630    9.4640 C   0  0  0  0  0
    1.3050   13.3030    8.8000 C   0  0  0  0  0
    0.1500   13.3240    9.7950 C   0  0  0  0  0
   -1.1460   13.6790    9.0780 C   0  0  0  0  0
   -2.4180   13.6610    9.9190 C   0  0  0  0  0
   -3.8740   15.4730    8.7730 C   0  0  0  0  0
   -5.9460   16.7980    8.0320 C   0  0  0  0  0
   -5.3380   18.0670    8.1080 O   0  0  0  0  0
   -4.5201   13.7217    9.7535 H   0  0  0  0  0
   -3.5884   13.4715    8.1743 H   0  0  0  0  0
   -5.5211   14.7734    7.6524 H   0  0  0  0  0
   -4.4351   15.9987    6.8065 H   0  0  0  0  0
   -6.8989   19.0970    7.2536 H   0  0  0  0  0
   -6.9199   19.0006    9.0316 H   0  0  0  0  0
   -5.7614   20.0762    8.2119 H   0  0  0  0  0
    4.0458   15.3535    8.7639 H   0  0  0  0  0
    3.2881   14.7938    7.2407 H   0  0  0  0  0
    4.5484    9.7626    9.6851 H   0  0  0  0  0
    2.7433   10.6916    8.5590 H   0  0  0  0  0
    3.9953   10.0395    7.4475 H   0  0  0  0  0
    3.0811   12.3337    6.8852 H   0  0  0  0  0
    6.0717   12.0150    7.4565 H   0  0  0  0  0
    6.0627   11.2816    5.2455 H   0  0  0  0  0
    4.7286   13.8477    5.4488 H   0  0  0  0  0
    6.9079   14.5141    5.1300 H   0  0  0  0  0
    4.6586   13.0598    9.1727 H   0  0  0  0  0
    6.2276   14.4422    7.9767 H   0  0  0  0  0
    5.6072   16.6125    7.5483 H   0  0  0  0  0
    2.7577   14.1753   10.0562 H   0  0  0  0  0
    2.7290   12.3171   10.0040 H   0  0  0  0  0
    1.2040   12.3980    8.2009 H   0  0  0  0  0
    1.2497   14.2214    8.2156 H   0  0  0  0  0
    0.3514   14.0701   10.5637 H   0  0  0  0  0
    0.0503   12.3389   10.2508 H   0  0  0  0  0
   -1.2827   12.9188    8.3089 H   0  0  0  0  0
   -1.0277   14.7061    8.7329 H   0  0  0  0  0
   -2.5394   12.6507   10.3097 H   0  0  0  0  0
   -2.3078   14.4158   10.6976 H   0  0  0  0  0
   -2.9328   15.8459    8.3691 H   0  0  0  0  0
   -4.1863   15.9892    9.6808 H   0  0  0  0  0
   -6.3952   16.5803    9.0010 H   0  0  0  0  0
   -6.6832   16.8244    7.2295 H   0  0  0  0  0
  1 19  1  0  0  0
 20  1  1  0  0  0
  2 20  1  0  0  0
 21  2  1  0  0  0
 22  3  1  0  0  0
 12  4  1  0  0  0
  4 13  1  0  0  0
  6  5  1  0  0  0
  7  6  1  0  0  0
  7  8  1  0  0  0
 12  7  1  0  0  0
  8  9  1  0  0  0
  8 10  1  0  0  0
 10 11  1  0  0  0
 13 10  1  0  0  0
 15 12  1  0  0  0
 13 14  1  0  0  0
 16 15  1  0  0  0
 17 16  1  0  0  0
 18 17  1  0  0  0
 19 18  1  0  0  0
 21 22  1  0  0  0
  1 23  1  0  0  0
  1 24  1  0  0  0
  2 25  1  0  0  0
  2 26  1  0  0  0
  3 27  1  0  0  0
  3 28  1  0  0  0
  3 29  1  0  0  0
  4 30  1  0  0  0
  4 31  1  0  0  0
  5 32  1  0  0  0
  6 33  1  0  0  0
  6 34  1  0  0  0
  7 35  1  0  0  0
  8 36  1  0  0  0
  9 37  1  0  0  0
 10 38  1  0  0  0
 11 39  1  0  0  0
 12 40  1  0  0  0
 13 41  1  0  0  0
 14 42  1  0  0  0
 15 43  1  0  0  0
 15 44  1  0  0  0
 16 45  1  0  0  0
 16 46  1  0  0  0
 17 47  1  0  0  0
 17 48  1  0  0  0
 18 49  1  0  0  0
 18 50  1  0  0  0
 19 51  1  0  0  0
 19 52  1  0  0  0
 20 53  1  0  0  0
 20 54  1  0  0  0
 21 55  1  0  0  0
 21 56  1  0  0  0
M  END
$$$$
