6h2z_ligand
  -I-interpret- 

 44 46  0  0  0  0  0  0  0  0999 V2000
   -5.1660    2.3790   15.5540 C   0  0  0  0  0
   -6.0170    3.3990   15.1590 C   0  0  0  0  0
   -5.5480    4.3850   14.3090 C   0  0  0  0  0
   -4.2370    4.3630   13.8470 C   0  0  0  0  0
   -3.3960    3.3360   14.2590 C   0  0  0  0  0
   -3.8540    2.3470   15.1100 C   0  0  0  0  0
   -3.7460    5.4080   12.8960 C   0  0  0  0  0
   -1.8540    6.4810   11.7970 C   0  0  0  0  0
   -1.8200    7.9650   12.1220 C   0  0  0  0  0
   -1.0440    8.2310   13.4120 C   0  0  0  0  0
   -1.6850    7.4030   14.5240 C   0  0  0  0  0
   -1.7180    5.9290   14.1600 C   0  0  0  0  0
   -1.0340    9.7160   13.7620 C   0  0  0  0  0
   -1.9680   10.5880   13.2140 C   0  0  0  0  0
   -1.9240   11.9440   13.4910 C   0  0  0  0  0
   -0.9480   12.4510   14.3220 C   0  0  0  0  0
   -0.0170   11.6000   14.8800 C   0  0  0  0  0
   -0.0610   10.2430   14.6020 C   0  0  0  0  0
   -5.7770    1.0710   16.5720 S   0  0  0  0  0
   -5.2030    1.2450   17.8730 O   0  0  0  0  0
   -7.2040    1.0640   16.4530 O   0  0  0  0  0
   -4.5250    5.9340   12.1200 O   0  0  0  0  0
   -2.4350    5.6970   12.8980 N   0  0  0  0  0
   -5.2380   -0.3210   15.9910 N   0  0  0  0  0
   -7.0470    3.4243   15.5149 H   0  0  0  0  0
   -6.2148    5.1891   13.9977 H   0  0  0  0  0
   -2.3645    3.3099   13.9076 H   0  0  0  0  0
   -3.1866    1.5467   15.4297 H   0  0  0  0  0
   -0.8311    6.1410   11.6353 H   0  0  0  0  0
   -2.4708    6.3374   10.9099 H   0  0  0  0  0
   -2.8436    8.3159   12.2532 H   0  0  0  0  0
   -1.3253    8.4889   11.3042 H   0  0  0  0  0
   -0.0015    7.9398   13.2834 H   0  0  0  0  0
   -2.7083    7.7488   14.6701 H   0  0  0  0  0
   -1.0954    7.5243   15.4327 H   0  0  0  0  0
   -2.2362    5.3907   14.9536 H   0  0  0  0  0
   -0.6918    5.5814   14.0410 H   0  0  0  0  0
   -2.7458   10.1987   12.5571 H   0  0  0  0  0
   -2.6635   12.6127   13.0505 H   0  0  0  0  0
   -0.9122   13.5190   14.5370 H   0  0  0  0  0
    0.7546   11.9954   15.5407 H   0  0  0  0  0
    0.6789    9.5792   15.0491 H   0  0  0  0  0
   -4.6018   -0.8933   16.5462 H   0  0  0  0  0
   -5.5309   -0.6352   15.0659 H   0  0  0  0  0
  2  1  4  0  0  0
  6  1  4  0  0  0
  1 19  1  0  0  0
  3  2  4  0  0  0
  4  3  4  0  0  0
  4  5  4  0  0  0
  7  4  1  0  0  0
  5  6  4  0  0  0
  7 22  2  0  0  0
 23  7  1  0  0  0
  8  9  1  0  0  0
  8 23  1  0  0  0
  9 10  1  0  0  0
 10 11  1  0  0  0
 10 13  1  0  0  0
 11 12  1  0  0  0
 12 23  1  0  0  0
 13 14  4  0  0  0
 13 18  4  0  0  0
 14 15  4  0  0  0
 15 16  4  0  0  0
 16 17  4  0  0  0
 17 18  4  0  0  0
 19 20  2  0  0  0
 19 21  2  0  0  0
 19 24  1  0  0  0
  2 25  1  0  0  0
  3 26  1  0  0  0
  5 27  1  0  0  0
  6 28  1  0  0  0
  8 29  1  0  0  0
  8 30  1  0  0  0
  9 31  1  0  0  0
  9 32  1  0  0  0
 10 33  1  0  0  0
 11 34  1  0  0  0
 11 35  1  0  0  0
 12 36  1  0  0  0
 12 37  1  0  0  0
 14 38  1  0  0  0
 15 39  1  0  0  0
 16 40  1  0  0  0
 17 41  1  0  0  0
 18 42  1  0  0  0
 24 43  1  0  0  0
 24 44  1  0  0  0
M  END
$$$$
