3nm6_ligand
  -I-interpret- 

 20 19  0  0  0  0  0  0  0  0999 V2000
   38.5880   -4.7330   65.9560 C   0  0  0  0  0
   40.1030   -5.0570   65.8990 C   0  0  0  0  0
   37.7950   -5.9940   66.3430 C   0  0  0  0  0
   38.1600   -3.7170   67.0310 C   0  0  0  0  0
   38.2270   -4.1540   64.6520 N   0  3  0  0  0
   40.7410   -4.0200   65.1580 O   0  0  0  0  0
   37.8710   -6.8030   65.2110 O   0  0  0  0  0
   38.8710   -2.5310   66.8740 O   0  0  0  0  0
   40.2665   -6.0217   65.4188 H   0  0  0  0  0
   40.5168   -5.1131   66.9058 H   0  0  0  0  0
   36.7654   -5.7654   66.6181 H   0  0  0  0  0
   38.2036   -6.4828   67.2274 H   0  0  0  0  0
   38.3659   -4.1308   68.0181 H   0  0  0  0  0
   37.0943   -3.5129   66.9278 H   0  0  0  0  0
   38.4951   -4.7992   63.9089 H   0  0  0  0  0
   37.2200   -3.9950   64.6190 H   0  0  0  0  0
   38.7166   -3.2679   64.5275 H   0  0  0  0  0
   41.6832   -4.1973   65.1078 H   0  0  0  0  0
   37.3950   -7.6211   65.3712 H   0  0  0  0  0
   38.5980   -1.9040   67.5477 H   0  0  0  0  0
  1  2  1  0  0  0
  1  3  1  0  0  0
  1  4  1  0  0  0
  1  5  1  0  0  0
  2  6  1  0  0  0
  3  7  1  0  0  0
  4  8  1  0  0  0
  2  9  1  0  0  0
  2 10  1  0  0  0
  3 11  1  0  0  0
  3 12  1  0  0  0
  4 13  1  0  0  0
  4 14  1  0  0  0
  5 15  1  0  0  0
  5 16  1  0  0  0
  5 17  1  0  0  0
  6 18  1  0  0  0
  7 19  1  0  0  0
  8 20  1  0  0  0
M  END
$$$$
