2xyf_ligand
  -I-interpret- 

104106  0  0  0  0  0  0  0  0999 V2000
   11.9580   24.2700    4.5810 C   0  0  0  0  0
   10.7740   24.2380    5.6010 C   0  0  0  0  0
   10.4900   23.2320    6.2550 O   0  0  0  0  0
   10.0730   25.3900    5.6720 N   0  0  0  0  0
    8.8200   25.7530    6.5120 C   0  0  0  0  0
    9.0310   26.3130    8.0550 C   0  0  0  0  0
    7.6680   26.6270    8.7670 C   0  0  0  0  0
    9.8380   27.6180    8.1010 C   0  0  0  0  0
    5.7060   26.8640    4.7110 C   0  0  0  0  0
    6.7880   26.2390    5.4790 N   0  0  0  0  0
    8.0450   26.7370    5.6610 C   0  0  0  0  0
    8.4530   27.8020    5.1940 O   0  0  0  0  0
    9.8020   25.3110    8.9220 C   0  0  0  0  0
   11.4280   23.6030    3.2360 C   0  0  0  0  0
   10.0480   24.1430    2.7250 C   0  0  0  0  0
    8.8700   23.2740    2.8490 C   0  0  0  0  0
    7.5720   23.7370    2.4020 C   0  0  0  0  0
    7.4300   25.0670    1.8270 C   0  0  0  0  0
    8.5880   25.9330    1.6990 C   0  0  0  0  0
    9.8900   25.4700    2.1470 C   0  0  0  0  0
   12.3340   25.6130    4.2700 O   0  0  0  0  0
   13.3130   23.6360    4.9970 C   0  0  0  0  0
   13.8590   24.0420    6.3940 C   0  0  0  0  0
   15.3250   23.6920    6.5870 C   0  0  0  0  0
   15.4570   22.3730    7.1160 N   0  3  0  0  0
   16.3850   22.3780    8.2360 C   0  0  0  0  0
   16.5950   21.0420    8.9500 C   0  0  0  0  0
   15.4270   20.2830    9.3630 C   0  0  0  0  0
   15.5930   19.0250   10.0330 C   0  0  0  0  0
   16.9300   18.5070   10.3020 C   0  0  0  0  0
   18.1110   19.2650    9.8870 C   0  0  0  0  0
   17.9370   20.5460    9.2020 C   0  0  0  0  0
   15.3210   18.9100    3.4060 C   0  0  0  0  0
   19.9120   17.6810    6.7600 C   0  0  0  0  0
   18.5230   18.0050    6.6080 O   0  0  0  0  0
   18.1380   18.9590    5.6360 C   0  0  0  0  0
   18.9230   19.7070    5.0590 O   0  0  0  0  0
   16.8170   18.8940    5.4740 N   0  0  0  0  0
   16.0370   19.7400    4.5370 C   0  0  0  0  0
   15.2970   20.5440    5.6090 C   0  0  0  0  0
   15.9710   21.5770    6.1550 N   0  0  0  0  0
   14.1340   20.2400    5.9480 O   0  0  0  0  0
   16.3920   18.2540    2.5250 C   0  0  0  0  0
   14.5100   19.7770    2.4660 C   0  0  0  0  0
   14.4770   17.7720    3.9700 C   0  0  0  0  0
   16.3440   14.8340   12.0850 S   0  0  0  0  0
   15.9230   16.3060   11.1870 C   0  0  0  0  0
   17.0290   17.2120   11.0100 C   0  0  0  0  0
   18.2330   16.6900   11.6210 C   0  0  0  0  0
   18.0200   15.4290   12.2320 C   0  0  0  0  0
   10.4233   26.1419    5.0784 H   0  0  0  0  0
    8.2967   24.8205    6.7235 H   0  0  0  0  0
    7.8592   26.9381    9.7940 H   0  0  0  0  0
    7.1565   27.4277    8.2328 H   0  0  0  0  0
    7.0450   25.7326    8.7669 H   0  0  0  0  0
    9.2896   28.4015    7.5780 H   0  0  0  0  0
    9.9923   27.9118    9.1392 H   0  0  0  0  0
   10.8031   27.4641    7.6183 H   0  0  0  0  0
    5.4732   27.8384    5.1405 H   0  0  0  0  0
    6.0221   26.9882    3.6753 H   0  0  0  0  0
    4.8214   26.2282    4.7484 H   0  0  0  0  0
    6.5801   25.3434    5.9207 H   0  0  0  0  0
    9.9827   25.7465    9.9047 H   0  0  0  0  0
    9.2152   24.3988    9.0298 H   0  0  0  0  0
   10.7543   25.0778    8.4458 H   0  0  0  0  0
   11.2921   22.5418    3.4443 H   0  0  0  0  0
   12.1607   23.8321    2.4622 H   0  0  0  0  0
    8.9729   22.2776    3.2787 H   0  0  0  0  0
    6.7007   23.0888    2.4963 H   0  0  0  0  0
    6.4522   25.4132    1.4920 H   0  0  0  0  0
    8.4808   26.9283    1.2678 H   0  0  0  0  0
   10.7575   26.1227    2.0495 H   0  0  0  0  0
   12.6594   26.0449    5.0632 H   0  0  0  0  0
   14.0476   23.9827    4.2702 H   0  0  0  0  0
   13.1466   22.5595    5.0359 H   0  0  0  0  0
   13.2870   23.4960    7.1442 H   0  0  0  0  0
   13.7624   25.1239    6.4853 H   0  0  0  0  0
   15.7698   24.4005    7.2857 H   0  0  0  0  0
   15.8310   23.7397    5.6227 H   0  0  0  0  0
   14.5435   22.0399    7.4243 H   0  0  0  0  0
   15.9608   23.0546    8.9779 H   0  0  0  0  0
   17.3549   22.6574    7.8245 H   0  0  0  0  0
   14.4269   20.6683    9.1644 H   0  0  0  0  0
   14.7171   18.4545   10.3420 H   0  0  0  0  0
   19.1107   18.8789   10.0863 H   0  0  0  0  0
   18.8056   21.1225    8.8839 H   0  0  0  0  0
   20.2956   17.2821    5.8209 H   0  0  0  0  0
   20.4664   18.5805    7.0276 H   0  0  0  0  0
   20.0258   16.9350    7.5466 H   0  0  0  0  0
   16.3047   18.2132    6.0348 H   0  0  0  0  0
   16.5179   20.4069    3.8214 H   0  0  0  0  0
   16.9173   21.7662    5.8247 H   0  0  0  0  0
   17.0170   19.0274    2.0784 H   0  0  0  0  0
   17.0086   17.5943    3.1354 H   0  0  0  0  0
   15.9087   17.6759    1.7374 H   0  0  0  0  0
   13.7408   20.3030    3.0315 H   0  0  0  0  0
   15.1669   20.5008    1.9836 H   0  0  0  0  0
   14.0406   19.1492    1.7087 H   0  0  0  0  0
   15.1158   17.0931    4.5350 H   0  0  0  0  0
   13.7094   18.1816    4.6266 H   0  0  0  0  0
   14.0047   17.2308    3.1502 H   0  0  0  0  0
   14.9217   16.5057   10.8053 H   0  0  0  0  0
   19.1926   17.2070   11.6122 H   0  0  0  0  0
   18.8065   14.8744   12.7439 H   0  0  0  0  0
  1  2  1  0  0  0
  1 14  1  0  0  0
  1 21  1  0  0  0
 22  1  1  0  0  0
  2  3  2  0  0  0
  2  4  1  0  0  0
  4  5  1  0  0  0
  5  6  1  0  0  0
  5 11  1  0  0  0
  6  7  1  0  0  0
  6  8  1  0  0  0
  6 13  1  0  0  0
 10  9  1  0  0  0
 11 10  1  0  0  0
 11 12  2  0  0  0
 14 15  1  0  0  0
 15 16  4  0  0  0
 15 20  4  0  0  0
 16 17  4  0  0  0
 17 18  4  0  0  0
 19 18  4  0  0  0
 20 19  4  0  0  0
 23 22  1  0  0  0
 24 23  1  0  0  0
 25 24  1  0  0  0
 26 25  1  0  0  0
 25 41  1  0  0  0
 27 26  1  0  0  0
 28 27  4  0  0  0
 32 27  4  0  0  0
 29 28  4  0  0  0
 30 29  4  0  0  0
 30 31  4  0  0  0
 48 30  1  0  0  0
 31 32  4  0  0  0
 39 33  1  0  0  0
 33 43  1  0  0  0
 33 44  1  0  0  0
 33 45  1  0  0  0
 35 34  1  0  0  0
 36 35  1  0  0  0
 36 37  2  0  0  0
 38 36  1  0  0  0
 39 38  1  0  0  0
 40 39  1  0  0  0
 41 40  1  0  0  0
 40 42  2  0  0  0
 47 46  4  0  0  0
 46 50  4  0  0  0
 47 48  4  0  0  0
 48 49  4  0  0  0
 49 50  4  0  0  0
  4 51  1  0  0  0
  5 52  1  0  0  0
  7 53  1  0  0  0
  7 54  1  0  0  0
  7 55  1  0  0  0
  8 56  1  0  0  0
  8 57  1  0  0  0
  8 58  1  0  0  0
  9 59  1  0  0  0
  9 60  1  0  0  0
  9 61  1  0  0  0
 10 62  1  0  0  0
 13 63  1  0  0  0
 13 64  1  0  0  0
 13 65  1  0  0  0
 14 66  1  0  0  0
 14 67  1  0  0  0
 16 68  1  0  0  0
 17 69  1  0  0  0
 18 70  1  0  0  0
 19 71  1  0  0  0
 20 72  1  0  0  0
 21 73  1  0  0  0
 22 74  1  0  0  0
 22 75  1  0  0  0
 23 76  1  0  0  0
 23 77  1  0  0  0
 24 78  1  0  0  0
 24 79  1  0  0  0
 25 80  1  0  0  0
 26 81  1  0  0  0
 26 82  1  0  0  0
 28 83  1  0  0  0
 29 84  1  0  0  0
 31 85  1  0  0  0
 32 86  1  0  0  0
 34 87  1  0  0  0
 34 88  1  0  0  0
 34 89  1  0  0  0
 38 90  1  0  0  0
 39 91  1  0  0  0
 41 92  1  0  0  0
 43 93  1  0  0  0
 43 94  1  0  0  0
 43 95  1  0  0  0
 44 96  1  0  0  0
 44 97  1  0  0  0
 44 98  1  0  0  0
 45 99  1  0  0  0
 45100  1  0  0  0
 45101  1  0  0  0
 47102  1  0  0  0
 49103  1  0  0  0
 50104  1  0  0  0
M  END
$$$$
