3i6z_ligand
  -I-interpret- 

 73 78  0  0  0  0  0  0  0  0999 V2000
    2.5230   67.7400   63.3090 C   0  0  0  0  0
    2.6200   68.1660   62.0160 C   0  0  0  0  0
    3.9640   68.2530   61.2790 C   0  0  0  0  0
    5.1150   68.4910   62.2850 C   0  0  0  0  0
    5.2730   66.0890   62.8530 O   0  0  0  0  0
    4.6560   63.8350   63.7980 C   0  0  0  0  0
    3.8050   63.1620   64.7150 C   0  0  0  0  0
    2.8860   63.8900   65.4950 C   0  0  0  0  0
    1.8310   66.0100   66.3560 C   0  0  0  0  0
    2.4810   67.1560   67.0720 N   0  3  0  0  0
    2.5860   68.4070   66.2960 C   0  0  0  0  0
    3.8440   68.3840   65.3740 C   0  0  0  0  0
    4.5620   65.2380   63.6580 C   0  0  0  0  0
    3.6490   65.9490   64.4410 C   0  0  0  0  0
    2.7970   65.2990   65.3830 C   0  0  0  0  0
    5.3650   61.7930   62.8200 C   0  0  0  0  0
    5.6510   63.1650   63.0930 O   0  0  0  0  0
    4.1500   67.0410   60.5370 O   0  0  0  0  0
    3.7330   66.8650   67.8520 C   0  0  0  0  0
    3.5370   65.9070   69.0410 C   0  0  0  0  0
    3.8700   64.4840   68.6240 C   0  0  0  0  0
    4.3160   63.6070   69.8040 C   0  0  0  0  0
    3.1820   63.1870   70.7470 C   0  0  0  0  0
    2.1540   62.3040   70.0470 C   0  0  0  0  0
    1.2460   61.7050   71.0480 N   0  0  0  0  0
    1.3910   60.4150   71.4670 C   0  0  0  0  0
    0.2910   60.0140   72.3070 C   0  0  0  0  0
    0.0440   58.7670   72.9240 C   0  0  0  0  0
   -1.1600   58.5260   73.6190 C   0  0  0  0  0
   -2.1370   59.5350   73.7070 C   0  0  0  0  0
   -1.9000   60.7820   73.1010 C   0  0  0  0  0
   -0.6960   61.0160   72.4140 C   0  0  0  0  0
   -0.0280   62.4600   71.6350 S   0  0  0  0  0
    2.3270   59.6800   71.1400 O   0  0  0  0  0
   -0.8090   63.1790   70.5690 O   0  0  0  0  0
    0.4370   63.4670   72.6510 O   0  0  0  0  0
    5.1070   67.4230   63.4460 C   0  0  0  0  0
    3.7270   67.3420   64.2330 C   0  0  0  0  0
    1.5228   67.6703   63.7366 H   0  0  0  0  0
    1.7112   68.4546   61.4880 H   0  0  0  0  0
    3.9659   69.0965   60.5886 H   0  0  0  0  0
    4.9855   69.4790   62.7269 H   0  0  0  0  0
    6.0609   68.4087   61.7497 H   0  0  0  0  0
    3.8636   62.0782   64.8152 H   0  0  0  0  0
    2.2356   63.3630   66.1931 H   0  0  0  0  0
    0.9974   66.4047   65.7751 H   0  0  0  0  0
    1.5103   65.2840   67.1032 H   0  0  0  0  0
    1.7798   67.3202   67.7943 H   0  0  0  0  0
    2.6738   69.2438   66.9890 H   0  0  0  0  0
    1.6967   68.5102   65.6742 H   0  0  0  0  0
    4.7044   68.1153   65.9869 H   0  0  0  0  0
    3.9450   69.3695   64.9194 H   0  0  0  0  0
    5.2276   61.2579   63.7596 H   0  0  0  0  0
    4.4544   61.7245   62.2249 H   0  0  0  0  0
    6.1954   61.3530   62.2678 H   0  0  0  0  0
    3.4194   66.9265   59.9249 H   0  0  0  0  0
    4.0815   67.8134   68.2609 H   0  0  0  0  0
    4.4309   66.3839   67.1667 H   0  0  0  0  0
    2.4983   65.9505   69.3685 H   0  0  0  0  0
    4.1981   66.2058   69.8545 H   0  0  0  0  0
    4.6936   64.5289   67.9114 H   0  0  0  0  0
    2.9688   64.0407   68.2004 H   0  0  0  0  0
    5.0189   64.1967   70.3925 H   0  0  0  0  0
    4.7356   62.6936   69.3824 H   0  0  0  0  0
    2.6768   64.0880   71.0949 H   0  0  0  0  0
    3.6158   62.6185   71.5696 H   0  0  0  0  0
    2.6689   61.5101   69.5060 H   0  0  0  0  0
    1.5740   62.9086   69.3497 H   0  0  0  0  0
    0.7949   57.9794   72.8621 H   0  0  0  0  0
   -1.3335   57.5575   74.0881 H   0  0  0  0  0
   -3.0697   59.3517   74.2404 H   0  0  0  0  0
   -2.6517   61.5688   73.1642 H   0  0  0  0  0
    5.9016   67.7218   64.1296 H   0  0  0  0  0
  2  1  2  0  0  0
  1 38  1  0  0  0
  3  2  1  0  0  0
  4  3  1  0  0  0
  3 18  1  0  0  0
 37  4  1  0  0  0
 13  5  1  0  0  0
  5 37  1  0  0  0
  7  6  4  0  0  0
  6 13  4  0  0  0
  6 17  1  0  0  0
  8  7  4  0  0  0
 15  8  4  0  0  0
  9 10  1  0  0  0
  9 15  1  0  0  0
 10 11  1  0  0  0
 10 19  1  0  0  0
 11 12  1  0  0  0
 12 38  1  0  0  0
 13 14  4  0  0  0
 14 15  4  0  0  0
 14 38  1  0  0  0
 17 16  1  0  0  0
 19 20  1  0  0  0
 20 21  1  0  0  0
 21 22  1  0  0  0
 22 23  1  0  0  0
 23 24  1  0  0  0
 24 25  1  0  0  0
 25 26  1  0  0  0
 25 33  1  0  0  0
 26 27  1  0  0  0
 26 34  2  0  0  0
 27 28  4  0  0  0
 27 32  4  0  0  0
 28 29  4  0  0  0
 29 30  4  0  0  0
 30 31  4  0  0  0
 31 32  4  0  0  0
 32 33  1  0  0  0
 33 35  2  0  0  0
 33 36  2  0  0  0
 37 38  1  0  0  0
  1 39  1  0  0  0
  2 40  1  0  0  0
  3 41  1  0  0  0
  4 42  1  0  0  0
  4 43  1  0  0  0
  7 44  1  0  0  0
  8 45  1  0  0  0
  9 46  1  0  0  0
  9 47  1  0  0  0
 10 48  1  0  0  0
 11 49  1  0  0  0
 11 50  1  0  0  0
 12 51  1  0  0  0
 12 52  1  0  0  0
 16 53  1  0  0  0
 16 54  1  0  0  0
 16 55  1  0  0  0
 18 56  1  0  0  0
 19 57  1  0  0  0
 19 58  1  0  0  0
 20 59  1  0  0  0
 20 60  1  0  0  0
 21 61  1  0  0  0
 21 62  1  0  0  0
 22 63  1  0  0  0
 22 64  1  0  0  0
 23 65  1  0  0  0
 23 66  1  0  0  0
 24 67  1  0  0  0
 24 68  1  0  0  0
 28 69  1  0  0  0
 29 70  1  0  0  0
 30 71  1  0  0  0
 31 72  1  0  0  0
 37 73  1  0  0  0
M  END
$$$$
