1dud_ligand
  -I-interpret- 

 38 39  0  0  0  0  0  0  0  0999 V2000
   -5.3450   37.0560   33.0000 N   0  0  0  0  0
   -4.2650   36.3950   32.4540 C   0  0  0  0  0
   -3.4110   37.1320   31.7020 N   0  0  0  0  0
   -3.5560   38.4800   31.4050 C   0  0  0  0  0
   -4.6860   39.0980   32.0090 C   0  0  0  0  0
   -5.5340   38.3970   32.7830 C   0  0  0  0  0
   -4.0260   35.1870   32.6250 O   0  0  0  0  0
   -2.6970   39.0530   30.7450 O   0  0  0  0  0
   -6.3230   36.2960   33.8620 C   0  0  0  0  0
   -6.4360   36.8710   35.2620 C   0  0  0  0  0
   -7.7800   37.5500   35.3380 C   0  0  0  0  0
   -8.6160   36.8480   34.2660 C   0  0  0  0  0
   -7.6520   36.3970   33.2700 O   0  0  0  0  0
   -8.3520   37.3170   36.6090 O   0  0  0  0  0
   -9.6260   37.8250   33.6480 C   0  0  0  0  0
   -8.9810   39.0360   33.1330 O   0  0  0  0  0
   -9.6540   40.5010   32.9690 P   0  0  0  0  0
  -10.7200   40.6150   33.9840 O   0  0  0  0  0
   -8.6160   41.5830   32.8710 O   0  0  0  0  0
  -10.4620   40.5340   31.5670 O   0  0  0  0  0
  -11.7520   39.7940   30.9000 P   0  0  0  0  0
  -11.4910   38.3390   30.7070 O   0  0  0  0  0
  -12.0480   40.6250   29.7090 O   0  0  0  0  0
  -13.0120   40.0010   31.9780 O   0  0  0  0  0
   -2.5928   36.6556   31.3224 H   0  0  0  0  0
   -4.8682   40.1595   31.8415 H   0  0  0  0  0
   -6.3830   38.9017   33.2441 H   0  0  0  0  0
   -5.9591   35.2702   33.9210 H   0  0  0  0  0
   -5.6299   37.5774   35.4603 H   0  0  0  0  0
   -6.3516   36.0867   36.0143 H   0  0  0  0  0
   -7.7200   38.6281   35.1891 H   0  0  0  0  0
   -9.1958   36.0192   34.6723 H   0  0  0  0  0
   -9.2078   37.7493   36.6576 H   0  0  0  0  0
  -10.3310   38.1206   34.4250 H   0  0  0  0  0
  -10.1179   37.3225   32.8152 H   0  0  0  0  0
   -7.9964   41.3679   32.1700 H   0  0  0  0  0
  -11.3156   37.9309   31.5580 H   0  0  0  0  0
  -12.8496   39.4735   32.7635 H   0  0  0  0  0
  1  9  1  0  0  0
  1  6  1  0  0  0
  1  2  1  0  0  0
  2  7  2  0  0  0
  2  3  1  0  0  0
  3  4  1  0  0  0
  4  8  2  0  0  0
  4  5  1  0  0  0
  5  6  2  0  0  0
  9 13  1  0  0  0
  9 10  1  0  0  0
 10 11  1  0  0  0
 11 14  1  0  0  0
 11 12  1  0  0  0
 12 15  1  0  0  0
 12 13  1  0  0  0
 15 16  1  0  0  0
 16 17  1  0  0  0
 17 20  1  0  0  0
 17 19  1  0  0  0
 17 18  2  0  0  0
 20 21  1  0  0  0
 21 24  1  0  0  0
 21 23  2  0  0  0
 21 22  1  0  0  0
  3 25  1  0  0  0
  5 26  1  0  0  0
  6 27  1  0  0  0
  9 28  1  0  0  0
 10 29  1  0  0  0
 10 30  1  0  0  0
 11 31  1  0  0  0
 12 32  1  0  0  0
 14 33  1  0  0  0
 15 34  1  0  0  0
 15 35  1  0  0  0
 19 36  1  0  0  0
 22 37  1  0  0  0
 24 38  1  0  0  0
M  END
$$$$
