4fxj_ligand
  -I-interpret- 

 24 24  0  0  0  0  0  0  0  0999 V2000
   28.8380  -15.1150   33.4830 N   0  3  0  0  0
   28.7320  -16.5930   33.6580 C   0  0  0  0  0
   28.9540  -17.3410   32.3450 C   0  0  0  0  0
   29.3850  -18.4930   32.3380 O   0  0  0  0  0
   27.3830  -16.9740   34.2850 C   0  0  0  0  0
   26.1920  -16.7280   33.3910 C   0  0  0  0  0
   25.6360  -17.7690   32.6510 C   0  0  0  0  0
   25.6160  -15.4640   33.3030 C   0  0  0  0  0
   24.5310  -17.5520   31.8320 C   0  0  0  0  0
   24.5130  -15.2370   32.4830 C   0  0  0  0  0
   23.9700  -16.2840   31.7460 C   0  0  0  0  0
   28.7080  -16.8130   31.2600 O   0  0  0  0  0
   29.7405  -14.8871   33.0659 H   0  0  0  0  0
   28.0882  -14.7916   32.8718 H   0  0  0  0  0
   28.7575  -14.6596   34.3921 H   0  0  0  0  0
   29.5263  -16.8962   34.3402 H   0  0  0  0  0
   27.2535  -16.3520   35.1707 H   0  0  0  0  0
   27.4150  -18.0441   34.4900 H   0  0  0  0  0
   26.0715  -18.7662   32.7139 H   0  0  0  0  0
   26.0334  -14.6411   33.8832 H   0  0  0  0  0
   24.1065  -18.3763   31.2589 H   0  0  0  0  0
   24.0762  -14.2404   32.4191 H   0  0  0  0  0
   23.1071  -16.1103   31.1030 H   0  0  0  0  0
   28.3810  -15.9222   31.4057 H   0  0  0  0  0
  1  2  1  0  0  0
  2  3  1  0  0  0
  2  5  1  0  0  0
  3  4  2  0  0  0
  3 12  1  0  0  0
  5  6  1  0  0  0
  6  7  4  0  0  0
  6  8  4  0  0  0
  7  9  4  0  0  0
  8 10  4  0  0  0
  9 11  4  0  0  0
 10 11  4  0  0  0
  1 13  1  0  0  0
  1 14  1  0  0  0
  1 15  1  0  0  0
  2 16  1  0  0  0
  5 17  1  0  0  0
  5 18  1  0  0  0
  7 19  1  0  0  0
  8 20  1  0  0  0
  9 21  1  0  0  0
 10 22  1  0  0  0
 11 23  1  0  0  0
 12 24  1  0  0  0
M  END
$$$$
