5g10_ligand
  -I-interpret- 

 42 42  0  0  0  0  0  0  0  0999 V2000
  -20.8690    4.3430   -1.5750 N   0  0  0  0  0
  -19.7440    5.8820    8.3240 C   0  0  0  0  0
  -18.7040    6.8100    8.1400 O   0  0  0  0  0
  -19.9590    5.0480    7.0440 C   0  0  0  0  0
  -20.7350    6.8640    8.5800 O   0  0  0  0  0
  -20.2350    5.8200    5.7570 C   0  0  0  0  0
  -20.6490    4.8310    4.6630 C   0  0  0  0  0
  -20.6230    5.4570    3.2670 C   0  0  0  0  0
  -20.8970    4.3850    2.2040 C   0  0  0  0  0
  -21.0080    5.0120    0.8010 C   0  0  0  0  0
  -20.9690    3.9370   -0.2800 C   0  0  0  0  0
  -20.9340    3.4890   -2.6760 C   0  0  0  0  0
  -21.6380    3.9530   -3.7880 C   0  0  0  0  0
  -21.8920    3.1510   -4.9150 C   0  0  0  0  0
  -21.4380    1.8280   -4.9440 C   0  0  0  0  0
  -20.7430    1.3270   -3.8210 C   0  0  0  0  0
  -20.5020    2.1460   -2.7110 C   0  0  0  0  0
  -20.4740    4.1320    9.7250 F   0  0  0  0  0
  -19.4680    4.9530    9.5180 C   0  0  0  0  0
  -18.4070    4.2250    9.2830 F   0  0  0  0  0
  -19.2620    5.6610   10.6120 F   0  0  0  0  0
  -21.0280    2.7740    0.0920 O   0  0  0  0  0
  -20.7377    5.3388   -1.7525 H   0  0  0  0  0
  -18.9076    7.3724    7.3891 H   0  0  0  0  0
  -20.8477    4.4438    7.2266 H   0  0  0  0  0
  -19.0251    4.5115    6.8764 H   0  0  0  0  0
  -20.8564    7.4062    7.7971 H   0  0  0  0  0
  -19.3367    6.3550    5.4488 H   0  0  0  0  0
  -21.0358    6.5402    5.9243 H   0  0  0  0  0
  -21.6701    4.5100    4.8687 H   0  0  0  0  0
  -19.9410    4.0023    4.6733 H   0  0  0  0  0
  -19.6407    5.8946    3.0892 H   0  0  0  0  0
  -21.3922    6.2269    3.2055 H   0  0  0  0  0
  -21.8392    3.8910    2.4412 H   0  0  0  0  0
  -20.0709    3.6739    2.2042 H   0  0  0  0  0
  -20.1671    5.6894    0.6522 H   0  0  0  0  0
  -21.9553    5.5465    0.7298 H   0  0  0  0  0
  -22.0061    4.9790   -3.7829 H   0  0  0  0  0
  -22.4411    3.5591   -5.7636 H   0  0  0  0  0
  -21.6168    1.1972   -5.8148 H   0  0  0  0  0
  -20.3916    0.2952   -3.8184 H   0  0  0  0  0
  -19.9680    1.7364   -1.8536 H   0  0  0  0  0
 11  1  1  0  0  0
  1 12  1  0  0  0
  2  3  1  0  0  0
  4  2  1  0  0  0
  2  5  1  0  0  0
  2 19  1  0  0  0
  6  4  1  0  0  0
  7  6  1  0  0  0
  8  7  1  0  0  0
  9  8  1  0  0  0
 10  9  1  0  0  0
 10 11  1  0  0  0
 11 22  2  0  0  0
 12 13  4  0  0  0
 12 17  4  0  0  0
 13 14  4  0  0  0
 14 15  4  0  0  0
 15 16  4  0  0  0
 16 17  4  0  0  0
 19 18  1  0  0  0
 19 20  1  0  0  0
 19 21  1  0  0  0
  1 23  1  0  0  0
  3 24  1  0  0  0
  4 25  1  0  0  0
  4 26  1  0  0  0
  5 27  1  0  0  0
  6 28  1  0  0  0
  6 29  1  0  0  0
  7 30  1  0  0  0
  7 31  1  0  0  0
  8 32  1  0  0  0
  8 33  1  0  0  0
  9 34  1  0  0  0
  9 35  1  0  0  0
 10 36  1  0  0  0
 10 37  1  0  0  0
 13 38  1  0  0  0
 14 39  1  0  0  0
 15 40  1  0  0  0
 16 41  1  0  0  0
 17 42  1  0  0  0
M  END
$$$$
