5ans_ligand
  -I-interpret- 

 45 47  0  0  0  0  0  0  0  0999 V2000
  -26.2280   -2.1330   -5.2360 O   0  0  0  0  0
  -27.4080   -2.9360   -5.3910 C   0  0  0  0  0
  -28.4590   -2.4540   -4.3850 C   0  0  0  0  0
  -27.9480   -2.6100   -6.7920 C   0  0  0  0  0
  -27.1140   -4.4520   -5.1580 C   0  0  0  0  0
  -26.0460   -4.8260   -6.0950 N   0  0  0  0  0
  -24.7060   -4.6220   -5.9050 C   0  0  0  0  0
  -24.0700   -4.0640   -4.6560 C   0  0  0  0  0
  -24.4070   -4.9670   -3.5920 O   0  0  0  0  0
  -24.2520   -4.4670   -2.2630 C   0  0  0  0  0
  -24.5960   -5.5790   -1.2720 C   0  0  0  0  0
  -24.0470   -4.9910   -6.9600 N   0  0  0  0  0
  -24.9180   -5.4510   -7.8780 C   0  0  0  0  0
  -24.7410   -5.9640   -9.1740 C   0  0  0  0  0
  -23.4510   -5.9960   -9.6760 N   0  0  0  0  0
  -26.2100   -5.3530   -7.3450 C   0  0  0  0  0
  -27.3300   -5.8140   -8.1720 C   0  0  0  0  0
  -28.6640   -5.8120   -7.7320 C   0  0  0  0  0
  -29.6600   -6.2840   -8.5480 C   0  0  0  0  0
  -29.3660   -6.7700   -9.8250 C   0  0  0  0  0
  -28.0780   -6.7850  -10.2850 C   0  0  0  0  0
  -27.0300   -6.3240   -9.4690 C   0  0  0  0  0
  -25.7580   -6.3460   -9.9080 N   0  0  0  0  0
  -26.4479   -1.2107   -5.3863 H   0  0  0  0  0
  -29.3773   -3.0258   -4.5188 H   0  0  0  0  0
  -28.0837   -2.5987   -3.3719 H   0  0  0  0  0
  -28.6609   -1.3959   -4.5513 H   0  0  0  0  0
  -27.2176   -2.9147   -7.5415 H   0  0  0  0  0
  -28.8824   -3.1473   -6.9539 H   0  0  0  0  0
  -28.1257   -1.5375   -6.8710 H   0  0  0  0  0
  -28.0081   -5.0512   -5.3302 H   0  0  0  0  0
  -26.8071   -4.6335   -4.1280 H   0  0  0  0  0
  -24.4353   -3.0586   -4.4465 H   0  0  0  0  0
  -22.9893   -3.9806   -4.7709 H   0  0  0  0  0
  -24.9175   -3.6176   -2.1091 H   0  0  0  0  0
  -23.2230   -4.1420   -2.1094 H   0  0  0  0  0
  -25.6266   -5.8974   -1.4286 H   0  0  0  0  0
  -23.9255   -6.4239   -1.4289 H   0  0  0  0  0
  -24.4803   -5.2057   -0.2545 H   0  0  0  0  0
  -22.6746   -5.6551   -9.1092 H   0  0  0  0  0
  -23.2771   -6.3605  -10.6127 H   0  0  0  0  0
  -28.9082   -5.4342   -6.7392 H   0  0  0  0  0
  -30.6919   -6.2801   -8.1969 H   0  0  0  0  0
  -30.1706   -7.1405  -10.4602 H   0  0  0  0  0
  -27.8634   -7.1555  -11.2874 H   0  0  0  0  0
  1  2  1  0  0  0
  2  3  1  0  0  0
  2  4  1  0  0  0
  2  5  1  0  0  0
  5  6  1  0  0  0
  6  7  4  0  0  0
  6 16  4  0  0  0
  7  8  1  0  0  0
  7 12  4  0  0  0
  8  9  1  0  0  0
  9 10  1  0  0  0
 10 11  1  0  0  0
 12 13  4  0  0  0
 13 14  4  0  0  0
 13 16  4  0  0  0
 14 15  1  0  0  0
 14 23  4  0  0  0
 16 17  4  0  0  0
 17 18  4  0  0  0
 17 22  4  0  0  0
 18 19  4  0  0  0
 19 20  4  0  0  0
 20 21  4  0  0  0
 21 22  4  0  0  0
 22 23  4  0  0  0
  1 24  1  0  0  0
  3 25  1  0  0  0
  3 26  1  0  0  0
  3 27  1  0  0  0
  4 28  1  0  0  0
  4 29  1  0  0  0
  4 30  1  0  0  0
  5 31  1  0  0  0
  5 32  1  0  0  0
  8 33  1  0  0  0
  8 34  1  0  0  0
 10 35  1  0  0  0
 10 36  1  0  0  0
 11 37  1  0  0  0
 11 38  1  0  0  0
 11 39  1  0  0  0
 15 40  1  0  0  0
 15 41  1  0  0  0
 18 42  1  0  0  0
 19 43  1  0  0  0
 20 44  1  0  0  0
 21 45  1  0  0  0
M  END
$$$$
