5vdv_ligand
  -I-interpret- 

 19 21  0  0  0  0  0  0  0  0999 V2000
  -30.1140   18.6760  -24.0880 C   0  0  0  0  0
  -29.0420   16.7220  -23.0470 C   0  0  0  0  0
  -29.8800   16.6220  -25.3730 C   0  0  0  0  0
  -29.3770   18.8790  -21.9300 C   0  0  0  0  0
  -30.4880   17.2170  -26.4390 C   0  0  0  0  0
  -30.9170   18.5290  -26.3620 C   0  0  0  0  0
  -30.7400   19.2560  -25.2190 C   0  0  0  0  0
  -29.6720   17.3290  -24.1640 C   0  0  0  0  0
  -28.8990   17.5040  -21.9350 N   0  0  0  0  0
  -29.9610   19.4440  -22.9650 N   0  0  0  0  0
  -29.0490   19.3100  -20.6500 N   0  0  0  0  0
  -28.4460   18.3320  -19.9480 N   0  0  0  0  0
  -28.3460   17.2480  -20.6920 N   0  0  0  0  0
  -28.6380   15.4880  -23.1160 O   0  0  0  0  0
  -29.5492   15.5865  -25.4530 H   0  0  0  0  0
  -30.6370   16.6531  -27.3598 H   0  0  0  0  0
  -31.4020   18.9886  -27.2232 H   0  0  0  0  0
  -31.0829   20.2898  -25.1768 H   0  0  0  0  0
  -28.2374   15.2365  -22.2806 H   0  0  0  0  0
  1  7  4  0  0  0
  8  1  4  0  0  0
  1 10  4  0  0  0
  8  2  4  0  0  0
  2  9  4  0  0  0
  2 14  1  0  0  0
  3  5  4  0  0  0
  3  8  4  0  0  0
  9  4  4  0  0  0
  4 10  4  0  0  0
  4 11  4  0  0  0
  5  6  4  0  0  0
  6  7  4  0  0  0
  9 13  4  0  0  0
 11 12  4  0  0  0
 12 13  4  0  0  0
  3 15  1  0  0  0
  5 16  1  0  0  0
  6 17  1  0  0  0
  7 18  1  0  0  0
 14 19  1  0  0  0
M  END
$$$$
