4fgy_ligand
  -I-interpret- 

213214  0  0  0  0  0  0  0  0999 V2000
  -26.0220  -15.0080  -19.5480 N   0  3  0  0  0
  -26.6630  -15.8550  -18.5570 C   0  0  0  0  0
  -26.1420  -17.2600  -18.7190 C   0  0  0  0  0
  -26.6860  -18.0450  -19.4830 O   0  0  0  0  0
  -28.1910  -15.7980  -18.6710 C   0  0  0  0  0
  -28.7300  -14.7130  -19.6060 C   0  0  0  0  0
  -28.2190  -13.3050  -19.3140 C   0  0  0  0  0
  -26.9950  -12.9930  -20.0440 N   0  0  0  0  0
  -26.6450  -13.5440  -21.2000 C   0  0  0  0  0
  -27.4350  -14.4240  -21.7720 N   0  0  0  0  0
  -25.5110  -13.2240  -21.7870 N   0  0  0  0  0
  -25.0690  -17.5530  -17.9970 N   0  0  0  0  0
  -24.4080  -16.5460  -17.1700 C   0  0  0  0  0
  -25.0600  -15.9920  -15.9450 C   0  0  0  0  0
  -25.1510  -14.7760  -15.7780 O   0  0  0  0  0
  -23.8850  -15.4240  -18.0050 C   0  0  0  0  0
  -22.9160  -15.8700  -19.0350 C   0  0  0  0  0
  -22.9720  -17.0680  -19.5720 N   0  0  0  0  0
  -21.8610  -15.2350  -19.6130 C   0  0  0  0  0
  -22.0030  -17.1980  -20.4570 C   0  0  0  0  0
  -21.3270  -16.0760  -20.4810 N   0  0  0  0  0
  -25.4470  -16.8530  -15.0280 N   0  0  0  0  0
  -26.2550  -16.4110  -13.8810 C   0  0  0  0  0
  -25.4650  -15.6340  -12.8180 C   0  0  0  0  0
  -25.9350  -14.5980  -12.3490 O   0  0  0  0  0
  -27.0490  -17.5710  -13.2410 C   0  0  0  0  0
  -27.8750  -18.4330  -14.2010 C   0  0  0  0  0
  -27.1740  -19.7410  -14.6060 C   0  0  0  0  0
  -25.9930  -19.5230  -15.5600 C   0  0  0  0  0
  -25.1860  -20.7360  -15.8800 N   0  3  0  0  0
  -24.2770  -16.1080  -12.4430 N   0  0  0  0  0
  -23.4650  -15.4170  -11.4170 C   0  0  0  0  0
  -22.9490  -14.0210  -11.7950 C   0  0  0  0  0
  -23.1600  -13.0630  -11.0480 O   0  0  0  0  0
  -22.3140  -16.2790  -10.9410 C   0  0  0  0  0
  -22.8210  -17.7130  -10.7420 C   0  0  0  0  0
  -21.7370  -15.6620   -9.6780 C   0  0  0  0  0
  -21.8330  -18.6860  -10.1360 C   0  0  0  0  0
  -22.2720  -13.8950  -12.9370 N   0  0  0  0  0
  -22.1340  -12.5860  -13.5730 C   0  0  0  0  0
  -23.5510  -12.2070  -13.9170 C   0  0  0  0  0
  -24.2960  -13.0320  -14.4690 O   0  0  0  0  0
  -21.3540  -12.6900  -14.8790 C   0  0  0  0  0
  -19.8460  -12.9090  -14.9360 C   0  0  0  0  0
  -19.5380  -13.5130  -16.2890 C   0  0  0  0  0
  -19.0770  -11.6120  -14.7470 C   0  0  0  0  0
  -23.9490  -10.9800  -13.6090 N   0  0  0  0  0
  -25.3590  -10.6310  -13.7110 C   0  0  0  0  0
  -25.6940  -10.1780  -12.3610 C   0  0  0  0  0
  -26.0110   -9.0150  -12.1610 O   0  0  0  0  0
  -26.1850  -11.8770  -13.9460 C   0  0  0  0  0
  -27.1260  -11.7930  -15.1090 C   0  0  0  0  0
  -26.7550  -12.1370  -16.3560 N   0  0  0  0  0
  -28.4760  -11.4530  -15.1740 C   0  0  0  0  0
  -27.8020  -11.9990  -17.1850 C   0  0  0  0  0
  -28.8570  -11.5780  -16.4610 N   0  0  0  0  0
  -25.6270  -11.1190  -11.4140 N   0  0  0  0  0
  -25.8780  -10.8030  -10.0140 C   0  0  0  0  0
  -24.7580   -9.8900   -9.5740 C   0  0  0  0  0
  -25.0080   -8.8530   -8.9410 O   0  0  0  0  0
  -25.9560  -12.0630   -9.1390 C   0  0  0  0  0
  -26.6890  -13.2390   -9.7760 C   0  0  0  0  0
  -28.1580  -12.9370  -10.0810 C   0  0  0  0  0
  -28.6090  -13.5240  -11.3510 N   0  0  0  0  0
  -29.0180  -14.7860  -11.5120 C   0  0  0  0  0
  -29.0410  -15.6400  -10.4850 N   0  0  0  0  0
  -29.4000  -15.2010  -12.7150 N   0  0  0  0  0
  -23.5300  -10.2590   -9.9600 N   0  0  0  0  0
  -22.3480   -9.4260   -9.7250 C   0  0  0  0  0
  -22.4370   -8.1370  -10.5170 C   0  0  0  0  0
  -21.8310   -7.1390  -10.1520 O   0  0  0  0  0
  -21.0620  -10.1620  -10.1150 C   0  0  0  0  0
  -20.6870  -11.5120   -9.4980 C   0  0  0  0  0
  -19.5220  -12.0700  -10.2970 C   0  0  0  0  0
  -20.3330  -11.4200   -8.0240 C   0  0  0  0  0
  -23.1800   -8.1680  -11.6160 N   0  0  0  0  0
  -23.3820   -6.9570  -12.4080 C   0  0  0  0  0
  -24.5090   -6.0990  -11.8620 C   0  0  0  0  0
  -24.3670   -4.8840  -11.7820 O   0  0  0  0  0
  -23.6180   -7.2900  -13.8760 C   0  0  0  0  0
  -22.3140   -7.5770  -14.6050 C   0  0  0  0  0
  -22.5780   -8.3790  -15.8630 C   0  0  0  0  0
  -21.5860   -6.2820  -14.9280 C   0  0  0  0  0
  -25.6150   -6.7430  -11.4840 N   0  0  0  0  0
  -26.7730   -6.0680  -10.9020 C   0  0  0  0  0
  -26.4270   -5.2680   -9.6410 C   0  0  0  0  0
  -26.9830   -4.1860   -9.4320 O   0  0  0  0  0
  -27.9120   -7.0640  -10.6550 C   0  0  0  0  0
  -28.8170   -7.2530  -11.8740 C   0  0  0  0  0
  -29.2130   -8.7000  -12.1230 C   0  0  0  0  0
  -29.8150   -9.3580  -11.2700 O   0  0  0  0  0
  -28.8720   -9.2030  -13.3060 N   0  0  0  0  0
  -25.5180   -5.8010   -8.8200 N   0  0  0  0  0
  -24.8730   -5.0470   -7.7280 C   0  0  0  0  0
  -23.8160   -5.8850   -7.0080 C   0  0  0  0  0
  -22.7012   -5.3883   -6.6949 O   0  0  0  0  0
  -25.8910   -4.5050   -6.7130 C   0  0  0  0  0
  -25.4800   -3.1850   -6.0670 C   0  0  0  0  0
  -25.5860   -1.9780   -7.0040 C   0  0  0  0  0
  -25.6430   -2.1520   -8.2410 O   0  0  0  0  0
  -25.6070   -0.8330   -6.5040 O   0  0  0  0  0
  -24.0629   -7.0875   -6.7242 O   0  0  0  0  0
  -25.0093  -15.0704  -19.4430 H   0  0  0  0  0
  -26.2880  -15.3188  -20.4824 H   0  0  0  0  0
  -26.3202  -14.0421  -19.4120 H   0  0  0  0  0
  -26.4205  -15.4941  -17.5575 H   0  0  0  0  0
  -28.5726  -15.5730  -17.6751 H   0  0  0  0  0
  -28.5117  -16.7552  -19.0820 H   0  0  0  0  0
  -29.8118  -14.6907  -19.4745 H   0  0  0  0  0
  -28.3971  -14.9682  -20.6121 H   0  0  0  0  0
  -28.0008  -13.2405  -18.2480 H   0  0  0  0  0
  -28.9867  -12.5969  -19.6260 H   0  0  0  0  0
  -26.3636  -12.3028  -19.6375 H   0  0  0  0  0
  -28.3160  -14.6831  -21.3280 H   0  0  0  0  0
  -25.2558  -13.6578  -22.6742 H   0  0  0  0  0
  -24.8875  -12.5423  -21.3546 H   0  0  0  0  0
  -24.6968  -18.5024  -18.0195 H   0  0  0  0  0
  -23.6310  -17.1707  -16.7294 H   0  0  0  0  0
  -23.3685  -14.7299  -17.3420 H   0  0  0  0  0
  -24.7320  -14.9712  -18.5204 H   0  0  0  0  0
  -21.5199  -14.2219  -19.4000 H   0  0  0  0  0
  -21.8004  -18.0822  -21.0614 H   0  0  0  0  0
  -25.1845  -17.8349  -15.1133 H   0  0  0  0  0
  -26.9678  -15.7037  -14.3049 H   0  0  0  0  0
  -27.7602  -17.1117  -12.5545 H   0  0  0  0  0
  -26.3104  -18.2356  -12.7928 H   0  0  0  0  0
  -28.0352  -17.8517  -15.1090 H   0  0  0  0  0
  -28.7993  -18.7008  -13.6891 H   0  0  0  0  0
  -27.9059  -20.3618  -15.1228 H   0  0  0  0  0
  -26.7847  -20.2020  -13.6982 H   0  0  0  0  0
  -25.3186  -18.8268  -15.0615 H   0  0  0  0  0
  -26.4178  -19.1779  -16.5026 H   0  0  0  0  0
  -24.4313  -20.4823  -16.5175 H   0  0  0  0  0
  -24.7923  -21.1176  -15.0199 H   0  0  0  0  0
  -25.7845  -21.4346  -16.3206 H   0  0  0  0  0
  -23.9211  -16.9627  -12.8711 H   0  0  0  0  0
  -24.1745  -15.2524  -10.6061 H   0  0  0  0  0
  -21.5085  -16.3247  -11.6740 H   0  0  0  0  0
  -23.0580  -18.0951  -11.7349 H   0  0  0  0  0
  -23.6559  -17.6491  -10.0441 H   0  0  0  0  0
  -21.3818  -14.6550   -9.8967 H   0  0  0  0  0
  -22.5102  -15.6174   -8.9110 H   0  0  0  0  0
  -20.9066  -16.2726   -9.3235 H   0  0  0  0  0
  -20.9565  -18.7600  -10.7797 H   0  0  0  0  0
  -21.5326  -18.3302   -9.1505 H   0  0  0  0  0
  -22.3008  -19.6661  -10.0429 H   0  0  0  0  0
  -21.8483  -14.7162  -13.3689 H   0  0  0  0  0
  -21.6139  -11.8784  -12.9273 H   0  0  0  0  0
  -21.4761  -11.7001  -15.3185 H   0  0  0  0  0
  -21.7522  -13.5977  -15.3323 H   0  0  0  0  0
  -19.5371  -13.5702  -14.1264 H   0  0  0  0  0
  -20.0695  -14.4589  -16.3927 H   0  0  0  0  0
  -19.8583  -12.8270  -17.0731 H   0  0  0  0  0
  -18.4651  -13.6866  -16.3722 H   0  0  0  0  0
  -19.3506  -10.9107  -15.5353 H   0  0  0  0  0
  -19.3236  -11.1831  -13.7757 H   0  0  0  0  0
  -18.0072  -11.8151  -14.7948 H   0  0  0  0  0
  -23.2701  -10.2835  -13.3019 H   0  0  0  0  0
  -25.5435   -9.9126  -14.5097 H   0  0  0  0  0
  -26.7942  -12.0270  -13.0547 H   0  0  0  0  0
  -25.4862  -12.6856  -14.1606 H   0  0  0  0  0
  -29.1060  -11.1438  -14.3400 H   0  0  0  0  0
  -27.7989  -12.1938  -18.2575 H   0  0  0  0  0
  -25.3956  -12.0771  -11.6766 H   0  0  0  0  0
  -26.8472  -10.3170   -9.9018 H   0  0  0  0  0
  -26.5123  -11.7915   -8.2418 H   0  0  0  0  0
  -24.9311  -12.3881   -8.9600 H   0  0  0  0  0
  -26.6612  -14.0685   -9.0694 H   0  0  0  0  0
  -26.1944  -13.4651  -10.7206 H   0  0  0  0  0
  -28.2676  -11.8551  -10.1560 H   0  0  0  0  0
  -28.7603  -13.3685   -9.2815 H   0  0  0  0  0
  -28.6098  -12.9209  -12.1736 H   0  0  0  0  0
  -29.3500  -16.6015  -10.6281 H   0  0  0  0  0
  -28.7496  -15.3306   -9.5578 H   0  0  0  0  0
  -29.3796  -14.5580  -13.5066 H   0  0  0  0  0
  -23.4132  -11.1538  -10.4356 H   0  0  0  0  0
  -22.3182   -9.2004   -8.6590 H   0  0  0  0  0
  -20.2698   -9.4945   -9.7761 H   0  0  0  0  0
  -21.2064  -10.3920  -11.1706 H   0  0  0  0  0
  -21.5534  -12.1717   -9.5456 H   0  0  0  0  0
  -19.8235  -12.1960  -11.3369 H   0  0  0  0  0
  -18.6812  -11.3784  -10.2423 H   0  0  0  0  0
  -19.2282  -13.0346   -9.8832 H   0  0  0  0  0
  -19.4811  -10.7519   -7.8973 H   0  0  0  0  0
  -21.1872  -11.0307   -7.4701 H   0  0  0  0  0
  -20.0775  -12.4116   -7.6504 H   0  0  0  0  0
  -23.6132   -9.0434  -11.9099 H   0  0  0  0  0
  -22.4641   -6.3739  -12.3334 H   0  0  0  0  0
  -24.0948   -6.4322  -14.3502 H   0  0  0  0  0
  -24.2444   -8.1804  -13.9296 H   0  0  0  0  0
  -21.6735   -8.1695  -13.9517 H   0  0  0  0  0
  -23.0523   -9.3237  -15.5972 H   0  0  0  0  0
  -23.2366   -7.8129  -16.5217 H   0  0  0  0  0
  -21.6343   -8.5753  -16.3719 H   0  0  0  0  0
  -22.2172   -5.6605  -15.5632 H   0  0  0  0  0
  -21.3645   -5.7506  -14.0024 H   0  0  0  0  0
  -20.6561   -6.5097  -15.4492 H   0  0  0  0  0
  -25.6539   -7.7548  -11.6072 H   0  0  0  0  0
  -27.1157   -5.3337  -11.6310 H   0  0  0  0  0
  -28.5256   -6.6718   -9.8440 H   0  0  0  0  0
  -27.4635   -8.0297  -10.4219 H   0  0  0  0  0
  -28.2620   -6.9120  -12.7479 H   0  0  0  0  0
  -29.7330   -6.6915  -11.6901 H   0  0  0  0  0
  -29.1079  -10.1681  -13.5370 H   0  0  0  0  0
  -28.3746   -8.6237  -13.9823 H   0  0  0  0  0
  -25.2568   -6.7778   -8.9547 H   0  0  0  0  0
  -24.3810   -4.1963   -8.1995 H   0  0  0  0  0
  -22.6698   -4.4715   -6.9779 H   0  0  0  0  0
  -25.9766   -5.2428   -5.9152 H   0  0  0  0  0
  -26.8212   -4.3255   -7.2521 H   0  0  0  0  0
  -24.4341   -3.2783   -5.7746 H   0  0  0  0  0
  -26.1569   -3.0078   -5.2312 H   0  0  0  0  0
  -25.6144   -3.0923   -8.4324 H   0  0  0  0  0
  1  2  1  0  0  0
  2  3  1  0  0  0
  2  5  1  0  0  0
  3  4  2  0  0  0
  3 12  1  0  0  0
  5  6  1  0  0  0
  6  7  1  0  0  0
  7  8  1  0  0  0
  8  9  1  0  0  0
  9 10  2  0  0  0
  9 11  1  0  0  0
 12 13  1  0  0  0
 13 14  1  0  0  0
 13 16  1  0  0  0
 14 15  2  0  0  0
 14 22  1  0  0  0
 16 17  1  0  0  0
 17 18  4  0  0  0
 17 19  4  0  0  0
 18 20  4  0  0  0
 19 21  4  0  0  0
 20 21  4  0  0  0
 22 23  1  0  0  0
 23 24  1  0  0  0
 23 26  1  0  0  0
 24 25  2  0  0  0
 24 31  1  0  0  0
 26 27  1  0  0  0
 27 28  1  0  0  0
 28 29  1  0  0  0
 29 30  1  0  0  0
 31 32  1  0  0  0
 32 33  1  0  0  0
 32 35  1  0  0  0
 33 34  2  0  0  0
 33 39  1  0  0  0
 35 36  1  0  0  0
 35 37  1  0  0  0
 36 38  1  0  0  0
 39 40  1  0  0  0
 40 41  1  0  0  0
 40 43  1  0  0  0
 41 42  2  0  0  0
 41 47  1  0  0  0
 43 44  1  0  0  0
 44 45  1  0  0  0
 44 46  1  0  0  0
 47 48  1  0  0  0
 48 49  1  0  0  0
 48 51  1  0  0  0
 49 50  2  0  0  0
 49 57  1  0  0  0
 51 52  1  0  0  0
 52 53  4  0  0  0
 52 54  4  0  0  0
 53 55  4  0  0  0
 54 56  4  0  0  0
 55 56  4  0  0  0
 57 58  1  0  0  0
 58 59  1  0  0  0
 58 61  1  0  0  0
 59 60  2  0  0  0
 59 68  1  0  0  0
 61 62  1  0  0  0
 62 63  1  0  0  0
 63 64  1  0  0  0
 64 65  1  0  0  0
 65 66  1  0  0  0
 65 67  2  0  0  0
 68 69  1  0  0  0
 69 70  1  0  0  0
 69 72  1  0  0  0
 70 71  2  0  0  0
 70 76  1  0  0  0
 72 73  1  0  0  0
 73 74  1  0  0  0
 73 75  1  0  0  0
 76 77  1  0  0  0
 77 78  1  0  0  0
 77 80  1  0  0  0
 78 79  2  0  0  0
 78 84  1  0  0  0
 80 81  1  0  0  0
 81 82  1  0  0  0
 81 83  1  0  0  0
 84 85  1  0  0  0
 85 86  1  0  0  0
 85 88  1  0  0  0
 86 87  2  0  0  0
 86 93  1  0  0  0
 88 89  1  0  0  0
 89 90  1  0  0  0
 90 91  2  0  0  0
 90 92  1  0  0  0
 93 94  1  0  0  0
 94 95  1  0  0  0
 94 97  1  0  0  0
 95 96  1  0  0  0
 97 98  1  0  0  0
 98 99  1  0  0  0
 99100  1  0  0  0
 99101  2  0  0  0
 95102  2  0  0  0
  1103  1  0  0  0
  1104  1  0  0  0
  1105  1  0  0  0
  2106  1  0  0  0
  5107  1  0  0  0
  5108  1  0  0  0
  6109  1  0  0  0
  6110  1  0  0  0
  7111  1  0  0  0
  7112  1  0  0  0
  8113  1  0  0  0
 10114  1  0  0  0
 11115  1  0  0  0
 11116  1  0  0  0
 12117  1  0  0  0
 13118  1  0  0  0
 16119  1  0  0  0
 16120  1  0  0  0
 19121  1  0  0  0
 20122  1  0  0  0
 22123  1  0  0  0
 23124  1  0  0  0
 26125  1  0  0  0
 26126  1  0  0  0
 27127  1  0  0  0
 27128  1  0  0  0
 28129  1  0  0  0
 28130  1  0  0  0
 29131  1  0  0  0
 29132  1  0  0  0
 30133  1  0  0  0
 30134  1  0  0  0
 30135  1  0  0  0
 31136  1  0  0  0
 32137  1  0  0  0
 35138  1  0  0  0
 36139  1  0  0  0
 36140  1  0  0  0
 37141  1  0  0  0
 37142  1  0  0  0
 37143  1  0  0  0
 38144  1  0  0  0
 38145  1  0  0  0
 38146  1  0  0  0
 39147  1  0  0  0
 40148  1  0  0  0
 43149  1  0  0  0
 43150  1  0  0  0
 44151  1  0  0  0
 45152  1  0  0  0
 45153  1  0  0  0
 45154  1  0  0  0
 46155  1  0  0  0
 46156  1  0  0  0
 46157  1  0  0  0
 47158  1  0  0  0
 48159  1  0  0  0
 51160  1  0  0  0
 51161  1  0  0  0
 54162  1  0  0  0
 55163  1  0  0  0
 57164  1  0  0  0
 58165  1  0  0  0
 61166  1  0  0  0
 61167  1  0  0  0
 62168  1  0  0  0
 62169  1  0  0  0
 63170  1  0  0  0
 63171  1  0  0  0
 64172  1  0  0  0
 66173  1  0  0  0
 66174  1  0  0  0
 67175  1  0  0  0
 68176  1  0  0  0
 69177  1  0  0  0
 72178  1  0  0  0
 72179  1  0  0  0
 73180  1  0  0  0
 74181  1  0  0  0
 74182  1  0  0  0
 74183  1  0  0  0
 75184  1  0  0  0
 75185  1  0  0  0
 75186  1  0  0  0
 76187  1  0  0  0
 77188  1  0  0  0
 80189  1  0  0  0
 80190  1  0  0  0
 81191  1  0  0  0
 82192  1  0  0  0
 82193  1  0  0  0
 82194  1  0  0  0
 83195  1  0  0  0
 83196  1  0  0  0
 83197  1  0  0  0
 84198  1  0  0  0
 85199  1  0  0  0
 88200  1  0  0  0
 88201  1  0  0  0
 89202  1  0  0  0
 89203  1  0  0  0
 92204  1  0  0  0
 92205  1  0  0  0
 93206  1  0  0  0
 94207  1  0  0  0
 96208  1  0  0  0
 97209  1  0  0  0
 97210  1  0  0  0
 98211  1  0  0  0
 98212  1  0  0  0
100213  1  0  0  0
M  END
$$$$
