### 
### Created by X-TOOL on Mon Sep 10 21:13:15 2018
### 

@<TRIPOS>MOLECULE
4fgy_ligand
  215   216     1     0     0
SMALL
GAST_HUCK


@<TRIPOS>ATOM
      1 N         -26.0220  -15.0080  -19.5480 N.4       1 ARG         0.2379
      2 CA        -26.6630  -15.8550  -18.5570 C.3       1 ARG         0.0651
      3 C         -26.1420  -17.2600  -18.7190 C.2       1 ARG         0.2268
      4 O         -26.6860  -18.0450  -19.4830 O.2       1 ARG        -0.3907
      5 CB        -28.1910  -15.7980  -18.6710 C.3       1 ARG         0.0110
      6 CG        -28.7300  -14.7130  -19.6060 C.3       1 ARG        -0.0125
      7 CD        -28.2190  -13.3050  -19.3140 C.3       1 ARG         0.0629
      8 NE        -26.9950  -12.9930  -20.0440 N.pl3     1 ARG        -0.2723
      9 CZ        -26.6450  -13.5440  -21.2000 C.cat     1 ARG         0.2882
     10 NH1       -27.4350  -14.4240  -21.7720 N.pl3     1 ARG        -0.2849
     11 NH2       -25.5110  -13.2240  -21.7870 N.pl3     1 ARG        -0.2849
     12 N         -25.0690  -17.5530  -17.9970 N.am      1 HIS        -0.2598
     13 CA        -24.4080  -16.5460  -17.1700 C.3       1 HIS         0.1370
     14 C         -25.0600  -15.9920  -15.9450 C.2       1 HIS         0.2054
     15 O         -25.1510  -14.7760  -15.7780 O.2       1 HIS        -0.3942
     16 CB        -23.8850  -15.4240  -18.0050 C.3       1 HIS         0.0145
     17 CG        -22.9160  -15.8700  -19.0350 C.2       1 HIS        -0.0027
     18 ND1       -22.9720  -17.0680  -19.5720 N.2       1 HIS        -0.3252
     19 CD2       -21.8610  -15.2350  -19.6130 C.2       1 HIS         0.0291
     20 CE1       -22.0030  -17.1980  -20.4570 C.2       1 HIS         0.0907
     21 NE2       -21.3270  -16.0760  -20.4810 N.pl3     1 HIS        -0.2752
     22 N         -25.4470  -16.8530  -15.0280 N.am      1 LYS        -0.2636
     23 CA        -26.2550  -16.4110  -13.8810 C.3       1 LYS         0.1310
     24 C         -25.4650  -15.6340  -12.8180 C.2       1 LYS         0.2039
     25 O         -25.9350  -14.5980  -12.3490 O.2       1 LYS        -0.3944
     26 CB        -27.0490  -17.5710  -13.2410 C.3       1 LYS        -0.0122
     27 CG        -27.8750  -18.4330  -14.2010 C.3       1 LYS        -0.0440
     28 CD        -27.1740  -19.7410  -14.6060 C.3       1 LYS        -0.0124
     29 CE        -25.9930  -19.5230  -15.5600 C.3       1 LYS        -0.0354
     30 NZ        -25.1860  -20.7360  -15.8800 N.4       1 LYS         0.2185
     31 N         -24.2770  -16.1080  -12.4430 N.am      1 ILE        -0.2635
     32 CA        -23.4650  -15.4170  -11.4170 C.3       1 ILE         0.1335
     33 C         -22.9490  -14.0210  -11.7950 C.2       1 ILE         0.2042
     34 O         -23.1600  -13.0630  -11.0480 O.2       1 ILE        -0.3944
     35 CB        -22.3140  -16.2790  -10.9410 C.3       1 ILE        -0.0037
     36 CG1       -22.8210  -17.7130  -10.7420 C.3       1 ILE        -0.0491
     37 CG2       -21.7370  -15.6620   -9.6780 C.3       1 ILE        -0.0582
     38 CD1       -21.8330  -18.6860  -10.1360 C.3       1 ILE        -0.0648
     39 N         -22.2720  -13.8950  -12.9370 N.am      1 LEU        -0.2637
     40 CA        -22.1340  -12.5860  -13.5730 C.3       1 LEU         0.1312
     41 C         -23.5510  -12.2070  -13.9170 C.2       1 LEU         0.2040
     42 O         -24.2960  -13.0320  -14.4690 O.2       1 LEU        -0.3944
     43 CB        -21.3540  -12.6900  -14.8790 C.3       1 LEU        -0.0101
     44 CG        -19.8460  -12.9090  -14.9360 C.3       1 LEU        -0.0425
     45 CD1       -19.5380  -13.5130  -16.2890 C.3       1 LEU        -0.0625
     46 CD2       -19.0770  -11.6120  -14.7470 C.3       1 LEU        -0.0625
     47 N         -23.9490  -10.9800  -13.6090 N.am      1 HIS        -0.2625
     48 CA        -25.3590  -10.6310  -13.7110 C.3       1 HIS         0.1369
     49 C         -25.6940  -10.1780  -12.3610 C.2       1 HIS         0.2054
     50 O         -26.0110   -9.0150  -12.1610 O.2       1 HIS        -0.3942
     51 CB        -26.1850  -11.8770  -13.9460 C.3       1 HIS         0.0145
     52 CG        -27.1260  -11.7930  -15.1090 C.2       1 HIS        -0.0027
     53 ND1       -26.7550  -12.1370  -16.3560 N.2       1 HIS        -0.3252
     54 CD2       -28.4760  -11.4530  -15.1740 C.2       1 HIS         0.0291
     55 CE1       -27.8020  -11.9990  -17.1850 C.2       1 HIS         0.0907
     56 NE2       -28.8570  -11.5780  -16.4610 N.pl3     1 HIS        -0.2752
     57 N         -25.6270  -11.1190  -11.4140 N.am      1 ARG        -0.2636
     58 CA        -25.8780  -10.8030  -10.0140 C.3       1 ARG         0.1311
     59 C         -24.7580   -9.8900   -9.5740 C.2       1 ARG         0.2039
     60 O         -25.0080   -8.8530   -8.9410 O.2       1 ARG        -0.3944
     61 CB        -25.9560  -12.0630   -9.1390 C.3       1 ARG        -0.0092
     62 CG        -26.6890  -13.2390   -9.7760 C.3       1 ARG        -0.0156
     63 CD        -28.1580  -12.9370  -10.0810 C.3       1 ARG         0.0627
     64 NE        -28.6090  -13.5240  -11.3510 N.pl3     1 ARG        -0.2723
     65 CZ        -29.0180  -14.7860  -11.5120 C.cat     1 ARG         0.2882
     66 NH1       -29.0410  -15.6400  -10.4850 N.pl3     1 ARG        -0.2849
     67 NH2       -29.4000  -15.2010  -12.7150 N.pl3     1 ARG        -0.2849
     68 N         -23.5300  -10.2590   -9.9600 N.am      1 LEU        -0.2637
     69 CA        -22.3480   -9.4260   -9.7250 C.3       1 LEU         0.1312
     70 C         -22.4370   -8.1370  -10.5170 C.2       1 LEU         0.2039
     71 O         -21.8310   -7.1390  -10.1520 O.2       1 LEU        -0.3944
     72 CB        -21.0620  -10.1620  -10.1150 C.3       1 LEU        -0.0101
     73 CG        -20.6870  -11.5120   -9.4980 C.3       1 LEU        -0.0425
     74 CD1       -19.5220  -12.0700  -10.2970 C.3       1 LEU        -0.0625
     75 CD2       -20.3330  -11.4200   -8.0240 C.3       1 LEU        -0.0625
     76 N         -23.1800   -8.1680  -11.6160 N.am      1 LEU        -0.2637
     77 CA        -23.3820   -6.9570  -12.4080 C.3       1 LEU         0.1312
     78 C         -24.5090   -6.0990  -11.8620 C.2       1 LEU         0.2039
     79 O         -24.3670   -4.8840  -11.7820 O.2       1 LEU        -0.3944
     80 CB        -23.6180   -7.2900  -13.8760 C.3       1 LEU        -0.0101
     81 CG        -22.3140   -7.5770  -14.6050 C.3       1 LEU        -0.0425
     82 CD1       -22.5780   -8.3790  -15.8630 C.3       1 LEU        -0.0625
     83 CD2       -21.5860   -6.2820  -14.9280 C.3       1 LEU        -0.0625
     84 N         -25.6150   -6.7430  -11.4840 N.am      1 GLN        -0.2636
     85 CA        -26.7730   -6.0680  -10.9020 C.3       1 GLN         0.1330
     86 C         -26.4270   -5.2680   -9.6410 C.2       1 GLN         0.2035
     87 O         -26.9830   -4.1860   -9.4320 O.2       1 GLN        -0.3944
     88 CB        -27.9120   -7.0640  -10.6550 C.3       1 GLN         0.0045
     89 CG        -28.8170   -7.2530  -11.8740 C.3       1 GLN         0.0412
     90 CD        -29.2130   -8.7000  -12.1230 C.2       1 GLN         0.1737
     91 OE1       -29.8150   -9.3580  -11.2700 O.2       1 GLN        -0.3973
     92 NE2       -28.8720   -9.2030  -13.3060 N.am      1 GLN        -0.3009
     93 N         -25.5180   -5.8010   -8.8200 N.am      1 GLU        -0.2694
     94 CA        -24.8730   -5.0470   -7.7280 C.3       1 GLU         0.0959
     95 C         -23.8160   -5.8850   -7.0080 C.2       1 GLU         0.0602
     96 O         -22.7012   -5.3883   -6.6949 O.co2     1 GLU        -0.5666
     97 CB        -25.8910   -4.5050   -6.7130 C.3       1 GLU        -0.0064
     98 CG        -25.4800   -3.1850   -6.0670 C.3       1 GLU         0.0038
     99 CD        -25.5860   -1.9780   -7.0040 C.2       1 GLU         0.0350
    100 OE1       -25.6430   -2.1520   -8.2410 O.co2     1 GLU        -0.5690
    101 OE2       -25.6070   -0.8330   -6.5040 O.co2     1 GLU        -0.5690
    102 O         -24.0629   -7.0875   -6.7242 O.co2     1 GLU        -0.5666
    103 H1        -26.3607  -14.0634  -19.4523 H         1 ARG         0.2015
    104 H2        -26.2366  -15.3499  -20.4716 H         1 ARG         0.2015
    105 H3        -25.0239  -15.0229  -19.4077 H         1 ARG         0.2015
    106 H4        -26.3853  -15.4934  -17.5559 H         1 ARG         0.1098
    107 H5        -28.6016  -15.6176  -17.6666 H         1 ARG         0.0347
    108 H6        -28.5421  -16.7725  -19.0411 H         1 ARG         0.0347
    109 H7        -29.8268  -14.7031  -19.5224 H         1 ARG         0.0302
    110 H8        -28.4430  -14.9746  -20.6352 H         1 ARG         0.0302
    111 H9        -28.0185  -13.2189  -18.2359 H         1 ARG         0.0689
    112 H10       -28.9956  -12.5810  -19.6016 H         1 ARG         0.0689
    113 H11       -26.3574  -12.2960  -19.6335 H         1 ARG         0.2642
    114 H12       -27.1648  -14.8524  -22.6689 H         1 ARG         0.2615
    115 H13       -28.3246  -14.6856  -21.3236 H         1 ARG         0.2615
    116 H14       -24.8814  -12.5356  -21.3504 H         1 ARG         0.2615
    117 H15       -25.2533  -13.6620  -22.6829 H         1 ARG         0.2615
    118 H16       -24.7041  -18.4838  -18.0190 H         1 HIS         0.1886
    119 H17       -23.5229  -17.0716  -16.7823 H         1 HIS         0.0817
    120 H18       -23.3859  -14.6992  -17.3450 H         1 HIS         0.0420
    121 H19       -24.7331  -14.9376  -18.5091 H         1 HIS         0.0420
    122 H20       -21.5202  -14.2228  -19.4002 H         1 HIS         0.0729
    123 H21       -21.8006  -18.0814  -21.0608 H         1 HIS         0.1199
    124 H22       -20.5116  -15.8811  -21.0794 H         1 HIS         0.2361
    125 H23       -25.1896  -17.8157  -15.1117 H         1 LYS         0.1883
    126 H24       -26.9977  -15.7083  -14.2868 H         1 LYS         0.0800
    127 H25       -27.7379  -17.1384  -12.5006 H         1 LYS         0.0312
    128 H26       -26.3300  -18.2297  -12.7320 H         1 LYS         0.0312
    129 H27       -28.0741  -17.8481  -15.1111 H         1 LYS         0.0269
    130 H28       -28.8273  -18.6851  -13.7115 H         1 LYS         0.0269
    131 H29       -27.9086  -20.3923  -15.1022 H         1 LYS         0.0317
    132 H30       -26.8019  -20.2345  -13.6961 H         1 LYS         0.0317
    133 H31       -25.3214  -18.7817  -15.1023 H         1 LYS         0.0813
    134 H32       -26.3910  -19.1234  -16.5044 H         1 LYS         0.0813
    135 H33       -24.4398  -20.4865  -16.5100 H         1 LYS         0.1994
    136 H34       -25.7765  -21.4271  -16.3156 H         1 LYS         0.1994
    137 H35       -24.7964  -21.1140  -15.0307 H         1 LYS         0.1994
    138 H36       -23.9281  -16.9459  -12.8627 H         1 ILE         0.1883
    139 H37       -24.1337  -15.2716  -10.5558 H         1 ILE         0.0803
    140 H38       -21.5279  -16.2934  -11.7103 H         1 ILE         0.0345
    141 H39       -23.1191  -18.1045  -11.7258 H         1 ILE         0.0267
    142 H40       -23.7002  -17.6710  -10.0823 H         1 ILE         0.0267
    143 H41       -21.3947  -14.6390   -9.8931 H         1 ILE         0.0235
    144 H42       -20.8872  -16.2672   -9.3294 H         1 ILE         0.0235
    145 H43       -22.5113  -15.6330   -8.8972 H         1 ILE         0.0235
    146 H44       -22.3040  -19.6756  -10.0415 H         1 ILE         0.0230
    147 H45       -21.5290  -18.3281   -9.1413 H         1 ILE         0.0230
    148 H46       -20.9479  -18.7617  -10.7848 H         1 ILE         0.0230
    149 H47       -21.8566  -14.7001  -13.3605 H         1 LEU         0.1883
    150 H48       -21.6624  -11.8581  -12.8965 H         1 LEU         0.0800
    151 H49       -21.5434  -11.7509  -15.4195 H         1 LEU         0.0315
    152 H50       -21.8020  -13.5284  -15.4324 H         1 LEU         0.0315
    153 H51       -19.5505  -13.6112  -14.1426 H         1 LEU         0.0298
    154 H52       -18.4555  -13.6887  -16.3742 H         1 LEU         0.0232
    155 H53       -19.8607  -12.8215  -17.0813 H         1 LEU         0.0232
    156 H54       -20.0738  -14.4678  -16.3949 H         1 LEU         0.0232
    157 H55       -19.3120  -11.1869  -13.7601 H         1 LEU         0.0232
    158 H56       -19.3649  -10.8973  -15.5320 H         1 LEU         0.0232
    159 H57       -17.9975  -11.8129  -14.8120 H         1 LEU         0.0232
    160 H58       -23.2834  -10.2971  -13.3079 H         1 HIS         0.1885
    161 H59       -25.5445   -9.8678  -14.4811 H         1 HIS         0.0817
    162 H60       -26.7769  -12.0720  -13.0396 H         1 HIS         0.0420
    163 H61       -25.4965  -12.7166  -14.1221 H         1 HIS         0.0420
    164 H62       -29.1055  -11.1441  -14.3408 H         1 HIS         0.0729
    165 H63       -27.7989  -12.1936  -18.2565 H         1 HIS         0.1199
    166 H64       -29.7989  -11.3837  -16.8297 H         1 HIS         0.2361
    167 H65       -25.4002  -12.0583  -11.6715 H         1 ARG         0.1883
    168 H66       -26.8359  -10.2687   -9.9310 H         1 ARG         0.0800
    169 H67       -26.4762  -11.8002   -8.2061 H         1 ARG         0.0313
    170 H68       -24.9294  -12.3838   -8.9086 H         1 ARG         0.0313
    171 H69       -26.6435  -14.0949   -9.0865 H         1 ARG         0.0301
    172 H70       -26.1824  -13.4990  -10.7171 H         1 ARG         0.0301
    173 H71       -28.2892  -11.8461  -10.1320 H         1 ARG         0.0689
    174 H72       -28.7765  -13.3430   -9.2671 H         1 ARG         0.0689
    175 H73       -28.6098  -12.9150  -12.1817 H         1 ARG         0.2642
    176 H74       -29.3594  -16.6091  -10.6281 H         1 ARG         0.2615
    177 H75       -28.7403  -15.3294   -9.5501 H         1 ARG         0.2615
    178 H76       -29.3857  -14.5499  -13.5130 H         1 ARG         0.2615
    179 H77       -29.7104  -16.1738  -12.8496 H         1 ARG         0.2615
    180 H78       -23.4155  -11.1362  -10.4262 H         1 LEU         0.1883
    181 H79       -22.3034   -9.1819   -8.6534 H         1 LEU         0.0800
    182 H80       -20.2324   -9.4768   -9.8865 H         1 LEU         0.0315
    183 H81       -21.1157  -10.3233  -11.2018 H         1 LEU         0.0315
    184 H82       -21.5466  -12.1912   -9.5964 H         1 LEU         0.0298
    185 H83       -19.2245  -13.0436   -9.8803 H         1 LEU         0.0232
    186 H84       -18.6728  -11.3730  -10.2426 H         1 LEU         0.0232
    187 H85       -19.8250  -12.1977  -11.3467 H         1 LEU         0.0232
    188 H86       -21.1896  -11.0142   -7.4659 H         1 LEU         0.0232
    189 H87       -19.4647  -10.7569   -7.8961 H         1 LEU         0.0232
    190 H88       -20.0884  -12.4222   -7.6424 H         1 LEU         0.0232
    191 H89       -23.6047   -9.0263  -11.9042 H         1 LEU         0.1883
    192 H90       -22.4567   -6.3655  -12.3453 H         1 LEU         0.0800
    193 H91       -24.1162   -6.4367  -14.3594 H         1 LEU         0.0315
    194 H92       -24.2651   -8.1771  -13.9407 H         1 LEU         0.0315
    195 H93       -21.6720   -8.1763  -13.9427 H         1 LEU         0.0298
    196 H94       -21.6263   -8.5778  -16.3776 H         1 LEU         0.0232
    197 H95       -23.2426   -7.8088  -16.5287 H         1 LEU         0.0232
    198 H96       -23.0567   -9.3328  -15.5961 H         1 LEU         0.0232
    199 H97       -21.4073   -5.7204  -13.9992 H         1 LEU         0.0232
    200 H98       -22.2005   -5.6762  -15.6102 H         1 LEU         0.0232
    201 H99       -20.6235   -6.5123  -15.4081 H         1 LEU         0.0232
    202 H100      -25.6531   -7.7349  -11.6048 H         1 GLN         0.1883
    203 H101      -27.1312   -5.3435  -11.6482 H         1 GLN         0.0801
    204 H102      -28.5238   -6.6961   -9.8182 H         1 GLN         0.0337
    205 H103      -27.4746   -8.0376  -10.3892 H         1 GLN         0.0337
    206 H104      -28.2855   -6.8807  -12.7622 H         1 GLN         0.0504
    207 H105      -29.7331   -6.6637  -11.7211 H         1 GLN         0.0504
    208 H106      -29.1032  -10.1492  -13.5324 H         1 GLN         0.1814
    209 H107      -28.3844   -8.6350  -13.9691 H         1 GLN         0.1814
    210 H108      -25.2619   -6.7586   -8.9521 H         1 GLU         0.1875
    211 H109      -24.3643   -4.1843   -8.1828 H         1 GLU         0.0727
    212 H110      -26.0192   -5.2542   -5.9178 H         1 GLU         0.0323
    213 H111      -26.8491   -4.3529   -7.2315 H         1 GLU         0.0323
    214 H112      -24.4360   -3.2732   -5.7321 H         1 GLU         0.0432
    215 H113      -26.1302   -3.0072   -5.1977 H         1 GLU         0.0432
@<TRIPOS>BOND
     1    1    2 1  
     2    2    3 1  
     3    2    5 1  
     4    3    4 2  
     5    3   12 am 
     6    5    6 1  
     7    6    7 1  
     8    7    8 1  
     9    8    9 ar 
    10    9   10 ar 
    11    9   11 ar 
    12   12   13 1  
    13   13   14 1  
    14   13   16 1  
    15   14   15 2  
    16   14   22 am 
    17   16   17 1  
    18   17   18 1  
    19   17   19 2  
    20   18   20 2  
    21   19   21 1  
    22   20   21 1  
    23   22   23 1  
    24   23   24 1  
    25   23   26 1  
    26   24   25 2  
    27   24   31 am 
    28   26   27 1  
    29   27   28 1  
    30   28   29 1  
    31   29   30 1  
    32   31   32 1  
    33   32   33 1  
    34   32   35 1  
    35   33   34 2  
    36   33   39 am 
    37   35   36 1  
    38   35   37 1  
    39   36   38 1  
    40   39   40 1  
    41   40   41 1  
    42   40   43 1  
    43   41   42 2  
    44   41   47 am 
    45   43   44 1  
    46   44   45 1  
    47   44   46 1  
    48   47   48 1  
    49   48   49 1  
    50   48   51 1  
    51   49   50 2  
    52   49   57 am 
    53   51   52 1  
    54   52   53 1  
    55   52   54 2  
    56   53   55 2  
    57   54   56 1  
    58   55   56 1  
    59   57   58 1  
    60   58   59 1  
    61   58   61 1  
    62   59   60 2  
    63   59   68 am 
    64   61   62 1  
    65   62   63 1  
    66   63   64 1  
    67   64   65 ar 
    68   65   66 ar 
    69   65   67 ar 
    70   68   69 1  
    71   69   70 1  
    72   69   72 1  
    73   70   71 2  
    74   70   76 am 
    75   72   73 1  
    76   73   74 1  
    77   73   75 1  
    78   76   77 1  
    79   77   78 1  
    80   77   80 1  
    81   78   79 2  
    82   78   84 am 
    83   80   81 1  
    84   81   82 1  
    85   81   83 1  
    86   84   85 1  
    87   85   86 1  
    88   85   88 1  
    89   86   87 2  
    90   86   93 am 
    91   88   89 1  
    92   89   90 1  
    93   90   91 2  
    94   90   92 am 
    95   93   94 1  
    96   94   95 1  
    97   94   97 1  
    98   95   96 ar 
    99   97   98 1  
   100   98   99 1  
   101   99  100 ar 
   102   99  101 ar 
   103   95  102 ar 
   104    1  103 1  
   105    1  104 1  
   106    1  105 1  
   107    2  106 1  
   108    5  107 1  
   109    5  108 1  
   110    6  109 1  
   111    6  110 1  
   112    7  111 1  
   113    7  112 1  
   114    8  113 1  
   115   10  114 1  
   116   10  115 1  
   117   11  116 1  
   118   11  117 1  
   119   12  118 1  
   120   13  119 1  
   121   16  120 1  
   122   16  121 1  
   123   19  122 1  
   124   20  123 1  
   125   21  124 1  
   126   22  125 1  
   127   23  126 1  
   128   26  127 1  
   129   26  128 1  
   130   27  129 1  
   131   27  130 1  
   132   28  131 1  
   133   28  132 1  
   134   29  133 1  
   135   29  134 1  
   136   30  135 1  
   137   30  136 1  
   138   30  137 1  
   139   31  138 1  
   140   32  139 1  
   141   35  140 1  
   142   36  141 1  
   143   36  142 1  
   144   37  143 1  
   145   37  144 1  
   146   37  145 1  
   147   38  146 1  
   148   38  147 1  
   149   38  148 1  
   150   39  149 1  
   151   40  150 1  
   152   43  151 1  
   153   43  152 1  
   154   44  153 1  
   155   45  154 1  
   156   45  155 1  
   157   45  156 1  
   158   46  157 1  
   159   46  158 1  
   160   46  159 1  
   161   47  160 1  
   162   48  161 1  
   163   51  162 1  
   164   51  163 1  
   165   54  164 1  
   166   55  165 1  
   167   56  166 1  
   168   57  167 1  
   169   58  168 1  
   170   61  169 1  
   171   61  170 1  
   172   62  171 1  
   173   62  172 1  
   174   63  173 1  
   175   63  174 1  
   176   64  175 1  
   177   66  176 1  
   178   66  177 1  
   179   67  178 1  
   180   67  179 1  
   181   68  180 1  
   182   69  181 1  
   183   72  182 1  
   184   72  183 1  
   185   73  184 1  
   186   74  185 1  
   187   74  186 1  
   188   74  187 1  
   189   75  188 1  
   190   75  189 1  
   191   75  190 1  
   192   76  191 1  
   193   77  192 1  
   194   80  193 1  
   195   80  194 1  
   196   81  195 1  
   197   82  196 1  
   198   82  197 1  
   199   82  198 1  
   200   83  199 1  
   201   83  200 1  
   202   83  201 1  
   203   84  202 1  
   204   85  203 1  
   205   88  204 1  
   206   88  205 1  
   207   89  206 1  
   208   89  207 1  
   209   92  208 1  
   210   92  209 1  
   211   93  210 1  
   212   94  211 1  
   213   97  212 1  
   214   97  213 1  
   215   98  214 1  
   216   98  215 1  
@<TRIPOS>SUBSTRUCTURE
     1 ARG         1

