4rra_ligand
  -I-interpret- 

 48 50  0  0  0  0  0  0  0  0999 V2000
   11.9970   -3.1810   -3.8830 C   0  0  0  0  0
    9.8250   -3.6250   -2.8400 N   0  3  0  0  0
   11.9820   -1.8440   -3.5440 O   0  0  0  0  0
   17.1530    0.4620    0.5100 N   0  0  0  0  0
   16.1680   -0.5100    0.6500 C   0  0  0  0  0
   16.0760   -1.5700   -0.2970 N   0  0  0  0  0
   16.9990   -1.5570   -1.3060 C   0  0  0  0  0
   17.9450   -0.5900   -1.4060 C   0  0  0  0  0
   18.0130    0.4330   -0.4980 C   0  0  0  0  0
   18.9420    1.3810   -0.5550 N   0  0  0  0  0
   18.6780   -0.8920   -2.4910 N   0  0  0  0  0
   18.1830   -2.0070   -3.0530 C   0  0  0  0  0
   13.1030   -3.9590   -4.0290 N   0  0  0  0  0
   17.1280   -2.4310   -2.3270 N   0  0  0  0  0
   10.6350   -3.8600   -4.0920 C   0  0  0  0  0
    9.9210   -3.3810   -5.4060 C   0  0  0  0  0
    9.1040   -4.4680   -5.9760 O   0  0  0  0  0
   16.3580   -3.7260   -2.6070 C   0  0  0  0  0
   14.8620   -3.8020   -2.4350 C   0  0  0  0  0
   14.4260   -5.1980   -2.0430 O   0  0  0  0  0
   14.4160   -3.3860   -3.8090 C   0  0  0  0  0
   15.4570   -3.9490   -4.7560 C   0  0  0  0  0
   16.6440   -4.1970   -3.9250 O   0  0  0  0  0
   15.7340   -2.8230   -5.7590 C   0  0  0  0  0
   17.0780   -2.9770   -6.2040 O   0  0  0  0  0
   10.9120   -2.8440   -6.4750 C   0  0  0  0  0
   10.3481   -3.9587   -2.0304 H   0  0  0  0  0
    9.6396   -2.6271   -2.7387 H   0  0  0  0  0
    8.9419   -4.1309   -2.9078 H   0  0  0  0  0
   15.4673   -0.4606    1.4835 H   0  0  0  0  0
   18.9785    2.1032    0.1644 H   0  0  0  0  0
   19.6187    1.3867   -1.3182 H   0  0  0  0  0
   18.5706   -2.4905   -3.9497 H   0  0  0  0  0
   13.0090   -4.9401   -4.2918 H   0  0  0  0  0
   10.7593   -4.9321   -4.2448 H   0  0  0  0  0
    9.2774   -2.5485   -5.1216 H   0  0  0  0  0
    8.6755   -4.1583   -6.7773 H   0  0  0  0  0
   16.7375   -4.3354   -1.7868 H   0  0  0  0  0
   14.4407   -3.1870   -1.6398 H   0  0  0  0  0
   13.4717   -5.2170   -1.9406 H   0  0  0  0  0
   14.3359   -2.3083   -3.9509 H   0  0  0  0  0
   15.1639   -4.8604   -5.2771 H   0  0  0  0  0
   15.5938   -1.8487   -5.2908 H   0  0  0  0  0
   15.0424   -2.8789   -6.5997 H   0  0  0  0  0
   17.2858   -2.2851   -6.8362 H   0  0  0  0  0
   11.4596   -1.9945   -6.0668 H   0  0  0  0  0
   11.6131   -3.6329   -6.7474 H   0  0  0  0  0
   10.3562   -2.5291   -7.3582 H   0  0  0  0  0
  1  3  2  0  0  0
 13  1  1  0  0  0
  1 15  1  0  0  0
 15  2  1  0  0  0
  5  4  4  0  0  0
  9  4  4  0  0  0
  6  5  4  0  0  0
  7  6  4  0  0  0
  7  8  4  0  0  0
 14  7  4  0  0  0
  8  9  4  0  0  0
 11  8  4  0  0  0
  9 10  1  0  0  0
 12 11  4  0  0  0
 14 12  4  0  0  0
 21 13  1  0  0  0
 18 14  1  0  0  0
 15 16  1  0  0  0
 16 17  1  0  0  0
 16 26  1  0  0  0
 19 18  1  0  0  0
 18 23  1  0  0  0
 19 20  1  0  0  0
 19 21  1  0  0  0
 21 22  1  0  0  0
 22 23  1  0  0  0
 22 24  1  0  0  0
 24 25  1  0  0  0
  2 27  1  0  0  0
  2 28  1  0  0  0
  2 29  1  0  0  0
  5 30  1  0  0  0
 10 31  1  0  0  0
 10 32  1  0  0  0
 12 33  1  0  0  0
 13 34  1  0  0  0
 15 35  1  0  0  0
 16 36  1  0  0  0
 17 37  1  0  0  0
 18 38  1  0  0  0
 19 39  1  0  0  0
 20 40  1  0  0  0
 21 41  1  0  0  0
 22 42  1  0  0  0
 24 43  1  0  0  0
 24 44  1  0  0  0
 25 45  1  0  0  0
 26 46  1  0  0  0
 26 47  1  0  0  0
 26 48  1  0  0  0
M  END
$$$$
