2j95_ligand
  -I-interpret- 

 53 56  0  0  0  0  0  0  0  0999 V2000
   14.1050    7.5320   26.9890 Cl  0  0  0  0  0
   12.4180    7.7660   26.7000 C   0  0  0  0  0
   11.3760    7.3800   27.5560 C   0  0  0  0  0
   10.1060    7.6710   27.0020 C   0  0  0  0  0
   10.1930    8.3030   25.7530 C   0  0  0  0  0
    9.0800    8.6980   24.8590 C   0  0  0  0  0
    9.2010    9.4640   23.6880 C   0  0  0  0  0
    7.9870    9.6230   23.0020 C   0  0  0  0  0
    6.9270    8.9390   23.6060 C   0  0  0  0  0
    5.2290    8.8720   23.0360 S   0  0  0  0  0
    4.5230    8.3880   24.1970 O   0  0  0  0  0
    4.8170   10.0990   22.4130 O   0  0  0  0  0
    5.2710    7.7680   21.8600 N   0  0  0  0  0
    5.4710    6.3750   22.2560 C   0  0  0  0  0
    4.2940    5.4580   21.9300 C   0  0  0  0  0
    4.9270    4.1000   21.6030 C   0  0  0  0  0
    6.6060    5.7240   21.4760 C   0  0  0  0  0
    7.6600    6.2900   21.2230 O   0  0  0  0  0
    6.2760    4.4450   21.1530 N   0  0  0  0  0
    7.2050    3.4960   20.4630 C   0  0  0  0  0
    7.2180    2.0470   21.0200 C   0  0  0  0  0
    6.9850    3.4530   18.9410 C   0  0  0  0  0
    5.8970    3.8310   18.5190 O   0  0  0  0  0
    8.0100    3.0420   18.1030 N   0  0  0  0  0
    7.7440    3.0970   16.6480 C   0  0  0  0  0
    8.6830    2.2610   15.7710 C   0  0  0  0  0
   10.0010    2.2340   16.2850 O   0  0  0  0  0
   10.0940    1.6970   17.5790 C   0  0  0  0  0
    9.3640    2.6190   18.5570 C   0  0  0  0  0
    7.4780    8.1250   25.0250 S   0  0  0  0  0
   11.8210    8.4880   25.2650 S   0  0  0  0  0
   11.5258    6.9128   28.5293 H   0  0  0  0  0
    9.1631    7.4300   27.4929 H   0  0  0  0  0
   10.1434    9.8921   23.3462 H   0  0  0  0  0
    7.8813   10.2170   22.0942 H   0  0  0  0  0
    5.1625    8.0312   20.8805 H   0  0  0  0  0
    5.6458    6.4557   23.3289 H   0  0  0  0  0
    3.7036    5.8394   21.0969 H   0  0  0  0  0
    3.5944    5.3873   22.7629 H   0  0  0  0  0
    4.3648    3.5504   20.8480 H   0  0  0  0  0
    4.9342    3.4274   22.4607 H   0  0  0  0  0
    8.1846    3.9204   20.6828 H   0  0  0  0  0
    7.5187    2.0645   22.0676 H   0  0  0  0  0
    6.2200    1.6172   20.9342 H   0  0  0  0  0
    7.9244    1.4455   20.4479 H   0  0  0  0  0
    7.8822    4.1355   16.3471 H   0  0  0  0  0
    6.7422    2.6935   16.5010 H   0  0  0  0  0
    8.7127    2.7096   14.7780 H   0  0  0  0  0
    8.3057    1.2387   15.7444 H   0  0  0  0  0
   11.1420    1.6131   17.8668 H   0  0  0  0  0
    9.6385    0.7070   17.5988 H   0  0  0  0  0
    9.2327    2.0634   19.4855 H   0  0  0  0  0
    9.9660    3.5221   18.6577 H   0  0  0  0  0
  1  2  1  0  0  0
  2  3  4  0  0  0
  2 31  4  0  0  0
  3  4  4  0  0  0
  4  5  4  0  0  0
  5  6  1  0  0  0
  5 31  4  0  0  0
  6  7  4  0  0  0
  6 30  4  0  0  0
  7  8  4  0  0  0
  8  9  4  0  0  0
  9 10  1  0  0  0
  9 30  4  0  0  0
 10 11  2  0  0  0
 10 12  2  0  0  0
 10 13  1  0  0  0
 13 14  1  0  0  0
 14 15  1  0  0  0
 14 17  1  0  0  0
 15 16  1  0  0  0
 16 19  1  0  0  0
 17 18  2  0  0  0
 17 19  1  0  0  0
 19 20  1  0  0  0
 20 21  1  0  0  0
 20 22  1  0  0  0
 22 23  2  0  0  0
 22 24  1  0  0  0
 24 25  1  0  0  0
 24 29  1  0  0  0
 25 26  1  0  0  0
 26 27  1  0  0  0
 27 28  1  0  0  0
 28 29  1  0  0  0
  3 32  1  0  0  0
  4 33  1  0  0  0
  7 34  1  0  0  0
  8 35  1  0  0  0
 13 36  1  0  0  0
 14 37  1  0  0  0
 15 38  1  0  0  0
 15 39  1  0  0  0
 16 40  1  0  0  0
 16 41  1  0  0  0
 20 42  1  0  0  0
 21 43  1  0  0  0
 21 44  1  0  0  0
 21 45  1  0  0  0
 25 46  1  0  0  0
 25 47  1  0  0  0
 26 48  1  0  0  0
 26 49  1  0  0  0
 28 50  1  0  0  0
 28 51  1  0  0  0
 29 52  1  0  0  0
 29 53  1  0  0  0
M  END
$$$$
