5ety_ligand
  -I-interpret- 

 59 63  0  0  0  0  0  0  0  0999 V2000
  -32.2820   24.3220  -20.7040 O   0  0  0  0  0
  -32.7020   25.2130  -21.4500 C   0  0  0  0  0
  -33.8550   25.7780  -21.0920 N   0  0  0  0  0
  -34.4730   26.7960  -21.8060 C   0  0  0  0  0
  -35.6920   27.3180  -21.3610 C   0  0  0  0  0
  -36.3110   28.3410  -22.1050 C   0  0  0  0  0
  -35.7270   28.8220  -23.2840 C   0  0  0  0  0
  -34.5260   28.2830  -23.7190 C   0  0  0  0  0
  -33.8710   27.2730  -22.9810 C   0  0  0  0  0
  -32.5420   26.6980  -23.4250 C   0  0  0  0  0
  -32.0520   25.6530  -22.5630 N   0  0  0  0  0
  -30.8380   24.9730  -22.9960 C   0  0  0  0  0
  -31.3140   23.5800  -23.5520 C   0  0  0  0  0
  -30.2610   22.6870  -24.1920 C   0  0  0  0  0
  -30.7750   21.3110  -24.7050 C   0  0  0  0  0
  -32.3920   23.6810  -24.6470 C   0  0  0  0  0
  -32.9510   22.3410  -25.1630 C   0  0  0  0  0
  -31.9130   21.4060  -25.6070 N   0  0  0  0  0
  -32.1300   20.5040  -26.6150 C   0  0  0  0  0
  -31.9360   19.2060  -26.3430 N   0  0  0  0  0
  -32.1640   18.3330  -27.3170 C   0  0  0  0  0
  -32.5620   18.5710  -28.5540 N   0  0  0  0  0
  -32.7710   19.8540  -28.8670 C   0  0  0  0  0
  -32.5660   20.8760  -27.9120 C   0  0  0  0  0
  -33.2030   20.1920  -30.1770 C   0  0  0  0  0
  -33.4370   21.5320  -30.5720 C   0  0  0  0  0
  -33.7980   22.0510  -31.7950 O   0  0  0  0  0
  -34.7250   21.4540  -32.6840 C   0  0  0  0  0
  -33.2330   22.5480  -29.6300 C   0  0  0  0  0
  -32.8160   22.1980  -28.3340 C   0  0  0  0  0
  -33.4610   23.8390  -30.0620 O   0  0  0  0  0
  -32.7310   24.9210  -29.4900 C   0  0  0  0  0
  -34.3104   25.4426  -20.2431 H   0  0  0  0  0
  -36.1564   26.9382  -20.4509 H   0  0  0  0  0
  -37.2548   28.7631  -21.7597 H   0  0  0  0  0
  -36.2128   29.6135  -23.8546 H   0  0  0  0  0
  -34.0802   28.6447  -24.6456 H   0  0  0  0  0
  -31.8121   27.5073  -23.4067 H   0  0  0  0  0
  -32.6862   26.2656  -24.4151 H   0  0  0  0  0
  -30.1308   24.8555  -22.1749 H   0  0  0  0  0
  -30.3074   25.5468  -23.7558 H   0  0  0  0  0
  -31.6673   23.1431  -22.6180 H   0  0  0  0  0
  -29.5218   22.4748  -23.4196 H   0  0  0  0  0
  -29.8859   23.2236  -25.0634 H   0  0  0  0  0
  -31.0981   20.7404  -23.8343 H   0  0  0  0  0
  -29.9596   20.8465  -25.2595 H   0  0  0  0  0
  -31.9192   24.1666  -25.5007 H   0  0  0  0  0
  -33.2324   24.2148  -24.2034 H   0  0  0  0  0
  -33.5842   22.5597  -26.0229 H   0  0  0  0  0
  -33.4851   21.8696  -24.3380 H   0  0  0  0  0
  -32.0020   17.2854  -27.0634 H   0  0  0  0  0
  -33.3597   19.3938  -30.9025 H   0  0  0  0  0
  -34.3691   20.4632  -32.9666 H   0  0  0  0  0
  -35.6938   21.3669  -32.1921 H   0  0  0  0  0
  -34.8230   22.0741  -33.5751 H   0  0  0  0  0
  -32.6770   22.9999  -27.6089 H   0  0  0  0  0
  -32.9257   24.9627  -28.4183 H   0  0  0  0  0
  -31.6653   24.7694  -29.6613 H   0  0  0  0  0
  -33.0456   25.8556  -29.9544 H   0  0  0  0  0
  1  2  2  0  0  0
  2  3  1  0  0  0
  2 11  1  0  0  0
  3  4  1  0  0  0
  4  5  4  0  0  0
  4  9  4  0  0  0
  5  6  4  0  0  0
  6  7  4  0  0  0
  7  8  4  0  0  0
  8  9  4  0  0  0
  9 10  1  0  0  0
 10 11  1  0  0  0
 11 12  1  0  0  0
 12 13  1  0  0  0
 13 14  1  0  0  0
 13 16  1  0  0  0
 14 15  1  0  0  0
 15 18  1  0  0  0
 16 17  1  0  0  0
 17 18  1  0  0  0
 18 19  1  0  0  0
 19 20  4  0  0  0
 19 24  4  0  0  0
 20 21  4  0  0  0
 21 22  4  0  0  0
 22 23  4  0  0  0
 23 24  4  0  0  0
 23 25  4  0  0  0
 24 30  4  0  0  0
 25 26  4  0  0  0
 26 27  1  0  0  0
 26 29  4  0  0  0
 27 28  1  0  0  0
 29 30  4  0  0  0
 29 31  1  0  0  0
 31 32  1  0  0  0
  3 33  1  0  0  0
  5 34  1  0  0  0
  6 35  1  0  0  0
  7 36  1  0  0  0
  8 37  1  0  0  0
 10 38  1  0  0  0
 10 39  1  0  0  0
 12 40  1  0  0  0
 12 41  1  0  0  0
 13 42  1  0  0  0
 14 43  1  0  0  0
 14 44  1  0  0  0
 15 45  1  0  0  0
 15 46  1  0  0  0
 16 47  1  0  0  0
 16 48  1  0  0  0
 17 49  1  0  0  0
 17 50  1  0  0  0
 21 51  1  0  0  0
 25 52  1  0  0  0
 28 53  1  0  0  0
 28 54  1  0  0  0
 28 55  1  0  0  0
 30 56  1  0  0  0
 32 57  1  0  0  0
 32 58  1  0  0  0
 32 59  1  0  0  0
M  END
$$$$
