5hn9_ligand
  -I-interpret- 

 62 63  0  0  0  0  0  0  0  0999 V2000
   34.4830   12.4240    8.9220 C   0  0  0  0  0
   35.3410    4.5670   22.4860 O   0  0  0  0  0
   30.2960    4.3300   24.7100 O   0  0  0  0  0
   36.1510    5.7890   24.1780 O   0  0  0  0  0
   31.5620    3.7750   22.8000 O   0  0  0  0  0
   34.0810    7.4680   19.2410 C   0  0  0  0  0
   34.2040    7.7180   20.6190 C   0  0  0  0  0
   34.4940    8.4190   18.3030 C   0  0  0  0  0
   31.3450    7.0520   23.8790 C   0  0  0  0  0
   32.3750    7.9820   23.8740 C   0  0  0  0  0
   35.1660    9.8600   20.1080 C   0  0  0  0  0
   32.9250    5.3200   23.4470 C   0  0  0  0  0
   33.3130   12.2810    9.8920 C   0  0  0  0  0
   33.0530   13.6060   10.6470 C   0  0  0  0  0
   33.9740   13.7720   11.8670 C   0  0  0  0  0
   35.0600   12.6910   11.8870 C   0  0  0  0  0
   35.0100   11.8530   13.1760 C   0  0  0  0  0
   34.6150   12.7080   14.3720 C   0  0  0  0  0
   35.4090   12.3180   15.6140 C   0  0  0  0  0
   34.6550   12.7250   16.8750 C   0  0  0  0  0
   34.2590   11.4810   17.6610 C   0  0  0  0  0
   34.8660    9.2750   22.4310 C   0  0  0  0  0
   35.4030   10.5930   17.8380 O   0  0  0  0  0
   34.7270    8.4010   23.6240 O   0  0  0  0  0
   35.3030    5.5620   23.2790 C   0  0  0  0  0
   34.7750    8.9090   21.0570 C   0  0  0  0  0
   35.0490    9.6190   18.7380 C   0  0  0  0  0
   31.6880    5.7100   23.6480 C   0  0  0  0  0
   33.6720    7.5460   23.6060 C   0  0  0  0  0
   33.9270    6.1860   23.4730 C   0  0  0  0  0
   30.9370    4.7350   23.5600 N   0  0  0  0  0
   34.2566   13.2030    8.1940 H   0  0  0  0  0
   35.3821   12.6932    9.4764 H   0  0  0  0  0
   34.6428   11.4776    8.4055 H   0  0  0  0  0
   34.5902    4.6061   21.8891 H   0  0  0  0  0
   33.6591    6.5225   18.9002 H   0  0  0  0  0
   33.8533    6.9814   21.3418 H   0  0  0  0  0
   34.3819    8.2217   17.2369 H   0  0  0  0  0
   30.3117    7.3511   24.0551 H   0  0  0  0  0
   32.1738    9.0341   24.0759 H   0  0  0  0  0
   35.5722   10.8130   20.4470 H   0  0  0  0  0
   33.1310    4.2669   23.2557 H   0  0  0  0  0
   33.5547   11.5059   10.6193 H   0  0  0  0  0
   32.4191   12.0204    9.3254 H   0  0  0  0  0
   32.0218   13.5976   11.0001 H   0  0  0  0  0
   33.2481   14.4303    9.9610 H   0  0  0  0  0
   33.3742   13.6816   12.7726 H   0  0  0  0  0
   34.4543   14.7489   11.8120 H   0  0  0  0  0
   36.0320   13.1815   11.8353 H   0  0  0  0  0
   34.8959   12.0254   11.0396 H   0  0  0  0  0
   36.0000   11.4350   13.3584 H   0  0  0  0  0
   34.2674   11.0650   13.0506 H   0  0  0  0  0
   33.5549   12.5552   14.5743 H   0  0  0  0  0
   34.8247   13.7518   14.1382 H   0  0  0  0  0
   36.3718   12.8287   15.5952 H   0  0  0  0  0
   35.5529   11.2375   15.6191 H   0  0  0  0  0
   33.7575   13.2774   16.5968 H   0  0  0  0  0
   35.2967   13.3534   17.4926 H   0  0  0  0  0
   33.4837   10.9492   17.1095 H   0  0  0  0  0
   33.8964   11.7864   18.6425 H   0  0  0  0  0
   35.9159    9.5593   22.5020 H   0  0  0  0  0
   33.9877    9.9120   22.5357 H   0  0  0  0  0
 13  1  1  0  0  0
 25  2  1  0  0  0
 31  3  2  0  0  0
 25  4  2  0  0  0
 31  5  2  0  0  0
  7  6  4  0  0  0
  6  8  4  0  0  0
 26  7  4  0  0  0
 27  8  4  0  0  0
  9 10  4  0  0  0
 28  9  4  0  0  0
 10 29  4  0  0  0
 26 11  4  0  0  0
 11 27  4  0  0  0
 28 12  4  0  0  0
 12 30  4  0  0  0
 14 13  1  0  0  0
 15 14  1  0  0  0
 16 15  1  0  0  0
 17 16  1  0  0  0
 18 17  1  0  0  0
 19 18  1  0  0  0
 20 19  1  0  0  0
 21 20  1  0  0  0
 23 21  1  0  0  0
 24 22  1  0  0  0
 22 26  1  0  0  0
 27 23  1  0  0  0
 29 24  1  0  0  0
 30 25  1  0  0  0
 28 31  1  0  0  0
 29 30  4  0  0  0
  1 32  1  0  0  0
  1 33  1  0  0  0
  1 34  1  0  0  0
  2 35  1  0  0  0
  6 36  1  0  0  0
  7 37  1  0  0  0
  8 38  1  0  0  0
  9 39  1  0  0  0
 10 40  1  0  0  0
 11 41  1  0  0  0
 12 42  1  0  0  0
 13 43  1  0  0  0
 13 44  1  0  0  0
 14 45  1  0  0  0
 14 46  1  0  0  0
 15 47  1  0  0  0
 15 48  1  0  0  0
 16 49  1  0  0  0
 16 50  1  0  0  0
 17 51  1  0  0  0
 17 52  1  0  0  0
 18 53  1  0  0  0
 18 54  1  0  0  0
 19 55  1  0  0  0
 19 56  1  0  0  0
 20 57  1  0  0  0
 20 58  1  0  0  0
 21 59  1  0  0  0
 21 60  1  0  0  0
 22 61  1  0  0  0
 22 62  1  0  0  0
M  END
$$$$
