5lax_ligand
  -I-interpret- 

195196  0  0  0  0  0  0  0  0999 V2000
  -51.8870   -2.8900  -15.2270 N   0  3  0  0  0
  -50.8990   -3.9950  -15.0090 C   0  0  0  0  0
  -49.7830   -4.0010  -16.0490 C   0  0  0  0  0
  -48.6590   -4.2990  -15.6820 O   0  0  0  0  0
  -51.5770   -5.3610  -14.9640 C   0  0  0  0  0
  -50.6390   -6.4030  -14.8120 O   0  0  0  0  0
  -50.1000   -3.7150  -17.3210 N   0  0  0  0  0
  -49.1050   -3.4700  -18.3830 C   0  0  0  0  0
  -49.1340   -1.9980  -18.8360 C   0  0  0  0  0
  -49.9970   -1.5990  -19.6300 O   0  0  0  0  0
  -49.3450   -4.4310  -19.5630 C   0  0  0  0  0
  -48.6940   -4.0490  -20.8870 C   0  0  0  0  0
  -48.8120   -5.1680  -21.9060 C   0  0  0  0  0
  -47.8330   -4.9880  -23.0510 C   0  0  0  0  0
  -47.8030   -6.1970  -23.9150 N   0  3  0  0  0
  -48.1900   -1.2150  -18.3040 N   0  0  0  0  0
  -47.9970    0.2070  -18.6440 C   0  0  0  0  0
  -47.0990    0.5150  -19.8450 C   0  0  0  0  0
  -46.2050   -0.2510  -20.1610 O   0  0  0  0  0
  -47.3300    1.6530  -20.5010 N   0  0  0  0  0
  -46.5560    2.0730  -21.6790 C   0  0  0  0  0
  -45.6090    3.2530  -21.3770 C   0  0  0  0  0
  -46.0470    4.2920  -20.8900 O   0  0  0  0  0
  -47.5070    2.4630  -22.7950 C   0  0  0  0  0
  -46.8900    2.8760  -24.1310 C   0  0  0  0  0
  -45.9270    1.8200  -24.6450 C   0  0  0  0  0
  -47.9710    3.1300  -25.1610 C   0  0  0  0  0
  -44.3150    3.0850  -21.6690 N   0  0  0  0  0
  -43.3210    4.1610  -21.5000 C   0  0  0  0  0
  -43.5010    5.2050  -22.5870 C   0  0  0  0  0
  -43.6560    4.8560  -23.7510 O   0  0  0  0  0
  -41.8870    3.6160  -21.5720 C   0  0  0  0  0
  -41.3820    3.0270  -20.2850 C   0  0  0  0  0
  -41.1870    3.8280  -19.1720 C   0  0  0  0  0
  -41.0640    1.6860  -20.1950 C   0  0  0  0  0
  -40.7070    3.3070  -17.9770 C   0  0  0  0  0
  -40.5770    1.1540  -19.0090 C   0  0  0  0  0
  -40.3980    1.9690  -17.8950 C   0  0  0  0  0
  -43.4860    6.4780  -22.2030 N   0  0  0  0  0
  -43.5780    7.5860  -23.1430 C   0  0  0  0  0
  -42.2010    8.1720  -23.4470 C   0  0  0  0  0
  -41.4040    8.3920  -22.5300 O   0  0  0  0  0
  -44.4300    8.7070  -22.5130 C   0  0  0  0  0
  -45.0640    9.6830  -23.4930 C   0  0  0  0  0
  -45.9080   10.7200  -22.7800 C   0  0  0  0  0
  -46.5470   11.5890  -23.7750 N   0  0  0  0  0
  -47.6670   11.3030  -24.4550 C   0  0  0  0  0
  -48.3250   10.1450  -24.3000 N   0  0  0  0  0
  -48.1350   12.1970  -25.3280 N   0  0  0  0  0
  -41.9370    8.4340  -24.7280 N   0  0  0  0  0
  -40.6940    9.0610  -25.1710 C   0  0  0  0  0
  -40.8500   10.5590  -25.1700 C   0  0  0  0  0
  -41.8370   11.0590  -25.6900 O   0  0  0  0  0
  -40.3570    8.6100  -26.5820 C   0  0  0  0  0
  -39.8830   11.2800  -24.6100 N   0  0  0  0  0
  -39.7640   12.7250  -24.8330 C   0  0  0  0  0
  -39.1670   12.9600  -26.2210 C   0  0  0  0  0
  -38.3780   12.1470  -26.6890 O   0  0  0  0  0
  -38.9050   13.3760  -23.7540 C   0  0  0  0  0
  -39.5450   14.0650  -26.8720 N   0  0  0  0  0
  -39.2020   14.3110  -28.2760 C   0  0  0  0  0
  -38.2350   15.4880  -28.3820 C   0  0  0  0  0
  -38.4750   16.5250  -27.7870 O   0  0  0  0  0
  -40.4690   14.5780  -29.1330 C   0  0  0  0  0
  -40.1090   14.9270  -30.5790 C   0  0  0  0  0
  -41.3880   13.3630  -29.1210 C   0  0  0  0  0
  -37.1380   15.3330  -29.1370 N   0  0  0  0  0
  -36.2680   16.4740  -29.3850 C   0  0  0  0  0
  -36.8350   17.4340  -30.4270 C   0  0  0  0  0
  -37.4660   16.9950  -31.3820 O   0  0  0  0  0
  -34.9840   15.8250  -29.9220 C   0  0  0  0  0
  -35.4540   14.5890  -30.5870 C   0  0  0  0  0
  -36.5950   14.1030  -29.7420 C   0  0  0  0  0
  -36.5740   18.7220  -30.2400 N   0  0  0  0  0
  -37.0480   19.7690  -31.1380 C   0  0  0  0  0
  -36.0750   19.9570  -32.2860 C   0  0  0  0  0
  -34.8790   19.7280  -32.1220 O   0  0  0  0  0
  -37.1860   21.0750  -30.3690 C   0  0  0  0  0
  -38.0260   20.8950  -29.2500 O   0  0  0  0  0
  -36.5950   20.3690  -33.4420 N   0  0  0  0  0
  -35.7740   20.6630  -34.6180 C   0  0  0  0  0
  -35.0660   22.0000  -34.4590 C   0  0  0  0  0
  -35.6920   23.0040  -34.0960 O   0  0  0  0  0
  -33.7650   22.0180  -34.7240 N   0  0  0  0  0
  -32.9440   23.2080  -34.4990 C   0  0  0  0  0
  -33.1710   24.2940  -35.5490 C   0  0  0  0  0
  -33.7610   24.0430  -36.5980 O   0  0  0  0  0
  -31.4720   22.8200  -34.4700 C   0  0  0  0  0
  -32.6760   25.4950  -35.2460 N   0  0  0  0  0
  -32.6260   26.6150  -36.1940 C   0  0  0  0  0
  -31.3430   26.5420  -37.0400 C   0  0  0  0  0
  -30.4050   25.8780  -36.6300 O   0  0  0  0  0
  -32.6740   27.9420  -35.4260 C   0  0  0  0  0
  -31.4060   28.3140  -34.9270 O   0  0  0  0  0
  -31.1650   27.1240  -38.1160 O   0  0  0  0  0
  -51.3960   -1.9963  -15.2508 H   0  0  0  0  0
  -52.3703   -3.0375  -16.1131 H   0  0  0  0  0
  -52.5650   -2.8865  -14.4650 H   0  0  0  0  0
  -50.4457   -3.7980  -14.0375 H   0  0  0  0  0
  -52.1092   -5.5118  -15.9032 H   0  0  0  0  0
  -52.2542   -5.3807  -14.1101 H   0  0  0  0  0
  -51.0991   -7.2452  -14.7877 H   0  0  0  0  0
  -51.0881   -3.6638  -17.5689 H   0  0  0  0  0
  -48.1095   -3.6644  -17.9838 H   0  0  0  0  0
  -50.4203   -4.4301  -19.7417 H   0  0  0  0  0
  -48.9051   -5.3850  -19.2722 H   0  0  0  0  0
  -47.6366   -3.8534  -20.7089 H   0  0  0  0  0
  -49.2011   -3.1680  -21.2804 H   0  0  0  0  0
  -49.8231   -5.1572  -22.3131 H   0  0  0  0  0
  -48.5890   -6.1116  -21.4080 H   0  0  0  0  0
  -46.8369   -4.8254  -22.6394 H   0  0  0  0  0
  -48.1478   -4.1346  -23.6516 H   0  0  0  0  0
  -47.1394   -6.0531  -24.6762 H   0  0  0  0  0
  -47.5159   -7.0031  -23.3599 H   0  0  0  0  0
  -48.7332   -6.3616  -24.2998 H   0  0  0  0  0
  -47.5606   -1.6291  -17.6164 H   0  0  0  0  0
  -47.5063    0.6567  -17.7808 H   0  0  0  0  0
  -48.9844    0.5890  -18.9034 H   0  0  0  0  0
  -48.0791    2.2610  -20.1700 H   0  0  0  0  0
  -45.9368    1.2276  -21.9788 H   0  0  0  0  0
  -48.0414    3.3414  -22.4332 H   0  0  0  0  0
  -48.0958    1.5703  -23.0058 H   0  0  0  0  0
  -46.3318    3.7973  -23.9643 H   0  0  0  0  0
  -45.1245    1.6787  -23.9210 H   0  0  0  0  0
  -46.4612    0.8803  -24.7852 H   0  0  0  0  0
  -45.5065    2.1458  -25.5964 H   0  0  0  0  0
  -48.5535    2.2203  -25.3064 H   0  0  0  0  0
  -48.6242    3.9292  -24.8107 H   0  0  0  0  0
  -47.5104    3.4227  -26.1046 H   0  0  0  0  0
  -44.0042    2.1797  -22.0214 H   0  0  0  0  0
  -43.4790    4.6053  -20.5173 H   0  0  0  0  0
  -41.2371    4.4563  -21.8162 H   0  0  0  0  0
  -41.8854    2.8161  -22.3124 H   0  0  0  0  0
  -41.4155    4.8919  -19.2352 H   0  0  0  0  0
  -41.1966    1.0399  -21.0628 H   0  0  0  0  0
  -40.5760    3.9543  -17.1098 H   0  0  0  0  0
  -40.3337    0.0932  -18.9498 H   0  0  0  0  0
  -40.0157    1.5500  -16.9642 H   0  0  0  0  0
  -43.4067    6.6871  -21.2078 H   0  0  0  0  0
  -44.0226    7.2095  -24.0642 H   0  0  0  0  0
  -43.7565    9.2919  -21.8867 H   0  0  0  0  0
  -45.2514    8.2150  -21.9921 H   0  0  0  0  0
  -45.7076    9.1217  -24.1704 H   0  0  0  0  0
  -44.2675   10.1976  -24.0306 H   0  0  0  0  0
  -45.2756   11.3183  -22.1241 H   0  0  0  0  0
  -46.6729   10.2222  -22.1840 H   0  0  0  0  0
  -46.1016   12.4866  -23.9656 H   0  0  0  0  0
  -49.1675    9.9603  -24.8445 H   0  0  0  0  0
  -47.9831    9.4488  -23.6376 H   0  0  0  0  0
  -47.6424   13.0791  -25.4683 H   0  0  0  0  0
  -42.6342    8.1854  -25.4298 H   0  0  0  0  0
  -39.8952    8.7681  -24.4896 H   0  0  0  0  0
  -40.2375    7.5267  -26.5970 H   0  0  0  0  0
  -41.1638    8.8972  -27.2563 H   0  0  0  0  0
  -39.4288    9.0837  -26.9015 H   0  0  0  0  0
  -39.2041   10.8145  -24.0077 H   0  0  0  0  0
  -40.7517   13.1829  -24.7784 H   0  0  0  0  0
  -39.3611   13.2088  -22.7783 H   0  0  0  0  0
  -37.9079   12.9360  -23.7706 H   0  0  0  0  0
  -38.8342   14.4468  -23.9447 H   0  0  0  0  0
  -40.0937   14.7645  -26.3720 H   0  0  0  0  0
  -38.7199   13.4142  -28.6652 H   0  0  0  0  0
  -40.9841   15.4305  -28.6903 H   0  0  0  0  0
  -39.4896   15.8238  -30.5915 H   0  0  0  0  0
  -39.5597   14.0982  -31.0255 H   0  0  0  0  0
  -41.0223   15.1067  -31.1462 H   0  0  0  0  0
  -40.8574   12.5037  -29.5310 H   0  0  0  0  0
  -41.6919   13.1490  -28.0963 H   0  0  0  0  0
  -42.2699   13.5701  -29.7271 H   0  0  0  0  0
  -36.1295   17.0754  -28.4865 H   0  0  0  0  0
  -34.2647   15.6182  -29.1296 H   0  0  0  0  0
  -34.4458   16.4814  -30.6059 H   0  0  0  0  0
  -34.6615   13.8445  -30.6624 H   0  0  0  0  0
  -35.7639   14.7763  -31.6151 H   0  0  0  0  0
  -37.3418   13.5644  -30.3254 H   0  0  0  0  0
  -36.2755   13.3793  -28.9921 H   0  0  0  0  0
  -36.0157   18.9922  -29.4302 H   0  0  0  0  0
  -38.0176   19.4764  -31.5410 H   0  0  0  0  0
  -37.6207   21.8303  -31.0237 H   0  0  0  0  0
  -36.2011   21.3941  -30.0281 H   0  0  0  0  0
  -38.1050   21.7248  -28.7738 H   0  0  0  0  0
  -37.6062   20.4842  -33.5101 H   0  0  0  0  0
  -36.4189   20.7080  -35.4956 H   0  0  0  0  0
  -35.0252   19.8789  -34.7299 H   0  0  0  0  0
  -33.3245   21.1765  -35.0958 H   0  0  0  0  0
  -33.2445   23.6256  -33.5380 H   0  0  0  0  0
  -31.3016   22.1058  -33.6644 H   0  0  0  0  0
  -31.1982   22.3669  -35.4228 H   0  0  0  0  0
  -30.8661   23.7104  -34.3021 H   0  0  0  0  0
  -32.3125   25.6433  -34.3046 H   0  0  0  0  0
  -33.4857   26.5537  -36.8612 H   0  0  0  0  0
  -33.3499   27.8204  -34.5796 H   0  0  0  0  0
  -33.0107   28.7195  -36.1118 H   0  0  0  0  0
  -31.4808   29.1466  -34.4550 H   0  0  0  0  0
  -31.9569   27.6146  -38.3480 H   0  0  0  0  0
  1  2  1  0  0  0
  2  3  1  0  0  0
  2  5  1  0  0  0
  3  4  2  0  0  0
  3  7  1  0  0  0
  5  6  1  0  0  0
  7  8  1  0  0  0
  8  9  1  0  0  0
  8 11  1  0  0  0
  9 10  2  0  0  0
  9 16  1  0  0  0
 11 12  1  0  0  0
 12 13  1  0  0  0
 13 14  1  0  0  0
 14 15  1  0  0  0
 16 17  1  0  0  0
 17 18  1  0  0  0
 18 19  2  0  0  0
 18 20  1  0  0  0
 20 21  1  0  0  0
 21 22  1  0  0  0
 21 24  1  0  0  0
 22 23  2  0  0  0
 22 28  1  0  0  0
 24 25  1  0  0  0
 25 26  1  0  0  0
 25 27  1  0  0  0
 28 29  1  0  0  0
 29 30  1  0  0  0
 29 32  1  0  0  0
 30 31  2  0  0  0
 30 39  1  0  0  0
 32 33  1  0  0  0
 33 34  4  0  0  0
 33 35  4  0  0  0
 34 36  4  0  0  0
 35 37  4  0  0  0
 36 38  4  0  0  0
 37 38  4  0  0  0
 39 40  1  0  0  0
 40 41  1  0  0  0
 40 43  1  0  0  0
 41 42  2  0  0  0
 41 50  1  0  0  0
 43 44  1  0  0  0
 44 45  1  0  0  0
 45 46  1  0  0  0
 46 47  1  0  0  0
 47 48  1  0  0  0
 47 49  2  0  0  0
 50 51  1  0  0  0
 51 52  1  0  0  0
 51 54  1  0  0  0
 52 53  2  0  0  0
 52 55  1  0  0  0
 55 56  1  0  0  0
 56 57  1  0  0  0
 56 59  1  0  0  0
 57 58  2  0  0  0
 57 60  1  0  0  0
 60 61  1  0  0  0
 61 62  1  0  0  0
 61 64  1  0  0  0
 62 63  2  0  0  0
 62 67  1  0  0  0
 64 65  1  0  0  0
 64 66  1  0  0  0
 67 68  1  0  0  0
 67 73  1  0  0  0
 68 69  1  0  0  0
 68 71  1  0  0  0
 69 70  2  0  0  0
 69 74  1  0  0  0
 71 72  1  0  0  0
 72 73  1  0  0  0
 74 75  1  0  0  0
 75 76  1  0  0  0
 75 78  1  0  0  0
 76 77  2  0  0  0
 76 80  1  0  0  0
 78 79  1  0  0  0
 80 81  1  0  0  0
 81 82  1  0  0  0
 82 83  2  0  0  0
 82 84  1  0  0  0
 84 85  1  0  0  0
 85 86  1  0  0  0
 85 88  1  0  0  0
 86 87  2  0  0  0
 86 89  1  0  0  0
 89 90  1  0  0  0
 90 91  1  0  0  0
 90 93  1  0  0  0
 91 92  2  0  0  0
 91 95  1  0  0  0
 93 94  1  0  0  0
  1 96  1  0  0  0
  1 97  1  0  0  0
  1 98  1  0  0  0
  2 99  1  0  0  0
  5100  1  0  0  0
  5101  1  0  0  0
  6102  1  0  0  0
  7103  1  0  0  0
  8104  1  0  0  0
 11105  1  0  0  0
 11106  1  0  0  0
 12107  1  0  0  0
 12108  1  0  0  0
 13109  1  0  0  0
 13110  1  0  0  0
 14111  1  0  0  0
 14112  1  0  0  0
 15113  1  0  0  0
 15114  1  0  0  0
 15115  1  0  0  0
 16116  1  0  0  0
 17117  1  0  0  0
 17118  1  0  0  0
 20119  1  0  0  0
 21120  1  0  0  0
 24121  1  0  0  0
 24122  1  0  0  0
 25123  1  0  0  0
 26124  1  0  0  0
 26125  1  0  0  0
 26126  1  0  0  0
 27127  1  0  0  0
 27128  1  0  0  0
 27129  1  0  0  0
 28130  1  0  0  0
 29131  1  0  0  0
 32132  1  0  0  0
 32133  1  0  0  0
 34134  1  0  0  0
 35135  1  0  0  0
 36136  1  0  0  0
 37137  1  0  0  0
 38138  1  0  0  0
 39139  1  0  0  0
 40140  1  0  0  0
 43141  1  0  0  0
 43142  1  0  0  0
 44143  1  0  0  0
 44144  1  0  0  0
 45145  1  0  0  0
 45146  1  0  0  0
 46147  1  0  0  0
 48148  1  0  0  0
 48149  1  0  0  0
 49150  1  0  0  0
 50151  1  0  0  0
 51152  1  0  0  0
 54153  1  0  0  0
 54154  1  0  0  0
 54155  1  0  0  0
 55156  1  0  0  0
 56157  1  0  0  0
 59158  1  0  0  0
 59159  1  0  0  0
 59160  1  0  0  0
 60161  1  0  0  0
 61162  1  0  0  0
 64163  1  0  0  0
 65164  1  0  0  0
 65165  1  0  0  0
 65166  1  0  0  0
 66167  1  0  0  0
 66168  1  0  0  0
 66169  1  0  0  0
 68170  1  0  0  0
 71171  1  0  0  0
 71172  1  0  0  0
 72173  1  0  0  0
 72174  1  0  0  0
 73175  1  0  0  0
 73176  1  0  0  0
 74177  1  0  0  0
 75178  1  0  0  0
 78179  1  0  0  0
 78180  1  0  0  0
 79181  1  0  0  0
 80182  1  0  0  0
 81183  1  0  0  0
 81184  1  0  0  0
 84185  1  0  0  0
 85186  1  0  0  0
 88187  1  0  0  0
 88188  1  0  0  0
 88189  1  0  0  0
 89190  1  0  0  0
 90191  1  0  0  0
 93192  1  0  0  0
 93193  1  0  0  0
 94194  1  0  0  0
 95195  1  0  0  0
M  END
$$$$
