### 
### Created by X-TOOL on Mon Sep 10 21:13:28 2018
### 

@<TRIPOS>MOLECULE
5lax_ligand
  195   196     1     0     0
SMALL
GAST_HUCK


@<TRIPOS>ATOM
      1 N         -51.8870   -2.8900  -15.2270 N.4       1 SER         0.2396
      2 CA        -50.8990   -3.9950  -15.0090 C.3       1 SER         0.0885
      3 C         -49.7830   -4.0010  -16.0490 C.2       1 SER         0.2290
      4 O         -48.6590   -4.2990  -15.6820 O.2       1 SER        -0.3906
      5 CB        -51.5770   -5.3610  -14.9640 C.3       1 SER         0.1041
      6 OG        -50.6390   -6.4030  -14.8120 O.3       1 SER        -0.3870
      7 N         -50.1000   -3.7150  -17.3210 N.am      1 LYS        -0.2610
      8 CA        -49.1050   -3.4700  -18.3830 C.3       1 LYS         0.1311
      9 C         -49.1340   -1.9980  -18.8360 C.2       1 LYS         0.2037
     10 O         -49.9970   -1.5990  -19.6300 O.2       1 LYS        -0.3944
     11 CB        -49.3450   -4.4310  -19.5630 C.3       1 LYS        -0.0122
     12 CG        -48.6940   -4.0490  -20.8870 C.3       1 LYS        -0.0440
     13 CD        -48.8120   -5.1680  -21.9060 C.3       1 LYS        -0.0124
     14 CE        -47.8330   -4.9880  -23.0510 C.3       1 LYS        -0.0354
     15 NZ        -47.8030   -6.1970  -23.9150 N.4       1 LYS         0.2185
     16 N         -48.1900   -1.2150  -18.3040 N.am      1 GLY        -0.2664
     17 CA        -47.9970    0.2070  -18.6440 C.3       1 GLY         0.1201
     18 C         -47.0990    0.5150  -19.8450 C.2       1 GLY         0.2007
     19 O         -46.2050   -0.2510  -20.1610 O.2       1 GLY        -0.3947
     20 N         -47.3300    1.6530  -20.5010 N.am      1 LEU        -0.2640
     21 CA        -46.5560    2.0730  -21.6790 C.3       1 LEU         0.1312
     22 C         -45.6090    3.2530  -21.3770 C.2       1 LEU         0.2040
     23 O         -46.0470    4.2920  -20.8900 O.2       1 LEU        -0.3944
     24 CB        -47.5070    2.4630  -22.7950 C.3       1 LEU        -0.0101
     25 CG        -46.8900    2.8760  -24.1310 C.3       1 LEU        -0.0425
     26 CD1       -45.9270    1.8200  -24.6450 C.3       1 LEU        -0.0625
     27 CD2       -47.9710    3.1300  -25.1610 C.3       1 LEU        -0.0625
     28 N         -44.3150    3.0850  -21.6690 N.am      1 PHE        -0.2619
     29 CA        -43.3210    4.1610  -21.5000 C.3       1 PHE         0.1404
     30 C         -43.5010    5.2050  -22.5870 C.2       1 PHE         0.2060
     31 O         -43.6560    4.8560  -23.7510 O.2       1 PHE        -0.3942
     32 CB        -41.8870    3.6160  -21.5720 C.3       1 PHE         0.0214
     33 CG        -41.3820    3.0270  -20.2850 C.ar      1 PHE        -0.0386
     34 CD1       -41.1870    3.8280  -19.1720 C.ar      1 PHE        -0.0601
     35 CD2       -41.0640    1.6860  -20.1950 C.ar      1 PHE        -0.0601
     36 CE1       -40.7070    3.3070  -17.9770 C.ar      1 PHE        -0.0686
     37 CE2       -40.5770    1.1540  -19.0090 C.ar      1 PHE        -0.0686
     38 CZ        -40.3980    1.9690  -17.8950 C.ar      1 PHE        -0.0687
     39 N         -43.4860    6.4780  -22.2030 N.am      1 ARG        -0.2636
     40 CA        -43.5780    7.5860  -23.1430 C.3       1 ARG         0.1311
     41 C         -42.2010    8.1720  -23.4470 C.2       1 ARG         0.2039
     42 O         -41.4040    8.3920  -22.5300 O.2       1 ARG        -0.3944
     43 CB        -44.4300    8.7070  -22.5130 C.3       1 ARG        -0.0092
     44 CG        -45.0640    9.6830  -23.4930 C.3       1 ARG        -0.0156
     45 CD        -45.9080   10.7200  -22.7800 C.3       1 ARG         0.0627
     46 NE        -46.5470   11.5890  -23.7750 N.pl3     1 ARG        -0.2723
     47 CZ        -47.6670   11.3030  -24.4550 C.cat     1 ARG         0.2882
     48 NH1       -48.3250   10.1450  -24.3000 N.pl3     1 ARG        -0.2849
     49 NH2       -48.1350   12.1970  -25.3280 N.pl3     1 ARG        -0.2849
     50 N         -41.9370    8.4340  -24.7280 N.am      1 ALA        -0.2640
     51 CA        -40.6940    9.0610  -25.1710 C.3       1 ALA         0.1282
     52 C         -40.8500   10.5590  -25.1700 C.2       1 ALA         0.2036
     53 O         -41.8370   11.0590  -25.6900 O.2       1 ALA        -0.3944
     54 CB        -40.3570    8.6100  -26.5820 C.3       1 ALA        -0.0244
     55 N         -39.8830   11.2800  -24.6100 N.am      1 ALA        -0.2640
     56 CA        -39.7640   12.7250  -24.8330 C.3       1 ALA         0.1282
     57 C         -39.1670   12.9600  -26.2210 C.2       1 ALA         0.2036
     58 O         -38.3780   12.1470  -26.6890 O.2       1 ALA        -0.3944
     59 CB        -38.9050   13.3760  -23.7540 C.3       1 ALA        -0.0244
     60 N         -39.5450   14.0650  -26.8720 N.am      1 VAL        -0.2635
     61 CA        -39.2020   14.3110  -28.2760 C.3       1 VAL         0.1334
     62 C         -38.2350   15.4880  -28.3820 C.2       1 VAL         0.2066
     63 O         -38.4750   16.5250  -27.7870 O.2       1 VAL        -0.3942
     64 CB        -40.4690   14.5780  -29.1330 C.3       1 VAL        -0.0062
     65 CG1       -40.1090   14.9270  -30.5790 C.3       1 VAL        -0.0584
     66 CG2       -41.3880   13.3630  -29.1210 C.3       1 VAL        -0.0584
     67 N         -37.1380   15.3330  -29.1370 N.am      1 PRO        -0.2498
     68 CA        -36.2680   16.4740  -29.3850 C.3       1 PRO         0.1338
     69 C         -36.8350   17.4340  -30.4270 C.2       1 PRO         0.2042
     70 O         -37.4660   16.9950  -31.3820 O.2       1 PRO        -0.3944
     71 CB        -34.9840   15.8250  -29.9220 C.3       1 PRO        -0.0104
     72 CG        -35.4540   14.5890  -30.5870 C.3       1 PRO        -0.0281
     73 CD        -36.5950   14.1030  -29.7420 C.3       1 PRO         0.0369
     74 N         -36.5740   18.7220  -30.2400 N.am      1 SER        -0.2616
     75 CA        -37.0480   19.7690  -31.1380 C.3       1 SER         0.1539
     76 C         -36.0750   19.9570  -32.2860 C.2       1 SER         0.2060
     77 O         -34.8790   19.7280  -32.1220 O.2       1 SER        -0.3943
     78 CB        -37.1860   21.0750  -30.3690 C.3       1 SER         0.0843
     79 OG        -38.0260   20.8950  -29.2500 O.3       1 SER        -0.3903
     80 N         -36.5950   20.3690  -33.4420 N.am      1 GLY        -0.2663
     81 CA        -35.7740   20.6630  -34.6180 C.3       1 GLY         0.1201
     82 C         -35.0660   22.0000  -34.4590 C.2       1 GLY         0.2007
     83 O         -35.6920   23.0040  -34.0960 O.2       1 GLY        -0.3947
     84 N         -33.7650   22.0180  -34.7240 N.am      1 ALA        -0.2642
     85 CA        -32.9440   23.2080  -34.4990 C.3       1 ALA         0.1281
     86 C         -33.1710   24.2940  -35.5490 C.2       1 ALA         0.2031
     87 O         -33.7610   24.0430  -36.5980 O.2       1 ALA        -0.3944
     88 CB        -31.4720   22.8200  -34.4700 C.3       1 ALA        -0.0244
     89 N         -32.6760   25.4950  -35.2460 N.am      1 SER        -0.2672
     90 CA        -32.6260   26.6150  -36.1940 C.3       1 SER         0.1173
     91 C         -31.3430   26.5420  -37.0400 C.2       1 SER         0.0623
     92 O         -30.4050   25.8780  -36.6300 O.co2     1 SER        -0.5665
     93 CB        -32.6740   27.9420  -35.4260 C.3       1 SER         0.0789
     94 OG        -31.4060   28.3140  -34.9270 O.3       1 SER        -0.3910
     95 OXT       -31.1650   27.1240  -38.1160 O.co2     1 SER        -0.5665
     96 H1        -52.5999   -2.9316  -14.5156 H         1 SER         0.2016
     97 H2        -52.3121   -2.9936  -16.1351 H         1 SER         0.2016
     98 H3        -51.4138   -2.0014  -15.1769 H         1 SER         0.2016
     99 H4        -50.4334   -3.8225  -14.0275 H         1 SER         0.1122
    100 H5        -52.1321   -5.5147  -15.9011 H         1 SER         0.0640
    101 H6        -52.2765   -5.3842  -14.1154 H         1 SER         0.0640
    102 H7        -50.0341   -6.3924  -15.5445 H         1 SER         0.2099
    103 H8        -51.0687   -3.6648  -17.5640 H         1 LYS         0.1884
    104 H9        -48.1060   -3.6774  -17.9721 H         1 LYS         0.0800
    105 H10       -50.4306   -4.4937  -19.7290 H         1 LYS         0.0312
    106 H11       -48.9606   -5.4201  -19.2735 H         1 LYS         0.0312
    107 H12       -47.6293   -3.8341  -20.7134 H         1 LYS         0.0269
    108 H13       -49.1896   -3.1505  -21.2833 H         1 LYS         0.0269
    109 H14       -49.8352   -5.1765  -22.3096 H         1 LYS         0.0317
    110 H15       -48.6062   -6.1270  -21.4082 H         1 LYS         0.0317
    111 H16       -46.8273   -4.8125  -22.6414 H         1 LYS         0.0813
    112 H17       -48.1395   -4.1210  -23.6546 H         1 LYS         0.0813
    113 H18       -47.1475   -6.0559  -24.6676 H         1 LYS         0.1994
    114 H19       -48.7218   -6.3607  -24.2959 H         1 LYS         0.1994
    115 H20       -47.5193   -6.9944  -23.3675 H         1 LYS         0.1994
    116 H21       -47.5730   -1.6210  -17.6299 H         1 GLY         0.1881
    117 H22       -47.5585    0.7025  -17.7653 H         1 GLY         0.0763
    118 H23       -48.9881    0.6369  -18.8510 H         1 GLY         0.0763
    119 H24       -48.0644    2.2491  -20.1765 H         1 LEU         0.1883
    120 H25       -45.9471    1.2198  -22.0126 H         1 LEU         0.0800
    121 H26       -48.1101    3.3092  -22.4343 H         1 LEU         0.0315
    122 H27       -48.1626    1.6007  -22.9866 H         1 LEU         0.0315
    123 H28       -46.3294    3.8097  -23.9763 H         1 LEU         0.0298
    124 H29       -45.5020    2.1477  -25.6052 H         1 LEU         0.0232
    125 H30       -46.4650    0.8711  -24.7869 H         1 LEU         0.0232
    126 H31       -45.1166    1.6765  -23.9152 H         1 LEU         0.0232
    127 H32       -48.6649    3.8953  -24.7831 H         1 LEU         0.0232
    128 H33       -48.5222    2.1974  -25.3517 H         1 LEU         0.0232
    129 H34       -47.5110    3.4819  -26.0962 H         1 LEU         0.0232
    130 H35       -44.0103    2.1974  -22.0145 H         1 PHE         0.1885
    131 H36       -43.4745    4.6312  -20.5175 H         1 PHE         0.0823
    132 H37       -41.2189    4.4418  -21.8580 H         1 PHE         0.0474
    133 H38       -41.8545    2.8337  -22.3446 H         1 PHE         0.0474
    134 H39       -41.4142    4.8861  -19.2349 H         1 PHE         0.0557
    135 H40       -41.1959    1.0434  -21.0580 H         1 PHE         0.0557
    136 H41       -40.5768    3.9507  -17.1146 H         1 PHE         0.0599
    137 H42       -40.3350    0.0990  -18.9501 H         1 PHE         0.0599
    138 H43       -40.0178    1.5524  -16.9693 H         1 PHE         0.0559
    139 H44       -43.4082    6.6830  -21.2273 H         1 ARG         0.1883
    140 H45       -44.0443    7.2351  -24.0754 H         1 ARG         0.0800
    141 H46       -43.7834    9.2820  -21.8339 H         1 ARG         0.0313
    142 H47       -45.2385    8.2338  -21.9365 H         1 ARG         0.0313
    143 H48       -45.7021    9.1229  -24.1923 H         1 ARG         0.0301
    144 H49       -44.2674   10.1947  -24.0530 H         1 ARG         0.0301
    145 H50       -45.2684   11.3246  -22.1202 H         1 ARG         0.0689
    146 H51       -46.6809   10.2166  -22.1808 H         1 ARG         0.0689
    147 H52       -46.0972   12.4954  -23.9674 H         1 ARG         0.2642
    148 H53       -49.1822    9.9633  -24.8413 H         1 ARG         0.2615
    149 H54       -47.9732    9.4372  -23.6396 H         1 ARG         0.2615
    150 H55       -47.6438   13.0924  -25.4615 H         1 ARG         0.2615
    151 H56       -48.9875   11.9917  -25.8684 H         1 ARG         0.2615
    152 H57       -42.6206    8.1903  -25.4160 H         1 ALA         0.1883
    153 H58       -39.8796    8.7748  -24.4893 H         1 ALA         0.0797
    154 H59       -39.4203    9.0874  -26.9056 H         1 ALA         0.0277
    155 H60       -41.1705    8.8993  -27.2636 H         1 ALA         0.0277
    156 H61       -40.2361    7.5168  -26.5985 H         1 ALA         0.0277
    157 H62       -39.2174   10.8237  -24.0195 H         1 ALA         0.1883
    158 H63       -40.7674   13.1742  -24.7965 H         1 ALA         0.0797
    159 H64       -38.8328   14.4568  -23.9454 H         1 ALA         0.0277
    160 H65       -37.8984   12.9328  -23.7697 H         1 ALA         0.0277
    161 H66       -39.3643   13.2080  -22.7687 H         1 ALA         0.0277
    162 H67       -40.0830   14.7508  -26.3818 H         1 VAL         0.1883
    163 H68       -38.7033   13.4135  -28.6706 H         1 VAL         0.0803
    164 H69       -41.0075   15.4305  -28.6934 H         1 VAL         0.0343
    165 H70       -41.0299   15.1086  -31.1525 H         1 VAL         0.0234
    166 H71       -39.5546   14.0913  -31.0308 H         1 VAL         0.0234
    167 H72       -39.4838   15.8320  -30.5931 H         1 VAL         0.0234
    168 H73       -41.6481   13.1103  -28.0825 H         1 VAL         0.0234
    169 H74       -40.8742   12.5100  -29.5882 H         1 VAL         0.0234
    170 H75       -42.3053   13.5915  -29.6835 H         1 VAL         0.0234
    171 H76       -36.0757   17.0233  -28.4516 H         1 PRO         0.0802
    172 H77       -34.2934   15.5872  -29.0995 H         1 PRO         0.0313
    173 H78       -34.4826   16.4889  -30.6416 H         1 PRO         0.0313
    174 H79       -34.6506   13.8384  -30.6203 H         1 PRO         0.0287
    175 H80       -35.7956   14.8062  -31.6098 H         1 PRO         0.0287
    176 H81       -37.3547   13.6029  -30.3607 H         1 PRO         0.0524
    177 H82       -36.2393   13.4093  -28.9660 H         1 PRO         0.0524
    178 H83       -36.0267   18.9869  -29.4461 H         1 SER         0.1884
    179 H84       -38.0297   19.4802  -31.5416 H         1 SER         0.0823
    180 H85       -37.6190   21.8412  -31.0288 H         1 SER         0.0606
    181 H86       -36.1927   21.4030  -30.0287 H         1 SER         0.0606
    182 H87       -38.1042   21.7162  -28.7787 H         1 SER         0.2097
    183 H88       -37.5864   20.4819  -33.5088 H         1 GLY         0.1881
    184 H89       -36.4187   20.6995  -35.5085 H         1 GLY         0.0763
    185 H90       -35.0227   19.8691  -34.7415 H         1 GLY         0.0763
    186 H91       -33.3331   21.1930  -35.0885 H         1 ALA         0.1883
    187 H92       -33.2148   23.6248  -33.5177 H         1 ALA         0.0797
    188 H93       -30.8595   23.7178  -34.3006 H         1 ALA         0.0277
    189 H94       -31.1943   22.3627  -35.4311 H         1 ALA         0.0277
    190 H95       -31.2987   22.0993  -33.6573 H         1 ALA         0.0277
    191 H96       -32.3196   25.6404  -34.3230 H         1 SER         0.1876
    192 H97       -33.4972   26.5563  -36.8629 H         1 SER         0.0749
    193 H98       -33.3708   27.8378  -34.5812 H         1 SER         0.0599
    194 H99       -33.0339   28.7307  -36.1030 H         1 SER         0.0599
    195 H100      -31.4800   29.1379  -34.4599 H         1 SER         0.2096
@<TRIPOS>BOND
     1    1    2 1  
     2    2    3 1  
     3    2    5 1  
     4    3    4 2  
     5    3    7 am 
     6    5    6 1  
     7    7    8 1  
     8    8    9 1  
     9    8   11 1  
    10    9   10 2  
    11    9   16 am 
    12   11   12 1  
    13   12   13 1  
    14   13   14 1  
    15   14   15 1  
    16   16   17 1  
    17   17   18 1  
    18   18   19 2  
    19   18   20 am 
    20   20   21 1  
    21   21   22 1  
    22   21   24 1  
    23   22   23 2  
    24   22   28 am 
    25   24   25 1  
    26   25   26 1  
    27   25   27 1  
    28   28   29 1  
    29   29   30 1  
    30   29   32 1  
    31   30   31 2  
    32   30   39 am 
    33   32   33 1  
    34   33   34 ar 
    35   33   35 ar 
    36   34   36 ar 
    37   35   37 ar 
    38   36   38 ar 
    39   37   38 ar 
    40   39   40 1  
    41   40   41 1  
    42   40   43 1  
    43   41   42 2  
    44   41   50 am 
    45   43   44 1  
    46   44   45 1  
    47   45   46 1  
    48   46   47 ar 
    49   47   48 ar 
    50   47   49 ar 
    51   50   51 1  
    52   51   52 1  
    53   51   54 1  
    54   52   53 2  
    55   52   55 am 
    56   55   56 1  
    57   56   57 1  
    58   56   59 1  
    59   57   58 2  
    60   57   60 am 
    61   60   61 1  
    62   61   62 1  
    63   61   64 1  
    64   62   63 2  
    65   62   67 am 
    66   64   65 1  
    67   64   66 1  
    68   67   68 1  
    69   67   73 1  
    70   68   69 1  
    71   68   71 1  
    72   69   70 2  
    73   69   74 am 
    74   71   72 1  
    75   72   73 1  
    76   74   75 1  
    77   75   76 1  
    78   75   78 1  
    79   76   77 2  
    80   76   80 am 
    81   78   79 1  
    82   80   81 1  
    83   81   82 1  
    84   82   83 2  
    85   82   84 am 
    86   84   85 1  
    87   85   86 1  
    88   85   88 1  
    89   86   87 2  
    90   86   89 am 
    91   89   90 1  
    92   90   91 1  
    93   90   93 1  
    94   91   92 ar 
    95   91   95 ar 
    96   93   94 1  
    97    1   96 1  
    98    1   97 1  
    99    1   98 1  
   100    2   99 1  
   101    5  100 1  
   102    5  101 1  
   103    6  102 1  
   104    7  103 1  
   105    8  104 1  
   106   11  105 1  
   107   11  106 1  
   108   12  107 1  
   109   12  108 1  
   110   13  109 1  
   111   13  110 1  
   112   14  111 1  
   113   14  112 1  
   114   15  113 1  
   115   15  114 1  
   116   15  115 1  
   117   16  116 1  
   118   17  117 1  
   119   17  118 1  
   120   20  119 1  
   121   21  120 1  
   122   24  121 1  
   123   24  122 1  
   124   25  123 1  
   125   26  124 1  
   126   26  125 1  
   127   26  126 1  
   128   27  127 1  
   129   27  128 1  
   130   27  129 1  
   131   28  130 1  
   132   29  131 1  
   133   32  132 1  
   134   32  133 1  
   135   34  134 1  
   136   35  135 1  
   137   36  136 1  
   138   37  137 1  
   139   38  138 1  
   140   39  139 1  
   141   40  140 1  
   142   43  141 1  
   143   43  142 1  
   144   44  143 1  
   145   44  144 1  
   146   45  145 1  
   147   45  146 1  
   148   46  147 1  
   149   48  148 1  
   150   48  149 1  
   151   49  150 1  
   152   49  151 1  
   153   50  152 1  
   154   51  153 1  
   155   54  154 1  
   156   54  155 1  
   157   54  156 1  
   158   55  157 1  
   159   56  158 1  
   160   59  159 1  
   161   59  160 1  
   162   59  161 1  
   163   60  162 1  
   164   61  163 1  
   165   64  164 1  
   166   65  165 1  
   167   65  166 1  
   168   65  167 1  
   169   66  168 1  
   170   66  169 1  
   171   66  170 1  
   172   68  171 1  
   173   71  172 1  
   174   71  173 1  
   175   72  174 1  
   176   72  175 1  
   177   73  176 1  
   178   73  177 1  
   179   74  178 1  
   180   75  179 1  
   181   78  180 1  
   182   78  181 1  
   183   79  182 1  
   184   80  183 1  
   185   81  184 1  
   186   81  185 1  
   187   84  186 1  
   188   85  187 1  
   189   88  188 1  
   190   88  189 1  
   191   88  190 1  
   192   89  191 1  
   193   90  192 1  
   194   93  193 1  
   195   93  194 1  
   196   94  195 1  
@<TRIPOS>SUBSTRUCTURE
     1 SER         1

