2imb_ligand
  -I-interpret- 

 29 28  0  0  0  0  0  0  0  0999 V2000
   -6.4480   -8.8210   22.2770 N   0  3  0  0  0
   -5.2640   -8.5070   23.0420 C   0  0  0  0  0
   -4.1750   -9.5580   22.7610 C   0  0  0  0  0
   -2.8980   -9.0530   22.0940 C   0  0  0  0  0
   -1.8290  -10.1460   22.0830 C   0  0  0  0  0
   -2.2900  -11.2180   21.1980 N   0  0  0  0  0
   -2.2790  -11.3240   19.8510 C   0  0  0  0  0
   -2.7720  -12.4320   19.3040 N   0  0  0  0  0
   -1.7870  -10.3730   19.0370 N   0  0  0  0  0
   -4.8410   -7.1090   22.7280 C   0  0  0  0  0
   -4.9910   -6.6530   21.6000 O   0  0  0  0  0
   -4.3050   -6.4730   23.7690 N   0  0  0  0  0
   -3.8710   -5.1610   23.6450 O   0  0  0  0  0
   -6.7434   -9.7747   22.4860 H   0  0  0  0  0
   -7.1938   -8.1708   22.5248 H   0  0  0  0  0
   -6.2401   -8.7385   21.2818 H   0  0  0  0  0
   -5.4623   -8.5483   24.1130 H   0  0  0  0  0
   -4.6166  -10.2723   22.0661 H   0  0  0  0  0
   -3.8740   -9.9485   23.7331 H   0  0  0  0  0
   -2.5220   -8.1965   22.6535 H   0  0  0  0  0
   -3.1244   -8.7697   21.0661 H   0  0  0  0  0
   -1.6716  -10.5301   23.0909 H   0  0  0  0  0
   -0.8811   -9.7433   21.7260 H   0  0  0  0  0
   -2.6878  -12.0231   21.6817 H   0  0  0  0  0
   -2.7706  -12.5445   18.2902 H   0  0  0  0  0
   -1.7979  -10.5111   18.0264 H   0  0  0  0  0
   -1.4030   -9.5137   19.4303 H   0  0  0  0  0
   -4.2131   -6.9542   24.6636 H   0  0  0  0  0
   -3.5153   -4.8620   24.4851 H   0  0  0  0  0
  1  2  1  0  0  0
  2  3  1  0  0  0
  2 10  1  0  0  0
  3  4  1  0  0  0
  4  5  1  0  0  0
  5  6  1  0  0  0
  6  7  1  0  0  0
  7  8  2  0  0  0
  7  9  1  0  0  0
 10 11  2  0  0  0
 10 12  1  0  0  0
 12 13  1  0  0  0
  1 14  1  0  0  0
  1 15  1  0  0  0
  1 16  1  0  0  0
  2 17  1  0  0  0
  3 18  1  0  0  0
  3 19  1  0  0  0
  4 20  1  0  0  0
  4 21  1  0  0  0
  5 22  1  0  0  0
  5 23  1  0  0  0
  6 24  1  0  0  0
  8 25  1  0  0  0
  9 26  1  0  0  0
  9 27  1  0  0  0
 12 28  1  0  0  0
 13 29  1  0  0  0
M  END
$$$$
