2hl4_ligand
  -I-interpret- 

 40 41  0  0  0  0  0  0  0  0999 V2000
   -5.9720    0.9500   16.6870 S   0  0  0  0  0
   -5.4260    1.0860   18.0080 O   0  0  0  0  0
   -7.3950    1.0440   16.5180 O   0  0  0  0  0
   -5.4870   -0.4620   16.1140 N   0  0  0  0  0
   -5.2420    2.2240   15.7260 C   0  0  0  0  0
   -6.0080    3.3220   15.2590 C   0  0  0  0  0
   -5.4050    4.3220   14.5030 C   0  0  0  0  0
   -4.0030    4.2580   14.1840 C   0  0  0  0  0
   -3.2600    3.1490   14.6640 C   0  0  0  0  0
   -3.8660    2.1560   15.4160 C   0  0  0  0  0
   -3.3500    5.2310   13.4360 N   0  0  0  0  0
   -3.8590    6.5120   13.1010 C   0  0  0  0  0
   -2.8340    7.3080   12.2910 C   0  0  0  0  0
   -3.4220    8.6770   11.9380 C   0  0  0  0  0
   -4.6740    8.4710   11.1120 C   0  0  0  0  0
   -5.6970    7.6530   11.9440 C   0  0  0  0  0
   -6.9700    7.3730   11.1970 C   0  0  0  0  0
   -5.1070    6.3680   12.3240 O   0  0  0  0  0
   -1.6550    7.4390   13.0930 O   0  0  0  0  0
   -2.4590    9.4140   11.1850 O   0  0  0  0  0
   -5.2430    9.7390   10.7680 O   0  0  0  0  0
   -6.7370    6.4480   10.1410 O   0  0  0  0  0
   -4.8968   -1.0681   16.6838 H   0  0  0  0  0
   -5.7678   -0.7565   15.1787 H   0  0  0  0  0
   -7.0709    3.3826   15.4927 H   0  0  0  0  0
   -6.0007    5.1631   14.1484 H   0  0  0  0  0
   -2.1962    3.0772   14.4377 H   0  0  0  0  0
   -3.2742    1.3129   15.7724 H   0  0  0  0  0
   -2.4161    5.0020   13.0957 H   0  0  0  0  0
   -4.0663    7.0531   14.0242 H   0  0  0  0  0
   -2.5835    6.8028   11.3582 H   0  0  0  0  0
   -3.6712    9.2295   12.8440 H   0  0  0  0  0
   -4.4243    7.9334   10.1973 H   0  0  0  0  0
   -5.9394    8.2587   12.8172 H   0  0  0  0  0
   -7.3441    8.3054   10.7741 H   0  0  0  0  0
   -7.6980    6.9460   11.8868 H   0  0  0  0  0
   -0.9927    7.9362   12.6075 H   0  0  0  0  0
   -2.8208   10.2742   10.9598 H   0  0  0  0  0
   -6.0360    9.6013   10.2447 H   0  0  0  0  0
   -7.5600    6.2814    9.6757 H   0  0  0  0  0
  1  2  2  0  0  0
  1  3  2  0  0  0
  1  4  1  0  0  0
  1  5  1  0  0  0
  5  6  4  0  0  0
  5 10  4  0  0  0
  6  7  4  0  0  0
  7  8  4  0  0  0
  8  9  4  0  0  0
  8 11  1  0  0  0
  9 10  4  0  0  0
 11 12  1  0  0  0
 12 13  1  0  0  0
 12 18  1  0  0  0
 13 14  1  0  0  0
 13 19  1  0  0  0
 14 15  1  0  0  0
 14 20  1  0  0  0
 15 16  1  0  0  0
 15 21  1  0  0  0
 16 17  1  0  0  0
 16 18  1  0  0  0
 17 22  1  0  0  0
  4 23  1  0  0  0
  4 24  1  0  0  0
  6 25  1  0  0  0
  7 26  1  0  0  0
  9 27  1  0  0  0
 10 28  1  0  0  0
 11 29  1  0  0  0
 12 30  1  0  0  0
 13 31  1  0  0  0
 14 32  1  0  0  0
 15 33  1  0  0  0
 16 34  1  0  0  0
 17 35  1  0  0  0
 17 36  1  0  0  0
 19 37  1  0  0  0
 20 38  1  0  0  0
 21 39  1  0  0  0
 22 40  1  0  0  0
M  END
$$$$
