4f1s_ligand
  -I-interpret- 

 56 59  0  0  0  0  0  0  0  0999 V2000
   27.6930   16.1280   18.7160 C   0  0  0  0  0
   27.3540   14.7220   17.6710 S   0  0  0  0  0
   28.2990   14.7050   16.5080 O   0  0  0  0  0
   25.9390   14.7830   17.1680 O   0  0  0  0  0
   27.5430   13.3310   18.4980 N   0  0  0  0  0
   27.1240   13.1940   19.7550 C   0  0  0  0  0
   25.8770   13.6650   20.1580 C   0  0  0  0  0
   27.9450   12.5520   20.6730 C   0  0  0  0  0
   29.4910   11.9420   20.1960 Cl  0  0  0  0  0
   27.5450   12.4010   21.9400 N   0  0  0  0  0
   26.3700   12.8480   22.3490 C   0  0  0  0  0
   25.4910   13.5040   21.4880 C   0  0  0  0  0
   24.3140   13.9310   21.9820 N   0  0  0  0  0
   23.5980   14.9560   21.4850 C   0  0  0  0  0
   24.1660   15.8090   20.6160 N   0  0  0  0  0
   23.5110   16.8260   20.0950 C   0  0  0  0  0
   22.1860   17.0640   20.4350 C   0  0  0  0  0
   21.4660   18.2700   19.8120 C   0  0  0  0  0
   19.9510   18.0300   19.6760 C   0  0  0  0  0
   19.2680   19.2950   19.1450 C   0  0  0  0  0
   19.5570   20.3240   20.1050 O   0  0  0  0  0
   20.9500   20.6770   20.0640 C   0  0  0  0  0
   21.7330   19.5150   20.6600 C   0  0  0  0  0
   21.5500   16.2220   21.3390 C   0  0  0  0  0
   22.2610   15.1500   21.8730 C   0  0  0  0  0
   21.6380   14.2890   22.7770 C   0  0  0  0  0
   20.3660   14.4700   23.1610 N   0  0  0  0  0
   22.3330   13.2570   23.2760 N   0  0  0  0  0
   21.7770   12.4040   24.1420 C   0  0  0  0  0
   22.6010   11.2410   24.6810 C   0  0  0  0  0
   20.5070   12.5830   24.5220 N   0  0  0  0  0
   19.8060   13.6180   24.0330 C   0  0  0  0  0
   18.5500   13.7880   24.4180 N   0  0  0  0  0
   28.7162   16.0654   19.0865 H   0  0  0  0  0
   27.5692   17.0452   18.1403 H   0  0  0  0  0
   27.0000   16.1293   19.5573 H   0  0  0  0  0
   27.9961   12.5408   18.0391 H   0  0  0  0  0
   25.2127   14.1522   19.4443 H   0  0  0  0  0
   26.0800   12.6995   23.3892 H   0  0  0  0  0
   23.9369   13.4412   22.7933 H   0  0  0  0  0
   24.0142   17.4875   19.3898 H   0  0  0  0  0
   21.8593   18.4165   18.8060 H   0  0  0  0  0
   19.5373   17.7813   20.6533 H   0  0  0  0  0
   19.7781   17.2091   18.9801 H   0  0  0  0  0
   18.1940   19.1487   19.0297 H   0  0  0  0  0
   19.6369   19.5603   18.1542 H   0  0  0  0  0
   21.1294   21.5896   20.6325 H   0  0  0  0  0
   21.2663   20.8639   19.0378 H   0  0  0  0  0
   22.7986   19.7443   20.6619 H   0  0  0  0  0
   21.4181   19.3409   21.6889 H   0  0  0  0  0
   20.5130   16.3973   21.6252 H   0  0  0  0  0
   22.9243   10.6115   23.8520 H   0  0  0  0  0
   23.4738   11.6285   25.2065 H   0  0  0  0  0
   21.9922   10.6540   25.3687 H   0  0  0  0  0
   18.0054   14.5686   24.0513 H   0  0  0  0  0
   18.1275   13.1383   25.0811 H   0  0  0  0  0
  1  2  1  0  0  0
  2  3  2  0  0  0
  2  4  2  0  0  0
  2  5  1  0  0  0
  5  6  1  0  0  0
  6  7  4  0  0  0
  6  8  4  0  0  0
  7 12  4  0  0  0
  8  9  1  0  0  0
  8 10  4  0  0  0
 10 11  4  0  0  0
 11 12  4  0  0  0
 12 13  1  0  0  0
 13 14  1  0  0  0
 14 15  4  0  0  0
 14 25  4  0  0  0
 15 16  4  0  0  0
 16 17  4  0  0  0
 17 18  1  0  0  0
 17 24  4  0  0  0
 18 19  1  0  0  0
 18 23  1  0  0  0
 19 20  1  0  0  0
 20 21  1  0  0  0
 21 22  1  0  0  0
 22 23  1  0  0  0
 24 25  4  0  0  0
 25 26  1  0  0  0
 26 27  4  0  0  0
 26 28  4  0  0  0
 27 32  4  0  0  0
 28 29  4  0  0  0
 29 30  1  0  0  0
 29 31  4  0  0  0
 31 32  4  0  0  0
 32 33  1  0  0  0
  1 34  1  0  0  0
  1 35  1  0  0  0
  1 36  1  0  0  0
  5 37  1  0  0  0
  7 38  1  0  0  0
 11 39  1  0  0  0
 13 40  1  0  0  0
 16 41  1  0  0  0
 18 42  1  0  0  0
 19 43  1  0  0  0
 19 44  1  0  0  0
 20 45  1  0  0  0
 20 46  1  0  0  0
 22 47  1  0  0  0
 22 48  1  0  0  0
 23 49  1  0  0  0
 23 50  1  0  0  0
 24 51  1  0  0  0
 30 52  1  0  0  0
 30 53  1  0  0  0
 30 54  1  0  0  0
 33 55  1  0  0  0
 33 56  1  0  0  0
M  END
$$$$
