4w4s_ligand
  -I-interpret- 

 50 53  0  0  0  0  0  0  0  0999 V2000
    5.0190  -11.8750   -4.1660 C   0  0  0  0  0
    6.2720  -11.4390   -3.6740 C   0  0  0  0  0
    6.3360  -10.7360   -2.4580 C   0  0  0  0  0
    5.1500  -10.4710   -1.7400 C   0  0  0  0  0
    3.8990  -10.9080   -2.2380 C   0  0  0  0  0
    3.8290  -11.6110   -3.4570 C   0  0  0  0  0
    2.7780  -12.1420   -4.1610 O   0  0  0  0  0
    3.2550  -12.7360   -5.2880 C   0  0  0  0  0
    4.6680  -12.5680   -5.2920 C   0  0  0  0  0
    5.4460  -13.0810   -6.3370 C   0  0  0  0  0
    4.8480  -13.7690   -7.3860 C   0  0  0  0  0
    3.4460  -13.9540   -7.4050 C   0  0  0  0  0
    2.6660  -13.4680   -6.4220 C   0  0  0  0  0
    1.6480  -12.7920   -7.2280 C   0  0  0  0  0
    0.3310  -12.6510   -6.7090 C   0  0  0  0  0
    1.9100  -12.2530   -8.5480 C   0  0  0  0  0
    0.8970  -11.6180   -9.2910 C   0  0  0  0  0
   -0.3880  -11.4920   -8.7590 C   0  0  0  0  0
   -0.6730  -12.0010   -7.4830 C   0  0  0  0  0
   -2.0710  -11.8480   -6.9380 C   0  0  0  0  0
   -3.3430  -12.2940   -6.3570 C   0  0  0  0  0
   -4.1170  -10.8320   -5.4670 P   0  0  0  0  0
   -5.5960  -10.6390   -6.0810 O   0  0  0  0  0
   -4.2700  -11.2630   -3.9330 O   0  0  0  0  0
   -3.3080   -9.5950   -5.5930 O   0  0  0  0  0
   -4.4590  -12.9370   -7.7130 P   0  0  0  0  0
   -4.4320  -11.8250   -8.8720 O   0  0  0  0  0
   -3.7790  -14.2650   -8.2990 O   0  0  0  0  0
   -5.8360  -13.1950   -7.2400 O   0  0  0  0  0
   -3.0980  -13.3370   -5.4240 O   0  0  0  0  0
    7.1831  -11.6471   -4.2349 H   0  0  0  0  0
    7.2972  -10.3972   -2.0715 H   0  0  0  0  0
    5.1977   -9.9268   -0.7968 H   0  0  0  0  0
    2.9878  -10.7001   -1.6771 H   0  0  0  0  0
    6.5268  -12.9399   -6.3277 H   0  0  0  0  0
    5.4604  -14.1666   -8.1953 H   0  0  0  0  0
    3.3223  -15.0343   -7.3290 H   0  0  0  0  0
    3.1210  -13.4100   -8.2918 H   0  0  0  0  0
    2.2956  -14.2472   -5.7558 H   0  0  0  0  0
    0.0902  -13.0401   -5.7197 H   0  0  0  0  0
    2.9099  -12.3411   -8.9730 H   0  0  0  0  0
    1.1160  -11.2239  -10.2834 H   0  0  0  0  0
   -1.1701  -10.9979   -9.3354 H   0  0  0  0  0
   -2.5013  -11.7696   -7.9364 H   0  0  0  0  0
   -1.7064  -11.4846   -5.9772 H   0  0  0  0  0
   -6.0909  -11.4558   -5.9833 H   0  0  0  0  0
   -4.7962  -12.0641   -3.8778 H   0  0  0  0  0
   -3.5261  -11.6819   -9.1555 H   0  0  0  0  0
   -2.8888  -14.0629   -8.5962 H   0  0  0  0  0
   -3.9306  -13.6277   -5.0448 H   0  0  0  0  0
  1  2  4  0  0  0
  1  6  4  0  0  0
  1  9  4  0  0  0
  2  3  4  0  0  0
  3  4  4  0  0  0
  4  5  4  0  0  0
  5  6  4  0  0  0
  6  7  4  0  0  0
  7  8  4  0  0  0
  8  9  4  0  0  0
  8 13  1  0  0  0
  9 10  1  0  0  0
 10 11  2  0  0  0
 11 12  1  0  0  0
 12 13  1  0  0  0
 13 14  1  0  0  0
 14 15  4  0  0  0
 14 16  4  0  0  0
 15 19  4  0  0  0
 16 17  4  0  0  0
 17 18  4  0  0  0
 18 19  4  0  0  0
 19 20  1  0  0  0
 20 21  1  0  0  0
 21 22  1  0  0  0
 21 26  1  0  0  0
 21 30  1  0  0  0
 22 23  1  0  0  0
 22 24  1  0  0  0
 22 25  2  0  0  0
 26 27  1  0  0  0
 26 28  1  0  0  0
 26 29  2  0  0  0
  2 31  1  0  0  0
  3 32  1  0  0  0
  4 33  1  0  0  0
  5 34  1  0  0  0
 10 35  1  0  0  0
 11 36  1  0  0  0
 12 37  1  0  0  0
 12 38  1  0  0  0
 13 39  1  0  0  0
 15 40  1  0  0  0
 16 41  1  0  0  0
 17 42  1  0  0  0
 18 43  1  0  0  0
 20 44  1  0  0  0
 20 45  1  0  0  0
 23 46  1  0  0  0
 24 47  1  0  0  0
 27 48  1  0  0  0
 28 49  1  0  0  0
 30 50  1  0  0  0
M  END
$$$$
