### 
### Created by X-TOOL on Mon Sep 10 21:13:24 2018
### 

@<TRIPOS>MOLECULE
4w4s_ligand
   46    49     1     0     0
SMALL
GAST_HUCK


@<TRIPOS>ATOM
      1 CAY         5.0190  -11.8750   -4.1660 C.ar      1 B29        -0.0110
      2 CAP         6.2720  -11.4390   -3.6740 C.ar      1 B29        -0.0741
      3 CAI         6.3360  -10.7360   -2.4580 C.ar      1 B29        -0.0793
      4 CAH         5.1500  -10.4710   -1.7400 C.ar      1 B29        -0.0759
      5 CAO         3.8990  -10.9080   -2.2380 C.ar      1 B29        -0.0337
      6 CAX         3.8290  -11.6110   -3.4570 C.ar      1 B29         0.1233
      7 OAT         2.7780  -12.1420   -4.1610 O.3       1 B29        -0.2445
      8 CBA         3.2550  -12.7360   -5.2880 C.2       1 B29         0.1307
      9 CAZ         4.6680  -12.5680   -5.2920 C.2       1 B29        -0.0146
     10 CAQ         5.4460  -13.0810   -6.3370 C.2       1 B29        -0.0966
     11 CAK         4.8480  -13.7690   -7.3860 C.2       1 B29        -0.0959
     12 CAN         3.4460  -13.9540   -7.4050 C.3       1 B29        -0.0077
     13 CAW         2.6660  -13.4680   -6.4220 C.3       1 B29         0.0690
     14 CAV         1.6480  -12.7920   -7.2280 C.ar      1 B29        -0.0278
     15 CAR         0.3310  -12.6510   -6.7090 C.ar      1 B29        -0.0559
     16 CAM         1.9100  -12.2530   -8.5480 C.ar      1 B29        -0.0642
     17 CAJ         0.8970  -11.6180   -9.2910 C.ar      1 B29        -0.0747
     18 CAL        -0.3880  -11.4920   -8.7590 C.ar      1 B29        -0.0668
     19 CAU        -0.6730  -12.0010   -7.4830 C.ar      1 B29        -0.0437
     20 CAS        -2.0710  -11.8480   -6.9380 C.3       1 B29         0.0400
     21 CBB        -3.3430  -12.2940   -6.3570 C.3       1 B29         0.2139
     22 PBC        -4.1170  -10.8320   -5.4670 P.3       1 B29         0.1121
     23 OAD        -5.5960  -10.6390   -6.0810 O.co2     1 B29        -0.5593
     24 OAE        -4.2700  -11.2630   -3.9330 O.co2     1 B29        -0.5593
     25 OAA        -3.3080   -9.5950   -5.5930 O.co2     1 B29        -0.5593
     26 PBD        -4.4590  -12.9370   -7.7130 P.3       1 B29         0.1121
     27 OAF        -4.4320  -11.8250   -8.8720 O.co2     1 B29        -0.5593
     28 OAG        -3.7790  -14.2650   -8.2990 O.co2     1 B29        -0.5593
     29 OAB        -5.8360  -13.1950   -7.2400 O.co2     1 B29        -0.5593
     30 OAC        -3.0980  -13.3370   -5.4240 O.3       1 B29        -0.3579
     31 H1          7.1781  -11.6460   -4.2318 H         1 B29         0.0528
     32 H2          7.2919  -10.3990   -2.0736 H         1 B29         0.0519
     33 H3          5.1974   -9.9298   -0.8020 H         1 B29         0.0523
     34 H4          2.9928  -10.7013   -1.6802 H         1 B29         0.0555
     35 H5          6.5258  -12.9401   -6.3277 H         1 B29         0.0370
     36 H6          5.4598  -14.1663   -8.1946 H         1 B29         0.0478
     37 H7          3.2750  -15.0403   -7.4305 H         1 B29         0.0457
     38 H8          3.0846  -13.5038   -8.3413 H         1 B29         0.0457
     39 H9          2.1832  -14.3325   -5.9429 H         1 B29         0.0712
     40 H10         0.0915  -13.0379   -5.7251 H         1 B29         0.0499
     41 H11         2.9044  -12.3406   -8.9707 H         1 B29         0.0505
     42 H12         1.1148  -11.2261  -10.2779 H         1 B29         0.0583
     43 H13        -1.1658  -11.0006   -9.3323 H         1 B29         0.0502
     44 H14        -2.4988  -11.3420   -7.8160 H         1 B29         0.0483
     45 H15        -1.8295  -11.1021   -6.1664 H         1 B29         0.0483
     46 H16        -2.7065  -14.0768   -5.8733 H         1 B29         0.2134
@<TRIPOS>BOND
     1    1    2 ar 
     2    1    6 ar 
     3    1    9 1  
     4    2    3 ar 
     5    3    4 ar 
     6    4    5 ar 
     7    5    6 ar 
     8    6    7 1  
     9    7    8 1  
    10    8    9 2  
    11    8   13 1  
    12    9   10 1  
    13   10   11 2  
    14   11   12 1  
    15   12   13 1  
    16   13   14 1  
    17   14   15 ar 
    18   14   16 ar 
    19   15   19 ar 
    20   16   17 ar 
    21   17   18 ar 
    22   18   19 ar 
    23   19   20 1  
    24   20   21 1  
    25   21   22 1  
    26   21   26 1  
    27   21   30 1  
    28   22   23 ar 
    29   22   24 ar 
    30   22   25 ar 
    31   26   27 ar 
    32   26   28 ar 
    33   26   29 ar 
    34    2   31 1  
    35    3   32 1  
    36    4   33 1  
    37    5   34 1  
    38   10   35 1  
    39   11   36 1  
    40   12   37 1  
    41   12   38 1  
    42   13   39 1  
    43   15   40 1  
    44   16   41 1  
    45   17   42 1  
    46   18   43 1  
    47   20   44 1  
    48   20   45 1  
    49   30   46 1  
@<TRIPOS>SUBSTRUCTURE
     1 B29         1

