1cps_ligand
  -I-interpret- 

 32 32  0  0  0  0  0  0  0  0999 V2000
   -2.7680   30.8040   -6.5530 C   0  0  0  0  0
   -2.5920   29.8980   -7.9100 C   0  0  0  0  0
   -0.9190   29.7770   -8.0510 C   0  0  0  0  0
   -0.1400   30.8640   -7.6760 O   0  0  0  0  0
   -2.9750   31.1660   -8.9400 C   0  0  0  0  0
   -2.5800   30.4420  -10.3910 C   0  0  0  0  0
   -3.8270   29.8380  -11.1400 C   0  0  0  0  0
   -1.1290   30.4420  -10.8120 C   0  0  0  0  0
   -3.2370   29.1730  -12.4970 C   0  0  0  0  0
   -0.7400   29.7170  -12.2170 C   0  0  0  0  0
   -2.1080   29.1730  -12.8250 C   0  0  0  0  0
   -0.6000   28.5690   -8.5190 O   0  0  0  0  0
   -2.8410   29.7170   -5.1960 S   0  0  0  0  0
   -3.8140   28.5090   -5.6640 N   0  0  0  0  0
   -1.4020   29.2940   -4.7270 N   0  0  0  0  0
   -3.6310   30.5620   -3.8850 C   0  0  0  0  0
   -3.6788   31.4001   -6.6106 H   0  0  0  0  0
   -1.9284   31.4905   -6.4440 H   0  0  0  0  0
   -3.1023   28.9401   -8.0102 H   0  0  0  0  0
   -0.7099   31.5787   -7.3826 H   0  0  0  0  0
   -2.4557   32.1019   -8.7339 H   0  0  0  0  0
   -4.0011   31.5266   -8.8676 H   0  0  0  0  0
   -4.8672   29.8618  -10.8151 H   0  0  0  0  0
   -0.3652   30.9134  -10.1935 H   0  0  0  0  0
   -3.9488   28.6840  -13.1621 H   0  0  0  0  0
    0.2546   29.6230  -12.6530 H   0  0  0  0  0
   -1.9607   28.6771  -13.7844 H   0  0  0  0  0
   -3.4784   27.5461   -5.6419 H   0  0  0  0  0
   -1.1330   28.3101   -4.7307 H   0  0  0  0  0
   -4.5856   30.9573   -4.2322 H   0  0  0  0  0
   -3.8011   29.8711   -3.0593 H   0  0  0  0  0
   -2.9971   31.3826   -3.5490 H   0  0  0  0  0
  1  2  1  0  0  0
  1 13  1  0  0  0
  2  3  1  0  0  0
  2  5  1  0  0  0
  3  4  1  0  0  0
  3 12  2  0  0  0
  5  6  1  0  0  0
  6  7  4  0  0  0
  6  8  4  0  0  0
  7  9  4  0  0  0
  8 10  4  0  0  0
  9 11  4  0  0  0
 10 11  4  0  0  0
 13 14  2  0  0  0
 13 15  2  0  0  0
 13 16  1  0  0  0
  1 17  1  0  0  0
  1 18  1  0  0  0
  2 19  1  0  0  0
  4 20  1  0  0  0
  5 21  1  0  0  0
  5 22  1  0  0  0
  7 23  1  0  0  0
  8 24  1  0  0  0
  9 25  1  0  0  0
 10 26  1  0  0  0
 11 27  1  0  0  0
 14 28  1  0  0  0
 15 29  1  0  0  0
 16 30  1  0  0  0
 16 31  1  0  0  0
 16 32  1  0  0  0
M  END
$$$$
