### 
### Created by X-TOOL on Sun Sep  9 21:50:32 2018
### 

@<TRIPOS>MOLECULE
2fr8_ligand
   39    41     1     0     0
SMALL
GAST_HUCK


@<TRIPOS>ATOM
      1 O3        -22.0990   59.3970   23.2750 O.3       1 NON        -0.1548
      2 PA        -21.8020   59.7310   21.7260 P.3       1 NON         0.3276
      3 O1A       -20.4250   59.3240   21.3500 O.co2     1 NON        -0.5556
      4 O2A       -22.8170   59.0800   20.8560 O.co2     1 NON        -0.5556
      5 O5B       -21.9520   61.3340   21.6290 O.3       1 NON        -0.2436
      6 C5B       -20.8540   62.1900   21.8410 C.3       1 NON         0.1132
      7 C4B       -21.2800   63.5070   22.4860 C.3       1 NON         0.1189
      8 O4B       -21.7230   64.4630   21.5350 O.3       1 NON        -0.3364
      9 C3B       -22.3850   63.4120   23.5440 C.3       1 NON         0.1149
     10 O3B       -21.9020   63.8310   24.8080 O.3       1 NON        -0.3864
     11 C2B       -23.4560   64.3650   23.0530 C.3       1 NON         0.1385
     12 O2B       -24.1070   65.0320   24.1110 O.3       1 NON        -0.3836
     13 C1B       -22.6480   65.3180   22.1850 C.3       1 NON         0.2010
     14 N9A       -23.4500   66.1330   21.2390 N.pl3     1 NON        -0.1919
     15 C8A       -24.3880   65.7070   20.3340 C.2       1 NON         0.1123
     16 N7A       -24.8690   66.7940   19.6710 N.2       1 NON        -0.2958
     17 C5A       -24.2560   67.9140   20.1290 C.ar      1 NON         0.1045
     18 C6A       -24.3490   69.2840   19.8170 C.ar      1 NON         0.1298
     19 N6A       -25.1690   69.7560   18.8820 N.pl3     1 NON        -0.3152
     20 N1A       -23.5570   70.1950   20.4920 N.ar      1 NON        -0.2698
     21 C2A       -22.6820   69.7600   21.4580 C.ar      1 NON         0.0533
     22 N3A       -22.5990   68.4150   21.7590 N.ar      1 NON        -0.2714
     23 C4A       -23.3640   67.5020   21.1130 C.ar      1 NON         0.1613
     24 PN        -21.0580   58.5720   24.1850 P.3       1 NON         0.2069
     25 O1N       -19.8280   59.3880   24.2850 O.co2     1 NON        -0.5891
     26 O2N       -20.9970   57.1710   23.7020 O.co2     1 NON        -0.5891
     27 O5D       -21.7800   58.5760   25.6260 O.co2     1 NON        -0.5891
     28 H1        -20.3776   62.4050   20.8731 H         1 NON         0.0648
     29 H2        -20.1322   61.6870   22.5013 H         1 NON         0.0648
     30 H3        -20.3841   63.9087   22.9819 H         1 NON         0.0651
     31 H4        -22.7732   62.3853   23.6157 H         1 NON         0.0648
     32 H5        -21.6071   64.7322   24.7502 H         1 NON         0.2100
     33 H6        -24.2088   63.8320   22.4537 H         1 NON         0.0676
     34 H7        -23.4708   65.5344   24.6063 H         1 NON         0.2101
     35 H8        -22.1030   66.0188   22.8344 H         1 NON         0.0996
     36 H9        -24.6957   64.6748   20.1732 H         1 NON         0.1349
     37 H10       -25.2022   70.7672   18.6889 H         1 NON         0.1820
     38 H11       -25.7707   69.1103   18.3511 H         1 NON         0.1820
     39 H12       -22.0569   70.4727   21.9837 H         1 NON         0.0996
@<TRIPOS>BOND
     1    1    2 1  
     2    1   24 1  
     3    2    3 ar 
     4    2    4 ar 
     5    2    5 1  
     6    5    6 1  
     7    6    7 1  
     8    7    8 1  
     9    7    9 1  
    10    8   13 1  
    11    9   10 1  
    12    9   11 1  
    13   11   12 1  
    14   11   13 1  
    15   13   14 1  
    16   14   15 1  
    17   14   23 1  
    18   15   16 2  
    19   16   17 1  
    20   17   18 ar 
    21   17   23 ar 
    22   18   19 1  
    23   18   20 ar 
    24   20   21 ar 
    25   21   22 ar 
    26   22   23 ar 
    27   24   25 ar 
    28   24   26 ar 
    29   24   27 ar 
    30    6   28 1  
    31    6   29 1  
    32    7   30 1  
    33    9   31 1  
    34   10   32 1  
    35   11   33 1  
    36   12   34 1  
    37   13   35 1  
    38   15   36 1  
    39   19   37 1  
    40   19   38 1  
    41   21   39 1  
@<TRIPOS>SUBSTRUCTURE
     1 NON         1

