2fr8_ligand
  -I-interpret- 

 42 44  0  0  0  0  0  0  0  0999 V2000
  -22.0990   59.3970   23.2750 O   0  0  0  0  0
  -21.8020   59.7310   21.7260 P   0  0  0  0  0
  -20.4250   59.3240   21.3500 O   0  0  0  0  0
  -22.8170   59.0800   20.8560 O   0  0  0  0  0
  -21.9520   61.3340   21.6290 O   0  0  0  0  0
  -20.8540   62.1900   21.8410 C   0  0  0  0  0
  -21.2800   63.5070   22.4860 C   0  0  0  0  0
  -21.7230   64.4630   21.5350 O   0  0  0  0  0
  -22.3850   63.4120   23.5440 C   0  0  0  0  0
  -21.9020   63.8310   24.8080 O   0  0  0  0  0
  -23.4560   64.3650   23.0530 C   0  0  0  0  0
  -24.1070   65.0320   24.1110 O   0  0  0  0  0
  -22.6480   65.3180   22.1850 C   0  0  0  0  0
  -23.4500   66.1330   21.2390 N   0  0  0  0  0
  -24.3880   65.7070   20.3340 C   0  0  0  0  0
  -24.8690   66.7940   19.6710 N   0  0  0  0  0
  -24.2560   67.9140   20.1290 C   0  0  0  0  0
  -24.3490   69.2840   19.8170 C   0  0  0  0  0
  -25.1690   69.7560   18.8820 N   0  0  0  0  0
  -23.5570   70.1950   20.4920 N   0  0  0  0  0
  -22.6820   69.7600   21.4580 C   0  0  0  0  0
  -22.5990   68.4150   21.7590 N   0  0  0  0  0
  -23.3640   67.5020   21.1130 C   0  0  0  0  0
  -21.0580   58.5720   24.1850 P   0  0  0  0  0
  -19.8280   59.3880   24.2850 O   0  0  0  0  0
  -20.9970   57.1710   23.7020 O   0  0  0  0  0
  -21.7800   58.5760   25.6260 O   0  0  0  0  0
  -23.6946   59.3625   21.1235 H   0  0  0  0  0
  -20.4003   62.4119   20.8751 H   0  0  0  0  0
  -20.1538   61.6906   22.5106 H   0  0  0  0  0
  -20.3572   63.8140   22.9782 H   0  0  0  0  0
  -22.7517   62.3933   23.6699 H   0  0  0  0  0
  -22.6067   63.7647   25.4566 H   0  0  0  0  0
  -24.2709   63.8709   22.5240 H   0  0  0  0  0
  -24.7742   65.6223   23.7533 H   0  0  0  0  0
  -22.1705   66.0935   22.7839 H   0  0  0  0  0
  -24.6959   64.6739   20.1730 H   0  0  0  0  0
  -25.7649   69.1166   18.3562 H   0  0  0  0  0
  -25.2019   70.7574   18.6908 H   0  0  0  0  0
  -22.0535   70.4766   21.9866 H   0  0  0  0  0
  -21.8804   56.7952   23.7013 H   0  0  0  0  0
  -22.5823   58.0506   25.5821 H   0  0  0  0  0
  1  2  1  0  0  0
  1 24  1  0  0  0
  2  3  2  0  0  0
  2  4  1  0  0  0
  2  5  1  0  0  0
  5  6  1  0  0  0
  6  7  1  0  0  0
  7  8  1  0  0  0
  7  9  1  0  0  0
  8 13  1  0  0  0
  9 10  1  0  0  0
  9 11  1  0  0  0
 11 12  1  0  0  0
 11 13  1  0  0  0
 13 14  1  0  0  0
 14 15  4  0  0  0
 14 23  4  0  0  0
 15 16  4  0  0  0
 16 17  4  0  0  0
 17 18  4  0  0  0
 17 23  4  0  0  0
 18 19  1  0  0  0
 18 20  4  0  0  0
 20 21  4  0  0  0
 21 22  4  0  0  0
 22 23  4  0  0  0
 24 25  2  0  0  0
 24 26  1  0  0  0
 24 27  1  0  0  0
  4 28  1  0  0  0
  6 29  1  0  0  0
  6 30  1  0  0  0
  7 31  1  0  0  0
  9 32  1  0  0  0
 10 33  1  0  0  0
 11 34  1  0  0  0
 12 35  1  0  0  0
 13 36  1  0  0  0
 15 37  1  0  0  0
 19 38  1  0  0  0
 19 39  1  0  0  0
 21 40  1  0  0  0
 26 41  1  0  0  0
 27 42  1  0  0  0
M  END
$$$$
