3uvx_ligand
  -I-interpret- 

103102  0  0  0  0  0  0  0  0999 V2000
   25.6440   48.9420   22.8070 N   0  3  0  0  0
   26.7110   47.9160   22.9840 C   0  0  0  0  0
   26.2210   46.6250   23.6380 C   0  0  0  0  0
   25.0110   46.3860   23.8200 O   0  0  0  0  0
   30.6360   42.7750   19.3980 O   0  0  0  0  0
   30.4670   41.5720   19.4280 C   0  0  0  0  0
   31.5130   40.5810   19.0110 C   0  0  0  0  0
   29.3190   41.0730   19.8590 N   0  0  0  0  0
   28.1700   41.8700   20.2750 C   0  0  0  0  0
   28.1340   41.7820   21.7720 C   0  0  0  0  0
   27.1150   42.7570   22.3300 C   0  0  0  0  0
   27.5520   43.0760   23.7530 C   0  0  0  0  0
   26.7080   44.1380   24.4390 C   0  0  0  0  0
   26.8250   45.4340   23.7770 N   0  0  0  0  0
   27.2800   44.1710   25.8430 C   0  0  0  0  0
   28.4770   44.4670   26.0000 O   0  0  0  0  0
   26.6990   45.0390   26.7140 N   0  3  0  0  0
   27.1770   45.3650   28.1030 C   0  0  0  0  0
   27.1530   44.2120   29.0980 C   0  0  0  0  0
   27.7650   44.3080   30.1640 O   0  0  0  0  0
   26.4290   43.1360   28.7640 N   0  0  0  0  0
   26.2460   41.9850   29.6480 C   0  0  0  0  0
   27.5590   41.3960   30.1310 C   0  0  0  0  0
   28.5890   41.5080   29.4580 O   0  0  0  0  0
   27.5260   40.7820   31.3110 N   0  0  0  0  0
   28.7130   40.1480   31.8640 C   0  0  0  0  0
   29.0130   38.8590   31.0750 C   0  0  0  0  0
   28.0870   38.1310   30.6710 O   0  0  0  0  0
   28.5260   39.8570   33.3500 C   0  0  0  0  0
   28.5820   38.3170   22.8670 O   0  0  0  0  0
   27.7960   38.0090   23.7530 C   0  0  0  0  0
   26.7760   36.9310   23.5370 C   0  0  0  0  0
   27.8000   38.5980   24.9610 N   0  0  0  0  0
   28.6810   39.6700   25.4410 C   0  0  0  0  0
   29.9130   39.0260   26.0840 C   0  0  0  0  0
   29.6080   38.5870   27.5190 C   0  0  0  0  0
   30.7780   37.8740   28.1850 C   0  0  0  0  0
   30.4470   37.3910   29.6030 C   0  0  0  0  0
   30.1740   38.5120   30.4930 N   0  0  0  0  0
   31.5510   36.5590   30.2510 C   0  0  0  0  0
   32.0370   35.6300   29.5890 O   0  0  0  0  0
   32.6700   37.0230   30.9020 N   0  0  0  0  0
   34.0160   36.4650   31.3110 C   0  0  0  0  0
   33.9200   35.2160   32.2050 C   0  0  0  0  0
   32.9480   34.9850   32.9200 O   0  0  0  0  0
   34.8940   37.5420   31.9820 C   0  0  0  0  0
   35.7600   38.3400   31.0110 C   0  0  0  0  0
   34.7482   34.5074   32.2038 O   0  0  0  0  0
   26.0416   49.7719   22.3671 H   0  0  0  0  0
   24.9046   48.5633   22.2152 H   0  0  0  0  0
   25.2583   49.1903   23.7180 H   0  0  0  0  0
   27.4696   48.3449   23.6387 H   0  0  0  0  0
   27.0821   47.6579   21.9921 H   0  0  0  0  0
   31.7764   40.7503   17.9670 H   0  0  0  0  0
   32.3981   40.7046   19.6350 H   0  0  0  0  0
   31.1219   39.5705   19.1291 H   0  0  0  0  0
   29.2315   40.0577   19.9034 H   0  0  0  0  0
   27.2465   41.4962   19.8329 H   0  0  0  0  0
   28.2613   42.9032   19.9401 H   0  0  0  0  0
   29.1189   42.0301   22.1676 H   0  0  0  0  0
   27.8553   40.7693   22.0631 H   0  0  0  0  0
   26.1147   42.3241   22.3178 H   0  0  0  0  0
   27.0701   43.6622   21.7244 H   0  0  0  0  0
   28.5709   43.4595   23.6988 H   0  0  0  0  0
   27.4512   42.1594   24.3341 H   0  0  0  0  0
   25.6411   43.9159   24.4167 H   0  0  0  0  0
   27.6762   45.4350   23.2150 H   0  0  0  0  0
   27.0844   43.1168   26.0393 H   0  0  0  0  0
   28.6907   44.4458   26.9357 H   0  0  0  0  0
   25.8094   44.5775   26.9040 H   0  0  0  0  0
   26.8288   45.9305   26.2357 H   0  0  0  0  0
   26.4978   46.1231   28.4929 H   0  0  0  0  0
   28.2196   45.6681   28.0072 H   0  0  0  0  0
   25.9827   43.1182   27.8470 H   0  0  0  0  0
   25.7221   41.2128   29.0847 H   0  0  0  0  0
   25.6907   42.3225   30.5231 H   0  0  0  0  0
   26.6527   40.7553   31.8374 H   0  0  0  0  0
   29.5629   40.8240   31.7705 H   0  0  0  0  0
   28.3445   40.7910   33.8818 H   0  0  0  0  0
   27.6746   39.1897   33.4839 H   0  0  0  0  0
   29.4258   39.3831   33.7422 H   0  0  0  0  0
   26.1277   37.2073   22.7054 H   0  0  0  0  0
   27.2829   35.9935   23.3083 H   0  0  0  0  0
   26.1787   36.8114   24.4409 H   0  0  0  0  0
   27.1054   38.2585   25.6263 H   0  0  0  0  0
   28.1568   40.2868   26.1710 H   0  0  0  0  0
   28.9825   40.3074   24.6097 H   0  0  0  0  0
   30.7223   39.7559   26.1034 H   0  0  0  0  0
   30.1976   38.1503   25.5007 H   0  0  0  0  0
   28.7715   37.8891   27.4820 H   0  0  0  0  0
   29.3902   39.4826   28.1009 H   0  0  0  0  0
   31.6042   38.5814   28.2566 H   0  0  0  0  0
   31.0241   36.9997   27.5824 H   0  0  0  0  0
   29.5677   36.7601   29.4732 H   0  0  0  0  0
   30.9704   39.1139   30.7024 H   0  0  0  0  0
   32.5654   37.9981   31.1825 H   0  0  0  0  0
   34.4923   36.1476   30.3834 H   0  0  0  0  0
   32.3032   35.6889   32.8187 H   0  0  0  0  0
   35.5692   37.0261   32.6647 H   0  0  0  0  0
   34.2206   38.2488   32.4668 H   0  0  0  0  0
   36.4319   37.6624   30.4842 H   0  0  0  0  0
   35.1203   38.8515   30.2917 H   0  0  0  0  0
   36.3441   39.0741   31.5661 H   0  0  0  0  0
  2  1  1  0  0  0
  3  2  1  0  0  0
  3  4  2  0  0  0
 14  3  1  0  0  0
  6  5  2  0  0  0
  6  7  1  0  0  0
  8  6  1  0  0  0
  9  8  1  0  0  0
 10  9  1  0  0  0
 11 10  1  0  0  0
 12 11  1  0  0  0
 13 12  1  0  0  0
 13 14  1  0  0  0
 15 13  1  0  0  0
 15 16  1  0  0  0
 17 15  1  0  0  0
 18 17  1  0  0  0
 19 18  1  0  0  0
 19 20  2  0  0  0
 21 19  1  0  0  0
 22 21  1  0  0  0
 23 22  1  0  0  0
 23 24  2  0  0  0
 25 23  1  0  0  0
 26 25  1  0  0  0
 27 26  1  0  0  0
 26 29  1  0  0  0
 27 28  2  0  0  0
 39 27  1  0  0  0
 31 30  2  0  0  0
 31 32  1  0  0  0
 33 31  1  0  0  0
 34 33  1  0  0  0
 35 34  1  0  0  0
 36 35  1  0  0  0
 37 36  1  0  0  0
 38 37  1  0  0  0
 38 39  1  0  0  0
 38 40  1  0  0  0
 40 41  2  0  0  0
 40 42  1  0  0  0
 42 43  1  0  0  0
 43 44  1  0  0  0
 43 46  1  0  0  0
 44 45  1  0  0  0
 46 47  1  0  0  0
 44 48  2  0  0  0
  1 49  1  0  0  0
  1 50  1  0  0  0
  1 51  1  0  0  0
  2 52  1  0  0  0
  2 53  1  0  0  0
  7 54  1  0  0  0
  7 55  1  0  0  0
  7 56  1  0  0  0
  8 57  1  0  0  0
  9 58  1  0  0  0
  9 59  1  0  0  0
 10 60  1  0  0  0
 10 61  1  0  0  0
 11 62  1  0  0  0
 11 63  1  0  0  0
 12 64  1  0  0  0
 12 65  1  0  0  0
 13 66  1  0  0  0
 14 67  1  0  0  0
 15 68  1  0  0  0
 16 69  1  0  0  0
 17 70  1  0  0  0
 17 71  1  0  0  0
 18 72  1  0  0  0
 18 73  1  0  0  0
 21 74  1  0  0  0
 22 75  1  0  0  0
 22 76  1  0  0  0
 25 77  1  0  0  0
 26 78  1  0  0  0
 29 79  1  0  0  0
 29 80  1  0  0  0
 29 81  1  0  0  0
 32 82  1  0  0  0
 32 83  1  0  0  0
 32 84  1  0  0  0
 33 85  1  0  0  0
 34 86  1  0  0  0
 34 87  1  0  0  0
 35 88  1  0  0  0
 35 89  1  0  0  0
 36 90  1  0  0  0
 36 91  1  0  0  0
 37 92  1  0  0  0
 37 93  1  0  0  0
 38 94  1  0  0  0
 39 95  1  0  0  0
 42 96  1  0  0  0
 43 97  1  0  0  0
 45 98  1  0  0  0
 46 99  1  0  0  0
 46100  1  0  0  0
 47101  1  0  0  0
 47102  1  0  0  0
 47103  1  0  0  0
M  END
$$$$
