### 
### Created by X-TOOL on Mon Sep 10 21:13:09 2018
### 

@<TRIPOS>MOLECULE
3uvx_ligand
  102   101     1     0     0
SMALL
GAST_HUCK


@<TRIPOS>ATOM
      1 N          25.6440   48.9420   22.8070 N.4       1 GLY         0.2357
      2 CA         26.7110   47.9160   22.9840 C.3       1 GLY         0.0543
      3 C          26.2210   46.6250   23.6380 C.2       1 GLY         0.2219
      4 O          25.0110   46.3860   23.8200 O.2       1 GLY        -0.3912
      5 OH         30.6360   42.7750   19.3980 O.2       1 ALY        -0.3974
      6 CH         30.4670   41.5720   19.4280 C.2       1 ALY         0.1729
      7 CH3        31.5130   40.5810   19.0110 C.3       1 ALY         0.0256
      8 NZ         29.3190   41.0730   19.8590 N.am      1 ALY        -0.2872
      9 CE         28.1700   41.8700   20.2750 C.3       1 ALY         0.0309
     10 CD         28.1340   41.7820   21.7720 C.3       1 ALY        -0.0327
     11 CG         27.1150   42.7570   22.3300 C.3       1 ALY        -0.0489
     12 CB         27.5520   43.0760   23.7530 C.3       1 ALY        -0.0220
     13 CA         26.7080   44.1380   24.4390 C.3       1 ALY         0.1106
     14 N          26.8250   45.4340   23.7770 N.am      1 ALY        -0.2715
     15 C          27.2800   44.1710   25.8430 C.3       1 ALY         0.1053
     16 O          28.4770   44.4670   26.0000 O.3       1 ALY        -0.3507
     17 N          26.6990   45.0390   26.7140 N.4       1 GLY         0.2674
     18 CA         27.1770   45.3650   28.1030 C.3       1 GLY         0.0588
     19 C          27.1530   44.2120   29.0980 C.2       1 GLY         0.2236
     20 O          27.7650   44.3080   30.1640 O.2       1 GLY        -0.3911
     21 N          26.4290   43.1360   28.7640 N.am      1 GLY        -0.2639
     22 CA         26.2460   41.9850   29.6480 C.3       1 GLY         0.1202
     23 C          27.5590   41.3960   30.1310 C.2       1 GLY         0.2007
     24 O          28.5890   41.5080   29.4580 O.2       1 GLY        -0.3947
     25 N          27.5260   40.7820   31.3110 N.am      1 ALA        -0.2642
     26 CA         28.7130   40.1480   31.8640 C.3       1 ALA         0.1282
     27 C          29.0130   38.8590   31.0750 C.2       1 ALA         0.2036
     28 O          28.0870   38.1310   30.6710 O.2       1 ALA        -0.3944
     29 CB         28.5260   39.8570   33.3500 C.3       1 ALA        -0.0244
     30 OH         28.5820   38.3170   22.8670 O.2       1 ALY        -0.3974
     31 CH         27.7960   38.0090   23.7530 C.2       1 ALY         0.1729
     32 CH3        26.7760   36.9310   23.5370 C.3       1 ALY         0.0256
     33 NZ         27.8000   38.5980   24.9610 N.am      1 ALY        -0.2872
     34 CE         28.6810   39.6700   25.4410 C.3       1 ALY         0.0309
     35 CD         29.9130   39.0260   26.0840 C.3       1 ALY        -0.0325
     36 CG         29.6080   38.5870   27.5190 C.3       1 ALY        -0.0470
     37 CB         30.7780   37.8740   28.1850 C.3       1 ALY        -0.0123
     38 CA         30.4470   37.3910   29.6030 C.3       1 ALY         0.1309
     39 N          30.1740   38.5120   30.4930 N.am      1 ALY        -0.2637
     40 C          31.5510   36.5590   30.2510 C.2       1 ALY         0.2033
     41 O          32.0370   35.6300   29.5890 O.2       1 ALY        -0.3944
     42 N          32.6700   37.0230   30.9020 N.am      1 ARG        -0.2695
     43 CA         34.0160   36.4650   31.3110 C.3       1 ARG         0.0941
     44 C          33.9200   35.2160   32.2050 C.2       1 ARG         0.0601
     45 O          32.9480   34.9850   32.9200 O.co2     1 ARG        -0.5666
     46 CB         34.8940   37.5420   31.9820 C.3       1 ARG        -0.0208
     47 CG         35.7600   38.3400   31.0110 C.3       1 ARG        -0.0616
     48 H          34.7482   34.5074   32.2038 O.co2     1 ARG        -0.5666
     49 H1         26.0359   49.7627   22.3723 H         1 GLY         0.2012
     50 H2         25.2621   49.1883   23.7067 H         1 GLY         0.2012
     51 H3         24.9127   48.5688   22.2222 H         1 GLY         0.2012
     52 H4         27.5039   48.3450   23.6143 H         1 GLY         0.1061
     53 H5         27.1226   47.6690   21.9943 H         1 GLY         0.1061
     54 H6         31.1194   39.5607   19.1297 H         1 ALY         0.0467
     55 H7         32.4068   40.7047   19.6401 H         1 ALY         0.0467
     56 H8         31.7797   40.7508   17.9574 H         1 ALY         0.0467
     57 H9         29.2332   40.0776   19.9026 H         1 ALY         0.1850
     58 H10        27.2439   41.4612   19.8447 H         1 ALY         0.0520
     59 H11        28.2926   42.9154   19.9554 H         1 ALY         0.0520
     60 H12        29.1283   42.0259   22.1743 H         1 ALY         0.0285
     61 H13        27.8589   40.7593   22.0693 H         1 ALY         0.0285
     62 H14        26.1146   42.2997   22.3338 H         1 ALY         0.0267
     63 H15        27.0964   43.6748   21.7240 H         1 ALY         0.0267
     64 H16        28.5935   43.4286   23.7235 H         1 ALY         0.0290
     65 H17        27.4943   42.1521   24.3472 H         1 ALY         0.0290
     66 H18        25.6491   43.8406   24.4576 H         1 ALY         0.0639
     67 H19        27.6595   45.4350   23.2260 H         1 ALY         0.1859
     68 H20        27.1352   43.1503   26.2265 H         1 ALY         0.1208
     69 H21        28.7213   44.3232   26.9067 H         1 ALY         0.2155
     70 H22        25.7574   44.6997   26.8336 H         1 GLY         0.2061
     71 H23        26.6788   45.9227   26.2295 H         1 GLY         0.2061
     72 H24        26.5383   46.1675   28.5005 H         1 GLY         0.1063
     73 H25        28.2138   45.7248   28.0278 H         1 GLY         0.1063
     74 H26        25.9914   43.1185   27.8650 H         1 GLY         0.1882
     75 H27        25.6925   41.2072   29.1014 H         1 GLY         0.0763
     76 H28        25.6616   42.3043   30.5235 H         1 GLY         0.0763
     77 H29        26.6698   40.7558   31.8271 H         1 ALA         0.1883
     78 H30        29.5649   40.8346   31.7511 H         1 ALA         0.0797
     79 H31        29.4335   39.3787   33.7470 H         1 ALA         0.0277
     80 H32        27.6670   39.1836   33.4865 H         1 ALA         0.0277
     81 H33        28.3427   40.7988   33.8879 H         1 ALA         0.0277
     82 H34        26.1725   36.8093   24.4486 H         1 ALY         0.0467
     83 H35        27.2863   35.9843   23.3061 H         1 ALY         0.0467
     84 H36        26.1210   37.2087   22.6980 H         1 ALY         0.0467
     85 H37        27.1190   38.2651   25.6133 H         1 ALY         0.1850
     86 H38        28.1505   40.2829   26.1846 H         1 ALY         0.0520
     87 H39        28.9902   40.3038   24.5968 H         1 ALY         0.0520
     88 H40        30.7363   39.7553   26.0969 H         1 ALY         0.0285
     89 H41        30.2108   38.1472   25.4933 H         1 ALY         0.0285
     90 H42        28.7459   37.9041   27.5009 H         1 ALY         0.0268
     91 H43        29.3572   39.4785   28.1125 H         1 ALY         0.0268
     92 H44        31.6288   38.5691   28.2396 H         1 ALY         0.0312
     93 H45        31.0545   37.0033   27.5723 H         1 ALY         0.0312
     94 H46        29.5437   36.7670   29.5344 H         1 ALY         0.0800
     95 H47        30.9548   39.1021   30.6983 H         1 ALY         0.1883
     96 H48        32.5675   37.9790   31.1770 H         1 ARG         0.1875
     97 H49        34.5250   36.1574   30.3856 H         1 ARG         0.0726
     98 H50        35.5565   37.0448   32.7058 H         1 ARG         0.0303
     99 H51        34.2335   38.2443   32.5117 H         1 ARG         0.0303
    100 H52        36.3500   39.0812   31.5700 H         1 ARG         0.0232
    101 H53        35.1156   38.8567   30.2846 H         1 ARG         0.0232
    102 H54        36.4386   37.6573   30.4787 H         1 ARG         0.0232
@<TRIPOS>BOND
     1    2    1 1  
     2    3    2 1  
     3    3    4 2  
     4   14    3 am 
     5    6    5 2  
     6    6    7 1  
     7    8    6 am 
     8    9    8 1  
     9   10    9 1  
    10   11   10 1  
    11   12   11 1  
    12   13   12 1  
    13   13   14 1  
    14   15   13 1  
    15   15   16 1  
    16   17   15 1  
    17   18   17 1  
    18   19   18 1  
    19   19   20 2  
    20   21   19 am 
    21   22   21 1  
    22   23   22 1  
    23   23   24 2  
    24   25   23 am 
    25   26   25 1  
    26   27   26 1  
    27   26   29 1  
    28   27   28 2  
    29   39   27 am 
    30   31   30 2  
    31   31   32 1  
    32   33   31 am 
    33   34   33 1  
    34   35   34 1  
    35   36   35 1  
    36   37   36 1  
    37   38   37 1  
    38   38   39 1  
    39   38   40 1  
    40   40   41 2  
    41   40   42 am 
    42   42   43 1  
    43   43   44 1  
    44   43   46 1  
    45   44   45 ar 
    46   46   47 1  
    47   44   48 ar 
    48    1   49 1  
    49    1   50 1  
    50    1   51 1  
    51    2   52 1  
    52    2   53 1  
    53    7   54 1  
    54    7   55 1  
    55    7   56 1  
    56    8   57 1  
    57    9   58 1  
    58    9   59 1  
    59   10   60 1  
    60   10   61 1  
    61   11   62 1  
    62   11   63 1  
    63   12   64 1  
    64   12   65 1  
    65   13   66 1  
    66   14   67 1  
    67   15   68 1  
    68   16   69 1  
    69   17   70 1  
    70   17   71 1  
    71   18   72 1  
    72   18   73 1  
    73   21   74 1  
    74   22   75 1  
    75   22   76 1  
    76   25   77 1  
    77   26   78 1  
    78   29   79 1  
    79   29   80 1  
    80   29   81 1  
    81   32   82 1  
    82   32   83 1  
    83   32   84 1  
    84   33   85 1  
    85   34   86 1  
    86   34   87 1  
    87   35   88 1  
    88   35   89 1  
    89   36   90 1  
    90   36   91 1  
    91   37   92 1  
    92   37   93 1  
    93   38   94 1  
    94   39   95 1  
    95   42   96 1  
    96   43   97 1  
    97   46   98 1  
    98   46   99 1  
    99   47  100 1  
   100   47  101 1  
   101   47  102 1  
@<TRIPOS>SUBSTRUCTURE
     1 GLY         1

