1bjv_ligand
  -I-interpret- 

 44 46  0  0  0  0  0  0  0  0999 V2000
   -2.8490   13.8230   13.8080 N   0  0  0  0  0
   -1.9970   12.0070   14.9800 N   0  0  0  0  0
   -2.3230   13.3130   14.9280 C   0  0  0  0  0
   -1.8640   14.1660   15.9640 C   0  0  0  0  0
   -1.8980   15.5640   15.8270 C   0  0  0  0  0
   -1.5020   16.4100   16.8650 C   0  0  0  0  0
   -1.0560   15.8700   18.0800 C   0  0  0  0  0
   -1.0040   14.4810   18.2520 C   0  0  0  0  0
   -1.4040   13.6530   17.1990 C   0  0  0  0  0
   -0.6740   16.6870   19.0840 N   0  0  0  0  0
    0.2590   17.6460   19.0030 C   0  0  0  0  0
    0.8290   17.9300   17.9320 O   0  0  0  0  0
    0.5700   18.2810   20.1300 N   0  0  0  0  0
    1.4490   19.2740   20.2580 C   0  0  0  0  0
    1.0310   20.4010   20.9650 C   0  0  0  0  0
    1.9630   21.4130   21.1970 C   0  0  0  0  0
    3.2830   21.2900   20.7240 C   0  0  0  0  0
    3.6670   20.1370   20.0250 C   0  0  0  0  0
    2.7440   19.1120   19.7820 C   0  0  0  0  0
    4.2000   22.2810   20.9260 O   0  0  0  0  0
    4.7560   22.7430   22.0830 C   0  0  0  0  0
    5.7950   23.6730   21.9850 C   0  0  0  0  0
    6.3920   24.1850   23.1360 C   0  0  0  0  0
    5.9560   23.7720   24.3940 C   0  0  0  0  0
    4.9230   22.8390   24.5010 C   0  0  0  0  0
    4.3200   22.3230   23.3510 C   0  0  0  0  0
   -3.0019   13.2232   12.9973 H   0  0  0  0  0
   -2.1512   11.4101   14.1674 H   0  0  0  0  0
   -1.5959   11.6150   15.8320 H   0  0  0  0  0
   -2.2416   15.9984   14.8882 H   0  0  0  0  0
   -1.5396   17.4911   16.7308 H   0  0  0  0  0
   -0.6571   14.0523   19.1922 H   0  0  0  0  0
   -1.3597   12.5724   17.3348 H   0  0  0  0  0
   -1.1365   16.5637   19.9847 H   0  0  0  0  0
    0.0894   17.9786   20.9773 H   0  0  0  0  0
    0.0062   20.4887   21.3258 H   0  0  0  0  0
    1.6668   22.3053   21.7485 H   0  0  0  0  0
    4.6920   20.0375   19.6678 H   0  0  0  0  0
    3.0331   18.2141   19.2358 H   0  0  0  0  0
    6.1400   23.9994   21.0039 H   0  0  0  0  0
    7.2016   24.9100   23.0521 H   0  0  0  0  0
    6.4210   24.1769   25.2929 H   0  0  0  0  0
    4.5858   22.5121   25.4846 H   0  0  0  0  0
    3.5126   21.5958   23.4374 H   0  0  0  0  0
  1  3  2  0  0  0
  3  4  1  0  0  0
  4  5  4  0  0  0
  4  9  4  0  0  0
  5  6  4  0  0  0
  6  7  4  0  0  0
  7  8  4  0  0  0
  7 10  1  0  0  0
  8  9  4  0  0  0
 10 11  1  0  0  0
 11 12  2  0  0  0
 11 13  1  0  0  0
 13 14  1  0  0  0
 14 15  4  0  0  0
 14 19  4  0  0  0
 15 16  4  0  0  0
 16 17  4  0  0  0
 17 18  4  0  0  0
 17 20  1  0  0  0
 18 19  4  0  0  0
 20 21  1  0  0  0
 21 22  4  0  0  0
 21 26  4  0  0  0
 22 23  4  0  0  0
 23 24  4  0  0  0
 24 25  4  0  0  0
 25 26  4  0  0  0
  3  2  1  0  0  0
  1 27  1  0  0  0
  2 28  1  0  0  0
  2 29  1  0  0  0
  5 30  1  0  0  0
  6 31  1  0  0  0
  8 32  1  0  0  0
  9 33  1  0  0  0
 10 34  1  0  0  0
 13 35  1  0  0  0
 15 36  1  0  0  0
 16 37  1  0  0  0
 18 38  1  0  0  0
 19 39  1  0  0  0
 22 40  1  0  0  0
 23 41  1  0  0  0
 24 42  1  0  0  0
 25 43  1  0  0  0
 26 44  1  0  0  0
M  END
$$$$
