1lan_ligand
  -I-interpret- 

 23 22  0  0  0  0  0  0  0  0999 V2000
   62.4440   53.7100   16.4510 N   0  3  0  0  0
   63.3780   54.1260   17.5060 C   0  0  0  0  0
   64.7770   53.5220   17.1890 C   0  0  0  0  0
   65.1250   53.7250   15.8400 O   0  0  0  0  0
   62.9050   53.6110   18.8580 C   0  0  0  0  0
   61.5340   54.1360   19.2980 C   0  0  0  0  0
   61.1990   53.8870   20.7400 C   0  0  0  0  0
   61.2580   55.5770   18.9340 C   0  0  0  0  0
   64.6700   52.0940   17.2710 O   0  0  0  0  0
   62.7715   54.0608   15.5509 H   0  0  0  0  0
   62.3960   52.6915   16.4233 H   0  0  0  0  0
   61.5183   54.0899   16.6489 H   0  0  0  0  0
   63.4294   55.2142   17.5421 H   0  0  0  0  0
   63.6284   53.9520   19.5986 H   0  0  0  0  0
   62.8180   52.5278   18.7726 H   0  0  0  0  0
   60.8595   53.5222   18.7010 H   0  0  0  0  0
   61.8073   54.5357   21.3703 H   0  0  0  0  0
   60.1435   54.1004   20.9086 H   0  0  0  0  0
   61.4038   52.8447   20.9845 H   0  0  0  0  0
   60.2027   55.7958   19.0968 H   0  0  0  0  0
   61.8665   56.2311   19.5585 H   0  0  0  0  0
   61.5065   55.7395   17.8852 H   0  0  0  0  0
   64.4319   51.8430   18.1665 H   0  0  0  0  0
  2  3  1  0  0  0
  2  5  1  0  0  0
  2  1  1  0  0  0
  5  6  1  0  0  0
  6  8  1  0  0  0
  6  7  1  0  0  0
  3  9  1  0  0  0
  3  4  2  0  0  0
  1 10  1  0  0  0
  1 11  1  0  0  0
  1 12  1  0  0  0
  2 13  1  0  0  0
  5 14  1  0  0  0
  5 15  1  0  0  0
  6 16  1  0  0  0
  7 17  1  0  0  0
  7 18  1  0  0  0
  7 19  1  0  0  0
  8 20  1  0  0  0
  8 21  1  0  0  0
  8 22  1  0  0  0
  9 23  1  0  0  0
M  END
$$$$
