3tt4_ligand
  -I-interpret- 

 48 49  0  0  0  0  0  0  0  0999 V2000
   -4.9630   10.5390  -13.5630 C   0  0  0  0  0
   -4.1280    9.1250  -15.5490 N   0  0  0  0  0
   -4.7810    9.1960  -14.2370 C   0  0  0  0  0
   -5.2360    8.1930  -13.7430 O   0  0  0  0  0
   -4.5240    8.0240  -17.7020 C   0  0  0  0  0
   -1.6970    7.7810  -15.2520 N   0  0  0  0  0
   -6.0280    8.1530  -17.5780 C   0  0  0  0  0
   -6.5770    9.5340  -17.6660 C   0  0  0  0  0
   -1.9210    7.1330  -17.2950 O   0  0  0  0  0
   -7.7410    9.7860  -17.2190 O   0  0  0  0  0
   -5.8980   10.4810  -18.1770 O   0  0  0  0  0
   -2.4510    7.5700  -16.2990 C   0  0  0  0  0
   -6.4280   10.9790  -13.7750 C   0  0  0  0  0
   -6.6820   12.3590  -13.2120 C   0  0  0  0  0
   -7.5830   12.5120  -12.1720 C   0  0  0  0  0
   -7.7880   13.8870  -11.5950 C   0  0  0  0  0
   -5.9290   13.5260  -13.7520 C   0  0  0  0  0
   -7.3260   16.3490  -11.5670 C   0  0  0  0  0
   -6.9950   17.6080  -12.1550 C   0  0  0  0  0
   -7.3890   18.7110  -11.3010 C   0  0  0  0  0
   -8.1230   16.5420  -10.0180 S   0  0  0  0  0
   -8.5150   19.1110   -8.9910 C   0  0  0  0  0
   -8.0070   18.2600  -10.1390 C   0  0  0  0  0
   -7.1040   14.9650  -12.1410 C   0  0  0  0  0
   -6.1280   14.7690  -13.2100 C   0  0  0  0  0
   -3.9420    7.8760  -16.2890 C   0  0  0  0  0
   -4.2815   11.2733  -13.9924 H   0  0  0  0  0
   -4.7415   10.4613  -12.4986 H   0  0  0  0  0
   -3.7861    9.9904  -15.9668 H   0  0  0  0  0
   -4.1094    8.9064  -18.1894 H   0  0  0  0  0
   -4.2694    7.1538  -18.3070 H   0  0  0  0  0
   -0.6983    7.5778  -15.2934 H   0  0  0  0  0
   -2.1074    8.1488  -14.3937 H   0  0  0  0  0
   -6.2848    7.7854  -16.5845 H   0  0  0  0  0
   -6.4516    7.6023  -18.4178 H   0  0  0  0  0
   -5.0480   10.1429  -18.4682 H   0  0  0  0  0
   -7.0779   10.2719  -13.2595 H   0  0  0  0  0
   -6.6291   11.0018  -14.8461 H   0  0  0  0  0
   -8.1317   11.6557  -11.7798 H   0  0  0  0  0
   -8.4676   14.0352  -10.7558 H   0  0  0  0  0
   -5.2244   13.3919  -14.5728 H   0  0  0  0  0
   -6.5079   17.7245  -13.1231 H   0  0  0  0  0
   -7.2221   19.7615  -11.5392 H   0  0  0  0  0
   -7.6859   19.6753   -8.5641 H   0  0  0  0  0
   -9.2739   19.8009   -9.3600 H   0  0  0  0  0
   -8.9490   18.4662   -8.2268 H   0  0  0  0  0
   -5.5533   15.6182  -13.5796 H   0  0  0  0  0
   -4.4681    7.0440  -15.8208 H   0  0  0  0  0
  1  3  1  0  0  0
 13  1  1  0  0  0
  3  2  1  0  0  0
  2 26  1  0  0  0
  3  4  2  0  0  0
  5  7  1  0  0  0
 26  5  1  0  0  0
 12  6  1  0  0  0
  7  8  1  0  0  0
  8 10  2  0  0  0
  8 11  1  0  0  0
 12  9  2  0  0  0
 26 12  1  0  0  0
 14 13  1  0  0  0
 15 14  4  0  0  0
 14 17  4  0  0  0
 16 15  4  0  0  0
 24 16  4  0  0  0
 17 25  4  0  0  0
 18 19  4  0  0  0
 18 21  4  0  0  0
 18 24  1  0  0  0
 19 20  4  0  0  0
 20 23  4  0  0  0
 21 23  4  0  0  0
 23 22  1  0  0  0
 24 25  4  0  0  0
  1 27  1  0  0  0
  1 28  1  0  0  0
  2 29  1  0  0  0
  5 30  1  0  0  0
  5 31  1  0  0  0
  6 32  1  0  0  0
  6 33  1  0  0  0
  7 34  1  0  0  0
  7 35  1  0  0  0
 11 36  1  0  0  0
 13 37  1  0  0  0
 13 38  1  0  0  0
 15 39  1  0  0  0
 16 40  1  0  0  0
 17 41  1  0  0  0
 19 42  1  0  0  0
 20 43  1  0  0  0
 22 44  1  0  0  0
 22 45  1  0  0  0
 22 46  1  0  0  0
 25 47  1  0  0  0
 26 48  1  0  0  0
M  END
$$$$
