1o2q_ligand
  -I-interpret- 

 45 48  0  0  0  0  0  0  0  0999 V2000
   43.9640   -3.0750   25.5290 C   0  0  0  0  0
   43.8000   -1.6630   25.4310 C   0  0  0  0  0
   43.7680   -0.6590   23.9520 Cl  0  0  0  0  0
   43.5860   -0.8950   26.5910 C   0  0  0  0  0
   43.5190   -1.5400   27.8050 C   0  0  0  0  0
   43.7030   -2.8790   27.9000 C   0  0  0  0  0
   43.9140   -3.6880   26.7890 C   0  0  0  0  0
   44.2150   -3.8470   24.3760 C   0  0  0  0  0
   43.7330   -5.0680   24.2340 N   0  0  0  0  0
   44.9630   -3.2720   23.4650 N   0  0  0  0  0
   43.3540   -1.0440   29.0030 N   0  0  0  0  0
   43.5970   -3.2060   29.2180 C   0  0  0  0  0
   43.3790   -2.0170   29.8920 C   0  0  0  0  0
   43.1930   -1.8760   31.2810 C   0  0  0  0  0
   43.0120   -3.0130   32.0980 C   0  0  0  0  0
   42.8350   -2.8620   33.4840 C   0  0  0  0  0
   42.8390   -1.6020   34.0650 C   0  0  0  0  0
   43.0170   -0.4610   33.2800 C   0  0  0  0  0
   43.0550    0.8110   33.8230 O   0  0  0  0  0
   43.1920   -0.5890   31.8840 C   0  0  0  0  0
   43.3530    0.5560   31.1180 O   0  0  0  0  0
   42.5230    2.4500   35.3400 C   0  0  0  0  0
   43.1280    1.0880   35.2210 C   0  0  0  0  0
   44.5850    1.1810   35.6840 C   0  0  0  0  0
   44.8640    2.6230   35.9920 C   0  0  0  0  0
   43.5380    3.3190   36.0270 C   0  0  0  0  0
   43.4757    0.1876   26.5292 H   0  0  0  0  0
   44.0368   -4.7659   26.8944 H   0  0  0  0  0
   43.9386   -5.6025   23.3899 H   0  0  0  0  0
   43.1550   -5.4767   24.9684 H   0  0  0  0  0
   45.1934   -3.7704   22.6054 H   0  0  0  0  0
   43.6692   -4.2025   29.6538 H   0  0  0  0  0
   43.0095   -4.0083   31.6537 H   0  0  0  0  0
   42.6931   -3.7437   34.1089 H   0  0  0  0  0
   42.7022   -1.5021   35.1418 H   0  0  0  0  0
   43.3264    1.3276   31.6885 H   0  0  0  0  0
   42.2732    2.8497   34.3572 H   0  0  0  0  0
   41.5954    2.4128   35.9112 H   0  0  0  0  0
   42.6365    0.3167   35.8139 H   0  0  0  0  0
   45.2577    0.8182   34.9069 H   0  0  0  0  0
   44.7465    0.5626   36.5669 H   0  0  0  0  0
   45.5143    3.0632   35.2361 H   0  0  0  0  0
   45.3812    2.7237   36.9462 H   0  0  0  0  0
   43.6095    4.2801   35.5178 H   0  0  0  0  0
   43.2380    3.4948   37.0601 H   0  0  0  0  0
  1  2  4  0  0  0
  1  7  4  0  0  0
  1  8  1  0  0  0
  2  3  1  0  0  0
  2  4  4  0  0  0
  4  5  4  0  0  0
  5  6  4  0  0  0
  5 11  4  0  0  0
  6  7  4  0  0  0
  6 12  4  0  0  0
  8  9  1  0  0  0
  8 10  2  0  0  0
 11 13  4  0  0  0
 13 12  4  0  0  0
 13 14  1  0  0  0
 14 15  4  0  0  0
 14 20  4  0  0  0
 15 16  4  0  0  0
 16 17  4  0  0  0
 17 18  4  0  0  0
 18 19  1  0  0  0
 18 20  4  0  0  0
 19 23  1  0  0  0
 20 21  1  0  0  0
 23 24  1  0  0  0
 24 25  1  0  0  0
 25 26  1  0  0  0
 26 22  1  0  0  0
 23 22  1  0  0  0
  4 27  1  0  0  0
  7 28  1  0  0  0
  9 29  1  0  0  0
  9 30  1  0  0  0
 10 31  1  0  0  0
 12 32  1  0  0  0
 15 33  1  0  0  0
 16 34  1  0  0  0
 17 35  1  0  0  0
 21 36  1  0  0  0
 22 37  1  0  0  0
 22 38  1  0  0  0
 23 39  1  0  0  0
 24 40  1  0  0  0
 24 41  1  0  0  0
 25 42  1  0  0  0
 25 43  1  0  0  0
 26 44  1  0  0  0
 26 45  1  0  0  0
M  END
$$$$
