### 
### Created by X-TOOL on Mon Aug  2 16:12:51 2021
### 

@<TRIPOS>MOLECULE
6d15_ligand
   29    30     1     0     0
SMALL
GAST_HUCK


@<TRIPOS>ATOM
      1 C01        22.1750   12.8680    5.6220 C.3       1 TWB        -0.0326
      2 C02        21.6590   14.1120    6.3420 C.ar      1 TWB        -0.0446
      3 C03        20.7990   14.9550    5.6720 C.ar      1 TWB        -0.0240
      4 C04        20.3000   16.1040    6.3160 C.ar      1 TWB         0.1303
      5 C06        18.8320   17.9020    6.1690 C.2       1 TWB         0.2448
      6 C08        19.1060   18.1960    7.4760 C.2       1 TWB         0.0100
      7 C09        20.0540   17.5200    8.2050 C.2       1 TWB        -0.0111
      8 C10        20.2320   17.8400    9.7020 C.3       1 TWB         0.0588
      9 C15        20.6100   16.3500    7.5860 C.ar      1 TWB         0.0212
     10 C16        21.4760   15.4720    8.2770 C.ar      1 TWB        -0.0574
     11 C17        21.9980   14.3710    7.6340 C.ar      1 TWB        -0.0471
     12 C18        22.9550   13.4410    8.3760 C.3       1 TWB        -0.0365
     13 O05        19.4320   16.8780    5.5870 O.3       1 TWB        -0.2191
     14 O07        18.0860   18.5100    5.5470 O.2       1 TWB        -0.3876
     15 O12        19.1800   17.1950   12.0480 O.co2     1 TWB        -0.5604
     16 O13        19.3270   15.3740   10.4920 O.co2     1 TWB        -0.5604
     17 O14        17.5830   17.2030   10.2270 O.co2     1 TWB        -0.5604
     18 P11        18.9950   16.8720   10.7400 P.3       1 TWB         0.0731
     19 H1         21.7841   12.8508    4.5939 H         1 TWB         0.0389
     20 H2         21.8380   11.9682    6.1574 H         1 TWB         0.0389
     21 H3         23.2745   12.8890    5.5959 H         1 TWB         0.0389
     22 H4         20.5072   14.7343    4.6516 H         1 TWB         0.0492
     23 H5         18.5502   18.9986    7.9586 H         1 TWB         0.0428
     24 H6         20.0739   18.9167    9.8626 H         1 TWB         0.0655
     25 H7         21.2525   17.5692   10.0105 H         1 TWB         0.0655
     26 H8         21.7294   15.6651    9.3131 H         1 TWB         0.0551
     27 H9         23.2650   12.6245    7.7072 H         1 TWB         0.0361
     28 H10        22.4483   13.0207    9.2573 H         1 TWB         0.0361
     29 H11        23.8411   14.0077    8.6980 H         1 TWB         0.0361
@<TRIPOS>BOND
     1    2    1 1  
     2    3    2 ar 
     3    2   11 ar 
     4    4    3 ar 
     5    4    9 ar 
     6   13    4 1  
     7    5    6 1  
     8    5   13 1  
     9    5   14 2  
    10    6    7 2  
    11    7    8 1  
    12    7    9 1  
    13    8   18 1  
    14    9   10 ar 
    15   10   11 ar 
    16   11   12 1  
    17   18   15 ar 
    18   18   16 ar 
    19   18   17 ar 
    20    1   19 1  
    21    1   20 1  
    22    1   21 1  
    23    3   22 1  
    24    6   23 1  
    25    8   24 1  
    26    8   25 1  
    27   10   26 1  
    28   12   27 1  
    29   12   28 1  
    30   12   29 1  
@<TRIPOS>SUBSTRUCTURE
     1 TWB         1

