6d15_ligand
  -I-interpret- 

 31 32  0  0  0  0  0  0  0  0999 V2000
   22.1750   12.8680    5.6220 C   0  0  0  0  0
   21.6590   14.1120    6.3420 C   0  0  0  0  0
   20.7990   14.9550    5.6720 C   0  0  0  0  0
   20.3000   16.1040    6.3160 C   0  0  0  0  0
   18.8320   17.9020    6.1690 C   0  0  0  0  0
   19.1060   18.1960    7.4760 C   0  0  0  0  0
   20.0540   17.5200    8.2050 C   0  0  0  0  0
   20.2320   17.8400    9.7020 C   0  0  0  0  0
   20.6100   16.3500    7.5860 C   0  0  0  0  0
   21.4760   15.4720    8.2770 C   0  0  0  0  0
   21.9980   14.3710    7.6340 C   0  0  0  0  0
   22.9550   13.4410    8.3760 C   0  0  0  0  0
   19.4320   16.8780    5.5870 O   0  0  0  0  0
   18.0860   18.5100    5.5470 O   0  0  0  0  0
   19.1800   17.1950   12.0480 O   0  0  0  0  0
   19.3270   15.3740   10.4920 O   0  0  0  0  0
   17.5830   17.2030   10.2270 O   0  0  0  0  0
   18.9950   16.8720   10.7400 P   0  0  0  0  0
   21.3321   12.2371    5.3400 H   0  0  0  0  0
   22.7213   13.1677    4.7277 H   0  0  0  0  0
   22.8386   12.3144    6.2862 H   0  0  0  0  0
   20.5056   14.7331    4.6460 H   0  0  0  0  0
   18.5497   18.9993    7.9590 H   0  0  0  0  0
   20.0648   18.9059    9.8571 H   0  0  0  0  0
   21.2412   17.5609   10.0047 H   0  0  0  0  0
   21.7308   15.6661    9.3189 H   0  0  0  0  0
   22.5302   12.4378    8.4115 H   0  0  0  0  0
   23.9112   13.4137    7.8535 H   0  0  0  0  0
   23.1043   13.8099    9.3908 H   0  0  0  0  0
   19.1904   15.1664    9.5647 H   0  0  0  0  0
   17.5131   16.9539    9.3025 H   0  0  0  0  0
  2  1  1  0  0  0
  3  2  4  0  0  0
  2 11  4  0  0  0
  4  3  4  0  0  0
  4  9  4  0  0  0
 13  4  1  0  0  0
  5  6  1  0  0  0
  5 13  1  0  0  0
  5 14  2  0  0  0
  6  7  2  0  0  0
  7  8  1  0  0  0
  7  9  1  0  0  0
  8 18  1  0  0  0
  9 10  4  0  0  0
 10 11  4  0  0  0
 11 12  1  0  0  0
 18 15  2  0  0  0
 18 16  1  0  0  0
 18 17  1  0  0  0
  1 19  1  0  0  0
  1 20  1  0  0  0
  1 21  1  0  0  0
  3 22  1  0  0  0
  6 23  1  0  0  0
  8 24  1  0  0  0
  8 25  1  0  0  0
 10 26  1  0  0  0
 12 27  1  0  0  0
 12 28  1  0  0  0
 12 29  1  0  0  0
 16 30  1  0  0  0
 17 31  1  0  0  0
M  END
$$$$
