3n9s_ligand
  -I-interpret- 

 34 33  0  0  0  0  0  0  0  0999 V2000
   -7.6710   24.0270  -22.0060 O   0  0  0  0  0
   -7.1370   24.6770  -23.1250 N   0  0  0  0  0
   -7.9720   24.7640  -24.2950 C   0  0  0  0  0
   -9.0510   25.8260  -24.1720 C   0  0  0  0  0
  -10.4790   25.3260  -24.1790 C   0  0  0  0  0
  -11.5430   26.3810  -24.4240 C   0  0  0  0  0
  -12.3390   26.1670  -25.5430 O   0  0  0  0  0
  -13.9470   26.4420  -25.4200 P   0  0  0  0  0
  -14.7120   25.4520  -26.4710 O   0  0  0  0  0
  -14.4280   26.1190  -23.8890 O   0  0  0  0  0
  -14.2180   27.8400  -25.7220 O   0  0  0  0  0
   -6.0840   25.6510  -22.9610 C   0  0  0  0  0
   -5.4490   25.6780  -21.9480 O   0  0  0  0  0
   -5.6390   26.4360  -24.1980 C   0  0  0  0  0
   -4.7740   27.5020  -23.9520 O   0  0  0  0  0
   -4.5660   28.7170  -25.0510 P   0  0  0  0  0
   -3.1920   29.4910  -24.6150 O   0  0  0  0  0
   -5.8480   29.7340  -25.0370 O   0  0  0  0  0
   -4.3660   28.1500  -26.3760 O   0  0  0  0  0
   -8.3558   23.4164  -22.2885 H   0  0  0  0  0
   -8.4655   23.8008  -24.4247 H   0  0  0  0  0
   -7.3362   25.0309  -25.1392 H   0  0  0  0  0
   -8.9480   26.4692  -25.0460 H   0  0  0  0  0
   -8.8996   26.3051  -23.2047 H   0  0  0  0  0
  -10.6693   24.9197  -23.1856 H   0  0  0  0  0
  -10.5536   24.6147  -25.0015 H   0  0  0  0  0
  -11.0192   27.3229  -24.5870 H   0  0  0  0  0
  -12.2064   26.3643  -23.5593 H   0  0  0  0  0
  -14.5163   24.5388  -26.2490 H   0  0  0  0  0
  -14.2506   25.1975  -23.6867 H   0  0  0  0  0
   -6.5411   26.8625  -24.6366 H   0  0  0  0  0
   -5.0962   25.7352  -24.8322 H   0  0  0  0  0
   -3.3045   29.8727  -23.7414 H   0  0  0  0  0
   -5.9594   30.0945  -24.1543 H   0  0  0  0  0
  1  2  1  0  0  0
  2  3  1  0  0  0
  2 12  1  0  0  0
  3  4  1  0  0  0
  4  5  1  0  0  0
  5  6  1  0  0  0
  6  7  1  0  0  0
  7  8  1  0  0  0
  8  9  1  0  0  0
  8 10  1  0  0  0
  8 11  2  0  0  0
 12 13  2  0  0  0
 12 14  1  0  0  0
 14 15  1  0  0  0
 15 16  1  0  0  0
 16 17  1  0  0  0
 16 18  1  0  0  0
 16 19  2  0  0  0
  1 20  1  0  0  0
  3 21  1  0  0  0
  3 22  1  0  0  0
  4 23  1  0  0  0
  4 24  1  0  0  0
  5 25  1  0  0  0
  5 26  1  0  0  0
  6 27  1  0  0  0
  6 28  1  0  0  0
  9 29  1  0  0  0
 10 30  1  0  0  0
 14 31  1  0  0  0
 14 32  1  0  0  0
 17 33  1  0  0  0
 18 34  1  0  0  0
M  END
$$$$
