### 
### Created by X-TOOL on Mon Sep 10 21:13:32 2018
### 

@<TRIPOS>MOLECULE
5WAE_LIGAND
   32    32     1     0     0
SMALL
GAST_HUCK


@<TRIPOS>ATOM
      1 C1         44.0770   -7.7160  -13.4290 C.ar      1 A1J        -0.0545
      2 C2         43.9280   -9.1010  -13.2860 C.ar      1 A1J        -0.0649
      3 C3         42.9040   -9.6410  -12.4850 C.ar      1 A1J        -0.0561
      4 C4         42.0320   -8.8010  -11.7940 C.ar      1 A1J        -0.0170
      5 C5         42.1650   -7.4160  -11.9470 C.ar      1 A1J        -0.0446
      6 C6         43.2050   -6.8630  -12.7200 C.ar      1 A1J         0.0035
      7 C7         43.3230   -5.3660  -12.8760 C.2       1 A1J         0.0613
      8 O8         44.0990   -4.8070  -13.8890 O.co2     1 A1J        -0.5607
      9 O9         42.6190   -4.6490  -12.1170 O.co2     1 A1J        -0.5607
     10 C13        40.9240   -9.4090  -10.9480 C.3       1 A1J         0.1159
     11 S14        41.4420  -10.3350   -9.7060 S.o2      1 A1J         0.0227
     12 O15        42.2390   -9.3470   -9.0010 O.2       1 A1J        -0.1556
     13 O16        42.1410  -11.5270  -10.1760 O.2       1 A1J        -0.1556
     14 N19        40.3040  -10.9110   -8.6980 N.am      1 A1J        -0.4017
     15 C21        39.4230  -11.9150   -9.2440 C.3       1 A1J        -0.2502
     16 B22        38.0200  -11.6740   -8.5430 B         1 A1J         3.0000
     17 O23        37.9240  -12.5280   -7.4570 O.3       1 A1J        -0.2097
     18 O24        37.6040  -10.2490   -8.5640 O.3       1 A1J        -0.8710
     19 P1         37.6290  -12.3480   -5.8980 P.3       1 A1J        -0.0116
     20 O2         36.8190  -11.2120   -5.3300 O.co2     1 A1J        -0.7596
     21 O3         38.7800  -12.9000   -5.1050 O.co2     1 A1J        -0.7596
     22 O4         36.7180  -13.5790   -5.9560 O.co2     1 A1J        -0.7596
     23 H          44.8520   -7.3047  -14.0758 H         1 A1J         0.0593
     24 H          44.6152   -9.7710  -13.8026 H         1 A1J         0.0606
     25 H          42.7923  -10.7223  -12.4046 H         1 A1J         0.0578
     26 H          41.4506   -6.7530  -11.4590 H         1 A1J         0.0590
     27 H          40.3426  -10.0561  -11.6048 H         1 A1J         0.0681
     28 H          40.3656   -8.5798  -10.5136 H         1 A1J         0.0681
     29 H          40.2178  -10.5821   -7.7363 H         1 A1J         0.1255
     30 H          39.7971  -12.9209   -9.0537 H         1 A1J        -0.1900
     31 H          39.3472  -11.8330  -10.3283 H         1 A1J        -0.1900
     32 H          37.7743   -9.8799   -9.4337 H         1 A1J        -0.1290
@<TRIPOS>BOND
     1    1    2 ar 
     2    1    6 ar 
     3    2    3 ar 
     4    3    4 ar 
     5    4    5 ar 
     6    4   10 1  
     7    5    6 ar 
     8    6    7 1  
     9    7    8 ar 
    10    7    9 ar 
    11   10   11 1  
    12   11   12 2  
    13   11   13 2  
    14   11   14 am 
    15   14   15 1  
    16   15   16 1  
    17   16   17 1  
    18   16   18 1  
    19   17   19 1  
    20   19   20 ar 
    21   19   21 ar 
    22   19   22 ar 
    23    1   23 1  
    24    2   24 1  
    25    3   25 1  
    26    5   26 1  
    27   10   27 1  
    28   10   28 1  
    29   14   29 1  
    30   15   30 1  
    31   15   31 1  
    32   18   32 1  
@<TRIPOS>SUBSTRUCTURE
     1 A1J         1

