5WAE_LIGAND
  -I-interpret- 

 35 35  0  0  0  0  0  0  0  0999 V2000
   44.0770   -7.7160  -13.4290 C   0  0  0  0  0
   43.9280   -9.1010  -13.2860 C   0  0  0  0  0
   42.9040   -9.6410  -12.4850 C   0  0  0  0  0
   42.0320   -8.8010  -11.7940 C   0  0  0  0  0
   42.1650   -7.4160  -11.9470 C   0  0  0  0  0
   43.2050   -6.8630  -12.7200 C   0  0  0  0  0
   43.3230   -5.3660  -12.8760 C   0  0  0  0  0
   44.0990   -4.8070  -13.8890 O   0  0  0  0  0
   42.6190   -4.6490  -12.1170 O   0  0  0  0  0
   40.9240   -9.4090  -10.9480 C   0  0  0  0  0
   41.4420  -10.3350   -9.7060 S   0  0  0  0  0
   42.2390   -9.3470   -9.0010 O   0  0  0  0  0
   42.1410  -11.5270  -10.1760 O   0  0  0  0  0
   40.3040  -10.9110   -8.6980 N   0  0  0  0  0
   39.4230  -11.9150   -9.2440 C   0  0  0  0  0
   38.0200  -11.6740   -8.5430 B   0  0  0  0  0
   37.9240  -12.5280   -7.4570 O   0  0  0  0  0
   37.6040  -10.2490   -8.5640 O   0  0  0  0  0
   37.6290  -12.3480   -5.8980 P   0  0  0  0  0
   36.8190  -11.2120   -5.3300 O   0  0  0  0  0
   38.7800  -12.9000   -5.1050 O   0  0  0  0  0
   36.7180  -13.5790   -5.9560 O   0  0  0  0  0
   44.8520   -7.3047  -14.0758 H   0  0  0  0  0
   44.6152   -9.7710  -13.8026 H   0  0  0  0  0
   42.7923  -10.7223  -12.4046 H   0  0  0  0  0
   41.4506   -6.7530  -11.4590 H   0  0  0  0  0
   44.5617   -5.5050  -14.3583 H   0  0  0  0  0
   40.3426  -10.0561  -11.6048 H   0  0  0  0  0
   40.3656   -8.5798  -10.5136 H   0  0  0  0  0
   40.2178  -10.5821   -7.7363 H   0  0  0  0  0
   39.7971  -12.9209   -9.0537 H   0  0  0  0  0
   39.3472  -11.8330  -10.3283 H   0  0  0  0  0
   36.7528  -10.1589   -8.1292 H   0  0  0  0  0
   36.1256  -10.9737   -5.9497 H   0  0  0  0  0
   35.9220  -13.3637   -6.4476 H   0  0  0  0  0
  1  2  4  0  0  0
  1  6  4  0  0  0
  2  3  4  0  0  0
  3  4  4  0  0  0
  4  5  4  0  0  0
  4 10  1  0  0  0
  5  6  4  0  0  0
  6  7  1  0  0  0
  7  8  1  0  0  0
  7  9  2  0  0  0
 10 11  1  0  0  0
 11 12  2  0  0  0
 11 13  2  0  0  0
 11 14  1  0  0  0
 14 15  1  0  0  0
 15 16  1  0  0  0
 16 17  1  0  0  0
 16 18  1  0  0  0
 17 19  1  0  0  0
 19 20  1  0  0  0
 19 21  2  0  0  0
 19 22  1  0  0  0
  1 23  1  0  0  0
  2 24  1  0  0  0
  3 25  1  0  0  0
  5 26  1  0  0  0
  8 27  1  0  0  0
 10 28  1  0  0  0
 10 29  1  0  0  0
 14 30  1  0  0  0
 15 31  1  0  0  0
 15 32  1  0  0  0
 18 33  1  0  0  0
 20 34  1  0  0  0
 22 35  1  0  0  0
M  END
$$$$
