6euz_ligand
  -I-interpret- 

 45 48  0  0  0  0  0  0  0  0999 V2000
   61.4860   16.7210   30.9440 C   0  0  0  0  0
   59.2150   20.1110   32.9850 O   0  0  0  0  0
   58.0830   20.0790   32.4670 C   0  0  0  0  0
   57.2620   21.0090   32.4670 O   0  0  0  0  0
   57.7550   18.7330   31.8220 C   0  0  0  0  0
   57.0570   17.8240   32.8030 C   0  0  0  0  0
   58.3340   16.8050   33.5820 S   0  0  0  0  0
   59.4410   17.0670   32.2600 C   0  0  0  0  0
   60.6570   16.4350   32.0770 C   0  0  0  0  0
   61.1120   15.4930   32.9620 O   0  0  0  0  0
   61.3680   15.9120   34.3450 C   0  0  0  0  0
   62.8350   16.0320   30.7340 C   0  0  0  0  0
   62.7760   14.6470   30.2040 C   0  0  0  0  0
   62.8800   13.5920   31.1080 C   0  0  0  0  0
   62.8460   12.2570   30.6760 C   0  0  0  0  0
   62.7000   11.9630   29.3360 C   0  0  0  0  0
   62.5990   13.0150   28.3890 C   0  0  0  0  0
   62.4580   12.7190   27.0200 C   0  0  0  0  0
   62.3630   13.7200   26.0940 C   0  0  0  0  0
   62.4030   15.0430   26.5090 C   0  0  0  0  0
   62.5360   15.3660   27.8380 C   0  0  0  0  0
   62.6470   14.3570   28.8370 C   0  0  0  0  0
   60.9960   17.6680   30.0800 C   0  0  0  0  0
   59.7290   18.3730   30.2260 C   0  0  0  0  0
   59.3280   19.2150   29.4300 O   0  0  0  0  0
   58.9640   18.0250   31.3620 N   0  0  0  0  0
   59.6524   19.2675   32.8478 H   0  0  0  0  0
   57.1142   18.9592   30.9698 H   0  0  0  0  0
   56.3225   17.1995   32.2945 H   0  0  0  0  0
   56.5182   18.4054   33.5512 H   0  0  0  0  0
   60.2796   16.3868   32.4088 H   0  0  0  0  0
   62.1252   16.6961   34.3515 H   0  0  0  0  0
   60.4459   16.2920   34.7848 H   0  0  0  0  0
   61.7224   15.0581   34.9223 H   0  0  0  0  0
   63.3039   15.9666   31.7158 H   0  0  0  0  0
   63.3710   16.6235   29.9917 H   0  0  0  0  0
   62.9898   13.8074   32.1708 H   0  0  0  0  0
   62.9353   11.4491   31.4023 H   0  0  0  0  0
   62.6623   10.9250   29.0055 H   0  0  0  0  0
   62.4242   11.6793   26.6945 H   0  0  0  0  0
   62.2565   13.4801   25.0361 H   0  0  0  0  0
   62.3277   15.8395   25.7687 H   0  0  0  0  0
   62.5570   16.4150   28.1334 H   0  0  0  0  0
   60.8302   17.0859   29.1735 H   0  0  0  0  0
   61.7203   18.4749   30.1911 H   0  0  0  0  0
  9  1  2  0  0  0
  1 12  1  0  0  0
  1 23  1  0  0  0
  3  2  1  0  0  0
  3  4  2  0  0  0
  5  3  1  0  0  0
  6  5  1  0  0  0
  5 26  1  0  0  0
  7  6  1  0  0  0
  8  7  1  0  0  0
  8  9  1  0  0  0
  8 26  1  0  0  0
  9 10  1  0  0  0
 10 11  1  0  0  0
 12 13  1  0  0  0
 13 14  4  0  0  0
 13 22  4  0  0  0
 14 15  4  0  0  0
 15 16  4  0  0  0
 16 17  4  0  0  0
 17 18  4  0  0  0
 17 22  4  0  0  0
 18 19  4  0  0  0
 19 20  4  0  0  0
 20 21  4  0  0  0
 21 22  4  0  0  0
 23 24  1  0  0  0
 24 25  2  0  0  0
 24 26  1  0  0  0
  2 27  1  0  0  0
  5 28  1  0  0  0
  6 29  1  0  0  0
  6 30  1  0  0  0
  8 31  1  0  0  0
 11 32  1  0  0  0
 11 33  1  0  0  0
 11 34  1  0  0  0
 12 35  1  0  0  0
 12 36  1  0  0  0
 14 37  1  0  0  0
 15 38  1  0  0  0
 16 39  1  0  0  0
 18 40  1  0  0  0
 19 41  1  0  0  0
 20 42  1  0  0  0
 21 43  1  0  0  0
 23 44  1  0  0  0
 23 45  1  0  0  0
M  END
$$$$
