### 
### Created by X-TOOL on Mon Sep 10 21:13:04 2018
### 

@<TRIPOS>MOLECULE
3iet_ligand
  169   171     1     0     0
SMALL
GAST_HUCK


@<TRIPOS>ATOM
      1 N           0.1840    1.0960    6.1160 N.4       1 GLY         0.2357
      2 CA         -0.0430    1.7270    7.4060 C.3       1 GLY         0.0545
      3 C          -1.1890    1.1150    8.1950 C.2       1 GLY         0.2237
      4 O          -2.0710    0.4750    7.6250 O.2       1 GLY        -0.3910
      5 C          -3.3680    1.6710   10.4870 C.2       1 THR         0.2065
      6 N          -1.1750    1.3310    9.5080 N.am      1 THR        -0.2588
      7 O          -3.3070    2.8230   10.0530 O.2       1 THR        -0.3943
      8 C1         -1.8870    2.6690   13.1720 C.3       1 A2G         0.1854
      9 C2         -1.2450    3.9970   13.4910 C.3       1 A2G         0.1210
     10 N2         -0.9480    4.6960   12.2490 N.am      1 A2G        -0.2766
     11 C3          0.0840    3.7710   14.2130 C.3       1 A2G         0.1111
     12 O3          0.7440    5.0040   14.4530 O.3       1 A2G        -0.3867
     13 C4         -0.1960    3.0380   15.5040 C.3       1 A2G         0.1116
     14 O4         -1.0530    3.8650   16.3100 O.3       1 A2G        -0.3865
     15 C5         -0.9090    1.7360   15.1570 C.3       1 A2G         0.1130
     16 O5         -2.1320    1.9460   14.4070 O.3       1 A2G        -0.3408
     17 C6         -1.2270    0.9440   16.4250 C.3       1 A2G         0.0730
     18 O6         -0.0050    0.6630   17.1070 O.3       1 A2G        -0.3924
     19 C7         -1.4870    5.8960   12.0770 C.2       1 A2G         0.1733
     20 O7         -2.1890    6.4490   12.9240 O.2       1 A2G        -0.3974
     21 C8         -1.1620    6.5640   10.7430 C.3       1 A2G         0.0257
     22 CA         -2.1600    0.7490   10.4350 C.3       1 THR         0.1569
     23 CB         -1.4490    0.6300   11.8010 C.3       1 THR         0.0989
     24 OG1        -0.9840    1.8860   12.3760 O.3       1 THR        -0.3413
     25 CG2        -0.2150   -0.2740   11.7130 C.3       1 THR        -0.0342
     26 N          -4.4680    1.1530   11.0150 N.am      1 LYS        -0.2636
     27 CA         -5.6780    1.9500   11.1610 C.3       1 LYS         0.1312
     28 C          -5.4030    3.1700   12.0370 C.2       1 LYS         0.2064
     29 O          -4.9340    3.0330   13.1640 O.2       1 LYS        -0.3942
     30 CB         -6.8080    1.1000   11.7520 C.3       1 LYS        -0.0122
     31 CG         -8.1040    1.8590   11.9980 C.3       1 LYS        -0.0440
     32 CD         -9.1700    0.9570   12.6220 C.3       1 LYS        -0.0124
     33 CE        -10.2620    0.5840   11.6040 C.3       1 LYS        -0.0354
     34 NZ         -9.8200   -0.4430   10.5930 N.4       1 LYS         0.2185
     35 N          -5.6810    4.3740   11.5090 N.am      1 PRO        -0.2498
     36 CA         -5.4780    5.6380   12.2250 C.3       1 PRO         0.1340
     37 C          -6.6940    5.9510   13.0970 C.2       1 PRO         0.2066
     38 O          -7.7200    5.2970   12.9490 O.2       1 PRO        -0.3942
     39 CB         -5.3840    6.6730   11.0930 C.3       1 PRO        -0.0104
     40 CG         -5.6490    5.9180    9.7990 C.3       1 PRO        -0.0281
     41 CD         -6.2370    4.5970   10.1680 C.3       1 PRO         0.0369
     42 N          -6.5900    6.9400   13.9940 N.am      1 PRO        -0.2498
     43 CA         -7.7750    7.2880   14.7920 C.3       1 PRO         0.1338
     44 C          -8.8260    7.9500   13.9170 C.2       1 PRO         0.2041
     45 O          -8.5080    8.4340   12.8250 O.2       1 PRO        -0.3944
     46 CB         -7.2320    8.2810   15.8280 C.3       1 PRO        -0.0104
     47 CG         -5.7420    8.0610   15.8370 C.3       1 PRO        -0.0281
     48 CD         -5.4010    7.6890   14.4170 C.3       1 PRO         0.0369
     49 N         -10.0670    7.9730   14.3950 N.am      1 LEU        -0.2637
     50 CA        -11.1960    8.4180   13.5700 C.3       1 LEU         0.1312
     51 C         -11.0640    9.8360   13.0020 C.2       1 LEU         0.2039
     52 O         -11.6690   10.1640   11.9740 O.2       1 LEU        -0.3944
     53 CB        -12.5410    8.2370   14.2940 C.3       1 LEU        -0.0101
     54 CG        -12.7680    8.9660   15.6200 C.3       1 LEU        -0.0425
     55 CD1       -12.9060   10.4630   15.4090 C.3       1 LEU        -0.0625
     56 CD2       -13.9960    8.4160   16.3260 C.3       1 LEU        -0.0625
     57 N         -10.2730   10.6710   13.6610 N.am      1 GLU        -0.2636
     58 CA        -10.0770   12.0310   13.1750 C.3       1 GLU         0.1325
     59 C          -9.0520   12.1060   12.0280 C.2       1 GLU         0.2040
     60 O          -8.8100   13.1810   11.4710 O.2       1 GLU        -0.3944
     61 CB         -9.7520   13.0070   14.3200 C.3       1 GLU        -0.0008
     62 CG         -8.8050   12.4880   15.3970 C.3       1 GLU         0.0044
     63 CD         -9.5260   11.7840   16.5490 C.2       1 GLU         0.0350
     64 OE1       -10.1980   12.4440   17.3750 O.co2     1 GLU        -0.5690
     65 OE2        -9.4040   10.5510   16.6350 O.co2     1 GLU        -0.5690
     66 N          -8.4770   10.9570   11.6710 N.am      1 GLU        -0.2636
     67 CA         -7.5480   10.8560   10.5400 C.3       1 GLU         0.1324
     68 C          -8.0710    9.9100    9.4580 C.2       1 GLU         0.2034
     69 O          -7.3940    9.6670    8.4570 O.2       1 GLU        -0.3944
     70 CB         -6.1670   10.3710   10.9970 C.3       1 GLU        -0.0008
     71 CG         -5.5470   11.1840   12.1190 C.3       1 GLU         0.0044
     72 CD         -4.8330   12.4360   11.6250 C.2       1 GLU         0.0350
     73 OE1        -4.6890   13.3910   12.4170 O.co2     1 GLU        -0.5690
     74 OE2        -4.4200   12.4710   10.4450 O.co2     1 GLU        -0.5690
     75 N          -9.2630    9.3600    9.6700 N.am      1 LEU        -0.2695
     76 CA         -9.9010    8.5120    8.6670 C.3       1 LEU         0.0946
     77 C         -10.2520    9.3320    7.4270 C.2       1 LEU         0.0601
     78 O          -9.5180    9.3390    6.4350 O.co2     1 LEU        -0.5666
     79 CB        -11.1640    7.8600    9.2380 C.3       1 LEU        -0.0156
     80 CG        -11.0140    6.5110    9.9460 C.3       1 LEU        -0.0431
     81 CD1        -9.5990    6.3010   10.4730 C.3       1 LEU        -0.0625
     82 CD2       -12.0420    6.3840   11.0580 C.3       1 LEU        -0.0625
     83 H           0.9634    1.5565    5.6461 H         1 GLY         0.2012
     84 H           0.4041    0.1098    6.2553 H         1 GLY         0.2012
     85 H          -0.6568    1.1806    5.5448 H         1 GLY         0.2012
     86 H          -0.2985    2.7697    7.2174 H         1 GLY         0.1061
     87 H           0.8642    1.5962    7.9960 H         1 GLY         0.1061
     88 H          -0.4445    1.9305    9.8920 H         1 THR         0.1885
     89 H          -2.8207    2.8412   12.6367 H         1 THR         0.0935
     90 H          -1.9274    4.5740   14.1151 H         1 THR         0.0633
     91 H          -0.3479    4.2787   11.5376 H         1 THR         0.1857
     92 H           0.7486    3.1715   13.5909 H         1 THR         0.0645
     93 H           0.9166    5.4414   13.6161 H         1 THR         0.2100
     94 H           0.7226    2.8223   16.0496 H         1 THR         0.0647
     95 H          -1.2434    3.4162   17.1370 H         1 THR         0.2100
     96 H          -0.2242    1.1721   14.5236 H         1 THR         0.0647
     97 H          -1.7282    0.0120   16.1637 H         1 THR         0.0584
     98 H          -1.8857    1.5258   17.0697 H         1 THR         0.0584
     99 H          -0.1929    0.1652   17.9060 H         1 THR         0.2095
    100 H          -2.0877    6.7647   10.2036 H         1 THR         0.0467
    101 H          -0.6361    7.5010   10.9259 H         1 THR         0.0467
    102 H          -0.5311    5.9014   10.1505 H         1 THR         0.0467
    103 H          -2.5161   -0.2343   10.1276 H         1 THR         0.0826
    104 H          -2.2285    0.2206   12.4435 H         1 THR         0.0643
    105 H          -0.5184   -1.2707   11.3926 H         1 THR         0.0257
    106 H           0.4882    0.1425   10.9918 H         1 THR         0.0257
    107 H           0.2600   -0.3346   12.6922 H         1 THR         0.0257
    108 H          -4.4669    0.1809   11.3239 H         1 LYS         0.1883
    109 H          -5.9916    2.2971   10.1765 H         1 LYS         0.0800
    110 H          -6.4619    0.7365   12.7196 H         1 LYS         0.0312
    111 H          -7.0296    0.3154   11.0286 H         1 LYS         0.0312
    112 H          -8.4773    2.2251   11.0416 H         1 LYS         0.0269
    113 H          -7.8992    2.6793   12.6859 H         1 LYS         0.0269
    114 H          -9.6371    1.4952   13.4468 H         1 LYS         0.0317
    115 H          -8.6891    0.0402   12.9630 H         1 LYS         0.0317
    116 H         -10.5217    1.4902   11.0568 H         1 LYS         0.0813
    117 H         -11.0955    0.1562   12.1611 H         1 LYS         0.0813
    118 H         -10.5893   -0.6416    9.9533 H         1 LYS         0.1994
    119 H          -9.0243   -0.0807   10.0677 H         1 LYS         0.1994
    120 H          -9.5484   -1.2992   11.0763 H         1 LYS         0.1994
    121 H          -4.6060    5.6215   12.8788 H         1 PRO         0.0802
    122 H          -4.4024    7.1465   11.0760 H         1 PRO         0.0313
    123 H          -6.1091    7.4745   11.2341 H         1 PRO         0.0313
    124 H          -4.7239    5.7822    9.2387 H         1 PRO         0.0287
    125 H          -6.3344    6.4778    9.1627 H         1 PRO         0.0287
    126 H          -7.3268    4.5907   10.1478 H         1 PRO         0.0524
    127 H          -5.9893    3.8039    9.4625 H         1 PRO         0.0524
    128 H          -8.2546    6.4210   15.2463 H         1 PRO         0.0802
    129 H          -7.6701    8.1169   16.8125 H         1 PRO         0.0313
    130 H          -7.4865    9.3097   15.5730 H         1 PRO         0.0313
    131 H          -5.4503    7.2828   16.5422 H         1 PRO         0.0287
    132 H          -5.2020    8.9491   16.1653 H         1 PRO         0.0287
    133 H          -5.1924    8.5531   13.7862 H         1 PRO         0.0524
    134 H          -4.4798    7.1121   14.3349 H         1 PRO         0.0524
    135 H         -10.2376    7.6750   15.3555 H         1 LEU         0.1883
    136 H         -11.1712    7.7582   12.7027 H         1 LEU         0.0800
    137 H         -12.5875    7.1768   14.5429 H         1 LEU         0.0315
    138 H         -13.2859    8.6496   13.6136 H         1 LEU         0.0315
    139 H         -11.8947    8.7942   16.2493 H         1 LEU         0.0298
    140 H         -11.9955   10.8496   14.9512 H         1 LEU         0.0232
    141 H         -13.7551   10.6596   14.7544 H         1 LEU         0.0232
    142 H         -13.0662   10.9509   16.3705 H         1 LEU         0.0232
    143 H         -14.8710    8.5541   15.6909 H         1 LEU         0.0232
    144 H         -13.8539    7.3538   16.5249 H         1 LEU         0.0232
    145 H         -14.1409    8.9470   17.2668 H         1 LEU         0.0232
    146 H          -9.8005   10.3610   14.5101 H         1 GLU         0.1883
    147 H         -11.0277   12.3517   12.7490 H         1 GLU         0.0801
    148 H         -10.6976   13.2157   14.8203 H         1 GLU         0.0330
    149 H          -9.2530   13.8604   13.8608 H         1 GLU         0.0330
    150 H          -8.2779   13.3463   15.8137 H         1 GLU         0.0433
    151 H          -8.1418   11.7601   14.9296 H         1 GLU         0.0433
    152 H          -8.6915   10.1151   12.2054 H         1 GLU         0.1883
    153 H          -7.4617   11.8587   10.1214 H         1 GLU         0.0801
    154 H          -5.5010   10.4566   10.1384 H         1 GLU         0.0330
    155 H          -6.2965    9.3568   11.3748 H         1 GLU         0.0330
    156 H          -4.8079   10.5548   12.6149 H         1 GLU         0.0433
    157 H          -6.3517   11.5013   12.7822 H         1 GLU         0.0433
    158 H          -9.7425    9.5344   10.5532 H         1 LEU         0.1875
    159 H          -9.1999    7.7263    8.3855 H         1 LEU         0.0726
    160 O1        -11.3112   10.0143    7.4168 O.co2     1 LEU        -0.5666
    161 H         -11.8057    7.6673    8.3782 H         1 LEU         0.0308
    162 H         -11.5279    8.5493   10.0000 H         1 LEU         0.0308
    163 H         -11.1972    5.7249    9.2135 H         1 LEU         0.0297
    164 H          -8.8948    6.3315    9.6416 H         1 LEU         0.0232
    165 H          -9.3570    7.0901   11.1850 H         1 LEU         0.0232
    166 H          -9.5371    5.3318   10.9679 H         1 LEU         0.0232
    167 H         -11.8936    7.1856   11.7816 H         1 LEU         0.0232
    168 H         -13.0439    6.4558   10.6348 H         1 LEU         0.0232
    169 H         -11.9233    5.4199   11.5524 H         1 LEU         0.0232
@<TRIPOS>BOND
     1    2    1 1  
     2    3    2 1  
     3    3    4 2  
     4    6    3 am 
     5    5    7 2  
     6   22    5 1  
     7    5   26 am 
     8   22    6 1  
     9    8    9 1  
    10    8   16 1  
    11   24    8 1  
    12    9   10 1  
    13    9   11 1  
    14   10   19 am 
    15   11   12 1  
    16   11   13 1  
    17   13   14 1  
    18   15   13 1  
    19   16   15 1  
    20   15   17 1  
    21   17   18 1  
    22   19   20 2  
    23   19   21 1  
    24   23   22 1  
    25   23   24 1  
    26   23   25 1  
    27   26   27 1  
    28   27   28 1  
    29   27   30 1  
    30   28   29 2  
    31   28   35 am 
    32   30   31 1  
    33   31   32 1  
    34   32   33 1  
    35   33   34 1  
    36   35   36 1  
    37   35   41 1  
    38   36   37 1  
    39   36   39 1  
    40   37   38 2  
    41   37   42 am 
    42   39   40 1  
    43   40   41 1  
    44   42   43 1  
    45   42   48 1  
    46   43   44 1  
    47   43   46 1  
    48   44   45 2  
    49   44   49 am 
    50   46   47 1  
    51   47   48 1  
    52   49   50 1  
    53   50   51 1  
    54   50   53 1  
    55   51   52 2  
    56   51   57 am 
    57   53   54 1  
    58   54   55 1  
    59   54   56 1  
    60   57   58 1  
    61   58   59 1  
    62   58   61 1  
    63   59   60 2  
    64   59   66 am 
    65   61   62 1  
    66   62   63 1  
    67   63   64 ar 
    68   63   65 ar 
    69   66   67 1  
    70   67   68 1  
    71   67   70 1  
    72   68   69 2  
    73   68   75 am 
    74   70   71 1  
    75   71   72 1  
    76   72   73 ar 
    77   72   74 ar 
    78   75   76 1  
    79   76   77 1  
    80   76   79 1  
    81   77   78 ar 
    82   79   80 1  
    83   80   81 1  
    84   80   82 1  
    85    1   83 1  
    86    1   84 1  
    87    1   85 1  
    88    2   86 1  
    89    2   87 1  
    90    6   88 1  
    91    8   89 1  
    92    9   90 1  
    93   10   91 1  
    94   11   92 1  
    95   12   93 1  
    96   13   94 1  
    97   14   95 1  
    98   15   96 1  
    99   17   97 1  
   100   17   98 1  
   101   18   99 1  
   102   21  100 1  
   103   21  101 1  
   104   21  102 1  
   105   22  103 1  
   106   23  104 1  
   107   25  105 1  
   108   25  106 1  
   109   25  107 1  
   110   26  108 1  
   111   27  109 1  
   112   30  110 1  
   113   30  111 1  
   114   31  112 1  
   115   31  113 1  
   116   32  114 1  
   117   32  115 1  
   118   33  116 1  
   119   33  117 1  
   120   34  118 1  
   121   34  119 1  
   122   34  120 1  
   123   36  121 1  
   124   39  122 1  
   125   39  123 1  
   126   40  124 1  
   127   40  125 1  
   128   41  126 1  
   129   41  127 1  
   130   43  128 1  
   131   46  129 1  
   132   46  130 1  
   133   47  131 1  
   134   47  132 1  
   135   48  133 1  
   136   48  134 1  
   137   49  135 1  
   138   50  136 1  
   139   53  137 1  
   140   53  138 1  
   141   54  139 1  
   142   55  140 1  
   143   55  141 1  
   144   55  142 1  
   145   56  143 1  
   146   56  144 1  
   147   56  145 1  
   148   57  146 1  
   149   58  147 1  
   150   61  148 1  
   151   61  149 1  
   152   62  150 1  
   153   62  151 1  
   154   66  152 1  
   155   67  153 1  
   156   70  154 1  
   157   70  155 1  
   158   71  156 1  
   159   71  157 1  
   160   75  158 1  
   161   76  159 1  
   162   77  160 ar 
   163   79  161 1  
   164   79  162 1  
   165   80  163 1  
   166   81  164 1  
   167   81  165 1  
   168   81  166 1  
   169   82  167 1  
   170   82  168 1  
   171   82  169 1  
@<TRIPOS>SUBSTRUCTURE
     1 GLY         1

