3iet_ligand
  -I-interpret- 

172174  0  0  0  0  0  0  0  0999 V2000
    0.1840    1.0960    6.1160 N   0  3  0  0  0
   -0.0430    1.7270    7.4060 C   0  0  0  0  0
   -1.1890    1.1150    8.1950 C   0  0  0  0  0
   -2.0710    0.4750    7.6250 O   0  0  0  0  0
   -3.3680    1.6710   10.4870 C   0  0  0  0  0
   -1.1750    1.3310    9.5080 N   0  0  0  0  0
   -3.3070    2.8230   10.0530 O   0  0  0  0  0
   -1.8870    2.6690   13.1720 C   0  0  0  0  0
   -1.2450    3.9970   13.4910 C   0  0  0  0  0
   -0.9480    4.6960   12.2490 N   0  0  0  0  0
    0.0840    3.7710   14.2130 C   0  0  0  0  0
    0.7440    5.0040   14.4530 O   0  0  0  0  0
   -0.1960    3.0380   15.5040 C   0  0  0  0  0
   -1.0530    3.8650   16.3100 O   0  0  0  0  0
   -0.9090    1.7360   15.1570 C   0  0  0  0  0
   -2.1320    1.9460   14.4070 O   0  0  0  0  0
   -1.2270    0.9440   16.4250 C   0  0  0  0  0
   -0.0050    0.6630   17.1070 O   0  0  0  0  0
   -1.4870    5.8960   12.0770 C   0  0  0  0  0
   -2.1890    6.4490   12.9240 O   0  0  0  0  0
   -1.1620    6.5640   10.7430 C   0  0  0  0  0
   -2.1600    0.7490   10.4350 C   0  0  0  0  0
   -1.4490    0.6300   11.8010 C   0  0  0  0  0
   -0.9840    1.8860   12.3760 O   0  0  0  0  0
   -0.2150   -0.2740   11.7130 C   0  0  0  0  0
   -4.4680    1.1530   11.0150 N   0  0  0  0  0
   -5.6780    1.9500   11.1610 C   0  0  0  0  0
   -5.4030    3.1700   12.0370 C   0  0  0  0  0
   -4.9340    3.0330   13.1640 O   0  0  0  0  0
   -6.8080    1.1000   11.7520 C   0  0  0  0  0
   -8.1040    1.8590   11.9980 C   0  0  0  0  0
   -9.1700    0.9570   12.6220 C   0  0  0  0  0
  -10.2620    0.5840   11.6040 C   0  0  0  0  0
   -9.8200   -0.4430   10.5930 N   0  3  0  0  0
   -5.6810    4.3740   11.5090 N   0  0  0  0  0
   -5.4780    5.6380   12.2250 C   0  0  0  0  0
   -6.6940    5.9510   13.0970 C   0  0  0  0  0
   -7.7200    5.2970   12.9490 O   0  0  0  0  0
   -5.3840    6.6730   11.0930 C   0  0  0  0  0
   -5.6490    5.9180    9.7990 C   0  0  0  0  0
   -6.2370    4.5970   10.1680 C   0  0  0  0  0
   -6.5900    6.9400   13.9940 N   0  0  0  0  0
   -7.7750    7.2880   14.7920 C   0  0  0  0  0
   -8.8260    7.9500   13.9170 C   0  0  0  0  0
   -8.5080    8.4340   12.8250 O   0  0  0  0  0
   -7.2320    8.2810   15.8280 C   0  0  0  0  0
   -5.7420    8.0610   15.8370 C   0  0  0  0  0
   -5.4010    7.6890   14.4170 C   0  0  0  0  0
  -10.0670    7.9730   14.3950 N   0  0  0  0  0
  -11.1960    8.4180   13.5700 C   0  0  0  0  0
  -11.0640    9.8360   13.0020 C   0  0  0  0  0
  -11.6690   10.1640   11.9740 O   0  0  0  0  0
  -12.5410    8.2370   14.2940 C   0  0  0  0  0
  -12.7680    8.9660   15.6200 C   0  0  0  0  0
  -12.9060   10.4630   15.4090 C   0  0  0  0  0
  -13.9960    8.4160   16.3260 C   0  0  0  0  0
  -10.2730   10.6710   13.6610 N   0  0  0  0  0
  -10.0770   12.0310   13.1750 C   0  0  0  0  0
   -9.0520   12.1060   12.0280 C   0  0  0  0  0
   -8.8100   13.1810   11.4710 O   0  0  0  0  0
   -9.7520   13.0070   14.3200 C   0  0  0  0  0
   -8.8050   12.4880   15.3970 C   0  0  0  0  0
   -9.5260   11.7840   16.5490 C   0  0  0  0  0
  -10.1980   12.4440   17.3750 O   0  0  0  0  0
   -9.4040   10.5510   16.6350 O   0  0  0  0  0
   -8.4770   10.9570   11.6710 N   0  0  0  0  0
   -7.5480   10.8560   10.5400 C   0  0  0  0  0
   -8.0710    9.9100    9.4580 C   0  0  0  0  0
   -7.3940    9.6670    8.4570 O   0  0  0  0  0
   -6.1670   10.3710   10.9970 C   0  0  0  0  0
   -5.5470   11.1840   12.1190 C   0  0  0  0  0
   -4.8330   12.4360   11.6250 C   0  0  0  0  0
   -4.6890   13.3910   12.4170 O   0  0  0  0  0
   -4.4200   12.4710   10.4450 O   0  0  0  0  0
   -9.2630    9.3600    9.6700 N   0  0  0  0  0
   -9.9010    8.5120    8.6670 C   0  0  0  0  0
  -10.2520    9.3320    7.4270 C   0  0  0  0  0
   -9.5180    9.3390    6.4350 O   0  0  0  0  0
  -11.1640    7.8600    9.2380 C   0  0  0  0  0
  -11.0140    6.5110    9.9460 C   0  0  0  0  0
   -9.5990    6.3010   10.4730 C   0  0  0  0  0
  -12.0420    6.3840   11.0580 C   0  0  0  0  0
  -11.3112   10.0143    7.4168 O   0  0  0  0  0
    0.9634    1.5565    5.6461 H   0  0  0  0  0
    0.4041    0.1098    6.2553 H   0  0  0  0  0
   -0.6568    1.1806    5.5448 H   0  0  0  0  0
   -0.2985    2.7697    7.2174 H   0  0  0  0  0
    0.8642    1.5962    7.9960 H   0  0  0  0  0
   -0.4445    1.9305    9.8920 H   0  0  0  0  0
   -2.8207    2.8412   12.6367 H   0  0  0  0  0
   -1.9274    4.5740   14.1151 H   0  0  0  0  0
   -0.3479    4.2787   11.5376 H   0  0  0  0  0
    0.7486    3.1715   13.5909 H   0  0  0  0  0
    1.5740    4.8385   14.9061 H   0  0  0  0  0
    0.7226    2.8223   16.0496 H   0  0  0  0  0
   -1.2434    3.4162   17.1370 H   0  0  0  0  0
   -0.2242    1.1721   14.5236 H   0  0  0  0  0
   -1.7282    0.0120   16.1637 H   0  0  0  0  0
   -1.8857    1.5258   17.0697 H   0  0  0  0  0
   -0.1930    0.1652   17.9060 H   0  0  0  0  0
   -2.0877    6.7647   10.2036 H   0  0  0  0  0
   -0.6361    7.5010   10.9259 H   0  0  0  0  0
   -0.5311    5.9014   10.1505 H   0  0  0  0  0
   -2.5161   -0.2343   10.1276 H   0  0  0  0  0
   -2.2285    0.2206   12.4435 H   0  0  0  0  0
   -0.5184   -1.2707   11.3926 H   0  0  0  0  0
    0.4882    0.1425   10.9918 H   0  0  0  0  0
    0.2600   -0.3346   12.6922 H   0  0  0  0  0
   -4.4669    0.1809   11.3239 H   0  0  0  0  0
   -5.9916    2.2971   10.1765 H   0  0  0  0  0
   -6.4619    0.7365   12.7196 H   0  0  0  0  0
   -7.0296    0.3154   11.0286 H   0  0  0  0  0
   -8.4773    2.2251   11.0416 H   0  0  0  0  0
   -7.8992    2.6793   12.6859 H   0  0  0  0  0
   -9.6371    1.4952   13.4468 H   0  0  0  0  0
   -8.6891    0.0402   12.9630 H   0  0  0  0  0
  -10.5217    1.4902   11.0568 H   0  0  0  0  0
  -11.0955    0.1562   12.1611 H   0  0  0  0  0
  -10.5893   -0.6416    9.9533 H   0  0  0  0  0
   -9.0243   -0.0807   10.0677 H   0  0  0  0  0
   -9.5484   -1.2992   11.0763 H   0  0  0  0  0
   -4.6060    5.6215   12.8788 H   0  0  0  0  0
   -4.4024    7.1465   11.0760 H   0  0  0  0  0
   -6.1091    7.4745   11.2341 H   0  0  0  0  0
   -4.7239    5.7822    9.2387 H   0  0  0  0  0
   -6.3344    6.4778    9.1627 H   0  0  0  0  0
   -7.3268    4.5907   10.1478 H   0  0  0  0  0
   -5.9893    3.8039    9.4625 H   0  0  0  0  0
   -8.2546    6.4210   15.2463 H   0  0  0  0  0
   -7.6701    8.1169   16.8125 H   0  0  0  0  0
   -7.4865    9.3097   15.5730 H   0  0  0  0  0
   -5.4503    7.2828   16.5422 H   0  0  0  0  0
   -5.2020    8.9491   16.1653 H   0  0  0  0  0
   -5.1924    8.5531   13.7862 H   0  0  0  0  0
   -4.4798    7.1121   14.3349 H   0  0  0  0  0
  -10.2376    7.6750   15.3555 H   0  0  0  0  0
  -11.1712    7.7582   12.7027 H   0  0  0  0  0
  -12.5875    7.1768   14.5429 H   0  0  0  0  0
  -13.2859    8.6496   13.6136 H   0  0  0  0  0
  -11.8947    8.7942   16.2493 H   0  0  0  0  0
  -11.9955   10.8496   14.9512 H   0  0  0  0  0
  -13.7551   10.6596   14.7544 H   0  0  0  0  0
  -13.0662   10.9509   16.3705 H   0  0  0  0  0
  -14.8710    8.5541   15.6909 H   0  0  0  0  0
  -13.8539    7.3538   16.5249 H   0  0  0  0  0
  -14.1409    8.9470   17.2668 H   0  0  0  0  0
   -9.8005   10.3610   14.5101 H   0  0  0  0  0
  -11.0277   12.3517   12.7490 H   0  0  0  0  0
  -10.6976   13.2157   14.8203 H   0  0  0  0  0
   -9.2530   13.8604   13.8608 H   0  0  0  0  0
   -8.2779   13.3463   15.8137 H   0  0  0  0  0
   -8.1418   11.7601   14.9296 H   0  0  0  0  0
  -10.1703   13.3739   17.1381 H   0  0  0  0  0
   -8.6915   10.1151   12.2054 H   0  0  0  0  0
   -7.4617   11.8587   10.1214 H   0  0  0  0  0
   -5.5010   10.4566   10.1384 H   0  0  0  0  0
   -6.2965    9.3568   11.3748 H   0  0  0  0  0
   -4.8079   10.5548   12.6149 H   0  0  0  0  0
   -6.3517   11.5013   12.7822 H   0  0  0  0  0
   -4.6299   11.6419   10.0090 H   0  0  0  0  0
   -9.7425    9.5344   10.5532 H   0  0  0  0  0
   -9.1999    7.7263    8.3855 H   0  0  0  0  0
  -11.8057    7.6673    8.3782 H   0  0  0  0  0
  -11.5279    8.5493   10.0000 H   0  0  0  0  0
  -11.1972    5.7249    9.2135 H   0  0  0  0  0
   -8.8948    6.3315    9.6416 H   0  0  0  0  0
   -9.3570    7.0901   11.1850 H   0  0  0  0  0
   -9.5371    5.3318   10.9679 H   0  0  0  0  0
  -11.8936    7.1856   11.7816 H   0  0  0  0  0
  -13.0439    6.4558   10.6348 H   0  0  0  0  0
  -11.9233    5.4199   11.5524 H   0  0  0  0  0
  -11.7689    9.9051    8.2536 H   0  0  0  0  0
  2  1  1  0  0  0
  3  2  1  0  0  0
  3  4  2  0  0  0
  6  3  1  0  0  0
  5  7  2  0  0  0
 22  5  1  0  0  0
  5 26  1  0  0  0
 22  6  1  0  0  0
  8  9  1  0  0  0
  8 16  1  0  0  0
 24  8  1  0  0  0
  9 10  1  0  0  0
  9 11  1  0  0  0
 10 19  1  0  0  0
 11 12  1  0  0  0
 11 13  1  0  0  0
 13 14  1  0  0  0
 15 13  1  0  0  0
 16 15  1  0  0  0
 15 17  1  0  0  0
 17 18  1  0  0  0
 19 20  2  0  0  0
 19 21  1  0  0  0
 23 22  1  0  0  0
 23 24  1  0  0  0
 23 25  1  0  0  0
 26 27  1  0  0  0
 27 28  1  0  0  0
 27 30  1  0  0  0
 28 29  2  0  0  0
 28 35  1  0  0  0
 30 31  1  0  0  0
 31 32  1  0  0  0
 32 33  1  0  0  0
 33 34  1  0  0  0
 35 36  1  0  0  0
 35 41  1  0  0  0
 36 37  1  0  0  0
 36 39  1  0  0  0
 37 38  2  0  0  0
 37 42  1  0  0  0
 39 40  1  0  0  0
 40 41  1  0  0  0
 42 43  1  0  0  0
 42 48  1  0  0  0
 43 44  1  0  0  0
 43 46  1  0  0  0
 44 45  2  0  0  0
 44 49  1  0  0  0
 46 47  1  0  0  0
 47 48  1  0  0  0
 49 50  1  0  0  0
 50 51  1  0  0  0
 50 53  1  0  0  0
 51 52  2  0  0  0
 51 57  1  0  0  0
 53 54  1  0  0  0
 54 55  1  0  0  0
 54 56  1  0  0  0
 57 58  1  0  0  0
 58 59  1  0  0  0
 58 61  1  0  0  0
 59 60  2  0  0  0
 59 66  1  0  0  0
 61 62  1  0  0  0
 62 63  1  0  0  0
 63 64  1  0  0  0
 63 65  2  0  0  0
 66 67  1  0  0  0
 67 68  1  0  0  0
 67 70  1  0  0  0
 68 69  2  0  0  0
 68 75  1  0  0  0
 70 71  1  0  0  0
 71 72  1  0  0  0
 72 73  2  0  0  0
 72 74  1  0  0  0
 75 76  1  0  0  0
 76 77  1  0  0  0
 76 79  1  0  0  0
 77 78  2  0  0  0
 79 80  1  0  0  0
 80 81  1  0  0  0
 80 82  1  0  0  0
 77 83  1  0  0  0
  1 84  1  0  0  0
  1 85  1  0  0  0
  1 86  1  0  0  0
  2 87  1  0  0  0
  2 88  1  0  0  0
  6 89  1  0  0  0
  8 90  1  0  0  0
  9 91  1  0  0  0
 10 92  1  0  0  0
 11 93  1  0  0  0
 12 94  1  0  0  0
 13 95  1  0  0  0
 14 96  1  0  0  0
 15 97  1  0  0  0
 17 98  1  0  0  0
 17 99  1  0  0  0
 18100  1  0  0  0
 21101  1  0  0  0
 21102  1  0  0  0
 21103  1  0  0  0
 22104  1  0  0  0
 23105  1  0  0  0
 25106  1  0  0  0
 25107  1  0  0  0
 25108  1  0  0  0
 26109  1  0  0  0
 27110  1  0  0  0
 30111  1  0  0  0
 30112  1  0  0  0
 31113  1  0  0  0
 31114  1  0  0  0
 32115  1  0  0  0
 32116  1  0  0  0
 33117  1  0  0  0
 33118  1  0  0  0
 34119  1  0  0  0
 34120  1  0  0  0
 34121  1  0  0  0
 36122  1  0  0  0
 39123  1  0  0  0
 39124  1  0  0  0
 40125  1  0  0  0
 40126  1  0  0  0
 41127  1  0  0  0
 41128  1  0  0  0
 43129  1  0  0  0
 46130  1  0  0  0
 46131  1  0  0  0
 47132  1  0  0  0
 47133  1  0  0  0
 48134  1  0  0  0
 48135  1  0  0  0
 49136  1  0  0  0
 50137  1  0  0  0
 53138  1  0  0  0
 53139  1  0  0  0
 54140  1  0  0  0
 55141  1  0  0  0
 55142  1  0  0  0
 55143  1  0  0  0
 56144  1  0  0  0
 56145  1  0  0  0
 56146  1  0  0  0
 57147  1  0  0  0
 58148  1  0  0  0
 61149  1  0  0  0
 61150  1  0  0  0
 62151  1  0  0  0
 62152  1  0  0  0
 64153  1  0  0  0
 66154  1  0  0  0
 67155  1  0  0  0
 70156  1  0  0  0
 70157  1  0  0  0
 71158  1  0  0  0
 71159  1  0  0  0
 74160  1  0  0  0
 75161  1  0  0  0
 76162  1  0  0  0
 79163  1  0  0  0
 79164  1  0  0  0
 80165  1  0  0  0
 81166  1  0  0  0
 81167  1  0  0  0
 81168  1  0  0  0
 82169  1  0  0  0
 82170  1  0  0  0
 82171  1  0  0  0
 83172  1  0  0  0
M  END
$$$$
