### 
### Created by X-TOOL on Mon Sep 10 21:13:32 2018
### 

@<TRIPOS>MOLECULE
5vll_ligand
  230   235     1     0     0
SMALL
GAST_HUCK


@<TRIPOS>ATOM
      1 C          19.4790  -10.1760   32.5310 C.2       1 ACE         0.1752
      2 O          20.2850  -11.1070   32.7010 O.2       1 ACE        -0.3972
      3 CH3        19.6480   -9.2140   31.3670 C.3       1 ACE         0.0258
      4 N          18.4170   -9.9440   33.3120 N.am      1 THR        -0.2635
      5 CA         18.0510  -10.7680   34.4810 C.3       1 THR         0.1564
      6 C          17.6420  -12.1660   34.0320 C.2       1 THR         0.2065
      7 O          16.8750  -12.3050   33.0860 O.2       1 THR        -0.3943
      8 CB         16.8610  -10.1350   35.2430 C.3       1 THR         0.0924
      9 OG1        17.0590   -8.7310   35.4120 O.3       1 THR        -0.3874
     10 CG2        16.5980  -10.8000   36.5880 C.3       1 THR        -0.0346
     11 N          18.1370  -13.1860   34.7090 N.am      1 VAL        -0.2634
     12 CA         17.7750  -14.5590   34.4060 C.3       1 VAL         0.1333
     13 C          16.8040  -14.9910   35.4950 C.2       1 VAL         0.2043
     14 O          17.1320  -14.9000   36.6870 O.2       1 VAL        -0.3944
     15 CB         19.0080  -15.4890   34.2780 C.3       1 VAL        -0.0063
     16 CG1        18.5930  -16.9480   34.1100 C.3       1 VAL        -0.0584
     17 CG2        19.8980  -15.0520   33.1140 C.3       1 VAL        -0.0584
     18 N          15.5880  -15.3790   35.0970 N.am      1 PHE        -0.2619
     19 CA         14.5550  -15.8340   36.0300 C.3       1 PHE         0.1404
     20 C          14.7170  -17.3360   36.2460 C.2       1 PHE         0.2060
     21 O          15.0130  -18.0400   35.2940 O.2       1 PHE        -0.3942
     22 CB         13.1500  -15.4630   35.5140 C.3       1 PHE         0.0214
     23 CG         13.0290  -13.9880   35.1840 C.ar      1 PHE        -0.0386
     24 CD1        12.9290  -13.0370   36.1960 C.ar      1 PHE        -0.0601
     25 CD2        13.0760  -13.5470   33.8630 C.ar      1 PHE        -0.0601
     26 CE1        12.8660  -11.6730   35.8930 C.ar      1 PHE        -0.0686
     27 CE2        13.0120  -12.1850   33.5610 C.ar      1 PHE        -0.0686
     28 CZ         12.9030  -11.2550   34.5790 C.ar      1 PHE        -0.0687
     29 N          14.5920  -17.8200   37.5070 N.am      1 THR        -0.2612
     30 CA         14.7800  -19.2380   37.8450 C.3       1 THR         0.1565
     31 C          13.5480  -20.0840   37.5060 C.2       1 THR         0.2065
     32 O          13.6330  -21.3180   37.5060 O.2       1 THR        -0.3943
     33 CB         15.2450  -19.4220   39.3080 C.3       1 THR         0.0924
     34 OG1        14.2400  -18.9270   40.1920 O.3       1 THR        -0.3874
     35 CG2        16.5890  -18.7480   39.5990 C.3       1 THR        -0.0346
     36 N          12.4170  -19.4290   37.1900 N.am      1 SER        -0.2615
     37 CA         11.1610  -20.1040   36.8400 C.3       1 SER         0.1539
     38 C          10.2740  -19.1610   36.0320 C.2       1 SER         0.2063
     39 O          10.5380  -17.9580   35.9930 O.2       1 SER        -0.3943
     40 CB         10.4320  -20.5640   38.1080 C.3       1 SER         0.0843
     41 OG          9.9330  -19.4800   38.8820 O.3       1 SER        -0.3903
     42 N           9.1990  -19.6890   35.4360 N.am      1 TRP        -0.2626
     43 CA          8.2390  -18.8990   34.6590 C.3       1 TRP         0.1352
     44 C           7.4160  -18.0190   35.5720 C.2       1 TRP         0.2052
     45 O           7.0690  -16.9030   35.1780 O.2       1 TRP        -0.3942
     46 CB          7.3300  -19.8050   33.8140 C.3       1 TRP         0.0042
     47 CG          6.3500  -19.0690   32.9430 C.2       1 TRP        -0.0418
     48 CD1         4.9960  -19.0240   33.0920 C.2       1 TRP         0.0167
     49 CD2         6.6570  -18.2700   31.7900 C.ar      1 TRP        -0.0214
     50 NE1         4.4390  -18.2330   32.1160 N.pl3     1 TRP        -0.2890
     51 CE2         5.4350  -17.7780   31.2860 C.ar      1 TRP         0.0603
     52 CE3         7.8490  -17.9330   31.1260 C.ar      1 TRP        -0.0747
     53 CZ2         5.3680  -16.9680   30.1460 C.ar      1 TRP        -0.0443
     54 CZ3         7.7810  -17.1310   29.9990 C.ar      1 TRP        -0.0792
     55 CH2         6.5520  -16.6610   29.5170 C.ar      1 TRP        -0.0768
     56 N           7.1130  -18.5160   36.7960 N.am      1 GLU        -0.2635
     57 CA          6.3660  -17.7980   37.8430 C.3       1 GLU         0.1325
     58 C           7.1610  -16.5620   38.2730 C.2       1 GLU         0.2040
     59 O           6.5760  -15.4770   38.3470 O.2       1 GLU        -0.3944
     60 CB          6.0880  -18.6980   39.0610 C.3       1 GLU        -0.0008
     61 CG          5.1430  -19.8610   38.7850 C.3       1 GLU         0.0044
     62 CD          4.3690  -20.3890   39.9810 C.2       1 GLU         0.0350
     63 OE1         4.9240  -20.4030   41.1060 O.co2     1 GLU        -0.5690
     64 OE2         3.2070  -20.8140   39.7840 O.co2     1 GLU        -0.5690
     65 N           8.5020  -16.7180   38.4850 N.am      1 GLU        -0.2636
     66 CA          9.4140  -15.6200   38.8360 C.3       1 GLU         0.1325
     67 C           9.3170  -14.4810   37.8150 C.2       1 GLU         0.2041
     68 O           9.1190  -13.3290   38.2060 O.2       1 GLU        -0.3944
     69 CB         10.8640  -16.0980   39.0160 C.3       1 GLU        -0.0008
     70 CG         11.6390  -15.1730   39.9370 C.3       1 GLU         0.0044
     71 CD         13.1080  -15.4780   40.1410 C.2       1 GLU         0.0350
     72 OE1        13.4280  -16.2850   41.0440 O.co2     1 GLU        -0.5690
     73 OE2        13.9430  -14.8550   39.4470 O.co2     1 GLU        -0.5690
     74 N           9.3520  -14.8240   36.5160 N.am      1 TYR        -0.2621
     75 CA          9.1850  -13.8740   35.4190 C.3       1 TYR         0.1390
     76 C           7.7980  -13.1860   35.4810 C.2       1 TYR         0.2057
     77 O           7.7450  -11.9710   35.3300 O.2       1 TYR        -0.3942
     78 CB          9.4310  -14.5660   34.0530 C.3       1 TYR         0.0163
     79 CG          8.8600  -13.8210   32.8620 C.ar      1 TYR        -0.0493
     80 CD1         9.4740  -12.6740   32.3700 C.ar      1 TYR        -0.0685
     81 CD2         7.6880  -14.2500   32.2440 C.ar      1 TYR        -0.0685
     82 CE1         8.9470  -11.9790   31.2850 C.ar      1 TYR        -0.0398
     83 CE2         7.1400  -13.5530   31.1710 C.ar      1 TYR        -0.0398
     84 CZ          7.7810  -12.4250   30.6840 C.ar      1 TYR         0.0805
     85 OH          7.2570  -11.7390   29.6130 O.3       1 TYR        -0.3376
     86 N           6.6940  -13.9480   35.7170 N.am      1 LEU        -0.2636
     87 CA          5.3240  -13.4030   35.8020 C.3       1 LEU         0.1312
     88 C           5.1350  -12.3880   36.9390 C.2       1 LEU         0.2040
     89 O           4.3990  -11.4200   36.7580 O.2       1 LEU        -0.3944
     90 CB          4.2370  -14.5040   35.8870 C.3       1 LEU        -0.0101
     91 CG          4.1130  -15.5300   34.7270 C.3       1 LEU        -0.0425
     92 CD1         3.1750  -16.6460   35.0940 C.3       1 LEU        -0.0625
     93 CD2         3.6320  -14.8910   33.4380 C.3       1 LEU        -0.0625
     94 N           5.7840  -12.6070   38.1020 N.am      1 ASP        -0.2622
     95 CA          5.7000  -11.7040   39.2640 C.3       1 ASP         0.1423
     96 C           6.4430  -10.3990   39.0090 C.2       1 ASP         0.2057
     97 O           5.9680   -9.3260   39.3880 O.2       1 ASP        -0.3943
     98 CB          6.2350  -12.3840   40.5390 C.3       1 ASP         0.0406
     99 CG          5.3790  -13.5450   41.0280 C.2       1 ASP         0.0393
    100 OD1         4.1400  -13.5310   40.7670 O.co2     1 ASP        -0.5688
    101 OD2         5.9370  -14.4560   41.6920 O.co2     1 ASP        -0.5688
    102 N           7.5960  -10.5120   38.3420 N.am      1 TRP        -0.2626
    103 CA          8.4880   -9.4460   37.9410 C.3       1 TRP         0.1352
    104 C           7.8590   -8.5380   36.8800 C.2       1 TRP         0.2052
    105 O           7.9600   -7.3060   36.9860 O.2       1 TRP        -0.3942
    106 CB          9.7750  -10.0800   37.3800 C.3       1 TRP         0.0042
    107 CG         10.7740   -9.0950   36.8490 C.2       1 TRP        -0.0418
    108 CD1        10.7800   -8.5200   35.6140 C.2       1 TRP         0.0167
    109 CD2        11.9500   -8.6160   37.5200 C.ar      1 TRP        -0.0214
    110 NE1        11.8530   -7.6680   35.4910 N.pl3     1 TRP        -0.2890
    111 CE2        12.6010   -7.7230   36.6380 C.ar      1 TRP         0.0603
    112 CE3        12.5300   -8.8710   38.7780 C.ar      1 TRP        -0.0747
    113 CZ2        13.7980   -7.0810   36.9710 C.ar      1 TRP        -0.0443
    114 CZ3        13.7110   -8.2250   39.1080 C.ar      1 TRP        -0.0792
    115 CH2        14.3330   -7.3450   38.2100 C.ar      1 TRP        -0.0768
    116 N           7.3050   -9.1470   35.8090 N.am      1 VAL        -0.2634
    117 CA          6.7760   -8.4300   34.6470 C.3       1 VAL         0.1329
    118 C           5.4120   -7.7870   34.9180 C.2       1 VAL         0.1994
    119 O           4.6580   -8.2560   35.7750 O.2       1 VAL        -0.3947
    120 CB          6.7780   -9.3520   33.4010 C.3       1 VAL        -0.0063
    121 CG1         5.6560  -10.3910   33.4480 C.3       1 VAL        -0.0584
    122 CG2         6.7510   -8.5520   32.1040 C.3       1 VAL        -0.0584
    123 N           5.1880   -6.6050   34.3280 N.am      1 NH2        -0.2990
    124 H1         18.8409   -8.4669   31.3887 H         1 ACE         0.0467
    125 H2         19.6051   -9.7726   30.4204 H         1 ACE         0.0467
    126 H3         20.6202   -8.7060   31.4493 H         1 ACE         0.0467
    127 H4         17.8342   -9.1625   33.0894 H         1 THR         0.1883
    128 H5         18.9182  -10.8389   35.1540 H         1 THR         0.0826
    129 H6         15.9625  -10.2767   34.6244 H         1 THR         0.0639
    130 H7         16.3196   -8.3622   35.8807 H         1 THR         0.2101
    131 H8         15.7451  -10.3088   37.0793 H         1 THR         0.0257
    132 H9         17.4907  -10.7070   37.2239 H         1 THR         0.0257
    133 H10        16.3681  -11.8643   36.4321 H         1 THR         0.0257
    134 H11        18.7808  -13.0073   35.4530 H         1 VAL         0.1883
    135 H12        17.2490  -14.5796   33.4401 H         1 VAL         0.0802
    136 H13        19.5924  -15.4063   35.2062 H         1 VAL         0.0343
    137 H14        19.4912  -17.5769   34.0225 H         1 VAL         0.0234
    138 H15        17.9819  -17.0531   33.2014 H         1 VAL         0.0234
    139 H16        18.0068  -17.2656   34.9849 H         1 VAL         0.0234
    140 H17        20.1883  -13.9997   33.2494 H         1 VAL         0.0234
    141 H18        19.3457  -15.1612   32.1690 H         1 VAL         0.0234
    142 H19        20.8003  -15.6806   33.0862 H         1 VAL         0.0234
    143 H20        15.3747  -15.3576   34.1202 H         1 PHE         0.1885
    144 H21        14.7054  -15.3279   36.9950 H         1 PHE         0.0823
    145 H22        12.4109  -15.7138   36.2891 H         1 PHE         0.0474
    146 H23        12.9412  -16.0470   34.6055 H         1 PHE         0.0474
    147 H24        12.8996  -13.3576   37.2311 H         1 PHE         0.0557
    148 H25        13.1633  -14.2699   33.0600 H         1 PHE         0.0557
    149 H26        12.7880  -10.9439   36.6913 H         1 PHE         0.0599
    150 H27        13.0478  -11.8566   32.5286 H         1 PHE         0.0599
    151 H28        12.8467  -10.1982   34.3443 H         1 PHE         0.0559
    152 H29        14.3610  -17.1818   38.2414 H         1 THR         0.1884
    153 H30        15.5968  -19.6079   37.2078 H         1 THR         0.0826
    154 H31        15.3662  -20.5001   39.4899 H         1 THR         0.0639
    155 H32        14.0942  -18.0043   40.0190 H         1 THR         0.2101
    156 H33        16.8626  -18.9149   40.6513 H         1 THR         0.0257
    157 H34        16.5064  -17.6678   39.4086 H         1 THR         0.0257
    158 H35        17.3634  -19.1772   38.9463 H         1 THR         0.0257
    159 H36        12.4321  -18.4291   37.1936 H         1 SER         0.1884
    160 H37        11.3921  -20.9869   36.2259 H         1 SER         0.0823
    161 H38        11.1338  -21.1431   38.7261 H         1 SER         0.0606
    162 H39         9.5871  -21.2044   37.8147 H         1 SER         0.0606
    163 H40         9.4924  -19.8189   39.6524 H         1 SER         0.2097
    164 H41         9.0422  -20.6726   35.5250 H         1 TRP         0.1884
    165 H42         8.8049  -18.2499   33.9746 H         1 TRP         0.0815
    166 H43         6.7623  -20.4544   34.4966 H         1 TRP         0.0397
    167 H44         7.9684  -20.4233   33.1658 H         1 TRP         0.0397
    168 H45         4.4368  -19.5399   33.8712 H         1 TRP         0.0795
    169 H46         3.4365  -18.0162   32.0218 H         1 TRP         0.2216
    170 H47         8.8042  -18.2943   31.4894 H         1 TRP         0.0540
    171 H48         4.4199  -16.5972   29.7736 H         1 TRP         0.0541
    172 H49         8.6943  -16.8622   29.4807 H         1 TRP         0.0510
    173 H50         6.5340  -16.0412   28.6279 H         1 TRP         0.0530
    174 H51         7.4211  -19.4441   37.0049 H         1 GLU         0.1883
    175 H52         5.4020  -17.4730   37.4246 H         1 GLU         0.0801
    176 H53         5.6456  -18.0766   39.8535 H         1 GLU         0.0330
    177 H54         7.0465  -19.1096   39.4099 H         1 GLU         0.0330
    178 H55         5.7400  -20.6903   38.3779 H         1 GLU         0.0433
    179 H56         4.4132  -19.5300   38.0315 H         1 GLU         0.0433
    180 H57         8.8869  -17.6366   38.3958 H         1 GLU         0.1883
    181 H58         9.0835  -15.2201   39.8059 H         1 GLU         0.0801
    182 H59        11.3581  -16.1218   38.0335 H         1 GLU         0.0330
    183 H60        10.8569  -17.1098   39.4475 H         1 GLU         0.0330
    184 H61        11.1536  -15.2042   40.9236 H         1 GLU         0.0433
    185 H62        11.5656  -14.1560   39.5242 H         1 GLU         0.0433
    186 H63         9.5011  -15.7859   36.2870 H         1 TYR         0.1885
    187 H64         9.9477  -13.0901   35.5358 H         1 TYR         0.0821
    188 H65         8.9723  -15.5653   34.0859 H         1 TYR         0.0453
    189 H66        10.5169  -14.6655   33.9082 H         1 TYR         0.0453
    190 H67        10.3815  -12.3139   32.8411 H         1 TYR         0.0530
    191 H68         7.1930  -15.1440   32.6056 H         1 TYR         0.0530
    192 H69         9.4469  -11.0925   30.9119 H         1 TYR         0.0525
    193 H70         6.2152  -13.8913   30.7179 H         1 TYR         0.0525
    194 H71         7.8153  -10.9979   29.4093 H         1 TYR         0.2458
    195 H72         6.8182  -14.9326   35.8397 H         1 LEU         0.1883
    196 H73         5.1529  -12.8592   34.8613 H         1 LEU         0.0800
    197 H74         3.2664  -13.9932   35.9708 H         1 LEU         0.0315
    198 H75         4.4300  -15.0776   36.8055 H         1 LEU         0.0315
    199 H76         5.1107  -15.9570   34.5477 H         1 LEU         0.0298
    200 H77         3.1055  -17.3567   34.2573 H         1 LEU         0.0232
    201 H78         2.1784  -16.2322   35.3073 H         1 LEU         0.0232
    202 H79         3.5547  -17.1658   35.9859 H         1 LEU         0.0232
    203 H80         4.3113  -14.0720   33.1590 H         1 LEU         0.0232
    204 H81         2.6171  -14.4923   33.5828 H         1 LEU         0.0232
    205 H82         3.6189  -15.6452   32.6374 H         1 LEU         0.0232
    206 H83         6.3525  -13.4260   38.1795 H         1 ASP         0.1884
    207 H84         4.6389  -11.4639   39.4267 H         1 ASP         0.0819
    208 H85         6.2843  -11.6300   41.3384 H         1 ASP         0.0478
    209 H86         7.2460  -12.7637   40.3302 H         1 ASP         0.0478
    210 H87         7.8737  -11.4395   38.0916 H         1 TRP         0.1884
    211 H88         8.7350   -8.8372   38.8232 H         1 TRP         0.0815
    212 H89         9.4947  -10.7597   36.5618 H         1 TRP         0.0397
    213 H90        10.2544  -10.6547   38.1862 H         1 TRP         0.0397
    214 H91        10.0415   -8.7078   34.8360 H         1 TRP         0.0795
    215 H92        12.0608   -7.0829   34.6692 H         1 TRP         0.2216
    216 H93        12.0623   -9.5583   39.4737 H         1 TRP         0.0540
    217 H94        14.2847   -6.4023   36.2799 H         1 TRP         0.0541
    218 H95        14.1621   -8.4030   40.0775 H         1 TRP         0.0510
    219 H96        15.2586   -6.8609   38.5000 H         1 TRP         0.0530
    220 H97         7.2531  -10.1457   35.8098 H         1 VAL         0.1883
    221 H98         7.4717   -7.6048   34.4349 H         1 VAL         0.0802
    222 H99         7.7278   -9.9066   33.4161 H         1 VAL         0.0343
    223 H100        5.6994  -11.0186   32.5456 H         1 VAL         0.0234
    224 H101        4.6835   -9.8788   33.4919 H         1 VAL         0.0234
    225 H102        5.7784  -11.0227   34.3401 H         1 VAL         0.0234
    226 H103        7.5704   -7.8181   32.1088 H         1 VAL         0.0234
    227 H104        5.7886   -8.0264   32.0173 H         1 VAL         0.0234
    228 H105        6.8747   -9.2340   31.2499 H         1 VAL         0.0234
    229 H106        4.3165   -6.1345   34.4660 H         1 NH2         0.1815
    230 H107        5.8924   -6.1934   33.7497 H         1 NH2         0.1815
@<TRIPOS>BOND
     1    1    2 2  
     2    1    3 1  
     3    1    4 am 
     4    4    5 1  
     5    5    6 1  
     6    5    8 1  
     7    6    7 2  
     8    6   11 am 
     9    8    9 1  
    10    8   10 1  
    11   11   12 1  
    12   12   13 1  
    13   12   15 1  
    14   13   14 2  
    15   13   18 am 
    16   15   16 1  
    17   15   17 1  
    18   18   19 1  
    19   19   20 1  
    20   19   22 1  
    21   20   21 2  
    22   20   29 am 
    23   22   23 1  
    24   23   24 ar 
    25   23   25 ar 
    26   24   26 ar 
    27   25   27 ar 
    28   26   28 ar 
    29   27   28 ar 
    30   29   30 1  
    31   30   31 1  
    32   30   33 1  
    33   31   32 2  
    34   31   36 am 
    35   33   34 1  
    36   33   35 1  
    37   36   37 1  
    38   37   38 1  
    39   37   40 1  
    40   38   39 2  
    41   38   42 am 
    42   40   41 1  
    43   42   43 1  
    44   43   44 1  
    45   43   46 1  
    46   44   45 2  
    47   44   56 am 
    48   46   47 1  
    49   47   48 2  
    50   47   49 1  
    51   48   50 1  
    52   49   51 ar 
    53   49   52 ar 
    54   50   51 1  
    55   51   53 ar 
    56   52   54 ar 
    57   53   55 ar 
    58   54   55 ar 
    59   56   57 1  
    60   57   58 1  
    61   57   60 1  
    62   58   59 2  
    63   58   65 am 
    64   60   61 1  
    65   61   62 1  
    66   62   63 ar 
    67   62   64 ar 
    68   65   66 1  
    69   66   67 1  
    70   66   69 1  
    71   67   68 2  
    72   67   74 am 
    73   69   70 1  
    74   70   71 1  
    75   71   72 ar 
    76   71   73 ar 
    77   74   75 1  
    78   75   76 1  
    79   75   78 1  
    80   76   77 2  
    81   76   86 am 
    82   78   79 1  
    83   79   80 ar 
    84   79   81 ar 
    85   80   82 ar 
    86   81   83 ar 
    87   82   84 ar 
    88   83   84 ar 
    89   84   85 1  
    90   86   87 1  
    91   87   88 1  
    92   87   90 1  
    93   88   89 2  
    94   88   94 am 
    95   90   91 1  
    96   91   92 1  
    97   91   93 1  
    98   94   95 1  
    99   95   96 1  
   100   95   98 1  
   101   96   97 2  
   102   96  102 am 
   103   98   99 1  
   104   99  100 ar 
   105   99  101 ar 
   106  102  103 1  
   107  103  104 1  
   108  103  106 1  
   109  104  105 2  
   110  104  116 am 
   111  106  107 1  
   112  107  108 2  
   113  107  109 1  
   114  108  110 1  
   115  109  111 ar 
   116  109  112 ar 
   117  110  111 1  
   118  111  113 ar 
   119  112  114 ar 
   120  113  115 ar 
   121  114  115 ar 
   122  116  117 1  
   123  117  118 1  
   124  117  120 1  
   125  118  119 2  
   126  118  123 am 
   127  120  121 1  
   128  120  122 1  
   129    3  124 1  
   130    3  125 1  
   131    3  126 1  
   132    4  127 1  
   133    5  128 1  
   134    8  129 1  
   135    9  130 1  
   136   10  131 1  
   137   10  132 1  
   138   10  133 1  
   139   11  134 1  
   140   12  135 1  
   141   15  136 1  
   142   16  137 1  
   143   16  138 1  
   144   16  139 1  
   145   17  140 1  
   146   17  141 1  
   147   17  142 1  
   148   18  143 1  
   149   19  144 1  
   150   22  145 1  
   151   22  146 1  
   152   24  147 1  
   153   25  148 1  
   154   26  149 1  
   155   27  150 1  
   156   28  151 1  
   157   29  152 1  
   158   30  153 1  
   159   33  154 1  
   160   34  155 1  
   161   35  156 1  
   162   35  157 1  
   163   35  158 1  
   164   36  159 1  
   165   37  160 1  
   166   40  161 1  
   167   40  162 1  
   168   41  163 1  
   169   42  164 1  
   170   43  165 1  
   171   46  166 1  
   172   46  167 1  
   173   48  168 1  
   174   50  169 1  
   175   52  170 1  
   176   53  171 1  
   177   54  172 1  
   178   55  173 1  
   179   56  174 1  
   180   57  175 1  
   181   60  176 1  
   182   60  177 1  
   183   61  178 1  
   184   61  179 1  
   185   65  180 1  
   186   66  181 1  
   187   69  182 1  
   188   69  183 1  
   189   70  184 1  
   190   70  185 1  
   191   74  186 1  
   192   75  187 1  
   193   78  188 1  
   194   78  189 1  
   195   80  190 1  
   196   81  191 1  
   197   82  192 1  
   198   83  193 1  
   199   85  194 1  
   200   86  195 1  
   201   87  196 1  
   202   90  197 1  
   203   90  198 1  
   204   91  199 1  
   205   92  200 1  
   206   92  201 1  
   207   92  202 1  
   208   93  203 1  
   209   93  204 1  
   210   93  205 1  
   211   94  206 1  
   212   95  207 1  
   213   98  208 1  
   214   98  209 1  
   215  102  210 1  
   216  103  211 1  
   217  106  212 1  
   218  106  213 1  
   219  108  214 1  
   220  110  215 1  
   221  112  216 1  
   222  113  217 1  
   223  114  218 1  
   224  115  219 1  
   225  116  220 1  
   226  117  221 1  
   227  120  222 1  
   228  121  223 1  
   229  121  224 1  
   230  121  225 1  
   231  122  226 1  
   232  122  227 1  
   233  122  228 1  
   234  123  229 1  
   235  123  230 1  
@<TRIPOS>SUBSTRUCTURE
     1 ACE         1

