5vll_ligand
  -I-interpret- 

231236  0  0  0  0  0  0  0  0999 V2000
   19.4790  -10.1760   32.5310 C   0  0  0  0  0
   20.2850  -11.1070   32.7010 O   0  0  0  0  0
   19.6480   -9.2140   31.3670 C   0  0  0  0  0
   18.4170   -9.9440   33.3120 N   0  0  0  0  0
   18.0510  -10.7680   34.4810 C   0  0  0  0  0
   17.6420  -12.1660   34.0320 C   0  0  0  0  0
   16.8750  -12.3050   33.0860 O   0  0  0  0  0
   16.8610  -10.1350   35.2430 C   0  0  0  0  0
   17.0590   -8.7310   35.4120 O   0  0  0  0  0
   16.5980  -10.8000   36.5880 C   0  0  0  0  0
   18.1370  -13.1860   34.7090 N   0  0  0  0  0
   17.7750  -14.5590   34.4060 C   0  0  0  0  0
   16.8040  -14.9910   35.4950 C   0  0  0  0  0
   17.1320  -14.9000   36.6870 O   0  0  0  0  0
   19.0080  -15.4890   34.2780 C   0  0  0  0  0
   18.5930  -16.9480   34.1100 C   0  0  0  0  0
   19.8980  -15.0520   33.1140 C   0  0  0  0  0
   15.5880  -15.3790   35.0970 N   0  0  0  0  0
   14.5550  -15.8340   36.0300 C   0  0  0  0  0
   14.7170  -17.3360   36.2460 C   0  0  0  0  0
   15.0130  -18.0400   35.2940 O   0  0  0  0  0
   13.1500  -15.4630   35.5140 C   0  0  0  0  0
   13.0290  -13.9880   35.1840 C   0  0  0  0  0
   12.9290  -13.0370   36.1960 C   0  0  0  0  0
   13.0760  -13.5470   33.8630 C   0  0  0  0  0
   12.8660  -11.6730   35.8930 C   0  0  0  0  0
   13.0120  -12.1850   33.5610 C   0  0  0  0  0
   12.9030  -11.2550   34.5790 C   0  0  0  0  0
   14.5920  -17.8200   37.5070 N   0  0  0  0  0
   14.7800  -19.2380   37.8450 C   0  0  0  0  0
   13.5480  -20.0840   37.5060 C   0  0  0  0  0
   13.6330  -21.3180   37.5060 O   0  0  0  0  0
   15.2450  -19.4220   39.3080 C   0  0  0  0  0
   14.2400  -18.9270   40.1920 O   0  0  0  0  0
   16.5890  -18.7480   39.5990 C   0  0  0  0  0
   12.4170  -19.4290   37.1900 N   0  0  0  0  0
   11.1610  -20.1040   36.8400 C   0  0  0  0  0
   10.2740  -19.1610   36.0320 C   0  0  0  0  0
   10.5380  -17.9580   35.9930 O   0  0  0  0  0
   10.4320  -20.5640   38.1080 C   0  0  0  0  0
    9.9330  -19.4800   38.8820 O   0  0  0  0  0
    9.1990  -19.6890   35.4360 N   0  0  0  0  0
    8.2390  -18.8990   34.6590 C   0  0  0  0  0
    7.4160  -18.0190   35.5720 C   0  0  0  0  0
    7.0690  -16.9030   35.1780 O   0  0  0  0  0
    7.3300  -19.8050   33.8140 C   0  0  0  0  0
    6.3500  -19.0690   32.9430 C   0  0  0  0  0
    4.9960  -19.0240   33.0920 C   0  0  0  0  0
    6.6570  -18.2700   31.7900 C   0  0  0  0  0
    4.4390  -18.2330   32.1160 N   0  0  0  0  0
    5.4350  -17.7780   31.2860 C   0  0  0  0  0
    7.8490  -17.9330   31.1260 C   0  0  0  0  0
    5.3680  -16.9680   30.1460 C   0  0  0  0  0
    7.7810  -17.1310   29.9990 C   0  0  0  0  0
    6.5520  -16.6610   29.5170 C   0  0  0  0  0
    7.1130  -18.5160   36.7960 N   0  0  0  0  0
    6.3660  -17.7980   37.8430 C   0  0  0  0  0
    7.1610  -16.5620   38.2730 C   0  0  0  0  0
    6.5760  -15.4770   38.3470 O   0  0  0  0  0
    6.0880  -18.6980   39.0610 C   0  0  0  0  0
    5.1430  -19.8610   38.7850 C   0  0  0  0  0
    4.3690  -20.3890   39.9810 C   0  0  0  0  0
    4.9240  -20.4030   41.1060 O   0  0  0  0  0
    3.2070  -20.8140   39.7840 O   0  0  0  0  0
    8.5020  -16.7180   38.4850 N   0  0  0  0  0
    9.4140  -15.6200   38.8360 C   0  0  0  0  0
    9.3170  -14.4810   37.8150 C   0  0  0  0  0
    9.1190  -13.3290   38.2060 O   0  0  0  0  0
   10.8640  -16.0980   39.0160 C   0  0  0  0  0
   11.6390  -15.1730   39.9370 C   0  0  0  0  0
   13.1080  -15.4780   40.1410 C   0  0  0  0  0
   13.4280  -16.2850   41.0440 O   0  0  0  0  0
   13.9430  -14.8550   39.4470 O   0  0  0  0  0
    9.3520  -14.8240   36.5160 N   0  0  0  0  0
    9.1850  -13.8740   35.4190 C   0  0  0  0  0
    7.7980  -13.1860   35.4810 C   0  0  0  0  0
    7.7450  -11.9710   35.3300 O   0  0  0  0  0
    9.4310  -14.5660   34.0530 C   0  0  0  0  0
    8.8600  -13.8210   32.8620 C   0  0  0  0  0
    9.4740  -12.6740   32.3700 C   0  0  0  0  0
    7.6880  -14.2500   32.2440 C   0  0  0  0  0
    8.9470  -11.9790   31.2850 C   0  0  0  0  0
    7.1400  -13.5530   31.1710 C   0  0  0  0  0
    7.7810  -12.4250   30.6840 C   0  0  0  0  0
    7.2570  -11.7390   29.6130 O   0  0  0  0  0
    6.6940  -13.9480   35.7170 N   0  0  0  0  0
    5.3240  -13.4030   35.8020 C   0  0  0  0  0
    5.1350  -12.3880   36.9390 C   0  0  0  0  0
    4.3990  -11.4200   36.7580 O   0  0  0  0  0
    4.2370  -14.5040   35.8870 C   0  0  0  0  0
    4.1130  -15.5300   34.7270 C   0  0  0  0  0
    3.1750  -16.6460   35.0940 C   0  0  0  0  0
    3.6320  -14.8910   33.4380 C   0  0  0  0  0
    5.7840  -12.6070   38.1020 N   0  0  0  0  0
    5.7000  -11.7040   39.2640 C   0  0  0  0  0
    6.4430  -10.3990   39.0090 C   0  0  0  0  0
    5.9680   -9.3260   39.3880 O   0  0  0  0  0
    6.2350  -12.3840   40.5390 C   0  0  0  0  0
    5.3790  -13.5450   41.0280 C   0  0  0  0  0
    4.1400  -13.5310   40.7670 O   0  0  0  0  0
    5.9370  -14.4560   41.6920 O   0  0  0  0  0
    7.5960  -10.5120   38.3420 N   0  0  0  0  0
    8.4880   -9.4460   37.9410 C   0  0  0  0  0
    7.8590   -8.5380   36.8800 C   0  0  0  0  0
    7.9600   -7.3060   36.9860 O   0  0  0  0  0
    9.7750  -10.0800   37.3800 C   0  0  0  0  0
   10.7740   -9.0950   36.8490 C   0  0  0  0  0
   10.7800   -8.5200   35.6140 C   0  0  0  0  0
   11.9500   -8.6160   37.5200 C   0  0  0  0  0
   11.8530   -7.6680   35.4910 N   0  0  0  0  0
   12.6010   -7.7230   36.6380 C   0  0  0  0  0
   12.5300   -8.8710   38.7780 C   0  0  0  0  0
   13.7980   -7.0810   36.9710 C   0  0  0  0  0
   13.7110   -8.2250   39.1080 C   0  0  0  0  0
   14.3330   -7.3450   38.2100 C   0  0  0  0  0
    7.3050   -9.1470   35.8090 N   0  0  0  0  0
    6.7760   -8.4300   34.6470 C   0  0  0  0  0
    5.4120   -7.7870   34.9180 C   0  0  0  0  0
    4.6580   -8.2560   35.7750 O   0  0  0  0  0
    6.7780   -9.3520   33.4010 C   0  0  0  0  0
    5.6560  -10.3910   33.4480 C   0  0  0  0  0
    6.7510   -8.5520   32.1040 C   0  0  0  0  0
    5.1880   -6.6050   34.3280 N   0  0  0  0  0
   20.6116   -8.7113   31.4497 H   0  0  0  0  0
   19.6054   -9.7688   30.4297 H   0  0  0  0  0
   18.8478   -8.4742   31.3896 H   0  0  0  0  0
   17.8225   -9.1469   33.0849 H   0  0  0  0  0
   18.9205  -10.8229   35.1360 H   0  0  0  0  0
   15.9756  -10.3012   34.6293 H   0  0  0  0  0
   17.2233   -8.3269   34.5568 H   0  0  0  0  0
   17.4524  -10.6380   37.2452 H   0  0  0  0  0
   15.7047  -10.3665   37.0377 H   0  0  0  0  0
   16.4494  -11.8697   36.4401 H   0  0  0  0  0
   18.7937  -13.0037   35.4679 H   0  0  0  0  0
   17.3017  -14.6307   33.4267 H   0  0  0  0  0
   19.5777  -15.4068   35.2036 H   0  0  0  0  0
   18.0123  -17.2614   34.9775 H   0  0  0  0  0
   17.9876  -17.0508   33.2095 H   0  0  0  0  0
   19.4838  -17.5701   34.0235 H   0  0  0  0  0
   19.3273  -15.0939   32.1863 H   0  0  0  0  0
   20.2423  -14.0320   33.2846 H   0  0  0  0  0
   20.7567  -15.7197   33.0443 H   0  0  0  0  0
   15.3705  -15.3572   34.1007 H   0  0  0  0  0
   14.6703  -15.3328   36.9911 H   0  0  0  0  0
   12.4297  -15.6941   36.2987 H   0  0  0  0  0
   12.9642  -16.0299   34.6018 H   0  0  0  0  0
   12.8995  -13.3593   37.2368 H   0  0  0  0  0
   13.1638  -14.2739   33.0556 H   0  0  0  0  0
   12.7876  -10.9398   36.6958 H   0  0  0  0  0
   13.0480  -11.8548   32.5228 H   0  0  0  0  0
   12.8464  -10.1924   34.3430 H   0  0  0  0  0
   14.3564  -17.1691   38.2561 H   0  0  0  0  0
   15.5853  -19.6128   37.2132 H   0  0  0  0  0
   15.3951  -20.4895   39.4692 H   0  0  0  0  0
   14.5295  -19.0416   41.1001 H   0  0  0  0  0
   17.3554  -19.1741   38.9516 H   0  0  0  0  0
   16.5058  -17.6778   39.4099 H   0  0  0  0  0
   16.8590  -18.9141   40.6419 H   0  0  0  0  0
   12.4324  -18.4091   37.1936 H   0  0  0  0  0
   11.3881  -20.9818   36.2351 H   0  0  0  0  0
   11.1460  -21.1119   38.7229 H   0  0  0  0  0
    9.5822  -21.1738   37.8014 H   0  0  0  0  0
    9.4878  -19.8224   39.6605 H   0  0  0  0  0
    9.0391  -20.6923   35.5268 H   0  0  0  0  0
    8.8010  -18.2609   33.9769 H   0  0  0  0  0
    6.7471  -20.4090   34.5094 H   0  0  0  0  0
    7.9785  -20.3773   33.1506 H   0  0  0  0  0
    4.4363  -19.5403   33.8719 H   0  0  0  0  0
    8.8095  -18.2963   31.4914 H   0  0  0  0  0
    4.4146  -16.5952   29.7715 H   0  0  0  0  0
    8.6994  -16.8607   29.4779 H   0  0  0  0  0
    6.5339  -16.0377   28.6230 H   0  0  0  0  0
    7.4273  -19.4627   37.0091 H   0  0  0  0  0
    5.4027  -17.4964   37.4317 H   0  0  0  0  0
    5.6126  -18.0733   39.8172 H   0  0  0  0  0
    7.0426  -19.1278   39.3644 H   0  0  0  0  0
    5.7655  -20.6847   38.4355 H   0  0  0  0  0
    4.3998  -19.4904   38.0790 H   0  0  0  0  0
    5.8066  -20.0329   41.0308 H   0  0  0  0  0
    8.8946  -17.6550   38.3940 H   0  0  0  0  0
    9.0952  -15.2332   39.8039 H   0  0  0  0  0
   11.3509  -16.1046   38.0408 H   0  0  0  0  0
   10.8487  -17.0945   39.4575 H   0  0  0  0  0
   11.1753  -15.2735   40.9183 H   0  0  0  0  0
   11.6016  -14.1888   39.4701 H   0  0  0  0  0
   12.6340  -16.6459   41.4452 H   0  0  0  0  0
    9.5041  -15.8052   36.2824 H   0  0  0  0  0
    9.9335  -13.0890   35.5270 H   0  0  0  0  0
    8.9349  -15.5358   34.0916 H   0  0  0  0  0
   10.5104  -14.6180   33.9104 H   0  0  0  0  0
   10.3865  -12.3119   32.8437 H   0  0  0  0  0
    7.1902  -15.1490   32.6076 H   0  0  0  0  0
    9.4496  -11.0876   30.9098 H   0  0  0  0  0
    6.2100  -13.8932   30.7154 H   0  0  0  0  0
    6.4549  -12.1752   29.3165 H   0  0  0  0  0
    6.8207  -14.9523   35.8422 H   0  0  0  0  0
    5.1925  -12.8689   34.8610 H   0  0  0  0  0
    3.2899  -13.9645   35.8875 H   0  0  0  0  0
    4.5065  -15.0982   36.7602 H   0  0  0  0  0
    5.1156  -15.9250   34.5628 H   0  0  0  0  0
    3.5524  -17.1602   35.9779 H   0  0  0  0  0
    2.1879  -16.2346   35.3051 H   0  0  0  0  0
    3.1070  -17.3495   34.2642 H   0  0  0  0  0
    2.6508  -14.4445   33.5994 H   0  0  0  0  0
    4.3378  -14.1191   33.1312 H   0  0  0  0  0
    3.5630  -15.6518   32.6605 H   0  0  0  0  0
    6.3639  -13.4424   38.1811 H   0  0  0  0  0
    4.6460  -11.4710   39.4156 H   0  0  0  0  0
    6.2411  -11.6321   41.3281 H   0  0  0  0  0
    7.2200  -12.7861   40.3019 H   0  0  0  0  0
    3.9315  -12.7483   40.2517 H   0  0  0  0  0
    7.8792  -11.4580   38.0866 H   0  0  0  0  0
    8.7021   -8.8258   38.8114 H   0  0  0  0  0
    9.4796  -10.7158   36.5454 H   0  0  0  0  0
   10.2552  -10.6085   38.2035 H   0  0  0  0  0
   10.0409   -8.7080   34.8353 H   0  0  0  0  0
   12.0598   -9.5621   39.4775 H   0  0  0  0  0
   14.2874   -6.3985   36.2761 H   0  0  0  0  0
   14.1646   -8.4040   40.0828 H   0  0  0  0  0
   15.2637   -6.8583   38.5016 H   0  0  0  0  0
    7.2521  -10.1656   35.8098 H   0  0  0  0  0
    7.4410   -7.5923   34.4371 H   0  0  0  0  0
    7.7184   -9.9027   33.4215 H   0  0  0  0  0
    5.7784  -11.0162   34.3324 H   0  0  0  0  0
    4.6930   -9.8822   33.4915 H   0  0  0  0  0
    5.7001  -11.0122   32.5534 H   0  0  0  0  0
    5.8500   -7.9392   32.0753 H   0  0  0  0  0
    7.6304   -7.9098   32.0564 H   0  0  0  0  0
    6.7533   -9.2369   31.2561 H   0  0  0  0  0
    4.3676   -6.0551   34.5828 H   0  0  0  0  0
    5.8379   -6.2551   33.6240 H   0  0  0  0  0
  1  2  2  0  0  0
  1  3  1  0  0  0
  1  4  1  0  0  0
  4  5  1  0  0  0
  5  6  1  0  0  0
  5  8  1  0  0  0
  6  7  2  0  0  0
  6 11  1  0  0  0
  8  9  1  0  0  0
  8 10  1  0  0  0
 11 12  1  0  0  0
 12 13  1  0  0  0
 12 15  1  0  0  0
 13 14  2  0  0  0
 13 18  1  0  0  0
 15 16  1  0  0  0
 15 17  1  0  0  0
 18 19  1  0  0  0
 19 20  1  0  0  0
 19 22  1  0  0  0
 20 21  2  0  0  0
 20 29  1  0  0  0
 22 23  1  0  0  0
 23 24  4  0  0  0
 23 25  4  0  0  0
 24 26  4  0  0  0
 25 27  4  0  0  0
 26 28  4  0  0  0
 27 28  4  0  0  0
 29 30  1  0  0  0
 30 31  1  0  0  0
 30 33  1  0  0  0
 31 32  2  0  0  0
 31 36  1  0  0  0
 33 34  1  0  0  0
 33 35  1  0  0  0
 36 37  1  0  0  0
 37 38  1  0  0  0
 37 40  1  0  0  0
 38 39  2  0  0  0
 38 42  1  0  0  0
 40 41  1  0  0  0
 42 43  1  0  0  0
 43 44  1  0  0  0
 43 46  1  0  0  0
 44 45  2  0  0  0
 44 56  1  0  0  0
 46 47  1  0  0  0
 47 48  4  0  0  0
 47 49  4  0  0  0
 48 50  4  0  0  0
 49 51  4  0  0  0
 49 52  4  0  0  0
 50 51  4  0  0  0
 51 53  4  0  0  0
 52 54  4  0  0  0
 53 55  4  0  0  0
 54 55  4  0  0  0
 56 57  1  0  0  0
 57 58  1  0  0  0
 57 60  1  0  0  0
 58 59  2  0  0  0
 58 65  1  0  0  0
 60 61  1  0  0  0
 61 62  1  0  0  0
 62 63  1  0  0  0
 62 64  2  0  0  0
 65 66  1  0  0  0
 66 67  1  0  0  0
 66 69  1  0  0  0
 67 68  2  0  0  0
 67 74  1  0  0  0
 69 70  1  0  0  0
 70 71  1  0  0  0
 71 72  1  0  0  0
 71 73  2  0  0  0
 74 75  1  0  0  0
 75 76  1  0  0  0
 75 78  1  0  0  0
 76 77  2  0  0  0
 76 86  1  0  0  0
 78 79  1  0  0  0
 79 80  4  0  0  0
 79 81  4  0  0  0
 80 82  4  0  0  0
 81 83  4  0  0  0
 82 84  4  0  0  0
 83 84  4  0  0  0
 84 85  1  0  0  0
 86 87  1  0  0  0
 87 88  1  0  0  0
 87 90  1  0  0  0
 88 89  2  0  0  0
 88 94  1  0  0  0
 90 91  1  0  0  0
 91 92  1  0  0  0
 91 93  1  0  0  0
 94 95  1  0  0  0
 95 96  1  0  0  0
 95 98  1  0  0  0
 96 97  2  0  0  0
 96102  1  0  0  0
 98 99  1  0  0  0
 99100  1  0  0  0
 99101  2  0  0  0
102103  1  0  0  0
103104  1  0  0  0
103106  1  0  0  0
104105  2  0  0  0
104116  1  0  0  0
106107  1  0  0  0
107108  4  0  0  0
107109  4  0  0  0
108110  4  0  0  0
109111  4  0  0  0
109112  4  0  0  0
110111  4  0  0  0
111113  4  0  0  0
112114  4  0  0  0
113115  4  0  0  0
114115  4  0  0  0
116117  1  0  0  0
117118  1  0  0  0
117120  1  0  0  0
118119  2  0  0  0
118123  1  0  0  0
120121  1  0  0  0
120122  1  0  0  0
  3124  1  0  0  0
  3125  1  0  0  0
  3126  1  0  0  0
  4127  1  0  0  0
  5128  1  0  0  0
  8129  1  0  0  0
  9130  1  0  0  0
 10131  1  0  0  0
 10132  1  0  0  0
 10133  1  0  0  0
 11134  1  0  0  0
 12135  1  0  0  0
 15136  1  0  0  0
 16137  1  0  0  0
 16138  1  0  0  0
 16139  1  0  0  0
 17140  1  0  0  0
 17141  1  0  0  0
 17142  1  0  0  0
 18143  1  0  0  0
 19144  1  0  0  0
 22145  1  0  0  0
 22146  1  0  0  0
 24147  1  0  0  0
 25148  1  0  0  0
 26149  1  0  0  0
 27150  1  0  0  0
 28151  1  0  0  0
 29152  1  0  0  0
 30153  1  0  0  0
 33154  1  0  0  0
 34155  1  0  0  0
 35156  1  0  0  0
 35157  1  0  0  0
 35158  1  0  0  0
 36159  1  0  0  0
 37160  1  0  0  0
 40161  1  0  0  0
 40162  1  0  0  0
 41163  1  0  0  0
 42164  1  0  0  0
 43165  1  0  0  0
 46166  1  0  0  0
 46167  1  0  0  0
 48168  1  0  0  0
 52169  1  0  0  0
 53170  1  0  0  0
 54171  1  0  0  0
 55172  1  0  0  0
 56173  1  0  0  0
 57174  1  0  0  0
 60175  1  0  0  0
 60176  1  0  0  0
 61177  1  0  0  0
 61178  1  0  0  0
 63179  1  0  0  0
 65180  1  0  0  0
 66181  1  0  0  0
 69182  1  0  0  0
 69183  1  0  0  0
 70184  1  0  0  0
 70185  1  0  0  0
 72186  1  0  0  0
 74187  1  0  0  0
 75188  1  0  0  0
 78189  1  0  0  0
 78190  1  0  0  0
 80191  1  0  0  0
 81192  1  0  0  0
 82193  1  0  0  0
 83194  1  0  0  0
 85195  1  0  0  0
 86196  1  0  0  0
 87197  1  0  0  0
 90198  1  0  0  0
 90199  1  0  0  0
 91200  1  0  0  0
 92201  1  0  0  0
 92202  1  0  0  0
 92203  1  0  0  0
 93204  1  0  0  0
 93205  1  0  0  0
 93206  1  0  0  0
 94207  1  0  0  0
 95208  1  0  0  0
 98209  1  0  0  0
 98210  1  0  0  0
100211  1  0  0  0
102212  1  0  0  0
103213  1  0  0  0
106214  1  0  0  0
106215  1  0  0  0
108216  1  0  0  0
112217  1  0  0  0
113218  1  0  0  0
114219  1  0  0  0
115220  1  0  0  0
116221  1  0  0  0
117222  1  0  0  0
120223  1  0  0  0
121224  1  0  0  0
121225  1  0  0  0
121226  1  0  0  0
122227  1  0  0  0
122228  1  0  0  0
122229  1  0  0  0
123230  1  0  0  0
123231  1  0  0  0
M  END
$$$$
