1onh_ligand
  -I-interpret- 

 34 36  0  0  0  0  0  0  0  0999 V2000
   21.1470   21.6840    6.6230 S   0  0  0  0  0
   20.1030   22.4350    5.3830 C   0  0  0  0  0
   19.2750   21.6670    4.6560 C   0  0  0  0  0
   19.2190   20.2710    4.8640 N   0  0  0  0  0
   18.8790   19.4950    5.9510 C   0  0  0  0  0
   19.2840   19.7610    7.2160 C   0  0  0  0  0
   19.2270   18.6840    8.1520 C   0  0  0  0  0
   19.2360   18.7880    9.3680 O   0  0  0  0  0
   18.4710   22.2020    3.6040 C   0  0  0  0  0
   17.8390   21.4540    2.8540 O   0  0  0  0  0
   18.4490   23.5210    3.4430 O   0  0  0  0  0
   19.8670   21.0310    7.7230 C   0  0  0  0  0
   18.8590   22.1280    8.0660 C   0  0  0  0  0
   19.0470   23.1480    8.9180 N   0  0  0  0  0
   17.9420   23.8420    8.9700 C   0  0  0  0  0
   17.0150   23.2960    8.1190 N   0  0  0  0  0
   17.5980   22.2210    7.5350 C   0  0  0  0  0
   17.6240   25.0450    9.8010 C   0  0  0  0  0
   16.1860   25.2310    9.8050 O   0  0  0  0  0
   15.6130   25.2590    8.4790 C   0  0  0  0  0
   15.6330   23.8000    7.9390 C   0  0  0  0  0
   20.7981   22.8547    4.6558 H   0  0  0  0  0
   19.4428   23.0968    5.9436 H   0  0  0  0  0
   18.2505   18.6203    5.7839 H   0  0  0  0  0
   19.1702   17.6755    7.7424 H   0  0  0  0  0
   18.9959   23.9335    4.1156 H   0  0  0  0  0
   20.3175   20.7377    8.6712 H   0  0  0  0  0
   17.1528   21.5609    6.7906 H   0  0  0  0  0
   18.1130   25.9258    9.3848 H   0  0  0  0  0
   17.9844   24.9007   10.8195 H   0  0  0  0  0
   16.1862   25.9178    7.8267 H   0  0  0  0  0
   14.5935   25.6434    8.5092 H   0  0  0  0  0
   14.9198   23.1771    8.4788 H   0  0  0  0  0
   15.3437   23.7715    6.8885 H   0  0  0  0  0
  1  2  1  0  0  0
  1 12  1  0  0  0
  2  3  1  0  0  0
  3  4  2  0  0  0
  3  9  1  0  0  0
  4  5  1  0  0  0
  5  6  2  0  0  0
  6  7  1  0  0  0
  6 12  1  0  0  0
  7  8  2  0  0  0
  9 10  2  0  0  0
  9 11  1  0  0  0
 12 13  1  0  0  0
 13 14  4  0  0  0
 13 17  4  0  0  0
 14 15  4  0  0  0
 15 16  4  0  0  0
 15 18  1  0  0  0
 16 17  4  0  0  0
 16 21  1  0  0  0
 18 19  1  0  0  0
 19 20  1  0  0  0
 20 21  1  0  0  0
  2 22  1  0  0  0
  2 23  1  0  0  0
  5 24  1  0  0  0
  7 25  1  0  0  0
 11 26  1  0  0  0
 12 27  1  0  0  0
 17 28  1  0  0  0
 18 29  1  0  0  0
 18 30  1  0  0  0
 20 31  1  0  0  0
 20 32  1  0  0  0
 21 33  1  0  0  0
 21 34  1  0  0  0
M  END
$$$$
