### 
### Created by X-TOOL on Mon Sep 10 21:13:27 2018
### 

@<TRIPOS>MOLECULE
5hff_ligand
  124   125     1     0     0
SMALL
GAST_HUCK


@<TRIPOS>ATOM
      1 N          39.9700   42.3320   23.2570 N.4       1 LYS         0.2377
      2 CA         39.4510   41.8150   24.5350 C.3       1 LYS         0.0621
      3 C          38.1210   42.4590   24.9110 C.2       1 LYS         0.2264
      4 O          37.7760   42.6040   26.0730 O.2       1 LYS        -0.3907
      5 CB         40.4790   42.0850   25.6350 C.3       1 LYS        -0.0040
      6 N          37.3840   42.8480   23.8980 N.am      1 ASN        -0.2613
      7 CA         36.2010   43.6550   24.0650 C.3       1 ASN         0.1283
      8 C          36.5700   45.0830   24.4470 C.2       1 ASN         0.2037
      9 O          35.7170   45.8700   24.7710 O.2       1 ASN        -0.3944
     10 CB         35.2960   43.0740   25.1130 C.3       1 ASN        -0.0244
     11 N          37.8530   45.3810   24.3460 N.am      1 TYR        -0.2621
     12 CA         38.3800   46.6650   24.7000 C.3       1 TYR         0.1390
     13 C          38.0880   47.6180   23.5670 C.2       1 TYR         0.2057
     14 O          38.1340   47.2430   22.4360 O.2       1 TYR        -0.3942
     15 CB         39.8570   46.5410   25.0120 C.3       1 TYR         0.0163
     16 CG         40.7780   47.5750   24.4320 C.ar      1 TYR        -0.0493
     17 CD1        41.2620   47.4520   23.1700 C.ar      1 TYR        -0.0685
     18 CD2        41.1070   48.6790   25.1410 C.ar      1 TYR        -0.0685
     19 CE1        42.1060   48.3900   22.6440 C.ar      1 TYR        -0.0398
     20 CE2        41.9470   49.6150   24.6320 C.ar      1 TYR        -0.0398
     21 CZ         42.4610   49.4580   23.3860 C.ar      1 TYR         0.0805
     22 OH         43.2470   50.3980   22.9350 O.3       1 TYR        -0.3376
     23 N          37.8670   48.8700   23.9080 N.am      1 LYS        -0.2636
     24 CA         37.7180   49.9250   22.9000 C.3       1 LYS         0.1310
     25 C          38.4230   51.1740   23.3920 C.2       1 LYS         0.2039
     26 O          38.4290   51.4320   24.5990 O.2       1 LYS        -0.3944
     27 CB         36.2420   50.2290   22.6380 C.3       1 LYS        -0.0126
     28 CG         35.4370   49.0800   22.1600 C.3       1 LYS        -0.0517
     29 CD         35.5660   48.9070   20.6450 C.3       1 LYS        -0.0651
     30 N          39.0350   51.9330   22.4800 N.am      1 GLN        -0.2636
     31 CA         39.6480   53.2160   22.8390 C.3       1 GLN         0.1330
     32 C          39.2540   54.3130   21.8440 C.2       1 GLN         0.2042
     33 O          39.2460   54.0930   20.6230 O.2       1 GLN        -0.3944
     34 CB         41.1820   53.0800   22.9270 C.3       1 GLN         0.0045
     35 CG         41.8780   54.3650   23.3510 C.3       1 GLN         0.0412
     36 CD         43.2980   54.1730   23.8920 C.2       1 GLN         0.1737
     37 OE1        43.9890   55.1590   24.1970 O.2       1 GLN        -0.3973
     38 NE2        43.7860   52.9240   23.8960 N.am      1 GLN        -0.3009
     39 N          38.8930   55.4760   22.3850 N.am      1 PHE        -0.2619
     40 CA         38.3820   56.6250   21.6140 C.3       1 PHE         0.1404
     41 C          39.0760   57.9130   22.0130 C.2       1 PHE         0.2060
     42 O          39.3490   58.1570   23.1710 O.2       1 PHE        -0.3942
     43 CB         36.8730   56.8280   21.8290 C.3       1 PHE         0.0214
     44 CG         36.0380   55.7290   21.2660 C.ar      1 PHE        -0.0386
     45 CD1        35.6060   55.7930   19.9700 C.ar      1 PHE        -0.0601
     46 CD2        35.6980   54.6280   22.0280 C.ar      1 PHE        -0.0601
     47 CE1        34.8430   54.7690   19.4160 C.ar      1 PHE        -0.0686
     48 CE2        34.9240   53.6010   21.4860 C.ar      1 PHE        -0.0686
     49 CZ         34.5040   53.6770   20.1840 C.ar      1 PHE        -0.0687
     50 N          39.3290   58.7580   21.0170 N.am      1 SER        -0.2614
     51 CA         39.8040   60.1150   21.2510 C.3       1 SER         0.1539
     52 C          38.5970   61.0220   21.4050 C.2       1 SER         0.2056
     53 O          37.6420   60.9500   20.6180 O.2       1 SER        -0.3943
     54 CB         40.6650   60.5950   20.0710 C.3       1 SER         0.0843
     55 OG         41.7930   59.7760   19.8760 O.3       1 SER        -0.3903
     56 N          38.6120   61.8760   22.4150 N.am      1 VAL        -0.2692
     57 CA         37.5400   62.8240   22.6010 C.3       1 VAL         0.0967
     58 C          38.1180   64.2530   22.7110 C.2       1 VAL         0.0603
     59 O          37.3270   65.2060   22.7100 O.co2     1 VAL        -0.5666
     60 CB         36.6650   62.4610   23.8330 C.3       1 VAL        -0.0118
     61 CG1        36.0290   61.0880   23.6930 C.3       1 VAL        -0.0590
     62 CG2        37.4840   62.4810   25.0880 C.3       1 VAL        -0.0590
     63 OXT        39.3370   64.5210   22.7820 O.co2     1 VAL        -0.5666
     64 H1         40.8472   41.8832   23.0444 H         1 LYS         0.2015
     65 H2         40.1108   43.3275   23.3296 H         1 LYS         0.2015
     66 H3         39.3072   42.1391   22.5225 H         1 LYS         0.2015
     67 H4         39.3002   40.7295   24.4406 H         1 LYS         0.1095
     68 H5         40.0993   41.7019   26.5937 H         1 LYS         0.0310
     69 H6         40.6533   43.1681   25.7162 H         1 LYS         0.0310
     70 H7         41.4236   41.5792   25.3863 H         1 LYS         0.0310
     71 H8         37.6530   42.5743   22.9745 H         1 ASN         0.1884
     72 H9         35.6595   43.6765   23.1078 H         1 ASN         0.0797
     73 H10        34.4036   43.7083   25.2194 H         1 ASN         0.0277
     74 H11        35.8297   43.0279   26.0737 H         1 ASN         0.0277
     75 H12        34.9917   42.0602   24.8136 H         1 ASN         0.0277
     76 H13        38.4824   44.6811   24.0084 H         1 TYR         0.1885
     77 H14        37.8684   47.0297   25.6029 H         1 TYR         0.0821
     78 H15        40.1902   45.5595   24.6436 H         1 TYR         0.0453
     79 H16        39.9668   46.5787   26.1058 H         1 TYR         0.0453
     80 H17        40.9748   46.5964   22.5696 H         1 TYR         0.0530
     81 H18        40.6924   48.8183   26.1329 H         1 TYR         0.0530
     82 H19        42.4876   48.2756   21.6359 H         1 TYR         0.0525
     83 H20        42.2073   50.4875   25.2202 H         1 TYR         0.0525
     84 H21        43.5387   50.1723   22.0596 H         1 TYR         0.2458
     85 H22        37.7991   49.1074   24.8770 H         1 LYS         0.1883
     86 H23        38.1836   49.5919   21.9607 H         1 LYS         0.0800
     87 H24        36.1875   51.0224   21.8781 H         1 LYS         0.0312
     88 H25        35.7967   50.5894   23.5770 H         1 LYS         0.0312
     89 H26        34.3804   49.2520   22.4129 H         1 LYS         0.0265
     90 H27        35.7886   48.1639   22.6571 H         1 LYS         0.0265
     91 H28        34.9590   48.0488   20.3210 H         1 LYS         0.0230
     92 H29        36.6199   48.7298   20.3846 H         1 LYS         0.0230
     93 H30        35.2117   49.8180   20.1404 H         1 LYS         0.0230
     94 H31        39.0763   51.6198   21.5312 H         1 GLN         0.1883
     95 H32        39.2734   53.5067   23.8315 H         1 GLN         0.0801
     96 H33        41.5636   52.7865   21.9379 H         1 GLN         0.0337
     97 H34        41.4213   52.2954   23.6599 H         1 GLN         0.0337
     98 H35        41.2727   54.8396   24.1373 H         1 GLN         0.0504
     99 H36        41.9311   55.0308   22.4770 H         1 GLN         0.0504
    100 H37        44.7086   52.7488   24.2397 H         1 GLN         0.1814
    101 H38        43.2273   52.1678   23.5553 H         1 GLN         0.1814
    102 H39        38.9736   55.5762   23.3767 H         1 PHE         0.1885
    103 H40        38.5685   56.4329   20.5471 H         1 PHE         0.0823
    104 H41        36.5767   57.7716   21.3476 H         1 PHE         0.0474
    105 H42        36.6810   56.8919   22.9102 H         1 PHE         0.0474
    106 H43        35.8619   56.6549   19.3645 H         1 PHE         0.0557
    107 H44        36.0354   54.5612   23.0560 H         1 PHE         0.0557
    108 H45        34.5168   54.8307   18.3841 H         1 PHE         0.0599
    109 H46        34.6555   52.7447   22.0940 H         1 PHE         0.0599
    110 H47        33.9059   52.8790   19.7590 H         1 PHE         0.0559
    111 H48        39.1883   58.4511   20.0757 H         1 SER         0.1884
    112 H49        40.4054   60.1398   22.1717 H         1 SER         0.0823
    113 H50        41.0023   61.6225   20.2719 H         1 SER         0.0606
    114 H51        40.0539   60.5818   19.1565 H         1 SER         0.0606
    115 H52        42.2977   60.1038   19.1409 H         1 SER         0.2097
    116 H53        39.3771   61.8645   23.0588 H         1 VAL         0.1875
    117 H54        36.8945   62.7865   21.7111 H         1 VAL         0.0729
    118 H55        35.8650   63.2111   23.9187 H         1 VAL         0.0336
    119 H56        35.4209   60.8730   24.5841 H         1 VAL         0.0234
    120 H57        36.8172   60.3270   23.5948 H         1 VAL         0.0234
    121 H58        35.3885   61.0700   22.7989 H         1 VAL         0.0234
    122 H59        37.9521   63.4696   25.2046 H         1 VAL         0.0234
    123 H60        38.2661   61.7098   25.0278 H         1 VAL         0.0234
    124 H61        36.8350   62.2784   25.9527 H         1 VAL         0.0234
@<TRIPOS>BOND
     1    1    2 1  
     2    2    3 1  
     3    2    5 1  
     4    3    4 2  
     5    3    6 am 
     6    6    7 1  
     7    7    8 1  
     8    7   10 1  
     9    8    9 2  
    10    8   11 am 
    11   11   12 1  
    12   12   13 1  
    13   12   15 1  
    14   13   14 2  
    15   13   23 am 
    16   15   16 1  
    17   16   17 ar 
    18   16   18 ar 
    19   17   19 ar 
    20   18   20 ar 
    21   19   21 ar 
    22   20   21 ar 
    23   21   22 1  
    24   23   24 1  
    25   24   25 1  
    26   24   27 1  
    27   25   26 2  
    28   25   30 am 
    29   27   28 1  
    30   28   29 1  
    31   30   31 1  
    32   31   32 1  
    33   31   34 1  
    34   32   33 2  
    35   32   39 am 
    36   34   35 1  
    37   35   36 1  
    38   36   37 2  
    39   36   38 am 
    40   39   40 1  
    41   40   41 1  
    42   40   43 1  
    43   41   42 2  
    44   41   50 am 
    45   43   44 1  
    46   44   45 ar 
    47   44   46 ar 
    48   45   47 ar 
    49   46   48 ar 
    50   47   49 ar 
    51   48   49 ar 
    52   50   51 1  
    53   51   52 1  
    54   51   54 1  
    55   52   53 2  
    56   52   56 am 
    57   54   55 1  
    58   56   57 1  
    59   57   58 1  
    60   57   60 1  
    61   58   59 ar 
    62   58   63 ar 
    63   60   61 1  
    64   60   62 1  
    65    1   64 1  
    66    1   65 1  
    67    1   66 1  
    68    2   67 1  
    69    5   68 1  
    70    5   69 1  
    71    5   70 1  
    72    6   71 1  
    73    7   72 1  
    74   10   73 1  
    75   10   74 1  
    76   10   75 1  
    77   11   76 1  
    78   12   77 1  
    79   15   78 1  
    80   15   79 1  
    81   17   80 1  
    82   18   81 1  
    83   19   82 1  
    84   20   83 1  
    85   22   84 1  
    86   23   85 1  
    87   24   86 1  
    88   27   87 1  
    89   27   88 1  
    90   28   89 1  
    91   28   90 1  
    92   29   91 1  
    93   29   92 1  
    94   29   93 1  
    95   30   94 1  
    96   31   95 1  
    97   34   96 1  
    98   34   97 1  
    99   35   98 1  
   100   35   99 1  
   101   38  100 1  
   102   38  101 1  
   103   39  102 1  
   104   40  103 1  
   105   43  104 1  
   106   43  105 1  
   107   45  106 1  
   108   46  107 1  
   109   47  108 1  
   110   48  109 1  
   111   49  110 1  
   112   50  111 1  
   113   51  112 1  
   114   54  113 1  
   115   54  114 1  
   116   55  115 1  
   117   56  116 1  
   118   57  117 1  
   119   60  118 1  
   120   61  119 1  
   121   61  120 1  
   122   61  121 1  
   123   62  122 1  
   124   62  123 1  
   125   62  124 1  
@<TRIPOS>SUBSTRUCTURE
     1 LYS         1

