5hff_ligand
  -I-interpret- 

125126  0  0  0  0  0  0  0  0999 V2000
   39.9700   42.3320   23.2570 N   0  3  0  0  0
   39.4510   41.8150   24.5350 C   0  0  0  0  0
   38.1210   42.4590   24.9110 C   0  0  0  0  0
   37.7760   42.6040   26.0730 O   0  0  0  0  0
   40.4790   42.0850   25.6350 C   0  0  0  0  0
   37.3840   42.8480   23.8980 N   0  0  0  0  0
   36.2010   43.6550   24.0650 C   0  0  0  0  0
   36.5700   45.0830   24.4470 C   0  0  0  0  0
   35.7170   45.8700   24.7710 O   0  0  0  0  0
   35.2960   43.0740   25.1130 C   0  0  0  0  0
   37.8530   45.3810   24.3460 N   0  0  0  0  0
   38.3800   46.6650   24.7000 C   0  0  0  0  0
   38.0880   47.6180   23.5670 C   0  0  0  0  0
   38.1340   47.2430   22.4360 O   0  0  0  0  0
   39.8570   46.5410   25.0120 C   0  0  0  0  0
   40.7780   47.5750   24.4320 C   0  0  0  0  0
   41.2620   47.4520   23.1700 C   0  0  0  0  0
   41.1070   48.6790   25.1410 C   0  0  0  0  0
   42.1060   48.3900   22.6440 C   0  0  0  0  0
   41.9470   49.6150   24.6320 C   0  0  0  0  0
   42.4610   49.4580   23.3860 C   0  0  0  0  0
   43.2470   50.3980   22.9350 O   0  0  0  0  0
   37.8670   48.8700   23.9080 N   0  0  0  0  0
   37.7180   49.9250   22.9000 C   0  0  0  0  0
   38.4230   51.1740   23.3920 C   0  0  0  0  0
   38.4290   51.4320   24.5990 O   0  0  0  0  0
   36.2420   50.2290   22.6380 C   0  0  0  0  0
   35.4370   49.0800   22.1600 C   0  0  0  0  0
   35.5660   48.9070   20.6450 C   0  0  0  0  0
   39.0350   51.9330   22.4800 N   0  0  0  0  0
   39.6480   53.2160   22.8390 C   0  0  0  0  0
   39.2540   54.3130   21.8440 C   0  0  0  0  0
   39.2460   54.0930   20.6230 O   0  0  0  0  0
   41.1820   53.0800   22.9270 C   0  0  0  0  0
   41.8780   54.3650   23.3510 C   0  0  0  0  0
   43.2980   54.1730   23.8920 C   0  0  0  0  0
   43.9890   55.1590   24.1970 O   0  0  0  0  0
   43.7860   52.9240   23.8960 N   0  0  0  0  0
   38.8930   55.4760   22.3850 N   0  0  0  0  0
   38.3820   56.6250   21.6140 C   0  0  0  0  0
   39.0760   57.9130   22.0130 C   0  0  0  0  0
   39.3490   58.1570   23.1710 O   0  0  0  0  0
   36.8730   56.8280   21.8290 C   0  0  0  0  0
   36.0380   55.7290   21.2660 C   0  0  0  0  0
   35.6060   55.7930   19.9700 C   0  0  0  0  0
   35.6980   54.6280   22.0280 C   0  0  0  0  0
   34.8430   54.7690   19.4160 C   0  0  0  0  0
   34.9240   53.6010   21.4860 C   0  0  0  0  0
   34.5040   53.6770   20.1840 C   0  0  0  0  0
   39.3290   58.7580   21.0170 N   0  0  0  0  0
   39.8040   60.1150   21.2510 C   0  0  0  0  0
   38.5970   61.0220   21.4050 C   0  0  0  0  0
   37.6420   60.9500   20.6180 O   0  0  0  0  0
   40.6650   60.5950   20.0710 C   0  0  0  0  0
   41.7930   59.7760   19.8760 O   0  0  0  0  0
   38.6120   61.8760   22.4150 N   0  0  0  0  0
   37.5400   62.8240   22.6010 C   0  0  0  0  0
   38.1180   64.2530   22.7110 C   0  0  0  0  0
   37.3270   65.2060   22.7100 O   0  0  0  0  0
   36.6650   62.4610   23.8330 C   0  0  0  0  0
   36.0290   61.0880   23.6930 C   0  0  0  0  0
   37.4840   62.4810   25.0880 C   0  0  0  0  0
   39.3370   64.5210   22.7820 O   0  0  0  0  0
   39.2891   42.1552   22.5184 H   0  0  0  0  0
   40.1322   43.3357   23.3384 H   0  0  0  0  0
   40.8468   41.8618   23.0323 H   0  0  0  0  0
   39.2795   40.7443   24.4244 H   0  0  0  0  0
   40.6149   43.1606   25.7474 H   0  0  0  0  0
   40.1233   41.6623   26.5746 H   0  0  0  0  0
   41.4287   41.6238   25.3641 H   0  0  0  0  0
   37.6584   42.5689   22.9561 H   0  0  0  0  0
   35.6740   43.6657   23.1109 H   0  0  0  0  0
   35.8097   43.0723   26.0744 H   0  0  0  0  0
   34.3908   43.6770   25.1844 H   0  0  0  0  0
   35.0329   42.0525   24.8383 H   0  0  0  0  0
   38.4950   44.6671   24.0016 H   0  0  0  0  0
   37.9095   47.0593   25.6007 H   0  0  0  0  0
   40.1700   45.5922   24.5761 H   0  0  0  0  0
   39.9382   46.6498   26.0935 H   0  0  0  0  0
   40.9732   46.5917   22.5663 H   0  0  0  0  0
   40.6901   48.8190   26.1383 H   0  0  0  0  0
   42.4898   48.2750   21.6303 H   0  0  0  0  0
   42.2088   50.4924   25.2235 H   0  0  0  0  0
   43.3734   51.0622   23.6165 H   0  0  0  0  0
   37.7977   49.1122   24.8964 H   0  0  0  0  0
   38.1619   49.5872   21.9636 H   0  0  0  0  0
   36.2123   50.9816   21.8501 H   0  0  0  0  0
   35.8119   50.5380   23.5907 H   0  0  0  0  0
   34.3901   49.2638   22.4016 H   0  0  0  0  0
   35.8000   48.1744   22.6460 H   0  0  0  0  0
   35.2147   49.8103   20.1462 H   0  0  0  0  0
   36.6107   48.7316   20.3883 H   0  0  0  0  0
   34.9641   48.0564   20.3252 H   0  0  0  0  0
   39.0772   51.6135   21.5122 H   0  0  0  0  0
   39.2734   53.5059   23.8207 H   0  0  0  0  0
   41.5469   52.8207   21.9331 H   0  0  0  0  0
   41.4025   52.3227   23.6793 H   0  0  0  0  0
   41.2858   54.7959   24.1583 H   0  0  0  0  0
   41.9583   54.9912   22.4625 H   0  0  0  0  0
   44.7580   52.7571   24.1562 H   0  0  0  0  0
   43.1852   52.1409   23.6389 H   0  0  0  0  0
   38.9752   55.5782   23.3965 H   0  0  0  0  0
   38.5825   56.3962   20.5673 H   0  0  0  0  0
   36.5905   57.7483   21.3178 H   0  0  0  0  0
   36.6964   56.8552   22.9043 H   0  0  0  0  0
   35.8633   56.6597   19.3611 H   0  0  0  0  0
   36.0373   54.5608   23.0617 H   0  0  0  0  0
   34.5150   54.8311   18.3784 H   0  0  0  0  0
   34.6541   52.7399   22.0974 H   0  0  0  0  0
   33.9026   52.8746   19.7567 H   0  0  0  0  0
   39.1855   58.4450   20.0569 H   0  0  0  0  0
   40.4163   60.1387   22.1525 H   0  0  0  0  0
   41.0103   61.6056   20.2891 H   0  0  0  0  0
   40.0565   60.5589   19.1674 H   0  0  0  0  0
   42.3030   60.1073   19.1332 H   0  0  0  0  0
   39.3924   61.8643   23.0717 H   0  0  0  0  0
   36.8845   62.7835   21.7311 H   0  0  0  0  0
   35.8758   63.2109   23.8872 H   0  0  0  0  0
   35.3946   61.0715   22.8068 H   0  0  0  0  0
   36.8110   60.3350   23.5957 H   0  0  0  0  0
   35.4267   60.8762   24.5765 H   0  0  0  0  0
   38.2934   61.7558   25.0037 H   0  0  0  0  0
   37.9010   63.4777   25.2324 H   0  0  0  0  0
   36.8512   62.2240   25.9374 H   0  0  0  0  0
   39.8437   63.7057   22.7744 H   0  0  0  0  0
  1  2  1  0  0  0
  2  3  1  0  0  0
  2  5  1  0  0  0
  3  4  2  0  0  0
  3  6  1  0  0  0
  6  7  1  0  0  0
  7  8  1  0  0  0
  7 10  1  0  0  0
  8  9  2  0  0  0
  8 11  1  0  0  0
 11 12  1  0  0  0
 12 13  1  0  0  0
 12 15  1  0  0  0
 13 14  2  0  0  0
 13 23  1  0  0  0
 15 16  1  0  0  0
 16 17  4  0  0  0
 16 18  4  0  0  0
 17 19  4  0  0  0
 18 20  4  0  0  0
 19 21  4  0  0  0
 20 21  4  0  0  0
 21 22  1  0  0  0
 23 24  1  0  0  0
 24 25  1  0  0  0
 24 27  1  0  0  0
 25 26  2  0  0  0
 25 30  1  0  0  0
 27 28  1  0  0  0
 28 29  1  0  0  0
 30 31  1  0  0  0
 31 32  1  0  0  0
 31 34  1  0  0  0
 32 33  2  0  0  0
 32 39  1  0  0  0
 34 35  1  0  0  0
 35 36  1  0  0  0
 36 37  2  0  0  0
 36 38  1  0  0  0
 39 40  1  0  0  0
 40 41  1  0  0  0
 40 43  1  0  0  0
 41 42  2  0  0  0
 41 50  1  0  0  0
 43 44  1  0  0  0
 44 45  4  0  0  0
 44 46  4  0  0  0
 45 47  4  0  0  0
 46 48  4  0  0  0
 47 49  4  0  0  0
 48 49  4  0  0  0
 50 51  1  0  0  0
 51 52  1  0  0  0
 51 54  1  0  0  0
 52 53  2  0  0  0
 52 56  1  0  0  0
 54 55  1  0  0  0
 56 57  1  0  0  0
 57 58  1  0  0  0
 57 60  1  0  0  0
 58 59  2  0  0  0
 58 63  1  0  0  0
 60 61  1  0  0  0
 60 62  1  0  0  0
  1 64  1  0  0  0
  1 65  1  0  0  0
  1 66  1  0  0  0
  2 67  1  0  0  0
  5 68  1  0  0  0
  5 69  1  0  0  0
  5 70  1  0  0  0
  6 71  1  0  0  0
  7 72  1  0  0  0
 10 73  1  0  0  0
 10 74  1  0  0  0
 10 75  1  0  0  0
 11 76  1  0  0  0
 12 77  1  0  0  0
 15 78  1  0  0  0
 15 79  1  0  0  0
 17 80  1  0  0  0
 18 81  1  0  0  0
 19 82  1  0  0  0
 20 83  1  0  0  0
 22 84  1  0  0  0
 23 85  1  0  0  0
 24 86  1  0  0  0
 27 87  1  0  0  0
 27 88  1  0  0  0
 28 89  1  0  0  0
 28 90  1  0  0  0
 29 91  1  0  0  0
 29 92  1  0  0  0
 29 93  1  0  0  0
 30 94  1  0  0  0
 31 95  1  0  0  0
 34 96  1  0  0  0
 34 97  1  0  0  0
 35 98  1  0  0  0
 35 99  1  0  0  0
 38100  1  0  0  0
 38101  1  0  0  0
 39102  1  0  0  0
 40103  1  0  0  0
 43104  1  0  0  0
 43105  1  0  0  0
 45106  1  0  0  0
 46107  1  0  0  0
 47108  1  0  0  0
 48109  1  0  0  0
 49110  1  0  0  0
 50111  1  0  0  0
 51112  1  0  0  0
 54113  1  0  0  0
 54114  1  0  0  0
 55115  1  0  0  0
 56116  1  0  0  0
 57117  1  0  0  0
 60118  1  0  0  0
 61119  1  0  0  0
 61120  1  0  0  0
 61121  1  0  0  0
 62122  1  0  0  0
 62123  1  0  0  0
 62124  1  0  0  0
 63125  1  0  0  0
M  END
$$$$
