3g35_ligand
  -I-interpret- 

 30 32  0  0  0  0  0  0  0  0999 V2000
  -11.6260   59.7310   11.6930 F   0  0  0  0  0
  -10.8240   58.7840   11.1570 C   0  0  0  0  0
  -10.1490   57.9090   12.0020 C   0  0  0  0  0
  -10.6740   58.6690    9.7830 C   0  0  0  0  0
   -9.8450   57.6920    9.2360 C   0  0  0  0  0
   -9.1530   56.8250   10.0810 C   0  0  0  0  0
   -9.3120   56.9310   11.4670 C   0  0  0  0  0
   -8.5630   56.0080   12.3910 C   0  0  0  0  0
   -8.9420   55.9010   13.5470 O   0  0  0  0  0
   -7.4940   55.3630   11.9080 N   0  0  0  0  0
   -6.6540   54.5780   12.6430 C   0  0  0  0  0
   -7.0880   53.8180   13.7370 C   0  0  0  0  0
   -6.1890   53.0380   14.4650 C   0  0  0  0  0
   -4.8450   52.9800   14.1120 C   0  0  0  0  0
   -4.4150   53.7270   13.0210 C   0  0  0  0  0
   -5.3040   54.5250   12.2970 C   0  0  0  0  0
   -2.9890   53.6790   12.6260 C   0  0  0  0  0
   -2.5270   53.9570   11.3930 N   0  0  0  0  0
   -1.1490   53.7940   11.3940 N   0  0  0  0  0
   -0.7910   53.3980   12.6820 N   0  0  0  0  0
   -1.9640   53.3260   13.4290 N   0  0  0  0  0
  -10.2745   57.9881   13.0819 H   0  0  0  0  0
  -11.2109   59.3509    9.1235 H   0  0  0  0  0
   -9.7380   57.6059    8.1547 H   0  0  0  0  0
   -8.4904   56.0672    9.6631 H   0  0  0  0  0
   -7.2917   55.4663   10.9136 H   0  0  0  0  0
   -8.1398   53.8363   14.0226 H   0  0  0  0  0
   -6.5448   52.4663   15.3221 H   0  0  0  0  0
   -4.1456   52.3638   14.6770 H   0  0  0  0  0
   -4.9392   55.1117   11.4539 H   0  0  0  0  0
  1  2  1  0  0  0
  2  3  4  0  0  0
  2  4  4  0  0  0
  3  7  4  0  0  0
  4  5  4  0  0  0
  5  6  4  0  0  0
  6  7  4  0  0  0
  7  8  1  0  0  0
  8  9  2  0  0  0
  8 10  1  0  0  0
 10 11  1  0  0  0
 11 12  4  0  0  0
 11 16  4  0  0  0
 12 13  4  0  0  0
 13 14  4  0  0  0
 14 15  4  0  0  0
 15 16  4  0  0  0
 15 17  1  0  0  0
 17 18  4  0  0  0
 17 21  4  0  0  0
 18 19  4  0  0  0
 19 20  4  0  0  0
 20 21  4  0  0  0
  3 22  1  0  0  0
  4 23  1  0  0  0
  5 24  1  0  0  0
  6 25  1  0  0  0
 10 26  1  0  0  0
 12 27  1  0  0  0
 13 28  1  0  0  0
 14 29  1  0  0  0
 16 30  1  0  0  0
M  END
$$$$
