### 
### Created by X-TOOL on Mon Sep 10 21:13:21 2018
### 

@<TRIPOS>MOLECULE
4uu5_ligand
  242   246     1     0     0
SMALL
GAST_HUCK


@<TRIPOS>ATOM
      1 N           3.2060  -34.5370  -14.4570 N.4       1 MET         0.2379
      2 CA          3.9830  -33.3100  -14.3010 C.3       1 MET         0.0658
      3 C           5.1520  -33.5070  -13.3420 C.2       1 MET         0.2268
      4 O           6.2580  -33.0590  -13.6060 O.2       1 MET        -0.3907
      5 CB          3.1040  -32.1190  -13.8500 C.3       1 MET         0.0168
      6 CG          2.2920  -31.4470  -14.9650 C.3       1 MET         0.0007
      7 SD          1.8610  -29.6860  -14.7250 S.3       1 MET        -0.1638
      8 CE          3.2540  -29.1000  -13.7570 C.3       1 MET        -0.0181
      9 N           4.9010  -34.2080  -12.2410 N.am      1 TRP        -0.2599
     10 CA          5.9030  -34.4080  -11.1840 C.3       1 TRP         0.1353
     11 C           7.2150  -35.0430  -11.6520 C.2       1 TRP         0.2053
     12 O           8.0920  -35.3470  -10.8380 O.2       1 TRP        -0.3942
     13 CB          5.3080  -35.2580  -10.0580 C.3       1 TRP         0.0042
     14 CG          4.5260  -36.4120  -10.5810 C.2       1 TRP        -0.0418
     15 CD1         3.1760  -36.4680  -10.7740 C.2       1 TRP         0.0167
     16 CD2         5.0470  -37.6720  -11.0130 C.ar      1 TRP        -0.0214
     17 NE1         2.8220  -37.6920  -11.2860 N.pl3     1 TRP        -0.2890
     18 CE2         3.9530  -38.4500  -11.4440 C.ar      1 TRP         0.0603
     19 CE3         6.3310  -38.2220  -11.0690 C.ar      1 TRP        -0.0747
     20 CZ2         4.1040  -39.7480  -11.9260 C.ar      1 TRP        -0.0443
     21 CZ3         6.4790  -39.5100  -11.5480 C.ar      1 TRP        -0.0792
     22 CH2         5.3740  -40.2590  -11.9720 C.ar      1 TRP        -0.0768
     23 N           7.3600  -35.2280  -12.9600 N.am      1 ASN        -0.2615
     24 CA          8.5190  -35.9240  -13.4800 C.3       1 ASN         0.1476
     25 C           9.2240  -35.2460  -14.6670 C.2       1 ASN         0.2063
     26 O          10.4260  -35.3890  -14.8410 O.2       1 ASN        -0.3942
     27 CB          8.1260  -37.3590  -13.7650 C.3       1 ASN         0.0773
     28 CG          9.2370  -38.3430  -13.4620 C.2       1 ASN         0.1780
     29 OD1        10.3950  -37.9630  -13.2970 O.2       1 ASN        -0.3970
     30 ND2         8.8860  -39.6190  -13.3930 N.am      1 ASN        -0.3007
     31 N           8.4980  -34.4600  -15.4490 N.am      1 LEU        -0.2636
     32 CA          9.1620  -33.6260  -16.4530 C.3       1 LEU         0.1312
     33 C           9.7270  -32.2960  -15.9100 C.2       1 LEU         0.2039
     34 O          10.6550  -31.7370  -16.4900 O.2       1 LEU        -0.3944
     35 CB          8.2430  -33.3470  -17.6490 C.3       1 LEU        -0.0101
     36 CG          6.9710  -32.5770  -17.3100 C.3       1 LEU        -0.0425
     37 CD1         6.1890  -32.2440  -18.5590 C.3       1 LEU        -0.0625
     38 CD2         6.0990  -33.3970  -16.3690 C.3       1 LEU        -0.0625
     39 N           9.1970  -31.8100  -14.7930 N.am      1 MET        -0.2637
     40 CA          9.5780  -30.5030  -14.3230 C.3       1 MET         0.1319
     41 C          11.0040  -30.5240  -13.7810 C.2       1 MET         0.2064
     42 O          11.4230  -31.4510  -13.0760 O.2       1 MET        -0.3942
     43 CB          8.6290  -30.0500  -13.2100 C.3       1 MET        -0.0034
     44 CG          7.1510  -29.9860  -13.6420 C.3       1 MET        -0.0024
     45 SD          6.8840  -28.9120  -15.0440 S.3       1 MET        -0.1639
     46 CE          6.9270  -27.3150  -14.3030 C.3       1 MET        -0.0181
     47 N          11.7590  -29.4690  -14.0790 N.am      1 PRO        -0.2498
     48 CA         13.1070  -29.3610  -13.5070 C.3       1 PRO         0.1340
     49 C          13.0540  -29.3090  -11.9600 C.2       1 PRO         0.2066
     50 O          12.1280  -28.7600  -11.3880 O.2       1 PRO        -0.3942
     51 CB         13.5630  -28.0130  -14.0120 C.3       1 PRO        -0.0104
     52 CG         12.8110  -27.8350  -15.3110 C.3       1 PRO        -0.0281
     53 CD         11.4500  -28.3830  -15.0250 C.3       1 PRO         0.0369
     54 N          14.0410  -29.8780  -11.2830 N.am      1 PRO        -0.2498
     55 CA         14.0280  -29.8290   -9.8000 C.3       1 PRO         0.1340
     56 C          14.4310  -28.4500   -9.2870 C.2       1 PRO         0.2066
     57 O          14.9590  -27.6400  -10.0490 O.2       1 PRO        -0.3942
     58 CB         15.0950  -30.8560   -9.4110 C.3       1 PRO        -0.0104
     59 CG         16.0670  -30.7780  -10.5860 C.3       1 PRO        -0.0281
     60 CD         15.1820  -30.6270  -11.8250 C.3       1 PRO         0.0369
     61 N          14.2200  -28.1910   -7.9960 N.am      1 PRO        -0.2498
     62 CA         14.5750  -26.8640   -7.4880 C.3       1 PRO         0.1338
     63 C          16.0870  -26.7280   -7.4350 C.2       1 PRO         0.2041
     64 O          16.8310  -27.6680   -7.1790 O.2       1 PRO        -0.3944
     65 CB         14.0130  -26.8580   -6.0670 C.3       1 PRO        -0.0104
     66 CG         12.9940  -27.8650   -6.0780 C.3       1 PRO        -0.0281
     67 CD         13.4110  -28.9590   -7.0490 C.3       1 PRO         0.0369
     68 N          16.5460  -25.5060   -7.6180 N.am      1 ALA        -0.2640
     69 CA         17.9600  -25.1930   -7.3900 C.3       1 ALA         0.1282
     70 C          18.2810  -25.1610   -5.8920 C.2       1 ALA         0.2036
     71 O          17.4990  -24.6670   -5.1020 O.2       1 ALA        -0.3944
     72 CB         18.2700  -23.8420   -7.9780 C.3       1 ALA        -0.0244
     73 N          19.4610  -25.6250   -5.5320 N.am      1 SME        -0.2636
     74 CA         19.9060  -25.5580   -4.1570 C.3       1 SME         0.1335
     75 CB         21.2640  -26.2680   -4.0910 C.3       1 SME         0.0178
     76 CG         21.8250  -26.4590   -2.7060 C.3       1 SME         0.1033
     77 S          21.1060  -27.8010   -1.7880 S.3       1 SME         0.1431
     78 OE         19.8890  -28.3920   -2.4450 O.3       1 SME        -0.1242
     79 CE         20.8250  -26.8770   -0.3340 C.3       1 SME         0.0886
     80 C          20.0770  -24.0770   -3.7450 C.2       1 SME         0.2040
     81 O          20.6200  -23.2330   -4.4710 O.2       1 SME        -0.3944
     82 N          19.6280  -23.7580   -2.5310 N.am      1 GLU        -0.2636
     83 CA         19.6610  -22.3860   -1.9720 C.3       1 GLU         0.1325
     84 C          20.5730  -22.4240   -0.7480 C.2       1 GLU         0.2040
     85 O          20.4720  -23.3700    0.0710 O.2       1 GLU        -0.3944
     86 CB         18.2400  -22.0370   -1.5070 C.3       1 GLU        -0.0008
     87 CG         18.0930  -20.6770   -0.8500 C.3       1 GLU         0.0044
     88 CD         16.7080  -20.3970   -0.3660 C.2       1 GLU         0.0350
     89 OE1        16.1080  -21.2410    0.3340 O.co2     1 GLU        -0.5690
     90 OE2        16.2470  -19.2690   -0.6040 O.co2     1 GLU        -0.5690
     91 N          21.4610  -21.4520   -0.5910 N.am      1 ARG        -0.2637
     92 CA         22.2970  -21.3700    0.6100 C.3       1 ARG         0.1311
     93 C          22.2270  -19.9400    1.1840 C.2       1 ARG         0.2039
     94 O          22.1480  -18.9480    0.4500 O.2       1 ARG        -0.3944
     95 CB         23.7740  -21.7050    0.3220 C.3       1 ARG        -0.0092
     96 CG         24.0460  -23.1030   -0.1600 C.3       1 ARG        -0.0156
     97 CD         23.5580  -24.2290    0.7300 C.3       1 ARG         0.0627
     98 NE         24.1430  -24.2340    2.0620 N.pl3     1 ARG        -0.2723
     99 CZ         25.3100  -24.8150    2.3640 C.cat     1 ARG         0.2882
    100 NH1        26.0280  -25.4600    1.4470 N.pl3     1 ARG        -0.2849
    101 NH2        25.7110  -24.7690    3.6080 N.pl3     1 ARG        -0.2849
    102 N          22.3270  -19.8600    2.5160 N.am      1 LEU        -0.2637
    103 CA         22.2450  -18.5820    3.2590 C.3       1 LEU         0.1312
    104 C          23.6100  -17.9270    3.3540 C.2       1 LEU         0.2034
    105 O          24.5890  -18.5670    3.7810 O.2       1 LEU        -0.3944
    106 CB         21.7170  -18.8570    4.6990 C.3       1 LEU        -0.0101
    107 CG         21.6370  -17.6980    5.6730 C.3       1 LEU        -0.0425
    108 CD1        20.6370  -16.6850    5.1370 C.3       1 LEU        -0.0625
    109 CD2        21.2740  -18.2260    7.0320 C.3       1 LEU        -0.0625
    110 N          23.6240  -16.6260    3.0650 N.am      1 ILE        -0.2692
    111 CA         24.7950  -15.7590    3.2830 C.3       1 ILE         0.0969
    112 C          24.5110  -14.5500    4.1930 C.2       1 ILE         0.0604
    113 O          23.2870  -14.2220    4.3320 O.co2     1 ILE        -0.5666
    114 CB         25.4410  -15.3350    1.9560 C.3       1 ILE        -0.0092
    115 CG1        24.5540  -14.3860    1.1260 C.3       1 ILE        -0.0497
    116 CG2        25.9100  -16.5350    1.1570 C.3       1 ILE        -0.0588
    117 CD1        25.2820  -13.7440   -0.0310 C.3       1 ILE        -0.0649
    118 OXT        25.5200  -13.9640    4.6950 O.co2     1 ILE        -0.5666
    119 H1          2.4433  -34.3728  -15.0953 H         1 MET         0.2015
    120 H2          2.8397  -34.8189  -13.5613 H         1 MET         0.2015
    121 H3          3.7987  -35.2659  -14.8222 H         1 MET         0.2015
    122 H4          4.4001  -33.0586  -15.2873 H         1 MET         0.1098
    123 H5          3.7629  -31.3595  -13.4040 H         1 MET         0.0354
    124 H6          2.3990  -32.4853  -13.0892 H         1 MET         0.0354
    125 H7          1.3520  -32.0074  -15.0761 H         1 MET         0.0380
    126 H8          2.8761  -31.5229  -15.8940 H         1 MET         0.0380
    127 H9          3.1227  -28.0305  -13.5358 H         1 MET         0.0340
    128 H10         4.1835  -29.2451  -14.3270 H         1 MET         0.0340
    129 H11         3.3095  -29.6651  -12.8149 H         1 MET         0.0340
    130 H12         3.9949  -34.6154  -12.1271 H         1 TRP         0.1886
    131 H13         6.1469  -33.4160  -10.7761 H         1 TRP         0.0815
    132 H14         4.6441  -34.6263   -9.4495 H         1 TRP         0.0397
    133 H15         6.1272  -35.6397   -9.4309 H         1 TRP         0.0397
    134 H16         2.4806  -35.6594  -10.5539 H         1 TRP         0.0795
    135 H17         1.8633  -37.9915  -11.5140 H         1 TRP         0.2216
    136 H18         7.1925  -37.6503  -10.7435 H         1 TRP         0.0540
    137 H19         3.2501  -40.3308  -12.2519 H         1 TRP         0.0541
    138 H20         7.4690  -39.9488  -11.5964 H         1 TRP         0.0510
    139 H21         5.5273  -41.2653  -12.3448 H         1 TRP         0.0530
    140 H22         6.6637  -34.8841  -13.5900 H         1 ASN         0.1885
    141 H23         9.2608  -35.9476  -12.6681 H         1 ASN         0.0826
    142 H24         7.8600  -37.4459  -14.8288 H         1 ASN         0.0551
    143 H25         7.2527  -37.6137  -13.1466 H         1 ASN         0.0551
    144 H26         9.5745  -40.3170  -13.1961 H         1 ASN         0.1814
    145 H27         7.9327  -39.8839  -13.5379 H         1 ASN         0.1814
    146 H28         7.5028  -34.4366  -15.3540 H         1 LEU         0.1883
    147 H29        10.0186  -34.2076  -16.8245 H         1 LEU         0.0800
    148 H30         7.9520  -34.3119  -18.0898 H         1 LEU         0.0315
    149 H31         8.8105  -32.7624  -18.3880 H         1 LEU         0.0315
    150 H32         7.2519  -31.6389  -16.8089 H         1 LEU         0.0298
    151 H33         5.2790  -31.6901  -18.2850 H         1 LEU         0.0232
    152 H34         5.9104  -33.1740  -19.0761 H         1 LEU         0.0232
    153 H35         6.8081  -31.6253  -19.2253 H         1 LEU         0.0232
    154 H36         6.6683  -33.6395  -15.4596 H         1 LEU         0.0232
    155 H37         5.7938  -34.3277  -16.8696 H         1 LEU         0.0232
    156 H38         5.2050  -32.8162  -16.0980 H         1 LEU         0.0232
    157 H39         8.5329  -32.3521  -14.2781 H         1 MET         0.1883
    158 H40         9.5207  -29.7918  -15.1602 H         1 MET         0.0800
    159 H41         8.9371  -29.0476  -12.8778 H         1 MET         0.0320
    160 H42         8.7151  -30.7567  -12.3715 H         1 MET         0.0320
    161 H43         6.5537  -29.6146  -12.7963 H         1 MET         0.0378
    162 H44         6.8187  -31.0002  -13.9083 H         1 MET         0.0378
    163 H45         6.7719  -26.5479  -15.0760 H         1 MET         0.0340
    164 H46         7.9046  -27.1596  -13.8232 H         1 MET         0.0340
    165 H47         6.1314  -27.2399  -13.5471 H         1 MET         0.0340
    166 H48        13.7611  -30.1783  -13.8449 H         1 PRO         0.0802
    167 H49        14.6492  -28.0075  -14.1853 H         1 PRO         0.0313
    168 H50        13.3017  -27.2189  -13.2971 H         1 PRO         0.0313
    169 H51        13.2955  -28.3978  -16.1225 H         1 PRO         0.0287
    170 H52        12.7534  -26.7715  -15.5859 H         1 PRO         0.0287
    171 H53        10.8003  -27.6236  -14.5656 H         1 PRO         0.0524
    172 H54        10.9734  -28.7697  -15.9378 H         1 PRO         0.0524
    173 H55        13.0399  -30.1025   -9.4016 H         1 PRO         0.0802
    174 H56        14.6630  -31.8633   -9.3179 H         1 PRO         0.0313
    175 H57        15.5882  -30.5799   -8.4673 H         1 PRO         0.0313
    176 H58        16.6691  -31.6963  -10.6510 H         1 PRO         0.0287
    177 H59        16.7334  -29.9094  -10.4791 H         1 PRO         0.0287
    178 H60        15.6938  -30.0611  -12.6173 H         1 PRO         0.0524
    179 H61        14.8697  -31.6062  -12.2170 H         1 PRO         0.0524
    180 H62        14.1369  -26.0633   -8.1019 H         1 PRO         0.0802
    181 H63        13.5847  -25.8747   -5.8228 H         1 PRO         0.0313
    182 H64        14.7978  -27.1075   -5.3378 H         1 PRO         0.0313
    183 H65        12.0397  -27.4244   -6.4023 H         1 PRO         0.0287
    184 H66        12.8786  -28.2879   -5.0691 H         1 PRO         0.0287
    185 H67        14.0041  -29.7392   -6.5494 H         1 PRO         0.0524
    186 H68        12.5402  -29.4182   -7.5397 H         1 PRO         0.0524
    187 H69        15.9221  -24.7836   -7.9160 H         1 ALA         0.1883
    188 H70        18.5815  -25.9586   -7.8774 H         1 ALA         0.0797
    189 H71        19.3304  -23.6032   -7.8091 H         1 ALA         0.0277
    190 H72        17.6411  -23.0792   -7.4958 H         1 ALA         0.0277
    191 H73        18.0652  -23.8567   -9.0586 H         1 ALA         0.0277
    192 H74        20.0599  -26.0310   -6.2223 H         1 SME         0.1883
    193 H75        19.1811  -26.0517   -3.4930 H         1 SME         0.0801
    194 H76        21.9861  -25.6746   -4.6710 H         1 SME         0.0339
    195 H77        21.1511  -27.2605   -4.5515 H         1 SME         0.0339
    196 H78        21.6610  -25.5305   -2.1394 H         1 SME         0.0640
    197 H79        22.9050  -26.6470   -2.7973 H         1 SME         0.0640
    198 H80        20.1244  -28.7267   -3.3024 H         1 SME         0.4476
    199 H81        20.3607  -27.5221    0.4264 H         1 SME         0.0601
    200 H82        20.1546  -26.0344   -0.5588 H         1 SME         0.0601
    201 H83        21.7826  -26.4923    0.0468 H         1 SME         0.0601
    202 H84        19.2463  -24.4879   -1.9639 H         1 GLU         0.1883
    203 H85        20.0229  -21.6600   -2.7149 H         1 GLU         0.0801
    204 H86        17.9211  -22.8013   -0.7830 H         1 GLU         0.0330
    205 H87        17.5778  -22.0645   -2.3849 H         1 GLU         0.0330
    206 H88        18.3688  -19.9044   -1.5828 H         1 GLU         0.0433
    207 H89        18.7785  -20.6291    0.0089 H         1 GLU         0.0433
    208 H90        21.5624  -20.7608   -1.3066 H         1 ARG         0.1883
    209 H91        21.9114  -22.0818    1.3547 H         1 ARG         0.0800
    210 H92        24.3422  -21.5520    1.2514 H         1 ARG         0.0313
    211 H93        24.1346  -21.0066   -0.4475 H         1 ARG         0.0313
    212 H94        25.1348  -23.2127   -0.2720 H         1 ARG         0.0301
    213 H95        23.5629  -23.2187   -1.1414 H         1 ARG         0.0301
    214 H96        23.8024  -25.1843    0.2426 H         1 ARG         0.0689
    215 H97        22.4666  -24.1386    0.8332 H         1 ARG         0.0689
    216 H98        23.6277  -23.7617    2.8185 H         1 ARG         0.2642
    217 H99        26.9230  -25.8979    1.7081 H         1 ARG         0.2615
    218 H100       25.6885  -25.5211    0.4765 H         1 ARG         0.2615
    219 H101       25.1500  -24.2680    4.3117 H         1 ARG         0.2615
    220 H102       26.5878  -25.2338    3.8840 H         1 ARG         0.2615
    221 H103       22.4637  -20.7041    3.0345 H         1 LEU         0.1883
    222 H104       21.5534  -17.9045    2.7368 H         1 LEU         0.0800
    223 H105       22.3771  -19.6137    5.1481 H         1 LEU         0.0315
    224 H106       20.7017  -19.2685    4.5997 H         1 LEU         0.0315
    225 H107       22.6216  -17.2123    5.7418 H         1 LEU         0.0298
    226 H108       20.5665  -15.8359    5.8328 H         1 LEU         0.0232
    227 H109       19.6502  -17.1609    5.0381 H         1 LEU         0.0232
    228 H110       20.9711  -16.3255    4.1526 H         1 LEU         0.0232
    229 H111       22.0347  -18.9501    7.3592 H         1 LEU         0.0232
    230 H112       20.2932  -18.7216    6.9829 H         1 LEU         0.0232
    231 H113       21.2285  -17.3930    7.7489 H         1 LEU         0.0232
    232 H114       22.7966  -16.2170    2.6801 H         1 ILE         0.1875
    233 H115       25.5382  -16.3735    3.8122 H         1 ILE         0.0729
    234 H116       26.3425  -14.7620    2.2186 H         1 ILE         0.0338
    235 H117       24.1801  -13.5905    1.7873 H         1 ILE         0.0267
    236 H118       23.7050  -14.9611    0.7279 H         1 ILE         0.0267
    237 H119       26.5366  -17.1771    1.7935 H         1 ILE         0.0234
    238 H120       26.4963  -16.1928    0.2914 H         1 ILE         0.0234
    239 H121       25.0375  -17.1058    0.8064 H         1 ILE         0.0234
    240 H122       24.5925  -13.0832   -0.5767 H         1 ILE         0.0230
    241 H123       25.6543  -14.5259   -0.7092 H         1 ILE         0.0230
    242 H124       26.1294  -13.1553    0.3502 H         1 ILE         0.0230
@<TRIPOS>BOND
     1    1    2 1  
     2    2    3 1  
     3    2    5 1  
     4    3    4 2  
     5    3    9 am 
     6    5    6 1  
     7    6    7 1  
     8    7    8 1  
     9    9   10 1  
    10   10   11 1  
    11   10   13 1  
    12   11   12 2  
    13   11   23 am 
    14   13   14 1  
    15   14   15 2  
    16   14   16 1  
    17   15   17 1  
    18   16   18 ar 
    19   16   19 ar 
    20   17   18 1  
    21   18   20 ar 
    22   19   21 ar 
    23   20   22 ar 
    24   21   22 ar 
    25   23   24 1  
    26   24   25 1  
    27   24   27 1  
    28   25   26 2  
    29   25   31 am 
    30   27   28 1  
    31   28   29 2  
    32   28   30 am 
    33   31   32 1  
    34   32   33 1  
    35   32   35 1  
    36   33   34 2  
    37   33   39 am 
    38   35   36 1  
    39   36   37 1  
    40   36   38 1  
    41   39   40 1  
    42   40   41 1  
    43   40   43 1  
    44   41   42 2  
    45   41   47 am 
    46   43   44 1  
    47   44   45 1  
    48   45   46 1  
    49   47   48 1  
    50   47   53 1  
    51   48   49 1  
    52   48   51 1  
    53   49   50 2  
    54   49   54 am 
    55   51   52 1  
    56   52   53 1  
    57   54   55 1  
    58   54   60 1  
    59   55   56 1  
    60   55   58 1  
    61   56   57 2  
    62   56   61 am 
    63   58   59 1  
    64   59   60 1  
    65   61   62 1  
    66   61   67 1  
    67   62   63 1  
    68   62   65 1  
    69   63   64 2  
    70   63   68 am 
    71   65   66 1  
    72   66   67 1  
    73   68   69 1  
    74   69   70 1  
    75   69   72 1  
    76   70   71 2  
    77   70   73 am 
    78   73   74 1  
    79   74   75 1  
    80   74   80 1  
    81   75   76 1  
    82   76   77 1  
    83   77   78 1  
    84   77   79 1  
    85   80   81 2  
    86   80   82 am 
    87   82   83 1  
    88   83   84 1  
    89   83   86 1  
    90   84   85 2  
    91   84   91 am 
    92   86   87 1  
    93   87   88 1  
    94   88   89 ar 
    95   88   90 ar 
    96   91   92 1  
    97   92   93 1  
    98   92   95 1  
    99   93   94 2  
   100   93  102 am 
   101   95   96 1  
   102   96   97 1  
   103   97   98 1  
   104   98   99 ar 
   105   99  100 ar 
   106   99  101 ar 
   107  102  103 1  
   108  103  104 1  
   109  103  106 1  
   110  104  105 2  
   111  104  110 am 
   112  106  107 1  
   113  107  108 1  
   114  107  109 1  
   115  110  111 1  
   116  111  112 1  
   117  111  114 1  
   118  112  113 ar 
   119  112  118 ar 
   120  114  115 1  
   121  114  116 1  
   122  115  117 1  
   123    1  119 1  
   124    1  120 1  
   125    1  121 1  
   126    2  122 1  
   127    5  123 1  
   128    5  124 1  
   129    6  125 1  
   130    6  126 1  
   131    8  127 1  
   132    8  128 1  
   133    8  129 1  
   134    9  130 1  
   135   10  131 1  
   136   13  132 1  
   137   13  133 1  
   138   15  134 1  
   139   17  135 1  
   140   19  136 1  
   141   20  137 1  
   142   21  138 1  
   143   22  139 1  
   144   23  140 1  
   145   24  141 1  
   146   27  142 1  
   147   27  143 1  
   148   30  144 1  
   149   30  145 1  
   150   31  146 1  
   151   32  147 1  
   152   35  148 1  
   153   35  149 1  
   154   36  150 1  
   155   37  151 1  
   156   37  152 1  
   157   37  153 1  
   158   38  154 1  
   159   38  155 1  
   160   38  156 1  
   161   39  157 1  
   162   40  158 1  
   163   43  159 1  
   164   43  160 1  
   165   44  161 1  
   166   44  162 1  
   167   46  163 1  
   168   46  164 1  
   169   46  165 1  
   170   48  166 1  
   171   51  167 1  
   172   51  168 1  
   173   52  169 1  
   174   52  170 1  
   175   53  171 1  
   176   53  172 1  
   177   55  173 1  
   178   58  174 1  
   179   58  175 1  
   180   59  176 1  
   181   59  177 1  
   182   60  178 1  
   183   60  179 1  
   184   62  180 1  
   185   65  181 1  
   186   65  182 1  
   187   66  183 1  
   188   66  184 1  
   189   67  185 1  
   190   67  186 1  
   191   68  187 1  
   192   69  188 1  
   193   72  189 1  
   194   72  190 1  
   195   72  191 1  
   196   73  192 1  
   197   74  193 1  
   198   75  194 1  
   199   75  195 1  
   200   76  196 1  
   201   76  197 1  
   202   78  198 1  
   203   79  199 1  
   204   79  200 1  
   205   79  201 1  
   206   82  202 1  
   207   83  203 1  
   208   86  204 1  
   209   86  205 1  
   210   87  206 1  
   211   87  207 1  
   212   91  208 1  
   213   92  209 1  
   214   95  210 1  
   215   95  211 1  
   216   96  212 1  
   217   96  213 1  
   218   97  214 1  
   219   97  215 1  
   220   98  216 1  
   221  100  217 1  
   222  100  218 1  
   223  101  219 1  
   224  101  220 1  
   225  102  221 1  
   226  103  222 1  
   227  106  223 1  
   228  106  224 1  
   229  107  225 1  
   230  108  226 1  
   231  108  227 1  
   232  108  228 1  
   233  109  229 1  
   234  109  230 1  
   235  109  231 1  
   236  110  232 1  
   237  111  233 1  
   238  114  234 1  
   239  115  235 1  
   240  115  236 1  
   241  116  237 1  
   242  116  238 1  
   243  116  239 1  
   244  117  240 1  
   245  117  241 1  
   246  117  242 1  
@<TRIPOS>SUBSTRUCTURE
     1 MET         1

