4uu5_ligand
  -I-interpret- 

242246  0  0  0  0  0  0  0  0999 V2000
    3.2060  -34.5370  -14.4570 N   0  3  0  0  0
    3.9830  -33.3100  -14.3010 C   0  0  0  0  0
    5.1520  -33.5070  -13.3420 C   0  0  0  0  0
    6.2580  -33.0590  -13.6060 O   0  0  0  0  0
    3.1040  -32.1190  -13.8500 C   0  0  0  0  0
    2.2920  -31.4470  -14.9650 C   0  0  0  0  0
    1.8610  -29.6860  -14.7250 S   0  0  0  0  0
    3.2540  -29.1000  -13.7570 C   0  0  0  0  0
    4.9010  -34.2080  -12.2410 N   0  0  0  0  0
    5.9030  -34.4080  -11.1840 C   0  0  0  0  0
    7.2150  -35.0430  -11.6520 C   0  0  0  0  0
    8.0920  -35.3470  -10.8380 O   0  0  0  0  0
    5.3080  -35.2580  -10.0580 C   0  0  0  0  0
    4.5260  -36.4120  -10.5810 C   0  0  0  0  0
    3.1760  -36.4680  -10.7740 C   0  0  0  0  0
    5.0470  -37.6720  -11.0130 C   0  0  0  0  0
    2.8220  -37.6920  -11.2860 N   0  0  0  0  0
    3.9530  -38.4500  -11.4440 C   0  0  0  0  0
    6.3310  -38.2220  -11.0690 C   0  0  0  0  0
    4.1040  -39.7480  -11.9260 C   0  0  0  0  0
    6.4790  -39.5100  -11.5480 C   0  0  0  0  0
    5.3740  -40.2590  -11.9720 C   0  0  0  0  0
    7.3600  -35.2280  -12.9600 N   0  0  0  0  0
    8.5190  -35.9240  -13.4800 C   0  0  0  0  0
    9.2240  -35.2460  -14.6670 C   0  0  0  0  0
   10.4260  -35.3890  -14.8410 O   0  0  0  0  0
    8.1260  -37.3590  -13.7650 C   0  0  0  0  0
    9.2370  -38.3430  -13.4620 C   0  0  0  0  0
   10.3950  -37.9630  -13.2970 O   0  0  0  0  0
    8.8860  -39.6190  -13.3930 N   0  0  0  0  0
    8.4980  -34.4600  -15.4490 N   0  0  0  0  0
    9.1620  -33.6260  -16.4530 C   0  0  0  0  0
    9.7270  -32.2960  -15.9100 C   0  0  0  0  0
   10.6550  -31.7370  -16.4900 O   0  0  0  0  0
    8.2430  -33.3470  -17.6490 C   0  0  0  0  0
    6.9710  -32.5770  -17.3100 C   0  0  0  0  0
    6.1890  -32.2440  -18.5590 C   0  0  0  0  0
    6.0990  -33.3970  -16.3690 C   0  0  0  0  0
    9.1970  -31.8100  -14.7930 N   0  0  0  0  0
    9.5780  -30.5030  -14.3230 C   0  0  0  0  0
   11.0040  -30.5240  -13.7810 C   0  0  0  0  0
   11.4230  -31.4510  -13.0760 O   0  0  0  0  0
    8.6290  -30.0500  -13.2100 C   0  0  0  0  0
    7.1510  -29.9860  -13.6420 C   0  0  0  0  0
    6.8840  -28.9120  -15.0440 S   0  0  0  0  0
    6.9270  -27.3150  -14.3030 C   0  0  0  0  0
   11.7590  -29.4690  -14.0790 N   0  0  0  0  0
   13.1070  -29.3610  -13.5070 C   0  0  0  0  0
   13.0540  -29.3090  -11.9600 C   0  0  0  0  0
   12.1280  -28.7600  -11.3880 O   0  0  0  0  0
   13.5630  -28.0130  -14.0120 C   0  0  0  0  0
   12.8110  -27.8350  -15.3110 C   0  0  0  0  0
   11.4500  -28.3830  -15.0250 C   0  0  0  0  0
   14.0410  -29.8780  -11.2830 N   0  0  0  0  0
   14.0280  -29.8290   -9.8000 C   0  0  0  0  0
   14.4310  -28.4500   -9.2870 C   0  0  0  0  0
   14.9590  -27.6400  -10.0490 O   0  0  0  0  0
   15.0950  -30.8560   -9.4110 C   0  0  0  0  0
   16.0670  -30.7780  -10.5860 C   0  0  0  0  0
   15.1820  -30.6270  -11.8250 C   0  0  0  0  0
   14.2200  -28.1910   -7.9960 N   0  0  0  0  0
   14.5750  -26.8640   -7.4880 C   0  0  0  0  0
   16.0870  -26.7280   -7.4350 C   0  0  0  0  0
   16.8310  -27.6680   -7.1790 O   0  0  0  0  0
   14.0130  -26.8580   -6.0670 C   0  0  0  0  0
   12.9940  -27.8650   -6.0780 C   0  0  0  0  0
   13.4110  -28.9590   -7.0490 C   0  0  0  0  0
   16.5460  -25.5060   -7.6180 N   0  0  0  0  0
   17.9600  -25.1930   -7.3900 C   0  0  0  0  0
   18.2810  -25.1610   -5.8920 C   0  0  0  0  0
   17.4990  -24.6670   -5.1020 O   0  0  0  0  0
   18.2700  -23.8420   -7.9780 C   0  0  0  0  0
   19.4610  -25.6250   -5.5320 N   0  0  0  0  0
   19.9060  -25.5580   -4.1570 C   0  0  0  0  0
   21.2640  -26.2680   -4.0910 C   0  0  0  0  0
   21.8250  -26.4590   -2.7060 C   0  0  0  0  0
   21.1060  -27.8010   -1.7880 S   0  0  0  0  0
   19.8890  -28.3920   -2.4450 O   0  0  0  0  0
   20.8250  -26.8770   -0.3340 C   0  0  0  0  0
   20.0770  -24.0770   -3.7450 C   0  0  0  0  0
   20.6200  -23.2330   -4.4710 O   0  0  0  0  0
   19.6280  -23.7580   -2.5310 N   0  0  0  0  0
   19.6610  -22.3860   -1.9720 C   0  0  0  0  0
   20.5730  -22.4240   -0.7480 C   0  0  0  0  0
   20.4720  -23.3700    0.0710 O   0  0  0  0  0
   18.2400  -22.0370   -1.5070 C   0  0  0  0  0
   18.0930  -20.6770   -0.8500 C   0  0  0  0  0
   16.7080  -20.3970   -0.3660 C   0  0  0  0  0
   16.1080  -21.2410    0.3340 O   0  0  0  0  0
   16.2470  -19.2690   -0.6040 O   0  0  0  0  0
   21.4610  -21.4520   -0.5910 N   0  0  0  0  0
   22.2970  -21.3700    0.6100 C   0  0  0  0  0
   22.2270  -19.9400    1.1840 C   0  0  0  0  0
   22.1480  -18.9480    0.4500 O   0  0  0  0  0
   23.7740  -21.7050    0.3220 C   0  0  0  0  0
   24.0460  -23.1030   -0.1600 C   0  0  0  0  0
   23.5580  -24.2290    0.7300 C   0  0  0  0  0
   24.1430  -24.2340    2.0620 N   0  0  0  0  0
   25.3100  -24.8150    2.3640 C   0  0  0  0  0
   26.0280  -25.4600    1.4470 N   0  0  0  0  0
   25.7110  -24.7690    3.6080 N   0  0  0  0  0
   22.3270  -19.8600    2.5160 N   0  0  0  0  0
   22.2450  -18.5820    3.2590 C   0  0  0  0  0
   23.6100  -17.9270    3.3540 C   0  0  0  0  0
   24.5890  -18.5670    3.7810 O   0  0  0  0  0
   21.7170  -18.8570    4.6990 C   0  0  0  0  0
   21.6370  -17.6980    5.6730 C   0  0  0  0  0
   20.6370  -16.6850    5.1370 C   0  0  0  0  0
   21.2740  -18.2260    7.0320 C   0  0  0  0  0
   23.6240  -16.6260    3.0650 N   0  0  0  0  0
   24.7950  -15.7590    3.2830 C   0  0  0  0  0
   24.5110  -14.5500    4.1930 C   0  0  0  0  0
   23.2870  -14.2220    4.3320 O   0  0  0  0  0
   25.4410  -15.3350    1.9560 C   0  0  0  0  0
   24.5540  -14.3860    1.1260 C   0  0  0  0  0
   25.9100  -16.5350    1.1570 C   0  0  0  0  0
   25.2820  -13.7440   -0.0310 C   0  0  0  0  0
   25.5200  -13.9640    4.6950 O   0  0  0  0  0
    3.8228  -35.2931  -14.7541 H   0  0  0  0  0
    2.7735  -34.7797  -13.5657 H   0  0  0  0  0
    2.4811  -34.3919  -15.1597 H   0  0  0  0  0
    4.3860  -33.0687  -15.2846 H   0  0  0  0  0
    3.7817  -31.3614  -13.4564 H   0  0  0  0  0
    2.3840  -32.5150  -13.1338 H   0  0  0  0  0
    1.3442  -31.9835  -15.0098 H   0  0  0  0  0
    2.9198  -31.4827  -15.8553 H   0  0  0  0  0
    3.3079  -29.6607  -12.8239 H   0  0  0  0  0
    4.1744  -29.2444  -14.3228 H   0  0  0  0  0
    3.1228  -28.0402  -13.5385 H   0  0  0  0  0
    3.9768  -34.6236  -12.1249 H   0  0  0  0  0
    6.1589  -33.4070  -10.8367 H   0  0  0  0  0
    4.6360  -34.6281   -9.4752 H   0  0  0  0  0
    6.1289  -35.6482   -9.4564 H   0  0  0  0  0
    2.4799  -35.6586  -10.5537 H   0  0  0  0  0
    7.1973  -37.6471  -10.7417 H   0  0  0  0  0
    3.2454  -40.3341  -12.2537 H   0  0  0  0  0
    7.4745  -39.9512  -11.5967 H   0  0  0  0  0
    5.5281  -41.2709  -12.3468 H   0  0  0  0  0
    6.6498  -34.8772  -13.6026 H   0  0  0  0  0
    9.2896  -35.8907  -12.7098 H   0  0  0  0  0
    7.8918  -37.4364  -14.8267 H   0  0  0  0  0
    7.2779  -37.6060  -13.1264 H   0  0  0  0  0
    9.5890  -40.3314  -13.1961 H   0  0  0  0  0
    7.9129  -39.8887  -13.5367 H   0  0  0  0  0
    7.4829  -34.4361  -15.3521 H   0  0  0  0  0
   10.0191  -34.2177  -16.7746 H   0  0  0  0  0
    7.9324  -34.3148  -18.0427 H   0  0  0  0  0
    8.8097  -32.7313  -18.3475 H   0  0  0  0  0
    7.2608  -31.6461  -16.8225 H   0  0  0  0  0
    6.8036  -31.6310  -19.2183 H   0  0  0  0  0
    5.9136  -33.1663  -19.0704 H   0  0  0  0  0
    5.2876  -31.6952  -18.2862 H   0  0  0  0  0
    5.8313  -34.3374  -16.8507 H   0  0  0  0  0
    6.6498  -33.6015  -15.4509 H   0  0  0  0  0
    5.1938  -32.8371  -16.1341 H   0  0  0  0  0
    8.5197  -32.3629  -14.2678 H   0  0  0  0  0
    9.5221  -29.8090  -15.1617 H   0  0  0  0  0
    8.9267  -29.0428  -12.9184 H   0  0  0  0  0
    8.7011  -30.7800  -12.4038 H   0  0  0  0  0
    6.5758  -29.5905  -12.8048 H   0  0  0  0  0
    6.8438  -30.9916  -13.9292 H   0  0  0  0  0
    6.1383  -27.2419  -13.5542 H   0  0  0  0  0
    7.8961  -27.1623  -13.8279 H   0  0  0  0  0
    6.7732  -26.5558  -15.0698 H   0  0  0  0  0
   13.7473  -30.2006  -13.7776 H   0  0  0  0  0
   14.6432  -27.9678  -14.1507 H   0  0  0  0  0
   13.3543  -27.2135  -13.3011 H   0  0  0  0  0
   13.2956  -28.3497  -16.1406 H   0  0  0  0  0
   12.7765  -26.7923  -15.6267 H   0  0  0  0  0
   10.7580  -27.6418  -14.6251 H   0  0  0  0  0
   10.9209  -28.7202  -15.9163 H   0  0  0  0  0
   13.0414  -30.0327   -9.3838 H   0  0  0  0  0
   14.6905  -31.8561   -9.2552 H   0  0  0  0  0
   15.5652  -30.6427   -8.4511 H   0  0  0  0  0
   16.6982  -31.6646  -10.6468 H   0  0  0  0  0
   16.7601  -29.9433  -10.4813 H   0  0  0  0  0
   15.6777  -30.1247  -12.6557 H   0  0  0  0  0
   14.9027  -31.5777  -12.2792 H   0  0  0  0  0
   14.1902  -26.0522   -8.1053 H   0  0  0  0  0
   13.6179  -25.8810   -5.7888 H   0  0  0  0  0
   14.7825  -27.0646   -5.3232 H   0  0  0  0  0
   12.0441  -27.4311   -6.3903 H   0  0  0  0  0
   12.8698  -28.2810   -5.0782 H   0  0  0  0  0
   13.9435  -29.7871   -6.5812 H   0  0  0  0  0
   12.5747  -29.4870   -7.5072 H   0  0  0  0  0
   15.9096  -24.7691   -7.9220 H   0  0  0  0  0
   18.5633  -25.9672   -7.8641 H   0  0  0  0  0
   18.0666  -23.8578   -9.0487 H   0  0  0  0  0
   17.6461  -23.0871   -7.4995 H   0  0  0  0  0
   19.3209  -23.6065   -7.8100 H   0  0  0  0  0
   20.0719  -26.0391   -6.2361 H   0  0  0  0  0
   19.1859  -26.0270   -3.4864 H   0  0  0  0  0
   21.9717  -25.6380   -4.6299 H   0  0  0  0  0
   21.1154  -27.2643   -4.5073 H   0  0  0  0  0
   21.6124  -25.5459   -2.1500 H   0  0  0  0  0
   22.8844  -26.6875   -2.8227 H   0  0  0  0  0
   19.5499  -29.1080   -1.9028 H   0  0  0  0  0
   21.7745  -26.4964    0.0423 H   0  0  0  0  0
   20.1607  -26.0424   -0.5581 H   0  0  0  0  0
   20.3649  -27.5173    0.4186 H   0  0  0  0  0
   19.2386  -24.5025   -1.9526 H   0  0  0  0  0
   20.0134  -21.6586   -2.7033 H   0  0  0  0  0
   17.9642  -22.7788   -0.7575 H   0  0  0  0  0
   17.6126  -22.0242   -2.3982 H   0  0  0  0  0
   18.3377  -19.9231   -1.5982 H   0  0  0  0  0
   18.7535  -20.6584    0.0169 H   0  0  0  0  0
   16.6359  -22.0407    0.3917 H   0  0  0  0  0
   21.5644  -20.7470   -1.3209 H   0  0  0  0  0
   21.9136  -22.1024    1.3204 H   0  0  0  0  0
   24.3043  -21.5970    1.2682 H   0  0  0  0  0
   24.0909  -21.0364   -0.4784 H   0  0  0  0  0
   25.1305  -23.2018   -0.2063 H   0  0  0  0  0
   23.5095  -23.2080   -1.1030 H   0  0  0  0  0
   23.8441  -25.1649    0.2500 H   0  0  0  0  0
   22.4827  -24.0990    0.8519 H   0  0  0  0  0
   23.6327  -23.7663    2.8111 H   0  0  0  0  0
   26.8973  -25.9227    1.7127 H   0  0  0  0  0
   25.7088  -25.4915    0.4788 H   0  0  0  0  0
   25.1392  -24.3010    4.3112 H   0  0  0  0  0
   22.4664  -20.7209    3.0449 H   0  0  0  0  0
   21.5679  -17.9142    2.7263 H   0  0  0  0  0
   22.4346  -19.5498    5.1384 H   0  0  0  0  0
   20.6875  -19.1898    4.5666 H   0  0  0  0  0
   22.5952  -17.1886    5.7753 H   0  0  0  0  0
   20.9691  -16.3296    4.1616 H   0  0  0  0  0
   19.6597  -17.1578    5.0394 H   0  0  0  0  0
   20.5680  -15.8442    5.8273 H   0  0  0  0  0
   20.3088  -18.7297    6.9788 H   0  0  0  0  0
   22.0362  -18.9321    7.3615 H   0  0  0  0  0
   21.2146  -17.3978    7.7382 H   0  0  0  0  0
   22.7800  -16.2089    2.6724 H   0  0  0  0  0
   25.5161  -16.3694    3.8266 H   0  0  0  0  0
   22.7346  -14.8377    3.8448 H   0  0  0  0  0
   26.3253  -14.7529    2.2152 H   0  0  0  0  0
   24.2186  -13.5871    1.7873 H   0  0  0  0  0
   23.7368  -14.9772    0.7128 H   0  0  0  0  0
   26.6463  -17.0910    1.7373 H   0  0  0  0  0
   25.0583  -17.1784    0.9364 H   0  0  0  0  0
   26.3615  -16.1953    0.2249 H   0  0  0  0  0
   26.1214  -13.1610    0.3480 H   0  0  0  0  0
   25.6504  -14.5198   -0.7022 H   0  0  0  0  0
   24.5978  -13.0895   -0.5709 H   0  0  0  0  0
  1  2  1  0  0  0
  2  3  1  0  0  0
  2  5  1  0  0  0
  3  4  2  0  0  0
  3  9  1  0  0  0
  5  6  1  0  0  0
  6  7  1  0  0  0
  7  8  1  0  0  0
  9 10  1  0  0  0
 10 11  1  0  0  0
 10 13  1  0  0  0
 11 12  2  0  0  0
 11 23  1  0  0  0
 13 14  1  0  0  0
 14 15  4  0  0  0
 14 16  4  0  0  0
 15 17  4  0  0  0
 16 18  4  0  0  0
 16 19  4  0  0  0
 17 18  4  0  0  0
 18 20  4  0  0  0
 19 21  4  0  0  0
 20 22  4  0  0  0
 21 22  4  0  0  0
 23 24  1  0  0  0
 24 25  1  0  0  0
 24 27  1  0  0  0
 25 26  2  0  0  0
 25 31  1  0  0  0
 27 28  1  0  0  0
 28 29  2  0  0  0
 28 30  1  0  0  0
 31 32  1  0  0  0
 32 33  1  0  0  0
 32 35  1  0  0  0
 33 34  2  0  0  0
 33 39  1  0  0  0
 35 36  1  0  0  0
 36 37  1  0  0  0
 36 38  1  0  0  0
 39 40  1  0  0  0
 40 41  1  0  0  0
 40 43  1  0  0  0
 41 42  2  0  0  0
 41 47  1  0  0  0
 43 44  1  0  0  0
 44 45  1  0  0  0
 45 46  1  0  0  0
 47 48  1  0  0  0
 47 53  1  0  0  0
 48 49  1  0  0  0
 48 51  1  0  0  0
 49 50  2  0  0  0
 49 54  1  0  0  0
 51 52  1  0  0  0
 52 53  1  0  0  0
 54 55  1  0  0  0
 54 60  1  0  0  0
 55 56  1  0  0  0
 55 58  1  0  0  0
 56 57  2  0  0  0
 56 61  1  0  0  0
 58 59  1  0  0  0
 59 60  1  0  0  0
 61 62  1  0  0  0
 61 67  1  0  0  0
 62 63  1  0  0  0
 62 65  1  0  0  0
 63 64  2  0  0  0
 63 68  1  0  0  0
 65 66  1  0  0  0
 66 67  1  0  0  0
 68 69  1  0  0  0
 69 70  1  0  0  0
 69 72  1  0  0  0
 70 71  2  0  0  0
 70 73  1  0  0  0
 73 74  1  0  0  0
 74 75  1  0  0  0
 74 80  1  0  0  0
 75 76  1  0  0  0
 76 77  1  0  0  0
 77 78  1  0  0  0
 77 79  1  0  0  0
 80 81  2  0  0  0
 80 82  1  0  0  0
 82 83  1  0  0  0
 83 84  1  0  0  0
 83 86  1  0  0  0
 84 85  2  0  0  0
 84 91  1  0  0  0
 86 87  1  0  0  0
 87 88  1  0  0  0
 88 89  1  0  0  0
 88 90  2  0  0  0
 91 92  1  0  0  0
 92 93  1  0  0  0
 92 95  1  0  0  0
 93 94  2  0  0  0
 93102  1  0  0  0
 95 96  1  0  0  0
 96 97  1  0  0  0
 97 98  1  0  0  0
 98 99  1  0  0  0
 99100  1  0  0  0
 99101  2  0  0  0
102103  1  0  0  0
103104  1  0  0  0
103106  1  0  0  0
104105  2  0  0  0
104110  1  0  0  0
106107  1  0  0  0
107108  1  0  0  0
107109  1  0  0  0
110111  1  0  0  0
111112  1  0  0  0
111114  1  0  0  0
112113  1  0  0  0
112118  2  0  0  0
114115  1  0  0  0
114116  1  0  0  0
115117  1  0  0  0
  1119  1  0  0  0
  1120  1  0  0  0
  1121  1  0  0  0
  2122  1  0  0  0
  5123  1  0  0  0
  5124  1  0  0  0
  6125  1  0  0  0
  6126  1  0  0  0
  8127  1  0  0  0
  8128  1  0  0  0
  8129  1  0  0  0
  9130  1  0  0  0
 10131  1  0  0  0
 13132  1  0  0  0
 13133  1  0  0  0
 15134  1  0  0  0
 19135  1  0  0  0
 20136  1  0  0  0
 21137  1  0  0  0
 22138  1  0  0  0
 23139  1  0  0  0
 24140  1  0  0  0
 27141  1  0  0  0
 27142  1  0  0  0
 30143  1  0  0  0
 30144  1  0  0  0
 31145  1  0  0  0
 32146  1  0  0  0
 35147  1  0  0  0
 35148  1  0  0  0
 36149  1  0  0  0
 37150  1  0  0  0
 37151  1  0  0  0
 37152  1  0  0  0
 38153  1  0  0  0
 38154  1  0  0  0
 38155  1  0  0  0
 39156  1  0  0  0
 40157  1  0  0  0
 43158  1  0  0  0
 43159  1  0  0  0
 44160  1  0  0  0
 44161  1  0  0  0
 46162  1  0  0  0
 46163  1  0  0  0
 46164  1  0  0  0
 48165  1  0  0  0
 51166  1  0  0  0
 51167  1  0  0  0
 52168  1  0  0  0
 52169  1  0  0  0
 53170  1  0  0  0
 53171  1  0  0  0
 55172  1  0  0  0
 58173  1  0  0  0
 58174  1  0  0  0
 59175  1  0  0  0
 59176  1  0  0  0
 60177  1  0  0  0
 60178  1  0  0  0
 62179  1  0  0  0
 65180  1  0  0  0
 65181  1  0  0  0
 66182  1  0  0  0
 66183  1  0  0  0
 67184  1  0  0  0
 67185  1  0  0  0
 68186  1  0  0  0
 69187  1  0  0  0
 72188  1  0  0  0
 72189  1  0  0  0
 72190  1  0  0  0
 73191  1  0  0  0
 74192  1  0  0  0
 75193  1  0  0  0
 75194  1  0  0  0
 76195  1  0  0  0
 76196  1  0  0  0
 78197  1  0  0  0
 79198  1  0  0  0
 79199  1  0  0  0
 79200  1  0  0  0
 82201  1  0  0  0
 83202  1  0  0  0
 86203  1  0  0  0
 86204  1  0  0  0
 87205  1  0  0  0
 87206  1  0  0  0
 89207  1  0  0  0
 91208  1  0  0  0
 92209  1  0  0  0
 95210  1  0  0  0
 95211  1  0  0  0
 96212  1  0  0  0
 96213  1  0  0  0
 97214  1  0  0  0
 97215  1  0  0  0
 98216  1  0  0  0
100217  1  0  0  0
100218  1  0  0  0
101219  1  0  0  0
102220  1  0  0  0
103221  1  0  0  0
106222  1  0  0  0
106223  1  0  0  0
107224  1  0  0  0
108225  1  0  0  0
108226  1  0  0  0
108227  1  0  0  0
109228  1  0  0  0
109229  1  0  0  0
109230  1  0  0  0
110231  1  0  0  0
111232  1  0  0  0
113233  1  0  0  0
114234  1  0  0  0
115235  1  0  0  0
115236  1  0  0  0
116237  1  0  0  0
116238  1  0  0  0
116239  1  0  0  0
117240  1  0  0  0
117241  1  0  0  0
117242  1  0  0  0
M  END
$$$$
