6q9y_ligand
  -I-interpret- 

 48 51  0  0  0  0  0  0  0  0999 V2000
   -9.7650   11.0330  -17.2820 C   0  0  0  0  0
  -10.5490   12.1730  -17.1500 C   0  0  0  0  0
  -10.4110   13.0200  -16.0440 C   0  0  0  0  0
  -12.0410   14.6040  -16.8820 C   0  0  0  0  0
   -6.8410   10.5220  -13.5990 C   0  0  0  0  0
   -5.2660    8.8070  -14.3430 C   0  0  0  0  0
   -3.8150    9.2560  -14.1060 C   0  0  0  0  0
   -3.8600    7.1020  -15.2550 C   0  0  0  0  0
   -5.1470    7.8750  -15.5620 C   0  0  0  0  0
   -1.8930    7.6870  -13.8800 C   0  0  0  0  0
   -1.3660    6.3880  -14.0500 C   0  0  0  0  0
   -0.1860    5.9990  -13.4190 C   0  0  0  0  0
    0.5210    6.8790  -12.6060 C   0  0  0  0  0
    0.0120    8.1600  -12.4280 C   0  0  0  0  0
   -1.1680    8.5680  -13.0530 C   0  0  0  0  0
    1.8250    6.4290  -11.9360 C   0  0  0  0  0
   -8.8190   10.7060  -16.3130 C   0  0  0  0  0
   -8.6620   11.5460  -15.2040 C   0  0  0  0  0
   -9.4510   12.6870  -15.0790 C   0  0  0  0  0
   -9.1690   13.3270  -13.9000 N   0  0  0  0  0
   -8.2220   12.6450  -13.2500 C   0  0  0  0  0
   -7.8300   11.5510  -13.9550 C   0  0  0  0  0
  -11.1380   14.1810  -15.8440 O   0  0  0  0  0
   -6.1970    9.9010  -14.6030 N   0  0  0  0  0
   -6.6160   10.2470  -12.4170 O   0  0  0  0  0
   -3.0890    8.0490  -14.4510 N   0  0  0  0  0
   -9.8915   10.3886  -18.1520 H   0  0  0  0  0
  -11.2829   12.4113  -17.9198 H   0  0  0  0  0
  -11.4809   14.7762  -17.8011 H   0  0  0  0  0
  -12.7881   13.8283  -17.0502 H   0  0  0  0  0
  -12.5354   15.5266  -16.5780 H   0  0  0  0  0
   -5.6834    8.3325  -13.4549 H   0  0  0  0  0
   -3.6239    9.6100  -13.0929 H   0  0  0  0  0
   -3.5230   10.1276  -14.6917 H   0  0  0  0  0
   -3.3329    6.7862  -16.1553 H   0  0  0  0  0
   -4.0464    6.1619  -14.7357 H   0  0  0  0  0
   -5.1104    8.4108  -16.5105 H   0  0  0  0  0
   -6.0148    7.2290  -15.6952 H   0  0  0  0  0
   -1.8919    5.6764  -14.6865 H   0  0  0  0  0
    0.1900    4.9864  -13.5652 H   0  0  0  0  0
    0.5456    8.8614  -11.7865 H   0  0  0  0  0
   -1.5339    9.5831  -12.8989 H   0  0  0  0  0
    1.6234    5.5763  -11.2876 H   0  0  0  0  0
    2.5454    6.1423  -12.7021 H   0  0  0  0  0
    2.2297    7.2497  -11.3438 H   0  0  0  0  0
   -8.2094    9.8084  -16.4168 H   0  0  0  0  0
   -7.8159   12.9292  -12.2792 H   0  0  0  0  0
   -6.3621   10.1999  -15.5641 H   0  0  0  0  0
  1  2  4  0  0  0
 17  1  4  0  0  0
  3  2  4  0  0  0
 19  3  4  0  0  0
  3 23  1  0  0  0
 23  4  1  0  0  0
 22  5  1  0  0  0
  5 24  1  0  0  0
  5 25  2  0  0  0
  6  7  1  0  0  0
  6  9  1  0  0  0
 24  6  1  0  0  0
  7 26  1  0  0  0
  9  8  1  0  0  0
  8 26  1  0  0  0
 10 11  4  0  0  0
 10 15  4  0  0  0
 26 10  1  0  0  0
 11 12  4  0  0  0
 12 13  4  0  0  0
 14 13  4  0  0  0
 13 16  1  0  0  0
 15 14  4  0  0  0
 18 17  4  0  0  0
 18 19  4  0  0  0
 18 22  4  0  0  0
 19 20  4  0  0  0
 20 21  4  0  0  0
 21 22  4  0  0  0
  1 27  1  0  0  0
  2 28  1  0  0  0
  4 29  1  0  0  0
  4 30  1  0  0  0
  4 31  1  0  0  0
  6 32  1  0  0  0
  7 33  1  0  0  0
  7 34  1  0  0  0
  8 35  1  0  0  0
  8 36  1  0  0  0
  9 37  1  0  0  0
  9 38  1  0  0  0
 11 39  1  0  0  0
 12 40  1  0  0  0
 14 41  1  0  0  0
 15 42  1  0  0  0
 16 43  1  0  0  0
 16 44  1  0  0  0
 16 45  1  0  0  0
 17 46  1  0  0  0
 21 47  1  0  0  0
 24 48  1  0  0  0
M  END
$$$$
