1z3j_ligand
  -I-interpret- 

 41 41  0  0  0  0  0  0  0  0999 V2000
    5.8860   -5.7600   -5.2560 C   0  0  0  0  0
    5.7230   -5.7310   -3.8800 C   0  0  0  0  0
    6.2720   -4.6790   -3.1570 C   0  0  0  0  0
    6.9760   -3.6680   -3.8150 C   0  0  0  0  0
    7.1220   -3.7230   -5.1870 C   0  0  0  0  0
    6.5820   -4.7640   -5.9320 C   0  0  0  0  0
    6.1980   -4.5290   -1.7870 O   0  0  0  0  0
    7.3200   -3.9920   -1.1330 C   0  0  0  0  0
    6.8040   -4.8360   -7.7200 S   0  0  0  0  0
    8.2610   -4.9400   -7.9810 O   0  0  0  0  0
    5.9980   -5.9490   -8.2590 O   0  0  0  0  0
    6.1950   -3.2670   -8.3020 N   0  0  0  0  0
    7.0600   -2.3800   -9.1350 C   0  0  0  0  0
    5.0940   -2.5500   -7.5430 C   0  0  0  0  0
    5.6450   -1.4570   -6.6760 C   0  0  0  0  0
    4.8660   -0.5520   -6.0710 N   0  0  0  0  0
    5.2230    0.5390   -5.4600 O   0  0  0  0  0
    6.9100   -1.2980   -6.6500 O   0  0  0  0  0
    6.9630   -2.6650  -10.6380 C   0  0  0  0  0
    7.5810   -4.0070  -10.9930 C   0  0  0  0  0
    7.6860   -1.5510  -11.3790 C   0  0  0  0  0
    5.4570   -6.5858   -5.8236 H   0  0  0  0  0
    5.1718   -6.5224   -3.3720 H   0  0  0  0  0
    7.4070   -2.8417   -3.2497 H   0  0  0  0  0
    7.6729   -2.9325   -5.6966 H   0  0  0  0  0
    8.1829   -4.6347   -1.3077 H   0  0  0  0  0
    7.5234   -2.9946   -1.5228 H   0  0  0  0  0
    7.1209   -3.9317   -0.0630 H   0  0  0  0  0
    8.0931   -2.5553   -8.8349 H   0  0  0  0  0
    6.7274   -1.3545   -8.9745 H   0  0  0  0  0
    4.5868   -3.2739   -6.9051 H   0  0  0  0  0
    4.4098   -2.1053   -8.2657 H   0  0  0  0  0
    3.8642   -0.7425   -6.0919 H   0  0  0  0  0
    4.4427    0.9866   -5.1247 H   0  0  0  0  0
    5.9126   -2.7042  -10.9265 H   0  0  0  0  0
    8.6333   -4.0075  -10.7090 H   0  0  0  0  0
    7.0584   -4.7994  -10.4572 H   0  0  0  0  0
    7.4930   -4.1734  -12.0666 H   0  0  0  0  0
    7.2146   -0.5961  -11.1465 H   0  0  0  0  0
    8.7303   -1.5274  -11.0677 H   0  0  0  0  0
    7.6294   -1.7338  -12.4521 H   0  0  0  0  0
  1  2  4  0  0  0
  1  6  4  0  0  0
  2  3  4  0  0  0
  3  4  4  0  0  0
  3  7  1  0  0  0
  4  5  4  0  0  0
  5  6  4  0  0  0
  6  9  1  0  0  0
  7  8  1  0  0  0
  9 10  2  0  0  0
  9 11  2  0  0  0
  9 12  1  0  0  0
 12 13  1  0  0  0
 12 14  1  0  0  0
 13 19  1  0  0  0
 14 15  1  0  0  0
 15 16  1  0  0  0
 15 18  2  0  0  0
 16 17  1  0  0  0
 19 20  1  0  0  0
 19 21  1  0  0  0
  1 22  1  0  0  0
  2 23  1  0  0  0
  4 24  1  0  0  0
  5 25  1  0  0  0
  8 26  1  0  0  0
  8 27  1  0  0  0
  8 28  1  0  0  0
 13 29  1  0  0  0
 13 30  1  0  0  0
 14 31  1  0  0  0
 14 32  1  0  0  0
 16 33  1  0  0  0
 17 34  1  0  0  0
 19 35  1  0  0  0
 20 36  1  0  0  0
 20 37  1  0  0  0
 20 38  1  0  0  0
 21 39  1  0  0  0
 21 40  1  0  0  0
 21 41  1  0  0  0
M  END
$$$$
