3ddu_ligand
  -I-interpret- 

 48 51  0  0  0  0  0  0  0  0999 V2000
   -4.8100   11.3780   34.5030 Cl  0  0  0  0  0
   -5.4620   11.7490   32.9340 C   0  0  0  0  0
   -6.8010   11.5350   32.8030 N   0  0  0  0  0
   -4.6870   12.1820   31.9420 C   0  0  0  0  0
   -5.2310   12.4510   30.7400 N   0  0  0  0  0
   -4.2930   12.9190   29.7590 C   0  0  0  0  0
   -4.1970   11.8140   28.7490 C   0  0  0  0  0
   -3.7610   12.2160   27.5240 N   0  0  0  0  0
   -3.6570   11.2790   26.4540 C   0  0  0  0  0
   -3.1790   12.1020   25.2780 C   0  0  0  0  0
   -2.4810   13.2930   25.9120 C   0  0  0  0  0
   -3.1980   13.5000   27.2200 C   0  0  0  0  0
   -4.4580   10.6690   29.0040 O   0  0  0  0  0
   -2.9980   13.0930   30.5550 C   0  0  0  0  0
   -3.2290   12.4590   31.9230 C   0  0  0  0  0
   -6.5480   12.2600   30.4680 C   0  0  0  0  0
   -7.1140   12.4610   29.4170 O   0  0  0  0  0
   -7.3280   11.7590   31.6470 C   0  0  0  0  0
   -8.6380   11.6270   31.2820 O   0  0  0  0  0
   -9.5340   11.5230   32.3770 C   0  0  0  0  0
   -9.9390   12.8310   32.9290 C   0  0  0  0  0
   -9.9960   13.9520   32.1430 C   0  0  0  0  0
  -10.3840   15.1530   32.6860 C   0  0  0  0  0
  -10.2750   12.8990   34.2550 C   0  0  0  0  0
  -10.6720   14.0950   34.7990 C   0  0  0  0  0
  -10.7170   15.2160   34.0170 C   0  0  0  0  0
  -11.1020   16.4030   34.5160 F   0  0  0  0  0
   -4.6627   11.7936   32.9602 H   0  0  0  0  0
   -4.5439   13.8450   29.2415 H   0  0  0  0  0
   -4.6066   10.7848   26.2488 H   0  0  0  0  0
   -2.9723   10.4640   26.6886 H   0  0  0  0  0
   -4.0003   12.4056   24.6289 H   0  0  0  0  0
   -2.5141   11.5367   24.6249 H   0  0  0  0  0
   -2.5267   14.1779   25.2773 H   0  0  0  0  0
   -1.4155   13.1128   26.0549 H   0  0  0  0  0
   -2.5268   13.8494   28.0045 H   0  0  0  0  0
   -3.9604   14.2760   27.1512 H   0  0  0  0  0
   -2.7455   14.1485   30.6561 H   0  0  0  0  0
   -2.1629   12.6145   30.0435 H   0  0  0  0  0
   -2.6331   11.5581   32.0693 H   0  0  0  0  0
   -2.9192   13.1103   32.7403 H   0  0  0  0  0
   -7.1368   11.3554   32.6413 H   0  0  0  0  0
   -9.0228   10.9760   33.1692 H   0  0  0  0  0
  -10.4346   11.0244   32.0186 H   0  0  0  0  0
   -9.7335   13.8909   31.0868 H   0  0  0  0  0
  -10.4272   16.0482   32.0657 H   0  0  0  0  0
  -10.2272   12.0052   34.8770 H   0  0  0  0  0
  -10.9506   14.1511   35.8513 H   0  0  0  0  0
  1  2  1  0  0  0
  2  3  2  0  0  0
  2  4  1  0  0  0
  3 18  1  0  0  0
  4  5  1  0  0  0
  4 15  1  0  0  0
  5  6  1  0  0  0
  5 16  1  0  0  0
  6  7  1  0  0  0
  6 14  1  0  0  0
  7  8  1  0  0  0
  7 13  2  0  0  0
  8  9  1  0  0  0
  8 12  1  0  0  0
  9 10  1  0  0  0
 10 11  1  0  0  0
 11 12  1  0  0  0
 14 15  1  0  0  0
 16 17  2  0  0  0
 16 18  1  0  0  0
 18 19  1  0  0  0
 19 20  1  0  0  0
 20 21  1  0  0  0
 21 22  4  0  0  0
 21 24  4  0  0  0
 22 23  4  0  0  0
 23 26  4  0  0  0
 24 25  4  0  0  0
 25 26  4  0  0  0
 26 27  1  0  0  0
  4 28  1  0  0  0
  6 29  1  0  0  0
  9 30  1  0  0  0
  9 31  1  0  0  0
 10 32  1  0  0  0
 10 33  1  0  0  0
 11 34  1  0  0  0
 11 35  1  0  0  0
 12 36  1  0  0  0
 12 37  1  0  0  0
 14 38  1  0  0  0
 14 39  1  0  0  0
 15 40  1  0  0  0
 15 41  1  0  0  0
 18 42  1  0  0  0
 20 43  1  0  0  0
 20 44  1  0  0  0
 22 45  1  0  0  0
 23 46  1  0  0  0
 24 47  1  0  0  0
 25 48  1  0  0  0
M  END
$$$$
