1q0b_ligand
  -I-interpret- 

 36 37  0  0  0  0  0  0  0  0999 V2000
   18.9440   14.0740  112.2220 C   0  0  0  0  0
   17.9470   13.4400  111.3640 C   0  0  0  0  0
   16.9050   12.6140  111.9150 C   0  0  0  0  0
   16.8720   12.4480  113.3610 C   0  0  0  0  0
   17.8400   13.1070  114.2080 C   0  0  0  0  0
   18.9120   13.9210  113.6650 C   0  0  0  0  0
   18.0230   13.6040  109.8900 C   0  0  0  0  0
   19.3220   13.1940  109.3440 N   0  0  0  0  0
   20.2140   14.0440  108.7860 C   0  0  0  0  0
   19.8820   15.3390  108.6480 N   0  0  0  0  0
   18.5380   15.8290  108.9490 C   0  0  0  0  0
   17.6030   14.9940  109.4580 C   0  0  0  0  0
   15.9420   11.6470  113.9240 O   0  0  0  0  0
   16.1700   15.3890  109.6840 C   0  0  0  0  0
   15.8650   16.7060  109.6070 O   0  0  0  0  0
   14.5240   17.3280  109.7240 C   0  0  0  0  0
   14.6040   18.8410  109.4300 C   0  0  0  0  0
   18.3510   17.2970  108.6310 C   0  0  0  0  0
   15.3490   14.5470  109.9340 O   0  0  0  0  0
   21.6940   13.5190  108.2240 S   0  0  0  0  0
   19.7309   14.6764  111.7681 H   0  0  0  0  0
   16.1680   12.1307  111.2736 H   0  0  0  0  0
   17.7626   12.9890  115.2888 H   0  0  0  0  0
   19.6549   14.3932  114.3079 H   0  0  0  0  0
   17.2981   12.9170  109.4534 H   0  0  0  0  0
   19.5679   12.2051  109.3881 H   0  0  0  0  0
   20.5885   15.9993  108.3237 H   0  0  0  0  0
   16.0562   11.6468  114.8772 H   0  0  0  0  0
   14.1531   17.1830  110.7387 H   0  0  0  0  0
   13.8526   16.8616  109.0030 H   0  0  0  0  0
   15.2783   19.3135  110.1443 H   0  0  0  0  0
   14.9794   18.9939  108.4182 H   0  0  0  0  0
   13.6106   19.2805  109.5206 H   0  0  0  0  0
   17.5588   17.4090  107.8907 H   0  0  0  0  0
   18.0786   17.8326  109.5404 H   0  0  0  0  0
   19.2814   17.7028  108.2337 H   0  0  0  0  0
  1  6  4  0  0  0
  1  2  4  0  0  0
  2  7  1  0  0  0
  2  3  4  0  0  0
  3  4  4  0  0  0
  4 13  1  0  0  0
  4  5  4  0  0  0
  5  6  4  0  0  0
  7 12  1  0  0  0
  7  8  1  0  0  0
  8  9  1  0  0  0
  9 20  2  0  0  0
  9 10  1  0  0  0
 10 11  1  0  0  0
 11 18  1  0  0  0
 11 12  2  0  0  0
 12 14  1  0  0  0
 14 19  2  0  0  0
 14 15  1  0  0  0
 15 16  1  0  0  0
 16 17  1  0  0  0
  1 21  1  0  0  0
  3 22  1  0  0  0
  5 23  1  0  0  0
  6 24  1  0  0  0
  7 25  1  0  0  0
  8 26  1  0  0  0
 10 27  1  0  0  0
 13 28  1  0  0  0
 16 29  1  0  0  0
 16 30  1  0  0  0
 17 31  1  0  0  0
 17 32  1  0  0  0
 17 33  1  0  0  0
 18 34  1  0  0  0
 18 35  1  0  0  0
 18 36  1  0  0  0
M  END
$$$$
