6ggv_ligand
  -I-interpret- 

 27 26  0  0  0  0  0  0  0  0999 V2000
    8.5950   -7.8050   38.0030 N   0  3  0  0  0
    9.2370   -6.5030   38.1630 C   0  0  0  0  0
   10.7350   -6.6340   37.8950 C   0  0  0  0  0
   11.2350   -7.7420   37.6670 O   0  0  0  0  0
    8.9630   -5.9240   39.5690 C   0  0  0  0  0
    9.9900   -6.2670   40.6160 C   0  0  0  0  0
    9.3780   -6.9570   41.7810 C   0  0  0  0  0
    9.8470   -6.3660   43.0290 N   0  0  0  0  0
    9.8940   -6.9730   44.2040 C   0  0  0  0  0
   10.3440   -6.2940   45.2330 N   0  0  0  0  0
    9.5120   -8.2360   44.3560 N   0  0  0  0  0
   11.4770   -5.6530   37.8920 O   0  0  0  0  0
    8.7897   -8.1663   37.0692 H   0  0  0  0  0
    8.9609   -8.4514   38.7020 H   0  0  0  0  0
    7.5876   -7.7035   38.1264 H   0  0  0  0  0
    8.8157   -5.8053   37.4393 H   0  0  0  0  0
   10.5500   -8.4138   37.6996 H   0  0  0  0  0
    8.0188   -6.3525   39.9050 H   0  0  0  0  0
    8.9707   -4.8388   39.4672 H   0  0  0  0  0
   10.4460   -5.3409   40.9661 H   0  0  0  0  0
   10.7261   -6.9351   40.1690 H   0  0  0  0  0
    9.6621   -8.0091   41.7587 H   0  0  0  0  0
    8.2944   -6.8528   41.7251 H   0  0  0  0  0
   10.1674   -5.3983   42.9930 H   0  0  0  0  0
   10.6450   -5.3268   45.1136 H   0  0  0  0  0
    9.5683   -8.6790   45.2731 H   0  0  0  0  0
    9.1624   -8.7629   43.5557 H   0  0  0  0  0
  1  2  1  0  0  0
  2  3  1  0  0  0
  2  5  1  0  0  0
  3  4  1  0  0  0
  3 12  2  0  0  0
  5  6  1  0  0  0
  6  7  1  0  0  0
  7  8  1  0  0  0
  8  9  1  0  0  0
  9 10  2  0  0  0
  9 11  1  0  0  0
  1 13  1  0  0  0
  1 14  1  0  0  0
  1 15  1  0  0  0
  2 16  1  0  0  0
  4 17  1  0  0  0
  5 18  1  0  0  0
  5 19  1  0  0  0
  6 20  1  0  0  0
  6 21  1  0  0  0
  7 22  1  0  0  0
  7 23  1  0  0  0
  8 24  1  0  0  0
 10 25  1  0  0  0
 11 26  1  0  0  0
 11 27  1  0  0  0
M  END
$$$$
