### 
### Created by X-TOOL on Mon Sep 10 21:13:16 2018
### 

@<TRIPOS>MOLECULE
4onf_ligand
   94    94     1     0     0
SMALL
GAST_HUCK


@<TRIPOS>ATOM
      1 N           3.2780    4.3280   33.4460 N.4       1 ASP         0.2391
      2 CA          2.6010    5.5700   33.8320 C.3       1 ASP         0.0764
      3 C           1.3140    5.3270   34.6040 C.2       1 ASP         0.2284
      4 O           0.9050    6.1770   35.3890 O.2       1 ASP        -0.3906
      5 CB          2.2740    6.4430   32.6160 C.3       1 ASP         0.0607
      6 CG          3.4740    7.2130   32.1000 C.2       1 ASP         0.0425
      7 OD1         4.5690    7.1390   32.7100 O.co2     1 ASP        -0.5686
      8 OD2         3.3070    7.9060   31.0800 O.co2     1 ASP        -0.5686
      9 N           0.6600    4.1920   34.3470 N.am      1 ALA        -0.2612
     10 CA         -0.5980    3.8450   35.0250 C.3       1 ALA         0.1283
     11 C          -0.4910    3.9800   36.5470 C.2       1 ALA         0.2036
     12 O          -1.4510    4.3670   37.2230 O.2       1 ALA        -0.3944
     13 CB         -1.0150    2.4400   34.6620 C.3       1 ALA        -0.0244
     14 N           0.6880    3.6730   37.0780 N.am      1 GLU        -0.2636
     15 CA          0.8990    3.6380   38.5270 C.3       1 GLU         0.1325
     16 C           0.6940    5.0050   39.1820 C.2       1 GLU         0.2041
     17 O           0.4350    5.1010   40.3860 O.2       1 GLU        -0.3944
     18 CB          2.3040    3.1070   38.8520 C.3       1 GLU        -0.0008
     19 CG          3.4500    3.9560   38.2890 C.3       1 GLU         0.0044
     20 CD          3.8620    3.5720   36.8630 C.2       1 GLU         0.0350
     21 OE1         3.0850    2.8780   36.1610 O.co2     1 GLU        -0.5690
     22 OE2         4.9840    3.9490   36.4580 O.co2     1 GLU        -0.5690
     23 N           0.8050    6.0660   38.3930 N.am      1 PHE        -0.2619
     24 CA          0.6530    7.4140   38.9370 C.3       1 PHE         0.1404
     25 C          -0.7990    7.8410   39.0120 C.2       1 PHE         0.2060
     26 O          -1.1160    8.8610   39.6110 O.2       1 PHE        -0.3942
     27 CB          1.4380    8.4170   38.1040 C.3       1 PHE         0.0214
     28 CG          2.9190    8.1380   38.0790 C.ar      1 PHE        -0.0386
     29 CD1         3.6790    8.2850   39.2290 C.ar      1 PHE        -0.0601
     30 CD2         3.5350    7.7230   36.9200 C.ar      1 PHE        -0.0601
     31 CE1         5.0450    8.0180   39.2240 C.ar      1 PHE        -0.0686
     32 CE2         4.9020    7.4600   36.8950 C.ar      1 PHE        -0.0686
     33 CZ          5.6530    7.6110   38.0500 C.ar      1 PHE        -0.0687
     34 N          -1.6800    7.0540   38.4110 N.am      1 ARG        -0.2636
     35 CA         -3.0840    7.4440   38.3300 C.3       1 ARG         0.1311
     36 C          -4.0120    6.6140   39.2290 C.2       1 ARG         0.2034
     37 O          -5.2010    6.9270   39.3540 O.2       1 ARG        -0.3944
     38 CB         -3.5590    7.3960   36.8760 C.3       1 ARG        -0.0092
     39 CG         -2.9640    8.4810   35.9750 C.3       1 ARG        -0.0156
     40 CD         -3.5660    8.4300   34.5560 C.3       1 ARG         0.0627
     41 NE         -3.1880    7.1980   33.8630 N.pl3     1 ARG        -0.2723
     42 CZ         -3.9540    6.1150   33.7900 C.cat     1 ARG         0.2882
     43 NH1        -5.1590    6.1190   34.3450 N.pl3     1 ARG        -0.2849
     44 NH2        -3.5160    5.0280   33.1560 N.pl3     1 ARG        -0.2849
     45 N          -3.4690    5.5630   39.8370 N.am      1 HIS        -0.2673
     46 CA         -4.2250    4.7010   40.7490 C.3       1 HIS         0.1198
     47 C          -4.2810    5.2920   42.1590 C.2       1 HIS         0.2147
     48 O          -5.3040    5.2110   42.8450 O.co2     1 HIS        -0.4120
     49 CB         -3.5940    3.3090   40.8040 C.3       1 HIS        -0.0276
     50 H           4.1211    4.5484   32.9394 H         1 ASP         0.2016
     51 H           2.6673    3.7805   32.8600 H         1 ASP         0.2016
     52 H           3.5111    3.8013   34.2732 H         1 ASP         0.2016
     53 H           3.2886    6.1297   34.4832 H         1 ASP         0.1117
     54 H           1.4920    7.1623   32.9009 H         1 ASP         0.0512
     55 H           1.9001    5.7951   31.8096 H         1 ASP         0.0512
     56 H           1.0374    3.5578   33.6722 H         1 ALA         0.1884
     57 H          -1.3754    4.5401   34.6751 H         1 ALA         0.0797
     58 H          -1.9562    2.1928   35.1749 H         1 ALA         0.0277
     59 H          -0.2316    1.7331   34.9727 H         1 ALA         0.0277
     60 H          -1.1612    2.3704   33.5740 H         1 ALA         0.0277
     61 H           1.4533    3.4597   36.4706 H         1 GLU         0.1883
     62 H           0.1609    2.9446   38.9564 H         1 GLU         0.0801
     63 H           2.3923    2.0921   38.4371 H         1 GLU         0.0330
     64 H           2.4116    3.0666   39.9460 H         1 GLU         0.0330
     65 H           4.3242    3.8381   38.9461 H         1 GLU         0.0433
     66 H           3.1325    5.0092   38.2865 H         1 GLU         0.0433
     67 H           0.9941    5.9424   37.4188 H         1 PHE         0.1885
     68 H           1.0621    7.4146   39.9581 H         1 PHE         0.0823
     69 H           1.2785    9.4211   38.5239 H         1 PHE         0.0474
     70 H           1.0591    8.3868   37.0718 H         1 PHE         0.0474
     71 H           3.2024    8.6128   40.1458 H         1 PHE         0.0557
     72 H           2.9490    7.5995   36.0164 H         1 PHE         0.0557
     73 H           5.6271    8.1280   40.1318 H         1 PHE         0.0599
     74 H           5.3773    7.1383   35.9754 H         1 PHE         0.0599
     75 H           6.7181    7.4099   38.0334 H         1 PHE         0.0559
     76 H          -1.3809    6.1878   38.0107 H         1 ARG         0.1883
     77 H          -3.1515    8.4873   38.6719 H         1 ARG         0.0800
     78 H          -4.6534    7.5062   36.8688 H         1 ARG         0.0313
     79 H          -3.2864    6.4156   36.4582 H         1 ARG         0.0313
     80 H          -1.8762    8.3325   35.9073 H         1 ARG         0.0301
     81 H          -3.1728    9.4666   36.4166 H         1 ARG         0.0301
     82 H          -3.1993    9.2923   33.9798 H         1 ARG         0.0689
     83 H          -4.6625    8.4778   34.6298 H         1 ARG         0.0689
     84 H          -2.2677    7.1685   33.4015 H         1 ARG         0.2642
     85 H          -5.7544    5.2803   34.2895 H         1 ARG         0.2615
     86 H          -5.4992    6.9608   34.8314 H         1 ARG         0.2615
     87 H          -2.5804    5.0250   32.7251 H         1 ARG         0.2615
     88 H          -4.1130    4.1907   33.0968 H         1 ARG         0.2615
     89 H          -2.5066    5.3529   39.6648 H         1 HIS         0.1876
     90 H          -5.2526    4.6090   40.3676 H         1 HIS         0.0748
     91 O1         -3.2653    5.8715   42.6282 O.co2     1 HIS        -0.4120
     92 H          -4.1702    2.6722   41.4913 H         1 HIS         0.0271
     93 H          -2.5571    3.3903   41.1619 H         1 HIS         0.0271
     94 H          -3.6009    2.8632   39.7984 H         1 HIS         0.0271
@<TRIPOS>BOND
     1    1    2 1  
     2    2    3 1  
     3    2    5 1  
     4    3    4 2  
     5    3    9 am 
     6    5    6 1  
     7    6    7 ar 
     8    6    8 ar 
     9    9   10 1  
    10   10   11 1  
    11   10   13 1  
    12   11   12 2  
    13   11   14 am 
    14   14   15 1  
    15   15   16 1  
    16   15   18 1  
    17   16   17 2  
    18   16   23 am 
    19   18   19 1  
    20   19   20 1  
    21   20   21 ar 
    22   20   22 ar 
    23   23   24 1  
    24   24   25 1  
    25   24   27 1  
    26   25   26 2  
    27   25   34 am 
    28   27   28 1  
    29   28   29 ar 
    30   28   30 ar 
    31   29   31 ar 
    32   30   32 ar 
    33   31   33 ar 
    34   32   33 ar 
    35   34   35 1  
    36   35   36 1  
    37   35   38 1  
    38   36   37 2  
    39   36   45 am 
    40   38   39 1  
    41   39   40 1  
    42   40   41 1  
    43   41   42 ar 
    44   42   43 ar 
    45   42   44 ar 
    46   45   46 1  
    47   46   47 1  
    48   46   49 1  
    49   47   48 ar 
    50    1   50 1  
    51    1   51 1  
    52    1   52 1  
    53    2   53 1  
    54    5   54 1  
    55    5   55 1  
    56    9   56 1  
    57   10   57 1  
    58   13   58 1  
    59   13   59 1  
    60   13   60 1  
    61   14   61 1  
    62   15   62 1  
    63   18   63 1  
    64   18   64 1  
    65   19   65 1  
    66   19   66 1  
    67   23   67 1  
    68   24   68 1  
    69   27   69 1  
    70   27   70 1  
    71   29   71 1  
    72   30   72 1  
    73   31   73 1  
    74   32   74 1  
    75   33   75 1  
    76   34   76 1  
    77   35   77 1  
    78   38   78 1  
    79   38   79 1  
    80   39   80 1  
    81   39   81 1  
    82   40   82 1  
    83   40   83 1  
    84   41   84 1  
    85   43   85 1  
    86   43   86 1  
    87   44   87 1  
    88   44   88 1  
    89   45   89 1  
    90   46   90 1  
    91   47   91 ar 
    92   49   92 1  
    93   49   93 1  
    94   49   94 1  
@<TRIPOS>SUBSTRUCTURE
     1 ASP         1

