4onf_ligand
  -I-interpret- 

 96 96  0  0  0  0  0  0  0  0999 V2000
    3.2780    4.3280   33.4460 N   0  3  0  0  0
    2.6010    5.5700   33.8320 C   0  0  0  0  0
    1.3140    5.3270   34.6040 C   0  0  0  0  0
    0.9050    6.1770   35.3890 O   0  0  0  0  0
    2.2740    6.4430   32.6160 C   0  0  0  0  0
    3.4740    7.2130   32.1000 C   0  0  0  0  0
    4.5690    7.1390   32.7100 O   0  0  0  0  0
    3.3070    7.9060   31.0800 O   0  0  0  0  0
    0.6600    4.1920   34.3470 N   0  0  0  0  0
   -0.5980    3.8450   35.0250 C   0  0  0  0  0
   -0.4910    3.9800   36.5470 C   0  0  0  0  0
   -1.4510    4.3670   37.2230 O   0  0  0  0  0
   -1.0150    2.4400   34.6620 C   0  0  0  0  0
    0.6880    3.6730   37.0780 N   0  0  0  0  0
    0.8990    3.6380   38.5270 C   0  0  0  0  0
    0.6940    5.0050   39.1820 C   0  0  0  0  0
    0.4350    5.1010   40.3860 O   0  0  0  0  0
    2.3040    3.1070   38.8520 C   0  0  0  0  0
    3.4500    3.9560   38.2890 C   0  0  0  0  0
    3.8620    3.5720   36.8630 C   0  0  0  0  0
    3.0850    2.8780   36.1610 O   0  0  0  0  0
    4.9840    3.9490   36.4580 O   0  0  0  0  0
    0.8050    6.0660   38.3930 N   0  0  0  0  0
    0.6530    7.4140   38.9370 C   0  0  0  0  0
   -0.7990    7.8410   39.0120 C   0  0  0  0  0
   -1.1160    8.8610   39.6110 O   0  0  0  0  0
    1.4380    8.4170   38.1040 C   0  0  0  0  0
    2.9190    8.1380   38.0790 C   0  0  0  0  0
    3.6790    8.2850   39.2290 C   0  0  0  0  0
    3.5350    7.7230   36.9200 C   0  0  0  0  0
    5.0450    8.0180   39.2240 C   0  0  0  0  0
    4.9020    7.4600   36.8950 C   0  0  0  0  0
    5.6530    7.6110   38.0500 C   0  0  0  0  0
   -1.6800    7.0540   38.4110 N   0  0  0  0  0
   -3.0840    7.4440   38.3300 C   0  0  0  0  0
   -4.0120    6.6140   39.2290 C   0  0  0  0  0
   -5.2010    6.9270   39.3540 O   0  0  0  0  0
   -3.5590    7.3960   36.8760 C   0  0  0  0  0
   -2.9640    8.4810   35.9750 C   0  0  0  0  0
   -3.5660    8.4300   34.5560 C   0  0  0  0  0
   -3.1880    7.1980   33.8630 N   0  0  0  0  0
   -3.9540    6.1150   33.7900 C   0  0  0  0  0
   -5.1590    6.1190   34.3450 N   0  0  0  0  0
   -3.5160    5.0280   33.1560 N   0  0  0  0  0
   -3.4690    5.5630   39.8370 N   0  0  0  0  0
   -4.2250    4.7010   40.7490 C   0  0  0  0  0
   -4.2810    5.2920   42.1590 C   0  0  0  0  0
   -5.3040    5.2110   42.8450 O   0  0  0  0  0
   -3.5940    3.3090   40.8040 C   0  0  0  0  0
   -3.2653    5.8715   42.6282 O   0  0  0  0  0
    3.4775    3.7772   34.2810 H   0  0  0  0  0
    2.6748    3.7935   32.8208 H   0  0  0  0  0
    4.1510    4.5523   32.9686 H   0  0  0  0  0
    3.3081    6.0867   34.4810 H   0  0  0  0  0
    1.5199    7.1685   32.9211 H   0  0  0  0  0
    1.9328    5.7850   31.8168 H   0  0  0  0  0
    4.4750    6.5523   33.4640 H   0  0  0  0  0
    1.0449    3.5451   33.6587 H   0  0  0  0  0
   -1.3546    4.5519   34.6844 H   0  0  0  0  0
   -1.1595    2.3724   33.5837 H   0  0  0  0  0
   -0.2379    1.7406   34.9703 H   0  0  0  0  0
   -1.9476    2.1963   35.1708 H   0  0  0  0  0
    1.4686    3.4554   36.4585 H   0  0  0  0  0
    0.1487    2.9633   38.9393 H   0  0  0  0  0
    2.3851    2.1196   38.3974 H   0  0  0  0  0
    2.4048    3.1142   39.9373 H   0  0  0  0  0
    4.3167    3.7989   38.9311 H   0  0  0  0  0
    3.1051    4.9896   38.2604 H   0  0  0  0  0
    2.2823    2.6987   36.6561 H   0  0  0  0  0
    0.9979    5.9399   37.3994 H   0  0  0  0  0
    1.0480    7.3924   39.9527 H   0  0  0  0  0
    1.2947    9.4010   38.5504 H   0  0  0  0  0
    1.0725    8.3531   37.0791 H   0  0  0  0  0
    3.1997    8.6146   40.1508 H   0  0  0  0  0
    2.9458    7.5989   36.0114 H   0  0  0  0  0
    5.6303    8.1286   40.1368 H   0  0  0  0  0
    5.3799    7.1365   35.9703 H   0  0  0  0  0
    6.7240    7.4088   38.0333 H   0  0  0  0  0
   -1.3749    6.1705   38.0027 H   0  0  0  0  0
   -3.1416    8.4653   38.7063 H   0  0  0  0  0
   -4.6381    7.5495   36.8887 H   0  0  0  0  0
   -3.2419    6.4357   36.4693 H   0  0  0  0  0
   -1.8891    8.3166   35.9002 H   0  0  0  0  0
   -3.1898    9.4541   36.4111 H   0  0  0  0  0
   -3.1867    9.2789   33.9871 H   0  0  0  0  0
   -4.6524    8.4629   34.6383 H   0  0  0  0  0
   -2.2766    7.1687   33.4060 H   0  0  0  0  0
   -5.4959    6.9526   34.8267 H   0  0  0  0  0
   -4.1072    4.1989   33.0973 H   0  0  0  0  0
   -2.5895    5.0250   32.7293 H   0  0  0  0  0
   -2.4874    5.3487   39.6613 H   0  0  0  0  0
   -5.2430    4.6274   40.3666 H   0  0  0  0  0
   -3.6015    2.8685   39.8070 H   0  0  0  0  0
   -2.5666    3.3910   41.1587 H   0  0  0  0  0
   -4.1658    2.6789   41.4853 H   0  0  0  0  0
   -2.5584    5.8515   41.9790 H   0  0  0  0  0
  1  2  1  0  0  0
  2  3  1  0  0  0
  2  5  1  0  0  0
  3  4  2  0  0  0
  3  9  1  0  0  0
  5  6  1  0  0  0
  6  7  1  0  0  0
  6  8  2  0  0  0
  9 10  1  0  0  0
 10 11  1  0  0  0
 10 13  1  0  0  0
 11 12  2  0  0  0
 11 14  1  0  0  0
 14 15  1  0  0  0
 15 16  1  0  0  0
 15 18  1  0  0  0
 16 17  2  0  0  0
 16 23  1  0  0  0
 18 19  1  0  0  0
 19 20  1  0  0  0
 20 21  1  0  0  0
 20 22  2  0  0  0
 23 24  1  0  0  0
 24 25  1  0  0  0
 24 27  1  0  0  0
 25 26  2  0  0  0
 25 34  1  0  0  0
 27 28  1  0  0  0
 28 29  4  0  0  0
 28 30  4  0  0  0
 29 31  4  0  0  0
 30 32  4  0  0  0
 31 33  4  0  0  0
 32 33  4  0  0  0
 34 35  1  0  0  0
 35 36  1  0  0  0
 35 38  1  0  0  0
 36 37  2  0  0  0
 36 45  1  0  0  0
 38 39  1  0  0  0
 39 40  1  0  0  0
 40 41  1  0  0  0
 41 42  1  0  0  0
 42 43  2  0  0  0
 42 44  1  0  0  0
 45 46  1  0  0  0
 46 47  1  0  0  0
 46 49  1  0  0  0
 47 48  2  0  0  0
 47 50  1  0  0  0
  1 51  1  0  0  0
  1 52  1  0  0  0
  1 53  1  0  0  0
  2 54  1  0  0  0
  5 55  1  0  0  0
  5 56  1  0  0  0
  7 57  1  0  0  0
  9 58  1  0  0  0
 10 59  1  0  0  0
 13 60  1  0  0  0
 13 61  1  0  0  0
 13 62  1  0  0  0
 14 63  1  0  0  0
 15 64  1  0  0  0
 18 65  1  0  0  0
 18 66  1  0  0  0
 19 67  1  0  0  0
 19 68  1  0  0  0
 21 69  1  0  0  0
 23 70  1  0  0  0
 24 71  1  0  0  0
 27 72  1  0  0  0
 27 73  1  0  0  0
 29 74  1  0  0  0
 30 75  1  0  0  0
 31 76  1  0  0  0
 32 77  1  0  0  0
 33 78  1  0  0  0
 34 79  1  0  0  0
 35 80  1  0  0  0
 38 81  1  0  0  0
 38 82  1  0  0  0
 39 83  1  0  0  0
 39 84  1  0  0  0
 40 85  1  0  0  0
 40 86  1  0  0  0
 41 87  1  0  0  0
 43 88  1  0  0  0
 44 89  1  0  0  0
 44 90  1  0  0  0
 45 91  1  0  0  0
 46 92  1  0  0  0
 49 93  1  0  0  0
 49 94  1  0  0  0
 49 95  1  0  0  0
 50 96  1  0  0  0
M  END
$$$$
