4lwi_ligand
  -I-interpret- 

 52 55  0  0  0  0  0  0  0  0999 V2000
    1.5630  -34.1450  -24.9710 C   0  0  0  0  0
    0.2970  -33.7270  -24.5670 C   0  0  0  0  0
    0.1880  -32.9980  -23.4210 C   0  0  0  0  0
    1.3650  -32.6590  -22.6780 C   0  0  0  0  0
    2.6130  -33.0760  -23.0820 C   0  0  0  0  0
    2.7370  -33.8260  -24.2330 C   0  0  0  0  0
    4.0040  -34.2690  -24.7020 O   0  0  0  0  0
    1.2630  -31.9130  -21.5240 O   0  0  0  0  0
   -1.1660  -32.4980  -22.9910 C   0  0  0  0  0
    1.6130  -35.0100  -26.2550 C   0  0  0  0  0
   -1.3690  -31.1490  -23.6600 C   0  0  0  0  0
   -2.2960  -33.4340  -23.2520 C   0  0  0  0  0
    2.3560  -34.8950  -27.4380 N   0  0  0  0  0
    2.0390  -35.8900  -28.2560 O   0  0  0  0  0
    1.1120  -36.7540  -27.7050 C   0  0  0  0  0
    0.7710  -36.2290  -26.3770 C   0  0  0  0  0
   -0.1740  -36.7530  -25.3620 C   0  0  0  0  0
    0.2770  -37.1300  -24.1150 C   0  0  0  0  0
   -0.6200  -37.6330  -23.1620 C   0  0  0  0  0
   -2.0030  -37.7430  -23.5140 C   0  0  0  0  0
   -2.4390  -37.3720  -24.7470 C   0  0  0  0  0
   -1.5280  -36.8640  -25.7050 C   0  0  0  0  0
   -2.9250  -38.2310  -22.6160 O   0  0  0  0  0
   -2.5340  -38.7690  -21.4240 C   0  0  0  0  0
    0.5400  -37.8620  -28.3040 N   0  0  0  0  0
    0.3930  -39.2680  -27.8510 C   0  0  0  0  0
   -0.1680  -40.0020  -28.5560 O   0  0  0  0  0
    0.8840  -39.8840  -26.5770 C   0  0  0  0  0
    1.8030  -40.6520  -25.9040 C   0  0  0  0  0
    0.6450  -40.2480  -25.2680 C   0  0  0  0  0
   -0.5864  -33.9774  -25.1544 H   0  0  0  0  0
    3.4955  -32.8159  -22.4975 H   0  0  0  0  0
    4.6888  -33.9744  -24.0971 H   0  0  0  0  0
    2.1383  -31.7770  -21.1538 H   0  0  0  0  0
   -1.1747  -32.4109  -21.9045 H   0  0  0  0  0
   -1.4510  -31.2881  -24.7380 H   0  0  0  0  0
   -2.2824  -30.6907  -23.2810 H   0  0  0  0  0
   -0.5186  -30.5038  -23.4393 H   0  0  0  0  0
   -3.2202  -33.0017  -22.8684 H   0  0  0  0  0
   -2.3888  -33.5992  -24.3254 H   0  0  0  0  0
   -2.1026  -34.3833  -22.7524 H   0  0  0  0  0
    1.3348  -37.0367  -23.8690 H   0  0  0  0  0
   -0.2715  -37.9339  -22.1740 H   0  0  0  0  0
   -3.4951  -37.4660  -24.9996 H   0  0  0  0  0
   -1.8748  -36.5640  -26.6939 H   0  0  0  0  0
   -1.8842  -39.6244  -21.6086 H   0  0  0  0  0
   -1.9934  -38.0181  -20.8478 H   0  0  0  0  0
   -3.4133  -39.0926  -20.8670 H   0  0  0  0  0
    0.1467  -37.6792  -29.2272 H   0  0  0  0  0
    2.7519  -41.1881  -25.8854 H   0  0  0  0  0
   -0.1569  -40.6820  -24.6708 H   0  0  0  0  0
    0.3444  -39.7828  -24.3292 H   0  0  0  0  0
  1  2  4  0  0  0
  1  6  4  0  0  0
  1 10  1  0  0  0
  2  3  4  0  0  0
  3  4  4  0  0  0
  3  9  1  0  0  0
  4  5  4  0  0  0
  4  8  1  0  0  0
  5  6  4  0  0  0
  6  7  1  0  0  0
  9 11  1  0  0  0
  9 12  1  0  0  0
 10 13  4  0  0  0
 10 16  4  0  0  0
 13 14  4  0  0  0
 14 15  4  0  0  0
 15 16  4  0  0  0
 15 25  1  0  0  0
 16 17  1  0  0  0
 17 18  4  0  0  0
 17 22  4  0  0  0
 18 19  4  0  0  0
 19 20  4  0  0  0
 20 21  4  0  0  0
 20 23  1  0  0  0
 21 22  4  0  0  0
 23 24  1  0  0  0
 25 26  1  0  0  0
 26 27  2  0  0  0
 26 28  1  0  0  0
 28 29  2  0  0  0
 28 30  1  0  0  0
 29 30  1  0  0  0
  2 31  1  0  0  0
  5 32  1  0  0  0
  7 33  1  0  0  0
  8 34  1  0  0  0
  9 35  1  0  0  0
 11 36  1  0  0  0
 11 37  1  0  0  0
 11 38  1  0  0  0
 12 39  1  0  0  0
 12 40  1  0  0  0
 12 41  1  0  0  0
 18 42  1  0  0  0
 19 43  1  0  0  0
 21 44  1  0  0  0
 22 45  1  0  0  0
 24 46  1  0  0  0
 24 47  1  0  0  0
 24 48  1  0  0  0
 25 49  1  0  0  0
 29 50  1  0  0  0
 30 51  1  0  0  0
 30 52  1  0  0  0
M  END
$$$$
