4b82_ligand
  -I-interpret- 

 38 38  0  0  0  0  0  0  0  0999 V2000
   28.5520   19.2410   12.7780 O   0  0  0  0  0
   29.5720   20.1640   13.0440 S   0  0  0  0  0
   30.8070   19.6810   13.5840 O   0  0  0  0  0
   29.0820   21.3310   14.1590 N   0  0  0  0  0
   28.1640   20.9740   15.2820 C   0  0  0  0  0
   26.6370   20.9640   15.0200 C   0  0  0  0  0
   26.1800   19.5470   14.6750 N   0  3  0  0  0
   24.9150   19.6750   13.8520 C   0  0  0  0  0
   24.9990   20.6810   12.7110 C   0  0  0  0  0
   29.9670   21.1500   11.6840 C   0  0  0  0  0
   29.8960   20.7770   10.3150 C   0  0  0  0  0
   30.2090   21.6560    9.2840 C   0  0  0  0  0
   30.6030   22.9600    9.5260 C   0  0  0  0  0
   30.6850   23.3860   10.8430 C   0  0  0  0  0
   30.3660   22.4860   11.8740 C   0  0  0  0  0
   25.8340   18.7800   15.9350 C   0  0  0  0  0
   30.4740   22.9230   13.0770 F   0  0  0  0  0
   26.9800   18.0130   16.5980 C   0  0  0  0  0
   29.4159   22.2902   14.0655 H   0  0  0  0  0
   28.3178   21.7504   16.0314 H   0  0  0  0  0
   28.4146   19.9441   15.5363 H   0  0  0  0  0
   26.4101   21.6287   14.1865 H   0  0  0  0  0
   26.1156   21.3028   15.9152 H   0  0  0  0  0
   26.9221   19.0564   14.1761 H   0  0  0  0  0
   24.1315   20.0227   14.5253 H   0  0  0  0  0
   24.7280   18.6997   13.4027 H   0  0  0  0  0
   25.2148   21.6699   13.1154 H   0  0  0  0  0
   25.7937   20.3859   12.0259 H   0  0  0  0  0
   24.0483   20.7044   12.1783 H   0  0  0  0  0
   29.5843   19.7633   10.0633 H   0  0  0  0  0
   30.1419   21.3070    8.2536 H   0  0  0  0  0
   30.8425   23.6342    8.7037 H   0  0  0  0  0
   30.9928   24.4055   11.0755 H   0  0  0  0  0
   25.0974   18.0318   15.6423 H   0  0  0  0  0
   25.5053   19.5228   16.6619 H   0  0  0  0  0
   27.3762   17.2775   15.8979 H   0  0  0  0  0
   27.7686   18.7113   16.8784 H   0  0  0  0  0
   26.6087   17.5057   17.4884 H   0  0  0  0  0
  1  2  2  0  0  0
  2  3  2  0  0  0
  2  4  1  0  0  0
  2 10  1  0  0  0
  4  5  1  0  0  0
  5  6  1  0  0  0
  6  7  1  0  0  0
  7  8  1  0  0  0
  7 16  1  0  0  0
  8  9  1  0  0  0
 10 11  4  0  0  0
 10 15  4  0  0  0
 11 12  4  0  0  0
 12 13  4  0  0  0
 13 14  4  0  0  0
 14 15  4  0  0  0
 15 17  1  0  0  0
 16 18  1  0  0  0
  4 19  1  0  0  0
  5 20  1  0  0  0
  5 21  1  0  0  0
  6 22  1  0  0  0
  6 23  1  0  0  0
  7 24  1  0  0  0
  8 25  1  0  0  0
  8 26  1  0  0  0
  9 27  1  0  0  0
  9 28  1  0  0  0
  9 29  1  0  0  0
 11 30  1  0  0  0
 12 31  1  0  0  0
 13 32  1  0  0  0
 14 33  1  0  0  0
 16 34  1  0  0  0
 16 35  1  0  0  0
 18 36  1  0  0  0
 18 37  1  0  0  0
 18 38  1  0  0  0
M  END
$$$$
