### 
### Created by X-TOOL on Wed Jan  1 15:39:34 2020
### 

@<TRIPOS>MOLECULE
5f29_ligand
   67    72     1     0     0
SMALL
GAST_HUCK


@<TRIPOS>ATOM
      1 P          12.9750    8.9730   -5.5830 P.3       1 2BA         0.2557
      2 O1P        11.9610    8.3420   -4.6640 O.co2     1 2BA        -0.6177
      3 O2P        13.8630    9.8690   -4.7530 O.co2     1 2BA        -0.6177
      4 O5'        14.1480    8.0030   -6.1160 O.3       1 2BA        -0.2515
      5 C5'        15.0730    8.0320   -6.5690 C.3       1 2BA         0.1100
      6 C4'        15.4340    7.1390   -7.7060 C.3       1 2BA         0.0930
      7 O4'        15.6990    6.1220   -6.7410 O.3       1 2BA        -0.3391
      8 C3'        14.9700    6.4500   -8.9840 C.3       1 2BA         0.0074
      9 O3'        14.8890    7.6440  -10.2830 O.co2     1 2BA        -0.5537
     10 C2'        15.4070    5.0100   -8.8200 C.3       1 2BA         0.1128
     11 O2'        16.6710    4.7880   -9.4500 O.3       1 2BA        -0.3862
     12 C1'        15.5710    4.8230   -7.3240 C.3       1 2BA         0.1984
     13 N9         14.1430    4.2410   -6.4400 N.pl3     1 2BA        -0.1920
     14 C8         13.1480    4.7880   -5.7180 C.2       1 2BA         0.1123
     15 N7         12.2610    3.8310   -5.3670 N.2       1 2BA        -0.2958
     16 C5         12.7200    2.6750   -5.8770 C.ar      1 2BA         0.1045
     17 C6         12.2420    1.3790   -5.8420 C.ar      1 2BA         0.1298
     18 N6         11.0860    1.1240   -5.1860 N.pl3     1 2BA        -0.3152
     19 N1         12.9390    0.3970   -6.4660 N.ar      1 2BA        -0.2698
     20 C2         14.0860    0.6700   -7.1150 C.ar      1 2BA         0.0533
     21 N3         14.5750    1.9170   -7.1630 N.ar      1 2BA        -0.2714
     22 C4         13.9070    2.9300   -6.5510 C.ar      1 2BA         0.1613
     23 P1         13.7100    7.8000  -11.3670 P.3       1 2BA         0.2008
     24 O1P1       13.2880    6.3520  -11.4440 O.co2     1 2BA        -0.5537
     25 O2P1       14.0450    8.2900  -12.7580 O.co2     1 2BA        -0.5537
     26 O5'1       12.4910    8.5710  -10.6600 O.3       1 2BA        -0.2734
     27 C5'1       12.6800    9.8910  -10.1550 C.3       1 2BA         0.1075
     28 C4'1       11.4320   10.2750   -8.9960 C.3       1 2BA         0.1235
     29 O4'1       10.4960    9.5510  -10.0170 O.3       1 2BA        -0.3360
     30 C3'1       11.4770    9.4580   -7.8430 C.3       1 2BA         0.1539
     31 O3'1       12.4920    9.8290   -6.8610 O.3       1 2BA        -0.2453
     32 C2'1       10.0240    9.1630   -7.6570 C.3       1 2BA         0.1439
     33 O2'1        9.2740    9.8680   -6.6650 O.3       1 2BA        -0.3832
     34 C1'1        9.4900    9.0260   -9.1480 C.3       1 2BA         0.2014
     35 N91         9.2950    7.5710   -9.3720 N.pl3     1 2BA        -0.1919
     36 C81        10.0330    6.7840  -10.1710 C.2       1 2BA         0.1123
     37 N71         9.5590    5.5200  -10.1040 N.2       1 2BA        -0.2958
     38 C51         8.5170    5.5220   -9.2510 C.ar      1 2BA         0.1045
     39 C61         7.6550    4.5330   -8.8020 C.ar      1 2BA         0.1298
     40 N61         7.7980    3.2640   -9.2420 N.pl3     1 2BA        -0.3152
     41 N11         6.6770    4.8660   -7.9210 N.ar      1 2BA        -0.2698
     42 C21         6.5340    6.1300   -7.4830 C.ar      1 2BA         0.0533
     43 N31         7.3510    7.1050   -7.9010 N.ar      1 2BA        -0.2714
     44 C41         8.3490    6.8200   -8.7880 C.ar      1 2BA         0.1613
     45 H1         15.8083    7.8302   -5.7762 H         1 2BA         0.0646
     46 H2         15.2020    9.0611   -6.9355 H         1 2BA         0.0646
     47 H3         16.3655    7.5922   -8.0759 H         1 2BA         0.0625
     48 H4         15.4478    6.9031   -9.8652 H         1 2BA         0.0318
     49 H5         13.8766    6.5151   -9.0856 H         1 2BA         0.0318
     50 H6         14.6532    4.3216   -9.2296 H         1 2BA         0.0650
     51 H7         16.9257    3.8800   -9.3352 H         1 2BA         0.2100
     52 H8         16.4420    4.1801   -7.1292 H         1 2BA         0.0995
     53 H9         13.0695    5.8422   -5.4562 H         1 2BA         0.1349
     54 H10        10.7153    0.1637   -5.1500 H         1 2BA         0.1820
     55 H11        10.5769    1.8903   -4.7228 H         1 2BA         0.1820
     56 H12        14.6235   -0.1323   -7.6073 H         1 2BA         0.0996
     57 H13        12.6365   10.6087  -10.9875 H         1 2BA         0.0639
     58 H14        13.6631    9.9560   -9.6658 H         1 2BA         0.0639
     59 H15        11.2583   11.3371   -8.7687 H         1 2BA         0.0654
     60 H16        11.8779    8.4901   -8.1783 H         1 2BA         0.0712
     61 H17         9.9961    8.1374   -7.2603 H         1 2BA         0.0680
     62 H18         8.3737    9.5649   -6.6755 H         1 2BA         0.2101
     63 H19         8.5442    9.5702   -9.2870 H         1 2BA         0.0996
     64 H20        10.8775    7.1113  -10.7757 H         1 2BA         0.1349
     65 H21         7.1584    2.5284   -8.9093 H         1 2BA         0.1820
     66 H22         8.5467    3.0319   -9.9102 H         1 2BA         0.1820
     67 H23         5.7433    6.3633   -6.7792 H         1 2BA         0.0996
@<TRIPOS>BOND
     1    1    2 ar 
     2    1    3 ar 
     3    4    1 1  
     4    1   31 1  
     5    5    4 1  
     6    6    5 1  
     7    7    6 1  
     8    8    6 1  
     9   12    7 1  
    10   10    8 1  
    11   23    9 ar 
    12   10   11 1  
    13   12   10 1  
    14   13   14 1  
    15   13   22 1  
    16   14   15 2  
    17   16   15 1  
    18   16   17 ar 
    19   22   16 ar 
    20   17   18 1  
    21   17   19 ar 
    22   20   19 ar 
    23   21   20 ar 
    24   22   21 ar 
    25   23   24 ar 
    26   23   25 ar 
    27   26   23 1  
    28   27   26 1  
    29   28   27 1  
    30   28   29 1  
    31   30   28 1  
    32   34   29 1  
    33   31   30 1  
    34   30   32 1  
    35   32   33 1  
    36   32   34 1  
    37   34   35 1  
    38   35   36 1  
    39   35   44 1  
    40   36   37 2  
    41   38   37 1  
    42   38   39 ar 
    43   44   38 ar 
    44   39   40 1  
    45   39   41 ar 
    46   42   41 ar 
    47   43   42 ar 
    48   44   43 ar 
    49   13   12 1  
    50    5   45 1  
    51    5   46 1  
    52    6   47 1  
    53    8   48 1  
    54    8   49 1  
    55   10   50 1  
    56   11   51 1  
    57   12   52 1  
    58   14   53 1  
    59   18   54 1  
    60   18   55 1  
    61   20   56 1  
    62   27   57 1  
    63   27   58 1  
    64   28   59 1  
    65   30   60 1  
    66   32   61 1  
    67   33   62 1  
    68   34   63 1  
    69   36   64 1  
    70   40   65 1  
    71   40   66 1  
    72   42   67 1  
@<TRIPOS>SUBSTRUCTURE
     1 2BA         1

