5f29_ligand
  -I-interpret- 

 70 75  0  0  0  0  0  0  0  0999 V2000
   12.9750    8.9730   -5.5830 P   0  0  0  0  0
   11.9610    8.3420   -4.6640 O   0  0  0  0  0
   13.8630    9.8690   -4.7530 O   0  0  0  0  0
   14.1480    8.0030   -6.1160 O   0  0  0  0  0
   15.0730    8.0320   -6.5690 C   0  0  0  0  0
   15.4340    7.1390   -7.7060 C   0  0  0  0  0
   15.6990    6.1220   -6.7410 O   0  0  0  0  0
   14.9700    6.4500   -8.9840 C   0  0  0  0  0
   14.8890    7.6440  -10.2830 O   0  0  0  0  0
   15.4070    5.0100   -8.8200 C   0  0  0  0  0
   16.6710    4.7880   -9.4500 O   0  0  0  0  0
   15.5710    4.8230   -7.3240 C   0  0  0  0  0
   14.1430    4.2410   -6.4400 N   0  0  0  0  0
   13.1480    4.7880   -5.7180 C   0  0  0  0  0
   12.2610    3.8310   -5.3670 N   0  0  0  0  0
   12.7200    2.6750   -5.8770 C   0  0  0  0  0
   12.2420    1.3790   -5.8420 C   0  0  0  0  0
   11.0860    1.1240   -5.1860 N   0  0  0  0  0
   12.9390    0.3970   -6.4660 N   0  0  0  0  0
   14.0860    0.6700   -7.1150 C   0  0  0  0  0
   14.5750    1.9170   -7.1630 N   0  0  0  0  0
   13.9070    2.9300   -6.5510 C   0  0  0  0  0
   13.7100    7.8000  -11.3670 P   0  0  0  0  0
   13.2880    6.3520  -11.4440 O   0  0  0  0  0
   14.0450    8.2900  -12.7580 O   0  0  0  0  0
   12.4910    8.5710  -10.6600 O   0  0  0  0  0
   12.6800    9.8910  -10.1550 C   0  0  0  0  0
   11.4320   10.2750   -8.9960 C   0  0  0  0  0
   10.4960    9.5510  -10.0170 O   0  0  0  0  0
   11.4770    9.4580   -7.8430 C   0  0  0  0  0
   12.4920    9.8290   -6.8610 O   0  0  0  0  0
   10.0240    9.1630   -7.6570 C   0  0  0  0  0
    9.2740    9.8680   -6.6650 O   0  0  0  0  0
    9.4900    9.0260   -9.1480 C   0  0  0  0  0
    9.2950    7.5710   -9.3720 N   0  0  0  0  0
   10.0330    6.7840  -10.1710 C   0  0  0  0  0
    9.5590    5.5200  -10.1040 N   0  0  0  0  0
    8.5170    5.5220   -9.2510 C   0  0  0  0  0
    7.6550    4.5330   -8.8020 C   0  0  0  0  0
    7.7980    3.2640   -9.2420 N   0  0  0  0  0
    6.6770    4.8660   -7.9210 N   0  0  0  0  0
    6.5340    6.1300   -7.4830 C   0  0  0  0  0
    7.3510    7.1050   -7.9010 N   0  0  0  0  0
    8.3490    6.8200   -8.7880 C   0  0  0  0  0
   14.5182   10.2823   -5.3200 H   0  0  0  0  0
   15.7527    7.7194   -5.7763 H   0  0  0  0  0
   15.1078    9.0285   -7.0093 H   0  0  0  0  0
   15.8708    7.8234   -8.4332 H   0  0  0  0  0
   15.4008    6.9083   -9.8742 H   0  0  0  0  0
   13.8927    6.5359   -9.1258 H   0  0  0  0  0
   15.2804    8.5037  -10.1116 H   0  0  0  0  0
   14.6884    4.3229   -9.2668 H   0  0  0  0  0
   16.9284    3.8704   -9.3339 H   0  0  0  0  0
   16.3963    4.1156   -7.2424 H   0  0  0  0  0
   13.0694    5.8431   -5.4560 H   0  0  0  0  0
   10.5818    1.8828   -4.7273 H   0  0  0  0  0
   10.7189    0.1730   -5.1503 H   0  0  0  0  0
   14.6265   -0.1368   -7.6100 H   0  0  0  0  0
   14.3142    9.2105  -12.7156 H   0  0  0  0  0
   12.6311   10.6003  -10.9812 H   0  0  0  0  0
   13.6525    9.9510   -9.6663 H   0  0  0  0  0
   11.3140   11.2819   -8.5955 H   0  0  0  0  0
   11.9542    8.4784   -7.8144 H   0  0  0  0  0
    9.8539    8.2437   -7.0965 H   0  0  0  0  0
    8.3642    9.5617   -6.6756 H   0  0  0  0  0
    8.5603    9.5646   -9.3313 H   0  0  0  0  0
   10.8783    7.1116  -10.7762 H   0  0  0  0  0
    8.5394    3.0342   -9.9038 H   0  0  0  0  0
    7.1646    2.5355   -8.9125 H   0  0  0  0  0
    5.7389    6.3646   -6.7753 H   0  0  0  0  0
  1  2  2  0  0  0
  1  3  1  0  0  0
  4  1  1  0  0  0
  1 31  1  0  0  0
  5  4  1  0  0  0
  6  5  1  0  0  0
  7  6  1  0  0  0
  8  6  1  0  0  0
 12  7  1  0  0  0
 10  8  1  0  0  0
 23  9  1  0  0  0
 10 11  1  0  0  0
 12 10  1  0  0  0
 13 14  4  0  0  0
 13 22  4  0  0  0
 14 15  4  0  0  0
 16 15  4  0  0  0
 16 17  4  0  0  0
 22 16  4  0  0  0
 17 18  1  0  0  0
 17 19  4  0  0  0
 20 19  4  0  0  0
 21 20  4  0  0  0
 22 21  4  0  0  0
 23 24  2  0  0  0
 23 25  1  0  0  0
 26 23  1  0  0  0
 27 26  1  0  0  0
 28 27  1  0  0  0
 28 29  1  0  0  0
 30 28  1  0  0  0
 34 29  1  0  0  0
 31 30  1  0  0  0
 30 32  1  0  0  0
 32 33  1  0  0  0
 32 34  1  0  0  0
 34 35  1  0  0  0
 35 36  4  0  0  0
 35 44  4  0  0  0
 36 37  4  0  0  0
 38 37  4  0  0  0
 38 39  4  0  0  0
 44 38  4  0  0  0
 39 40  1  0  0  0
 39 41  4  0  0  0
 42 41  4  0  0  0
 43 42  4  0  0  0
 44 43  4  0  0  0
 13 12  1  0  0  0
  3 45  1  0  0  0
  5 46  1  0  0  0
  5 47  1  0  0  0
  6 48  1  0  0  0
  8 49  1  0  0  0
  8 50  1  0  0  0
  9 51  1  0  0  0
 10 52  1  0  0  0
 11 53  1  0  0  0
 12 54  1  0  0  0
 14 55  1  0  0  0
 18 56  1  0  0  0
 18 57  1  0  0  0
 20 58  1  0  0  0
 25 59  1  0  0  0
 27 60  1  0  0  0
 27 61  1  0  0  0
 28 62  1  0  0  0
 30 63  1  0  0  0
 32 64  1  0  0  0
 33 65  1  0  0  0
 34 66  1  0  0  0
 36 67  1  0  0  0
 40 68  1  0  0  0
 40 69  1  0  0  0
 42 70  1  0  0  0
M  END
$$$$
