5v84_ligand
  -I-interpret- 

 64 67  0  0  0  0  0  0  0  0999 V2000
   29.3970   39.6990   30.8490 C   0  0  0  0  0
   33.7340   37.4410   31.9360 C   0  0  0  0  0
   29.5750   38.3270   30.2780 C   0  0  0  0  0
   30.8660   37.8440   30.2260 C   0  0  0  0  0
   31.8330   39.8590   31.0700 C   0  0  0  0  0
   30.5420   40.4500   31.1980 C   0  0  0  0  0
   33.2660   37.9210   30.5750 C   0  0  0  0  0
   28.2870   40.5070   31.1720 C   0  0  0  0  0
   27.8840   42.8240   32.1240 C   0  0  0  0  0
   32.9900   37.3620   33.0160 C   0  0  0  0  0
   28.4700   37.4590   29.7580 C   0  0  0  0  0
   27.6740   37.0080   32.0350 C   0  0  0  0  0
   28.7420   41.6690   31.6810 C   0  0  0  0  0
   26.5360   35.8840   30.1070 C   0  0  0  0  0
   25.6890   36.2690   28.8830 C   0  0  0  0  0
   24.6850   35.1680   28.4840 C   0  0  0  0  0
   26.1610   33.4840   29.6220 C   0  0  0  0  0
   27.2280   34.5530   29.8100 C   0  0  0  0  0
   24.0400   32.7900   28.5430 C   0  0  0  0  0
   24.3390   31.4410   27.8640 C   0  0  0  0  0
   23.3600   32.6280   29.8940 C   0  0  0  0  0
   23.9480   31.9000   30.9290 C   0  0  0  0  0
   23.3290   31.8190   32.1670 C   0  0  0  0  0
   22.1130   32.4550   32.3730 C   0  0  0  0  0
   21.5260   33.1890   31.3450 C   0  0  0  0  0
   22.1470   33.2700   30.1060 C   0  0  0  0  0
   30.0970   41.6590   31.6810 N   0  0  0  0  0
   27.5700   36.8390   30.5740 N   0  0  0  0  0
   25.1770   33.7670   28.5410 N   0  3  0  0  0
   31.9510   38.5740   30.6300 N   0  0  0  0  0
   28.4050   37.2780   28.5530 O   0  0  0  0  0
   32.8250   40.5000   31.4150 O   0  0  0  0  0
   34.7765   37.1356   32.0255 H   0  0  0  0  0
   31.0295   36.8355   29.8461 H   0  0  0  0  0
   33.1828   37.0520   29.9224 H   0  0  0  0  0
   33.9885   38.6504   30.2090 H   0  0  0  0  0
   27.2399   40.2376   31.0336 H   0  0  0  0  0
   27.2953   43.1824   31.2796 H   0  0  0  0  0
   27.2165   42.4946   32.9203 H   0  0  0  0  0
   28.5212   43.6282   32.4918 H   0  0  0  0  0
   31.9410   37.6558   32.9779 H   0  0  0  0  0
   33.4217   37.0026   33.9501 H   0  0  0  0  0
   28.6419   36.6389   32.3742 H   0  0  0  0  0
   27.5788   38.0647   32.2849 H   0  0  0  0  0
   26.8779   36.4449   32.5222 H   0  0  0  0  0
   25.8131   35.8550   30.9223 H   0  0  0  0  0
   26.3660   36.4250   28.0431 H   0  0  0  0  0
   25.1210   37.1639   29.1371 H   0  0  0  0  0
   24.4311   35.3558   27.4407 H   0  0  0  0  0
   23.8686   35.2299   29.2035 H   0  0  0  0  0
   25.5995   33.4299   30.5547 H   0  0  0  0  0
   26.6787   32.5653   29.3460 H   0  0  0  0  0
   27.8837   34.2822   30.6376 H   0  0  0  0  0
   27.8297   34.6407   28.9054 H   0  0  0  0  0
   23.3061   33.2704   27.8960 H   0  0  0  0  0
   24.9981   30.8526   28.5023 H   0  0  0  0  0
   23.4058   30.9002   27.7065 H   0  0  0  0  0
   24.8240   31.6184   26.9041 H   0  0  0  0  0
   24.8984   31.3926   30.7635 H   0  0  0  0  0
   23.7961   31.2574   32.9760 H   0  0  0  0  0
   21.6166   32.3801   33.3405 H   0  0  0  0  0
   20.5782   33.7003   31.5135 H   0  0  0  0  0
   21.6825   33.8375   29.2996 H   0  0  0  0  0
   25.7117   33.6410   27.6816 H   0  0  0  0  0
  3  1  1  0  0  0
  1  6  4  0  0  0
  1  8  4  0  0  0
  7  2  1  0  0  0
  2 10  2  0  0  0
  3  4  2  0  0  0
 11  3  1  0  0  0
  4 30  1  0  0  0
  6  5  1  0  0  0
 30  5  1  0  0  0
  5 32  2  0  0  0
  6 27  4  0  0  0
 30  7  1  0  0  0
  8 13  4  0  0  0
 13  9  1  0  0  0
 28 11  1  0  0  0
 11 31  2  0  0  0
 28 12  1  0  0  0
 13 27  4  0  0  0
 15 14  1  0  0  0
 18 14  1  0  0  0
 14 28  1  0  0  0
 16 15  1  0  0  0
 29 16  1  0  0  0
 17 18  1  0  0  0
 29 17  1  0  0  0
 19 20  1  0  0  0
 19 21  1  0  0  0
 19 29  1  0  0  0
 21 22  4  0  0  0
 21 26  4  0  0  0
 22 23  4  0  0  0
 23 24  4  0  0  0
 24 25  4  0  0  0
 25 26  4  0  0  0
  2 33  1  0  0  0
  4 34  1  0  0  0
  7 35  1  0  0  0
  7 36  1  0  0  0
  8 37  1  0  0  0
  9 38  1  0  0  0
  9 39  1  0  0  0
  9 40  1  0  0  0
 10 41  1  0  0  0
 10 42  1  0  0  0
 12 43  1  0  0  0
 12 44  1  0  0  0
 12 45  1  0  0  0
 14 46  1  0  0  0
 15 47  1  0  0  0
 15 48  1  0  0  0
 16 49  1  0  0  0
 16 50  1  0  0  0
 17 51  1  0  0  0
 17 52  1  0  0  0
 18 53  1  0  0  0
 18 54  1  0  0  0
 19 55  1  0  0  0
 20 56  1  0  0  0
 20 57  1  0  0  0
 20 58  1  0  0  0
 22 59  1  0  0  0
 23 60  1  0  0  0
 24 61  1  0  0  0
 25 62  1  0  0  0
 26 63  1  0  0  0
 29 64  1  0  0  0
M  END
$$$$
