6ar4_ligand
  -I-interpret- 

 64 67  0  0  0  0  0  0  0  0999 V2000
  -13.9910    5.6500    6.9410 N   0  3  0  0  0
  -16.7930    9.6700    2.2680 C   0  0  0  0  0
  -17.6440    8.4980    0.2170 C   0  0  0  0  0
  -14.4900    6.0210    4.0440 C   0  0  0  0  0
  -16.3810   10.4300    4.4300 C   0  0  0  0  0
  -15.7940    4.3970    2.3920 C   0  0  0  0  0
  -15.9680    3.8190    1.1430 C   0  0  0  0  0
  -14.9920    4.1360    0.2330 C   0  0  0  0  0
  -16.8560    7.4550   11.1100 F   0  0  0  0  0
  -15.8910    7.1550   10.2290 C   0  0  0  0  0
  -16.1760    7.5800    8.9930 F   0  0  0  0  0
  -14.7720    7.7440   10.6870 F   0  0  0  0  0
  -15.6340    5.6630   10.2540 C   0  0  0  0  0
  -16.3980    4.9160   11.1460 C   0  0  0  0  0
  -16.2140    3.5520   11.2470 C   0  0  0  0  0
  -15.2430    2.9000   10.5140 C   0  0  0  0  0
  -14.4350    3.5930    9.6230 C   0  0  0  0  0
  -14.7300    4.9140    9.2790 C   0  0  0  0  0
  -13.6800    5.5740    8.3850 C   0  0  0  0  0
  -15.3690    5.9630    6.4900 C   0  0  0  0  0
  -15.5220    5.4710    5.0620 C   0  0  0  0  0
  -12.8730    5.9970    6.0490 C   0  0  0  0  0
  -13.1310    5.5490    4.6150 C   0  0  0  0  0
  -14.7120    5.3120    2.7360 C   0  0  0  0  0
  -13.8300    5.5870    1.6880 C   0  0  0  0  0
  -13.9700    4.9890    0.5350 C   0  0  0  0  0
  -14.8570    3.5200   -1.5140 Br  0  0  0  0  0
  -14.5220    7.5160    3.8270 C   0  0  0  0  0
  -13.4690    8.1310    3.5470 O   0  0  0  0  0
  -15.7030    8.1850    3.8700 N   0  0  0  0  0
  -15.8320    9.5320    3.4100 C   0  0  0  0  0
  -16.2530   11.6810    4.2740 O   0  0  0  0  0
  -16.9730    9.8150    5.4860 O   0  0  0  0  0
  -16.4330    8.8260    1.0230 C   0  0  0  0  0
  -16.9570    7.4250    1.0190 C   0  0  0  0  0
  -14.0946    4.6492    6.7735 H   0  0  0  0  0
  -16.7761   10.7157    1.9608 H   0  0  0  0  0
  -17.7624    9.3195    2.6221 H   0  0  0  0  0
  -18.0193    8.6496   -0.7951 H   0  0  0  0  0
  -18.6513    8.8835    0.0593 H   0  0  0  0  0
  -16.5162    4.1501    3.1702 H   0  0  0  0  0
  -16.8092    3.1680    0.9049 H   0  0  0  0  0
  -17.1447    5.4104   11.7673 H   0  0  0  0  0
  -16.8495    2.9769   11.9204 H   0  0  0  0  0
  -15.1087    1.8253   10.6366 H   0  0  0  0  0
  -13.5639    3.1025    9.1887 H   0  0  0  0  0
  -13.5974    6.6049    8.7292 H   0  0  0  0  0
  -12.7848    4.9576    8.4675 H   0  0  0  0  0
  -15.5445    7.0377    6.5376 H   0  0  0  0  0
  -16.0962    5.4715    7.1363 H   0  0  0  0  0
  -15.3791    4.3908    5.0918 H   0  0  0  0  0
  -16.5003    5.8113    4.7226 H   0  0  0  0  0
  -11.9777    5.4907    6.4098 H   0  0  0  0  0
  -12.7558    7.0807    6.0530 H   0  0  0  0  0
  -12.3494    5.9862    3.9937 H   0  0  0  0  0
  -13.1400    4.4590    4.6130 H   0  0  0  0  0
  -13.0216    6.3036    1.8330 H   0  0  0  0  0
  -13.2233    5.1836   -0.2348 H   0  0  0  0  0
  -16.5252    7.7104    4.2430 H   0  0  0  0  0
  -14.8122    9.7940    3.1280 H   0  0  0  0  0
  -16.9388    8.8638    5.3612 H   0  0  0  0  0
  -15.4489    9.2569    0.8383 H   0  0  0  0  0
  -16.5847    6.4097    0.8827 H   0  0  0  0  0
  -17.2138    6.6425    1.7331 H   0  0  0  0  0
  1 19  1  0  0  0
 20  1  1  0  0  0
 22  1  1  0  0  0
 31  2  1  0  0  0
  2 34  1  0  0  0
 34  3  1  0  0  0
  3 35  1  0  0  0
  4 21  1  0  0  0
  4 23  1  0  0  0
  4 24  1  0  0  0
 28  4  1  0  0  0
 31  5  1  0  0  0
  5 32  2  0  0  0
  5 33  1  0  0  0
  6  7  4  0  0  0
 24  6  4  0  0  0
  7  8  4  0  0  0
 26  8  4  0  0  0
  8 27  1  0  0  0
 10  9  1  0  0  0
 10 11  1  0  0  0
 10 12  1  0  0  0
 13 10  1  0  0  0
 13 14  4  0  0  0
 18 13  4  0  0  0
 14 15  4  0  0  0
 16 15  4  0  0  0
 17 16  4  0  0  0
 18 17  4  0  0  0
 19 18  1  0  0  0
 21 20  1  0  0  0
 23 22  1  0  0  0
 24 25  4  0  0  0
 25 26  4  0  0  0
 28 29  2  0  0  0
 30 28  1  0  0  0
 30 31  1  0  0  0
 34 35  1  0  0  0
  1 36  1  0  0  0
  2 37  1  0  0  0
  2 38  1  0  0  0
  3 39  1  0  0  0
  3 40  1  0  0  0
  6 41  1  0  0  0
  7 42  1  0  0  0
 14 43  1  0  0  0
 15 44  1  0  0  0
 16 45  1  0  0  0
 17 46  1  0  0  0
 19 47  1  0  0  0
 19 48  1  0  0  0
 20 49  1  0  0  0
 20 50  1  0  0  0
 21 51  1  0  0  0
 21 52  1  0  0  0
 22 53  1  0  0  0
 22 54  1  0  0  0
 23 55  1  0  0  0
 23 56  1  0  0  0
 25 57  1  0  0  0
 26 58  1  0  0  0
 30 59  1  0  0  0
 31 60  1  0  0  0
 33 61  1  0  0  0
 34 62  1  0  0  0
 35 63  1  0  0  0
 35 64  1  0  0  0
M  END
$$$$
