6oxz_ligand
  -I-interpret- 

 84 87  0  0  0  0  0  0  0  0999 V2000
   70.8980   57.4880   15.1410 C   0  0  0  0  0
   70.5260   57.8320   16.5800 C   0  0  0  0  0
   72.4600   58.5640   18.1020 C   0  0  0  0  0
   74.1520   59.5640   19.5930 C   0  0  0  0  0
   75.6310   60.1620   19.2050 C   0  0  0  0  0
   74.3100   61.8130   20.1230 C   0  0  0  0  0
   71.9890   61.6430   19.7450 C   0  0  0  0  0
   69.1160   58.4370   16.6720 C   0  0  0  0  0
   67.1340   51.1660   13.5460 C   0  0  0  0  0
   66.6800   52.6250   13.4490 C   0  0  0  0  0
   67.3040   53.6640   14.3850 C   0  0  0  0  0
   68.3520   53.2120   15.3860 C   0  0  0  0  0
   68.8240   51.7580   15.4710 C   0  0  0  0  0
   68.2010   50.7260   14.5370 C   0  0  0  0  0
   71.2840   54.0590   14.8750 C   0  0  0  0  0
   70.0470   56.2910   14.6530 C   0  0  0  0  0
   73.7030   60.4020   20.5270 C   0  0  0  0  0
   72.2160   60.6180   20.5310 C   0  0  0  0  0
   68.8780   58.9030   18.1350 C   0  0  0  0  0
   68.4950   57.8830   19.2110 C   0  0  0  0  0
   68.2650   58.3440   20.6560 C   0  0  0  0  0
   68.4180   59.8190   21.0220 C   0  0  0  0  0
   68.8030   60.8430   19.9430 C   0  0  0  0  0
   69.0340   60.3850   18.5050 C   0  0  0  0  0
   67.7180   49.5920   11.7940 C   0  0  0  0  0
   73.3160   51.9840   14.7690 C   0  0  0  0  0
   72.7770   54.4540   14.9530 C   0  0  0  0  0
   73.6160   53.3910   14.2150 C   0  0  0  0  0
   73.2130   54.5460   16.3930 C   0  0  0  0  0
   66.5370   50.1430   12.6100 C   0  0  0  0  0
   70.4030   55.0950   15.4970 N   0  0  0  0  0
   71.4680   58.8440   17.0360 N   0  0  0  0  0
   68.1890   55.4780   16.9550 O   0  0  0  0  0
   69.6610   53.8420   17.7290 O   0  0  0  0  0
   70.6800   58.5910   14.3140 O   0  0  0  0  0
   72.4720   57.5330   18.6850 O   0  0  0  0  0
   73.3800   59.6170   18.3810 O   0  0  0  0  0
   75.4120   61.4840   19.0730 O   0  0  0  0  0
   73.3870   62.4870   19.6110 O   0  0  0  0  0
   65.6280   50.7880   11.7700 O   0  0  0  0  0
   68.5030   50.6810   11.3380 O   0  0  0  0  0
   69.1330   54.4540   16.4940 S   0  0  0  0  0
   71.9535   57.2188   15.1017 H   0  0  0  0  0
   70.5538   56.9228   17.1805 H   0  0  0  0  0
   74.1251   58.5412   19.9688 H   0  0  0  0  0
   76.0377   59.7138   18.2985 H   0  0  0  0  0
   76.3835   59.9371   19.9608 H   0  0  0  0  0
   74.7245   62.3785   20.9576 H   0  0  0  0  0
   71.2035   62.2737   20.1613 H   0  0  0  0  0
   71.6558   61.3027   18.7645 H   0  0  0  0  0
   68.3711   57.6923   16.3915 H   0  0  0  0  0
   69.0279   59.2838   15.9914 H   0  0  0  0  0
   65.9224   52.9203   12.7231 H   0  0  0  0  0
   67.0010   54.7098   14.3334 H   0  0  0  0  0
   69.5922   51.4655   16.1869 H   0  0  0  0  0
   68.5170   49.6837   14.5790 H   0  0  0  0  0
   71.1482   53.1231   15.4170 H   0  0  0  0  0
   71.0096   53.9613   13.8246 H   0  0  0  0  0
   70.2517   56.0858   13.6022 H   0  0  0  0  0
   68.9854   56.5185   14.7494 H   0  0  0  0  0
   73.9788   59.9908   21.4981 H   0  0  0  0  0
   71.6907   59.7305   20.1782 H   0  0  0  0  0
   71.8513   60.8103   21.5400 H   0  0  0  0  0
   68.3859   56.8302   18.9504 H   0  0  0  0  0
   67.9922   57.6183   21.4222 H   0  0  0  0  0
   68.2540   60.1453   22.0490 H   0  0  0  0  0
   68.9111   61.8957   20.2041 H   0  0  0  0  0
   69.3100   61.1109   17.7402 H   0  0  0  0  0
   67.3459   49.0218   10.9428 H   0  0  0  0  0
   68.3238   48.9343   12.4173 H   0  0  0  0  0
   73.5602   51.9533   15.8309 H   0  0  0  0  0
   72.2585   51.7586   14.6314 H   0  0  0  0  0
   73.9180   51.2487   14.2351 H   0  0  0  0  0
   72.9226   55.4269   14.4836 H   0  0  0  0  0
   73.3636   53.4148   13.1549 H   0  0  0  0  0
   74.6735   53.6107   14.3618 H   0  0  0  0  0
   72.6152   55.3002   16.9048 H   0  0  0  0  0
   73.0720   53.5793   16.8764 H   0  0  0  0  0
   74.2659   54.8248   16.4354 H   0  0  0  0  0
   66.0131   49.3438   13.1342 H   0  0  0  0  0
   71.4450   59.7708   16.6107 H   0  0  0  0  0
   71.2102   59.3299   14.6215 H   0  0  0  0  0
   65.2402   50.1481   11.1685 H   0  0  0  0  0
   69.2441   50.3478   10.8267 H   0  0  0  0  0
  1  2  1  0  0  0
 16  1  1  0  0  0
  1 35  1  0  0  0
  2  8  1  0  0  0
  2 32  1  0  0  0
 32  3  1  0  0  0
  3 36  2  0  0  0
  3 37  1  0  0  0
  4  5  1  0  0  0
  4 17  1  0  0  0
 37  4  1  0  0  0
  5 38  1  0  0  0
 17  6  1  0  0  0
  6 38  1  0  0  0
  6 39  1  0  0  0
 18  7  1  0  0  0
  7 39  1  0  0  0
  8 19  1  0  0  0
 10  9  4  0  0  0
 14  9  4  0  0  0
  9 30  1  0  0  0
 11 10  4  0  0  0
 12 11  4  0  0  0
 12 13  4  0  0  0
 42 12  1  0  0  0
 13 14  4  0  0  0
 15 27  1  0  0  0
 31 15  1  0  0  0
 31 16  1  0  0  0
 17 18  1  0  0  0
 19 20  4  0  0  0
 19 24  4  0  0  0
 20 21  4  0  0  0
 21 22  4  0  0  0
 23 22  4  0  0  0
 24 23  4  0  0  0
 30 25  1  0  0  0
 25 41  1  0  0  0
 28 26  1  0  0  0
 27 28  1  0  0  0
 27 29  1  0  0  0
 30 40  1  0  0  0
 31 42  1  0  0  0
 42 33  2  0  0  0
 42 34  2  0  0  0
  1 43  1  0  0  0
  2 44  1  0  0  0
  4 45  1  0  0  0
  5 46  1  0  0  0
  5 47  1  0  0  0
  6 48  1  0  0  0
  7 49  1  0  0  0
  7 50  1  0  0  0
  8 51  1  0  0  0
  8 52  1  0  0  0
 10 53  1  0  0  0
 11 54  1  0  0  0
 13 55  1  0  0  0
 14 56  1  0  0  0
 15 57  1  0  0  0
 15 58  1  0  0  0
 16 59  1  0  0  0
 16 60  1  0  0  0
 17 61  1  0  0  0
 18 62  1  0  0  0
 18 63  1  0  0  0
 20 64  1  0  0  0
 21 65  1  0  0  0
 22 66  1  0  0  0
 23 67  1  0  0  0
 24 68  1  0  0  0
 25 69  1  0  0  0
 25 70  1  0  0  0
 26 71  1  0  0  0
 26 72  1  0  0  0
 26 73  1  0  0  0
 27 74  1  0  0  0
 28 75  1  0  0  0
 28 76  1  0  0  0
 29 77  1  0  0  0
 29 78  1  0  0  0
 29 79  1  0  0  0
 30 80  1  0  0  0
 32 81  1  0  0  0
 35 82  1  0  0  0
 40 83  1  0  0  0
 41 84  1  0  0  0
M  END
$$$$
