4bh3_ligand
  -I-interpret- 

 88 90  0  0  0  0  0  0  0  0999 V2000
  -22.9270   27.0940  -41.7470 C   0  0  0  0  0
  -22.9640   27.3330  -43.2450 C   0  0  0  0  0
  -22.1980   26.2380  -43.9940 C   0  0  0  0  0
  -22.9460   24.9110  -43.9590 C   0  0  0  0  0
  -24.3780   25.0880  -44.4540 C   0  0  0  0  0
  -25.0790   26.1840  -43.6580 C   0  0  0  0  0
  -26.5290   26.4360  -44.1030 C   0  0  0  0  0
  -27.1600   27.6540  -43.4190 C   0  0  0  0  0
  -28.6730   27.6500  -43.6230 C   0  0  0  0  0
  -25.9670   23.2820  -44.9500 C   0  0  0  0  0
  -26.5520   21.9860  -44.4700 C   0  0  0  0  0
  -25.0510   23.8300  -44.1520 N   0  0  0  0  0
  -21.8340   26.7630  -41.2530 O   0  0  0  0  0
  -23.9660   27.2600  -41.0530 O   0  0  0  0  0
  -22.2660   23.9400  -44.7600 O   0  0  0  0  0
  -24.3130   27.4000  -43.7400 O   0  0  0  0  0
  -26.5960   26.5990  -45.5230 O   0  0  0  0  0
  -26.8820   27.6460  -42.0090 O   0  0  0  0  0
  -29.2870   28.8110  -43.0440 O   0  0  0  0  0
  -26.3280   23.7940  -45.9960 O   0  0  0  0  0
  -22.5100   31.6680  -45.9080 C   0  0  0  0  0
  -22.9520   33.0710  -45.5180 C   0  0  0  0  0
  -22.5880   33.4030  -44.0680 C   0  0  0  0  0
  -22.9260   32.2590  -43.1090 C   0  0  0  0  0
  -22.4200   30.9320  -43.6740 C   0  0  0  0  0
  -22.7450   29.7230  -42.8070 C   0  0  0  0  0
  -22.3250   34.0000  -46.4080 O   0  0  0  0  0
  -23.2890   34.5910  -43.6770 O   0  0  0  0  0
  -24.3430   32.2010  -42.9000 O   0  0  0  0  0
  -23.0080   30.7300  -44.9580 O   0  0  0  0  0
  -22.2930   28.5630  -43.5150 O   0  0  0  0  0
  -22.3620   28.7230  -50.2100 C   0  0  0  0  0
  -21.8810   28.2120  -48.8560 C   0  0  0  0  0
  -22.5650   29.0500  -47.7830 C   0  0  0  0  0
  -22.1660   30.5140  -47.9790 C   0  0  0  0  0
  -22.2440   31.0000  -49.4330 C   0  0  0  0  0
  -21.3900   32.2560  -49.5980 C   0  0  0  0  0
  -21.4800   25.9030  -48.1390 C   0  0  0  0  0
  -22.0230   24.5040  -48.0920 C   0  0  0  0  0
  -22.2720   26.8090  -48.7190 N   0  0  0  0  0
  -21.9470   27.8540  -51.2600 O   0  0  0  0  0
  -22.1930   28.5930  -46.4760 O   0  0  0  0  0
  -23.0260   31.3500  -47.2010 O   0  0  0  0  0
  -21.7990   30.0240  -50.3880 O   0  0  0  0  0
  -22.0220   33.1590  -50.5120 O   0  0  0  0  0
  -20.3860   26.1820  -47.6700 O   0  0  0  0  0
  -21.2299   26.1019  -43.5119 H   0  0  0  0  0
  -22.0859   26.5443  -45.0341 H   0  0  0  0  0
  -22.9772   24.5605  -42.9274 H   0  0  0  0  0
  -24.3957   25.3492  -45.5121 H   0  0  0  0  0
  -25.1369   25.8391  -42.6256 H   0  0  0  0  0
  -27.1002   25.5583  -43.8004 H   0  0  0  0  0
  -26.7294   28.5497  -43.8667 H   0  0  0  0  0
  -29.0837   26.7648  -43.1375 H   0  0  0  0  0
  -28.8762   27.6507  -44.6939 H   0  0  0  0  0
  -27.6270   22.1028  -44.3329 H   0  0  0  0  0
  -26.3610   21.2071  -45.2082 H   0  0  0  0  0
  -26.0913   21.7101  -43.5214 H   0  0  0  0  0
  -24.8088   23.3457  -43.2876 H   0  0  0  0  0
  -24.6947   27.5117  -41.6250 H   0  0  0  0  0
  -21.3667   23.8363  -44.4404 H   0  0  0  0  0
  -26.2006   25.8358  -45.9506 H   0  0  0  0  0
  -27.2851   28.4154  -41.6001 H   0  0  0  0  0
  -30.2352   28.7766  -43.1900 H   0  0  0  0  0
  -21.4211   31.6235  -45.9271 H   0  0  0  0  0
  -24.0374   33.1339  -45.5952 H   0  0  0  0  0
  -21.5103   33.5573  -44.0139 H   0  0  0  0  0
  -22.4351   32.4403  -42.1528 H   0  0  0  0  0
  -21.3336   31.0085  -43.7182 H   0  0  0  0  0
  -23.8165   29.6637  -42.6158 H   0  0  0  0  0
  -22.2502   29.7998  -41.8388 H   0  0  0  0  0
  -22.5923   34.8927  -46.1773 H   0  0  0  0  0
  -23.0672   34.8077  -42.7685 H   0  0  0  0  0
  -24.5473   31.4817  -42.2980 H   0  0  0  0  0
  -23.4510   28.7604  -50.2386 H   0  0  0  0  0
  -20.7979   28.2897  -48.7616 H   0  0  0  0  0
  -23.6469   28.9517  -47.8715 H   0  0  0  0  0
  -21.1240   30.5773  -47.6653 H   0  0  0  0  0
  -23.2969   31.1993  -49.6325 H   0  0  0  0  0
  -20.4113   31.9764  -49.9880 H   0  0  0  0  0
  -21.2783   32.7443  -48.6299 H   0  0  0  0  0
  -21.3470   23.8352  -48.6247 H   0  0  0  0  0
  -22.1094   24.1839  -47.0537 H   0  0  0  0  0
  -23.0054   24.4809  -48.5636 H   0  0  0  0  0
  -23.1795   26.5127  -49.0783 H   0  0  0  0  0
  -22.2611   28.1963  -52.1001 H   0  0  0  0  0
  -22.6321   29.1310  -45.8131 H   0  0  0  0  0
  -21.4796   33.9450  -50.6101 H   0  0  0  0  0
  2  1  1  0  0  0
  1 13  2  0  0  0
  1 14  1  0  0  0
  2  3  1  0  0  0
  2 16  1  0  0  0
 31  2  1  0  0  0
  3  4  1  0  0  0
  4  5  1  0  0  0
  4 15  1  0  0  0
  6  5  1  0  0  0
  5 12  1  0  0  0
  6  7  1  0  0  0
 16  6  1  0  0  0
  7  8  1  0  0  0
  7 17  1  0  0  0
  8  9  1  0  0  0
  8 18  1  0  0  0
  9 19  1  0  0  0
 10 11  1  0  0  0
 12 10  1  0  0  0
 10 20  2  0  0  0
 21 22  1  0  0  0
 21 30  1  0  0  0
 43 21  1  0  0  0
 22 23  1  0  0  0
 22 27  1  0  0  0
 23 24  1  0  0  0
 23 28  1  0  0  0
 25 24  1  0  0  0
 24 29  1  0  0  0
 25 26  1  0  0  0
 30 25  1  0  0  0
 26 31  1  0  0  0
 33 32  1  0  0  0
 32 41  1  0  0  0
 32 44  1  0  0  0
 33 34  1  0  0  0
 40 33  1  0  0  0
 34 35  1  0  0  0
 34 42  1  0  0  0
 35 36  1  0  0  0
 35 43  1  0  0  0
 36 37  1  0  0  0
 44 36  1  0  0  0
 37 45  1  0  0  0
 38 39  1  0  0  0
 38 40  1  0  0  0
 38 46  2  0  0  0
  3 47  1  0  0  0
  3 48  1  0  0  0
  4 49  1  0  0  0
  5 50  1  0  0  0
  6 51  1  0  0  0
  7 52  1  0  0  0
  8 53  1  0  0  0
  9 54  1  0  0  0
  9 55  1  0  0  0
 11 56  1  0  0  0
 11 57  1  0  0  0
 11 58  1  0  0  0
 12 59  1  0  0  0
 14 60  1  0  0  0
 15 61  1  0  0  0
 17 62  1  0  0  0
 18 63  1  0  0  0
 19 64  1  0  0  0
 21 65  1  0  0  0
 22 66  1  0  0  0
 23 67  1  0  0  0
 24 68  1  0  0  0
 25 69  1  0  0  0
 26 70  1  0  0  0
 26 71  1  0  0  0
 27 72  1  0  0  0
 28 73  1  0  0  0
 29 74  1  0  0  0
 32 75  1  0  0  0
 33 76  1  0  0  0
 34 77  1  0  0  0
 35 78  1  0  0  0
 36 79  1  0  0  0
 37 80  1  0  0  0
 37 81  1  0  0  0
 39 82  1  0  0  0
 39 83  1  0  0  0
 39 84  1  0  0  0
 40 85  1  0  0  0
 41 86  1  0  0  0
 42 87  1  0  0  0
 45 88  1  0  0  0
M  END
$$$$
