2bge_ligand
  -I-interpret- 

 22 23  0  0  0  0  0  0  0  0999 V2000
   54.4090   33.7940   37.9070 C   0  0  0  0  0
   55.5270   33.8400   37.0330 C   0  0  0  0  0
   55.6900   32.8480   36.0310 C   0  0  0  0  0
   54.7340   31.8040   35.9010 C   0  0  0  0  0
   53.6160   31.7520   36.7740 C   0  0  0  0  0
   53.4360   32.7440   37.7880 C   0  0  0  0  0
   52.2760   32.6720   38.6760 N   0  0  0  0  0
   52.2690   31.8100   40.1460 S   0  0  0  0  0
   50.6740   32.1790   40.5660 N   0  0  0  0  0
   50.0700   32.9420   39.6640 C   0  0  0  0  0
   50.9570   33.3040   38.4680 C   0  0  0  0  0
   48.9060   33.3290   39.7720 O   0  0  0  0  0
   53.2980   32.4180   41.2000 O   0  0  0  0  0
   52.4990   30.2530   39.9290 O   0  0  0  0  0
   54.2883   34.5601   38.6729 H   0  0  0  0  0
   56.2618   34.6390   37.1317 H   0  0  0  0  0
   56.5487   32.8867   35.3608 H   0  0  0  0  0
   54.8595   31.0431   35.1306 H   0  0  0  0  0
   52.8874   30.9479   36.6704 H   0  0  0  0  0
   50.2243   31.8506   41.4206 H   0  0  0  0  0
   50.5078   32.9459   37.5417 H   0  0  0  0  0
   51.0640   34.3859   38.3901 H   0  0  0  0  0
  1  2  4  0  0  0
  1  6  4  0  0  0
  2  3  4  0  0  0
  3  4  4  0  0  0
  4  5  4  0  0  0
  5  6  4  0  0  0
  6  7  1  0  0  0
  7  8  1  0  0  0
  7 11  1  0  0  0
  8  9  1  0  0  0
  8 13  2  0  0  0
  8 14  2  0  0  0
  9 10  1  0  0  0
 10 11  1  0  0  0
 10 12  2  0  0  0
  1 15  1  0  0  0
  2 16  1  0  0  0
  3 17  1  0  0  0
  4 18  1  0  0  0
  5 19  1  0  0  0
  9 20  1  0  0  0
 11 21  1  0  0  0
 11 22  1  0  0  0
M  END
$$$$
