### 
### Created by X-TOOL on Mon Sep 10 21:13:30 2018
### 

@<TRIPOS>MOLECULE
5iay_ligand
  234   236     1     0     0
SMALL
GAST_HUCK


@<TRIPOS>ATOM
      1 N          -3.3900    3.1010   22.3740 N.4       1 THR         0.2398
      2 CA         -4.5250    3.2530   21.4210 C.3       1 THR         0.0910
      3 C          -5.7740    2.5910   22.0060 C.2       1 THR         0.2291
      4 O          -6.8080    3.2130   22.1540 O.2       1 THR        -0.3906
      5 CB         -4.1680    2.5830   20.0920 C.3       1 THR         0.1120
      6 OG1        -3.1870    1.5810   20.3170 O.3       1 THR        -0.3840
      7 CG2        -3.6170    3.6300   19.1220 C.3       1 THR        -0.0314
      8 N          -5.6880    1.3320   22.3420 N.am      1 GLY        -0.2636
      9 CA         -6.8700    0.6320   22.9180 C.3       1 GLY         0.1202
     10 C          -6.4610   -0.7700   23.3730 C.2       1 GLY         0.2007
     11 O          -5.3060   -1.1420   23.3080 O.2       1 GLY        -0.3947
     12 N          -7.3990   -1.5530   23.8340 N.am      1 LYS        -0.2640
     13 CA         -7.0620   -2.9290   24.2910 C.3       1 LYS         0.1310
     14 C          -6.4270   -3.7100   23.1390 C.2       1 LYS         0.2037
     15 O          -5.5370   -4.5130   23.3350 O.2       1 LYS        -0.3944
     16 CB         -8.3350   -3.6410   24.7510 C.3       1 LYS        -0.0122
     17 CG         -8.9080   -2.9240   25.9740 C.3       1 LYS        -0.0440
     18 CD        -10.1130   -3.7020   26.5070 C.3       1 LYS        -0.0124
     19 CE        -10.7590   -2.9220   27.6530 C.3       1 LYS        -0.0354
     20 NZ        -10.6690   -3.7170   28.9090 N.4       1 LYS         0.2185
     21 N          -6.8760   -3.4810   21.9340 N.am      1 GLY        -0.2664
     22 CA         -6.2960   -4.2110   20.7720 C.3       1 GLY         0.1201
     23 C          -6.2880   -3.2990   19.5440 C.2       1 GLY         0.2007
     24 O          -6.8550   -2.2250   19.5530 O.2       1 GLY        -0.3947
     25 N          -5.6500   -3.7220   18.4870 N.am      1 LYS        -0.2640
     26 CA         -5.6030   -2.8850   17.2530 C.3       1 LYS         0.1310
     27 C          -6.5270   -3.4900   16.1930 C.2       1 LYS         0.2040
     28 O          -6.7440   -4.6840   16.1550 O.2       1 LYS        -0.3944
     29 CB         -4.1700   -2.8470   16.7180 C.3       1 LYS        -0.0122
     30 CG         -3.2620   -2.1570   17.7390 C.3       1 LYS        -0.0440
     31 CD         -1.8540   -2.0160   17.1560 C.3       1 LYS        -0.0124
     32 CE         -0.9190   -1.4280   18.2150 C.3       1 LYS        -0.0354
     33 NZ         -0.9320    0.0590   18.1220 N.4       1 LYS         0.2185
     34 N          -7.0720   -2.6750   15.3320 N.am      1 TRP        -0.2627
     35 CA         -7.9790   -3.2100   14.2770 C.3       1 TRP         0.1352
     36 C          -7.2110   -3.3280   12.9600 C.2       1 TRP         0.2052
     37 O          -6.4280   -2.4670   12.6080 O.2       1 TRP        -0.3942
     38 CB         -9.1630   -2.2590   14.0920 C.3       1 TRP         0.0042
     39 CG         -9.9890   -2.2420   15.3380 C.2       1 TRP        -0.0418
     40 CD1       -10.0160   -1.2330   16.2380 C.2       1 TRP         0.0167
     41 CD2       -10.9030   -3.2610   15.8370 C.ar      1 TRP        -0.0214
     42 NE1       -10.8890   -1.5670   17.2580 N.pl3     1 TRP        -0.2890
     43 CE2       -11.4610   -2.8080   17.0550 C.ar      1 TRP         0.0603
     44 CE3       -11.2990   -4.5210   15.3540 C.ar      1 TRP        -0.0747
     45 CZ2       -12.3790   -3.5770   17.7710 C.ar      1 TRP        -0.0443
     46 CZ3       -12.2230   -5.2990   16.0720 C.ar      1 TRP        -0.0792
     47 CH2       -12.7610   -4.8280   17.2780 C.ar      1 TRP        -0.0768
     48 N          -7.4270   -4.3910   12.2300 N.am      1 LYS        -0.2636
     49 CA         -6.7100   -4.5750   10.9360 C.3       1 LYS         0.1310
     50 C          -7.7090   -4.5450    9.7800 C.2       1 LYS         0.2039
     51 O          -8.8760   -4.8440    9.9450 O.2       1 LYS        -0.3944
     52 CB         -5.9850   -5.9210   10.9370 C.3       1 LYS        -0.0122
     53 CG         -4.8770   -5.9010   11.9890 C.3       1 LYS        -0.0440
     54 CD         -4.0660   -7.1930   11.8990 C.3       1 LYS        -0.0124
     55 CE         -3.0020   -7.1980   12.9950 C.3       1 LYS        -0.0354
     56 NZ         -1.8480   -8.0360   12.5650 N.4       1 LYS         0.2185
     57 N          -7.2570   -4.1930    8.6100 N.am      1 ARG        -0.2637
     58 CA         -8.1750   -4.1500    7.4380 C.3       1 ARG         0.1311
     59 C          -8.2350   -5.5380    6.7960 C.2       1 ARG         0.2039
     60 O          -7.3230   -6.3310    6.9280 O.2       1 ARG        -0.3944
     61 CB         -7.6600   -3.1220    6.4290 C.3       1 ARG        -0.0092
     62 CG         -6.3030   -3.5690    5.8780 C.3       1 ARG        -0.0156
     63 CD         -5.6080   -2.3700    5.2300 C.3       1 ARG         0.0627
     64 NE         -4.3400   -2.8100    4.5850 N.pl3     1 ARG        -0.2723
     65 CZ         -3.3790   -1.9490    4.3900 C.cat     1 ARG         0.2882
     66 NH1        -2.2680   -2.3260    3.8190 N.pl3     1 ARG        -0.2849
     67 NH2        -3.5290   -0.7080    4.7660 N.pl3     1 ARG        -0.2849
     68 N          -9.3060   -5.8490    6.1180 N.am      1 LYS        -0.2637
     69 CA         -9.4220   -7.1960    5.4900 C.3       1 LYS         0.1310
     70 C          -8.5650   -7.2660    4.2270 C.2       1 LYS         0.2040
     71 O          -8.5890   -6.3830    3.3920 O.2       1 LYS        -0.3944
     72 CB        -10.8820   -7.4680    5.1260 C.3       1 LYS        -0.0122
     73 CG        -11.7280   -7.4990    6.4000 C.3       1 LYS        -0.0440
     74 CD        -13.1250   -8.0290    6.0700 C.3       1 LYS        -0.0124
     75 CE        -13.8380   -7.0490    5.1360 C.3       1 LYS        -0.0354
     76 NZ        -13.5000   -7.3740    3.7220 N.4       1 LYS         0.2185
     77 N          -7.8140   -8.3210    4.0810 N.am      1 SER        -0.2616
     78 CA         -6.9550   -8.4750    2.8750 C.3       1 SER         0.1539
     79 C          -6.4410   -9.9150    2.8090 C.2       1 SER         0.2062
     80 O          -5.9310  -10.4420    3.7780 O.2       1 SER        -0.3943
     81 CB         -5.7700   -7.5160    2.9660 C.3       1 SER         0.0843
     82 OG         -6.2310   -6.1820    2.7910 O.3       1 SER        -0.3903
     83 N          -6.5660  -10.5580    1.6830 N.am      1 ALA        -0.2639
     84 CA         -6.0770  -11.9600    1.5790 C.3       1 ALA         0.1282
     85 C          -5.7320  -12.2850    0.1240 C.2       1 ALA         0.2034
     86 O          -6.3090  -11.7420   -0.8030 O.2       1 ALA        -0.3944
     87 CB         -7.1630  -12.9170    2.0740 C.3       1 ALA        -0.0244
     88 N          -4.7970  -13.1740   -0.0800 N.am      1 GLY        -0.2664
     89 CA         -4.4070  -13.5480   -1.4680 C.3       1 GLY         0.1201
     90 C          -3.4110  -14.7070   -1.4280 C.2       1 GLY         0.2005
     91 O          -3.1130  -15.2470   -0.3810 O.2       1 GLY        -0.3947
     92 N          -2.8930  -15.0950   -2.5620 N.am      1 GLY        -0.2666
     93 CA         -1.9170  -16.2200   -2.5920 C.3       1 GLY         0.1201
     94 C          -2.6690  -17.5470   -2.6950 C.2       1 GLY         0.2005
     95 O          -3.8650  -17.5750   -2.9110 O.2       1 GLY        -0.3947
     96 N          -1.9780  -18.6450   -2.5420 N.am      1 GLY        -0.2666
     97 CA         -2.6490  -19.9750   -2.6300 C.3       1 GLY         0.1203
     98 C          -2.2940  -20.8100   -1.4000 C.2       1 GLY         0.2032
     99 O          -1.4680  -21.7000   -1.4620 O.2       1 GLY        -0.3945
    100 N          -2.9160  -20.5240   -0.2890 N.am      1 PRO        -0.2501
    101 CA         -2.6690  -21.2570    0.9860 C.3       1 PRO         0.1337
    102 C          -2.8520  -22.7700    0.8280 C.2       1 PRO         0.2036
    103 O          -3.7080  -23.2260    0.0960 O.2       1 PRO        -0.3944
    104 CB         -3.7170  -20.6940    1.9520 C.3       1 PRO        -0.0104
    105 CG         -4.1220  -19.3740    1.3820 C.3       1 PRO        -0.0281
    106 CD         -3.9240  -19.4670   -0.1300 C.3       1 PRO         0.0369
    107 N          -2.0520  -23.5480    1.5080 N.am      1 SER        -0.2672
    108 CA         -2.1760  -25.0300    1.3990 C.3       1 SER         0.1173
    109 C          -2.7430  -25.5910    2.7050 C.2       1 SER         0.0623
    110 O          -2.0260  -26.3120    3.3780 O.co2     1 SER        -0.5665
    111 CB         -0.7970  -25.6380    1.1400 C.3       1 SER         0.0789
    112 OG         -0.9510  -26.9870    0.7180 O.3       1 SER        -0.3910
    113 OXT        -3.8860  -25.2890    3.0090 O.co2     1 SER        -0.5665
    114 H1         -3.6249    3.5422   23.2493 H         1 THR         0.2016
    115 H2         -2.5668    3.5367   21.9884 H         1 THR         0.2016
    116 H3         -3.2103    2.1214   22.5291 H         1 THR         0.2016
    117 H4         -4.7214    4.3220   21.2518 H         1 THR         0.1125
    118 H5         -5.0691    2.1229   19.6602 H         1 THR         0.0674
    119 H6         -2.9656    1.1653   19.4920 H         1 THR         0.2102
    120 H7         -3.3610    3.1468   18.1676 H         1 THR         0.0258
    121 H8         -2.7159    4.0908   19.5529 H         1 THR         0.0258
    122 H9         -4.3779    4.4051   18.9480 H         1 THR         0.0258
    123 H10        -4.8284    0.8377   22.2126 H         1 GLY         0.1882
    124 H11        -7.6581    0.5543   22.1545 H         1 GLY         0.0763
    125 H12        -7.2491    1.2010   23.7797 H         1 GLY         0.0763
    126 H13        -8.3437   -1.2282   23.8800 H         1 LYS         0.1883
    127 H14        -6.3519   -2.8721   25.1291 H         1 LYS         0.0800
    128 H15        -8.0977   -4.6822   25.0146 H         1 LYS         0.0312
    129 H16        -9.0761   -3.6283   23.9382 H         1 LYS         0.0312
    130 H17        -9.2241   -1.9097   25.6890 H         1 LYS         0.0269
    131 H18        -8.1373   -2.8617   26.7564 H         1 LYS         0.0269
    132 H19        -9.7816   -4.6847   26.8737 H         1 LYS         0.0317
    133 H20       -10.8464   -3.8404   25.6989 H         1 LYS         0.0317
    134 H21       -11.8158   -2.7302   27.4157 H         1 LYS         0.0813
    135 H22       -10.2336   -1.9649   27.7868 H         1 LYS         0.0813
    136 H23       -11.0950   -3.2022   29.6637 H         1 LYS         0.1994
    137 H24        -9.7006   -3.8928   29.1268 H         1 LYS         0.1994
    138 H25       -11.1505   -4.5941   28.7868 H         1 LYS         0.1994
    139 H26        -7.6089   -2.8158   21.7914 H         1 GLY         0.1881
    140 H27        -6.9029   -5.1038   20.5608 H         1 GLY         0.0763
    141 H28        -5.2657   -4.5155   21.0083 H         1 GLY         0.0763
    142 H29        -5.1910   -4.6103   18.5043 H         1 LYS         0.1883
    143 H30        -5.9342   -1.8630   17.4892 H         1 LYS         0.0800
    144 H31        -4.1470   -2.2885   15.7706 H         1 LYS         0.0312
    145 H32        -3.8152   -3.8740   16.5470 H         1 LYS         0.0312
    146 H33        -3.2196   -2.7596   18.6583 H         1 LYS         0.0269
    147 H34        -3.6638   -1.1599   17.9723 H         1 LYS         0.0269
    148 H35        -1.8842   -1.3483   16.2824 H         1 LYS         0.0317
    149 H36        -1.4837   -3.0052   16.8488 H         1 LYS         0.0317
    150 H37         0.1035   -1.7965   18.0460 H         1 LYS         0.0813
    151 H38        -1.2590   -1.7353   19.2150 H         1 LYS         0.0813
    152 H39        -0.3157    0.4447   18.8202 H         1 LYS         0.1994
    153 H40        -1.8688    0.3972   18.2771 H         1 LYS         0.1994
    154 H41        -0.6203    0.3411   17.2059 H         1 LYS         0.1994
    155 H42        -6.8818   -1.6944   15.3798 H         1 TRP         0.1884
    156 H43        -8.3479   -4.2017   14.5777 H         1 TRP         0.0815
    157 H44        -9.7798   -2.6015   13.2481 H         1 TRP         0.0397
    158 H45        -8.7899   -1.2450   13.8858 H         1 TRP         0.0397
    159 H46        -9.4441   -0.3087   16.1709 H         1 TRP         0.0795
    160 H47       -11.0880   -0.9643   18.0692 H         1 TRP         0.2216
    161 H48       -10.8891   -4.8942   14.4225 H         1 TRP         0.0540
    162 H49       -12.7927   -3.2072   18.7022 H         1 TRP         0.0541
    163 H50       -12.5216   -6.2690   15.6912 H         1 TRP         0.0510
    164 H51       -13.4726   -5.4335   17.8277 H         1 TRP         0.0530
    165 H52        -8.0768   -5.0844   12.5414 H         1 LYS         0.1883
    166 H53        -5.9776   -3.7644   10.8074 H         1 LYS         0.0800
    167 H54        -5.5456   -6.1017    9.9449 H         1 LYS         0.0312
    168 H55        -6.7002   -6.7227   11.1728 H         1 LYS         0.0312
    169 H56        -5.3238   -5.8176   12.9907 H         1 LYS         0.0269
    170 H57        -4.2163   -5.0401   11.8094 H         1 LYS         0.0269
    171 H58        -3.5795   -7.2538   10.9143 H         1 LYS         0.0317
    172 H59        -4.7344   -8.0565   12.0317 H         1 LYS         0.0317
    173 H60        -3.4306   -7.6115   13.9198 H         1 LYS         0.0813
    174 H61        -2.6594   -6.1688   13.1778 H         1 LYS         0.0813
    175 H62        -1.1465   -8.0386   13.2889 H         1 LYS         0.1994
    176 H63        -1.4549   -7.6572   11.7176 H         1 LYS         0.1994
    177 H64        -2.1616   -8.9792   12.3976 H         1 LYS         0.1994
    178 H65        -6.2930   -3.9515    8.4987 H         1 ARG         0.1883
    179 H66        -9.1823   -3.8592    7.7709 H         1 ARG         0.0800
    180 H67        -7.5489   -2.1469    6.9258 H         1 ARG         0.0313
    181 H68        -8.3783   -3.0318    5.6009 H         1 ARG         0.0313
    182 H69        -6.4521   -4.3587    5.1270 H         1 ARG         0.0301
    183 H70        -5.6813   -3.9561    6.6987 H         1 ARG         0.0301
    184 H71        -5.3838   -1.6176    6.0004 H         1 ARG         0.0689
    185 H72        -6.2708   -1.9305    4.4701 H         1 ARG         0.0689
    186 H73        -4.2218   -3.7909    4.2937 H         1 ARG         0.2642
    187 H74        -1.5107   -1.6449    3.6660 H         1 ARG         0.2615
    188 H75        -2.1483   -3.3047    3.5213 H         1 ARG         0.2615
    189 H76        -4.4054   -0.4088    5.2169 H         1 ARG         0.2615
    190 H77        -2.7709   -0.0279    4.6118 H         1 ARG         0.2615
    191 H78       -10.0473   -5.1850    6.0200 H         1 LYS         0.1883
    192 H79        -9.0768   -7.9580    6.2042 H         1 LYS         0.0800
    193 H80       -10.9573   -8.4377    4.6123 H         1 LYS         0.0312
    194 H81       -11.2487   -6.6717    4.4617 H         1 LYS         0.0312
    195 H82       -11.8091   -6.4821    6.8115 H         1 LYS         0.0269
    196 H83       -11.2514   -8.1575    7.1411 H         1 LYS         0.0269
    197 H84       -13.7045   -8.1370    6.9987 H         1 LYS         0.0317
    198 H85       -13.0380   -9.0080    5.5761 H         1 LYS         0.0317
    199 H86       -13.5131   -6.0231    5.3639 H         1 LYS         0.0813
    200 H87       -14.9254   -7.1300    5.2807 H         1 LYS         0.0813
    201 H88       -13.9700   -6.7281    3.1072 H         1 LYS         0.1994
    202 H89       -13.7978   -8.3140    3.5129 H         1 LYS         0.1994
    203 H90       -12.5036   -7.2997    3.5891 H         1 LYS         0.1994
    204 H91        -7.8148   -9.0321    4.7841 H         1 SER         0.1884
    205 H92        -7.5418   -8.2501    1.9722 H         1 SER         0.0823
    206 H93        -5.0397   -7.7585    2.1800 H         1 SER         0.0606
    207 H94        -5.2931   -7.6136    3.9524 H         1 SER         0.0606
    208 H95        -6.8619   -5.9745    3.4703 H         1 SER         0.2097
    209 H96        -6.9879  -10.1124    0.8934 H         1 ALA         0.1883
    210 H97        -5.1769  -12.0777    2.2003 H         1 ALA         0.0797
    211 H98        -6.8015  -13.9531    1.9971 H         1 ALA         0.0277
    212 H99        -8.0661  -12.7971    1.4576 H         1 ALA         0.0277
    213 H100       -7.4022  -12.6891    3.1232 H         1 ALA         0.0277
    214 H101       -4.3413  -13.6052    0.6987 H         1 GLY         0.1881
    215 H102       -3.9417  -12.6828   -1.9629 H         1 GLY         0.0763
    216 H103       -5.3020  -13.8541   -2.0295 H         1 GLY         0.0763
    217 H104       -3.1519  -14.6361   -3.4119 H         1 GLY         0.1881
    218 H105       -1.3174  -16.2094   -1.6699 H         1 GLY         0.0763
    219 H106       -1.2537  -16.1064   -3.4621 H         1 GLY         0.0763
    220 H107       -0.9951  -18.5940   -2.3651 H         1 GLY         0.1881
    221 H108       -2.3101  -20.4969   -3.5371 H         1 GLY         0.0763
    222 H109       -3.7389  -19.8331   -2.6741 H         1 GLY         0.0763
    223 H110       -1.6523  -21.0532    1.3530 H         1 PRO         0.0802
    224 H111       -3.2836  -20.5624    2.9544 H         1 PRO         0.0313
    225 H112       -4.5842  -21.3680    2.0130 H         1 PRO         0.0313
    226 H113       -3.4931  -18.5729    1.7977 H         1 PRO         0.0287
    227 H114       -5.1776  -19.1692    1.6138 H         1 PRO         0.0287
    228 H115       -4.8633  -19.7430   -0.6316 H         1 PRO         0.0524
    229 H116       -3.5580  -18.5126   -0.5363 H         1 PRO         0.0524
    230 H117       -1.3547  -23.1484    2.1031 H         1 SER         0.1876
    231 H118       -2.8506  -25.2821    0.5675 H         1 SER         0.0749
    232 H119       -0.2023  -25.6078    2.0649 H         1 SER         0.0599
    233 H120       -0.2835  -25.0636    0.3549 H         1 SER         0.0599
    234 H121       -1.3950  -27.4813    1.3970 H         1 SER         0.2096
@<TRIPOS>BOND
     1    1    2 1  
     2    2    3 1  
     3    2    5 1  
     4    3    4 2  
     5    3    8 am 
     6    5    6 1  
     7    5    7 1  
     8    8    9 1  
     9    9   10 1  
    10   10   11 2  
    11   10   12 am 
    12   12   13 1  
    13   13   14 1  
    14   13   16 1  
    15   14   15 2  
    16   14   21 am 
    17   16   17 1  
    18   17   18 1  
    19   18   19 1  
    20   19   20 1  
    21   21   22 1  
    22   22   23 1  
    23   23   24 2  
    24   23   25 am 
    25   25   26 1  
    26   26   27 1  
    27   26   29 1  
    28   27   28 2  
    29   27   34 am 
    30   29   30 1  
    31   30   31 1  
    32   31   32 1  
    33   32   33 1  
    34   34   35 1  
    35   35   36 1  
    36   35   38 1  
    37   36   37 2  
    38   36   48 am 
    39   38   39 1  
    40   39   40 2  
    41   39   41 1  
    42   40   42 1  
    43   41   43 ar 
    44   41   44 ar 
    45   42   43 1  
    46   43   45 ar 
    47   44   46 ar 
    48   45   47 ar 
    49   46   47 ar 
    50   48   49 1  
    51   49   50 1  
    52   49   52 1  
    53   50   51 2  
    54   50   57 am 
    55   52   53 1  
    56   53   54 1  
    57   54   55 1  
    58   55   56 1  
    59   57   58 1  
    60   58   59 1  
    61   58   61 1  
    62   59   60 2  
    63   59   68 am 
    64   61   62 1  
    65   62   63 1  
    66   63   64 1  
    67   64   65 ar 
    68   65   66 ar 
    69   65   67 ar 
    70   68   69 1  
    71   69   70 1  
    72   69   72 1  
    73   70   71 2  
    74   70   77 am 
    75   72   73 1  
    76   73   74 1  
    77   74   75 1  
    78   75   76 1  
    79   77   78 1  
    80   78   79 1  
    81   78   81 1  
    82   79   80 2  
    83   79   83 am 
    84   81   82 1  
    85   83   84 1  
    86   84   85 1  
    87   84   87 1  
    88   85   86 2  
    89   85   88 am 
    90   88   89 1  
    91   89   90 1  
    92   90   91 2  
    93   90   92 am 
    94   92   93 1  
    95   93   94 1  
    96   94   95 2  
    97   94   96 am 
    98   96   97 1  
    99   97   98 1  
   100   98   99 2  
   101   98  100 am 
   102  100  101 1  
   103  100  106 1  
   104  101  102 1  
   105  101  104 1  
   106  102  103 2  
   107  102  107 am 
   108  104  105 1  
   109  105  106 1  
   110  107  108 1  
   111  108  109 1  
   112  108  111 1  
   113  109  110 ar 
   114  109  113 ar 
   115  111  112 1  
   116    1  114 1  
   117    1  115 1  
   118    1  116 1  
   119    2  117 1  
   120    5  118 1  
   121    6  119 1  
   122    7  120 1  
   123    7  121 1  
   124    7  122 1  
   125    8  123 1  
   126    9  124 1  
   127    9  125 1  
   128   12  126 1  
   129   13  127 1  
   130   16  128 1  
   131   16  129 1  
   132   17  130 1  
   133   17  131 1  
   134   18  132 1  
   135   18  133 1  
   136   19  134 1  
   137   19  135 1  
   138   20  136 1  
   139   20  137 1  
   140   20  138 1  
   141   21  139 1  
   142   22  140 1  
   143   22  141 1  
   144   25  142 1  
   145   26  143 1  
   146   29  144 1  
   147   29  145 1  
   148   30  146 1  
   149   30  147 1  
   150   31  148 1  
   151   31  149 1  
   152   32  150 1  
   153   32  151 1  
   154   33  152 1  
   155   33  153 1  
   156   33  154 1  
   157   34  155 1  
   158   35  156 1  
   159   38  157 1  
   160   38  158 1  
   161   40  159 1  
   162   42  160 1  
   163   44  161 1  
   164   45  162 1  
   165   46  163 1  
   166   47  164 1  
   167   48  165 1  
   168   49  166 1  
   169   52  167 1  
   170   52  168 1  
   171   53  169 1  
   172   53  170 1  
   173   54  171 1  
   174   54  172 1  
   175   55  173 1  
   176   55  174 1  
   177   56  175 1  
   178   56  176 1  
   179   56  177 1  
   180   57  178 1  
   181   58  179 1  
   182   61  180 1  
   183   61  181 1  
   184   62  182 1  
   185   62  183 1  
   186   63  184 1  
   187   63  185 1  
   188   64  186 1  
   189   66  187 1  
   190   66  188 1  
   191   67  189 1  
   192   67  190 1  
   193   68  191 1  
   194   69  192 1  
   195   72  193 1  
   196   72  194 1  
   197   73  195 1  
   198   73  196 1  
   199   74  197 1  
   200   74  198 1  
   201   75  199 1  
   202   75  200 1  
   203   76  201 1  
   204   76  202 1  
   205   76  203 1  
   206   77  204 1  
   207   78  205 1  
   208   81  206 1  
   209   81  207 1  
   210   82  208 1  
   211   83  209 1  
   212   84  210 1  
   213   87  211 1  
   214   87  212 1  
   215   87  213 1  
   216   88  214 1  
   217   89  215 1  
   218   89  216 1  
   219   92  217 1  
   220   93  218 1  
   221   93  219 1  
   222   96  220 1  
   223   97  221 1  
   224   97  222 1  
   225  101  223 1  
   226  104  224 1  
   227  104  225 1  
   228  105  226 1  
   229  105  227 1  
   230  106  228 1  
   231  106  229 1  
   232  107  230 1  
   233  108  231 1  
   234  111  232 1  
   235  111  233 1  
   236  112  234 1  
@<TRIPOS>SUBSTRUCTURE
     1 THR         1

