5iay_ligand
  -I-interpret- 

233235  0  0  0  0  0  0  0  0999 V2000
   -3.3900    3.1010   22.3740 N   0  3  0  0  0
   -4.5250    3.2530   21.4210 C   0  0  0  0  0
   -5.7740    2.5910   22.0060 C   0  0  0  0  0
   -6.8080    3.2130   22.1540 O   0  0  0  0  0
   -4.1680    2.5830   20.0920 C   0  0  0  0  0
   -3.1870    1.5810   20.3170 O   0  0  0  0  0
   -3.6170    3.6300   19.1220 C   0  0  0  0  0
   -5.6880    1.3320   22.3420 N   0  0  0  0  0
   -6.8700    0.6320   22.9180 C   0  0  0  0  0
   -6.4610   -0.7700   23.3730 C   0  0  0  0  0
   -5.3060   -1.1420   23.3080 O   0  0  0  0  0
   -7.3990   -1.5530   23.8340 N   0  0  0  0  0
   -7.0620   -2.9290   24.2910 C   0  0  0  0  0
   -6.4270   -3.7100   23.1390 C   0  0  0  0  0
   -5.5370   -4.5130   23.3350 O   0  0  0  0  0
   -8.3350   -3.6410   24.7510 C   0  0  0  0  0
   -8.9080   -2.9240   25.9740 C   0  0  0  0  0
  -10.1130   -3.7020   26.5070 C   0  0  0  0  0
  -10.7590   -2.9220   27.6530 C   0  0  0  0  0
  -10.6690   -3.7170   28.9090 N   0  3  0  0  0
   -6.8760   -3.4810   21.9340 N   0  0  0  0  0
   -6.2960   -4.2110   20.7720 C   0  0  0  0  0
   -6.2880   -3.2990   19.5440 C   0  0  0  0  0
   -6.8550   -2.2250   19.5530 O   0  0  0  0  0
   -5.6500   -3.7220   18.4870 N   0  0  0  0  0
   -5.6030   -2.8850   17.2530 C   0  0  0  0  0
   -6.5270   -3.4900   16.1930 C   0  0  0  0  0
   -6.7440   -4.6840   16.1550 O   0  0  0  0  0
   -4.1700   -2.8470   16.7180 C   0  0  0  0  0
   -3.2620   -2.1570   17.7390 C   0  0  0  0  0
   -1.8540   -2.0160   17.1560 C   0  0  0  0  0
   -0.9190   -1.4280   18.2150 C   0  0  0  0  0
   -0.9320    0.0590   18.1220 N   0  3  0  0  0
   -7.0720   -2.6750   15.3320 N   0  0  0  0  0
   -7.9790   -3.2100   14.2770 C   0  0  0  0  0
   -7.2110   -3.3280   12.9600 C   0  0  0  0  0
   -6.4280   -2.4670   12.6080 O   0  0  0  0  0
   -9.1630   -2.2590   14.0920 C   0  0  0  0  0
   -9.9890   -2.2420   15.3380 C   0  0  0  0  0
  -10.0160   -1.2330   16.2380 C   0  0  0  0  0
  -10.9030   -3.2610   15.8370 C   0  0  0  0  0
  -10.8890   -1.5670   17.2580 N   0  0  0  0  0
  -11.4610   -2.8080   17.0550 C   0  0  0  0  0
  -11.2990   -4.5210   15.3540 C   0  0  0  0  0
  -12.3790   -3.5770   17.7710 C   0  0  0  0  0
  -12.2230   -5.2990   16.0720 C   0  0  0  0  0
  -12.7610   -4.8280   17.2780 C   0  0  0  0  0
   -7.4270   -4.3910   12.2300 N   0  0  0  0  0
   -6.7100   -4.5750   10.9360 C   0  0  0  0  0
   -7.7090   -4.5450    9.7800 C   0  0  0  0  0
   -8.8760   -4.8440    9.9450 O   0  0  0  0  0
   -5.9850   -5.9210   10.9370 C   0  0  0  0  0
   -4.8770   -5.9010   11.9890 C   0  0  0  0  0
   -4.0660   -7.1930   11.8990 C   0  0  0  0  0
   -3.0020   -7.1980   12.9950 C   0  0  0  0  0
   -1.8480   -8.0360   12.5650 N   0  3  0  0  0
   -7.2570   -4.1930    8.6100 N   0  0  0  0  0
   -8.1750   -4.1500    7.4380 C   0  0  0  0  0
   -8.2350   -5.5380    6.7960 C   0  0  0  0  0
   -7.3230   -6.3310    6.9280 O   0  0  0  0  0
   -7.6600   -3.1220    6.4290 C   0  0  0  0  0
   -6.3030   -3.5690    5.8780 C   0  0  0  0  0
   -5.6080   -2.3700    5.2300 C   0  0  0  0  0
   -4.3400   -2.8100    4.5850 N   0  0  0  0  0
   -3.3790   -1.9490    4.3900 C   0  0  0  0  0
   -2.2680   -2.3260    3.8190 N   0  0  0  0  0
   -3.5290   -0.7080    4.7660 N   0  0  0  0  0
   -9.3060   -5.8490    6.1180 N   0  0  0  0  0
   -9.4220   -7.1960    5.4900 C   0  0  0  0  0
   -8.5650   -7.2660    4.2270 C   0  0  0  0  0
   -8.5890   -6.3830    3.3920 O   0  0  0  0  0
  -10.8820   -7.4680    5.1260 C   0  0  0  0  0
  -11.7280   -7.4990    6.4000 C   0  0  0  0  0
  -13.1250   -8.0290    6.0700 C   0  0  0  0  0
  -13.8380   -7.0490    5.1360 C   0  0  0  0  0
  -13.5000   -7.3740    3.7220 N   0  3  0  0  0
   -7.8140   -8.3210    4.0810 N   0  0  0  0  0
   -6.9550   -8.4750    2.8750 C   0  0  0  0  0
   -6.4410   -9.9150    2.8090 C   0  0  0  0  0
   -5.9310  -10.4420    3.7780 O   0  0  0  0  0
   -5.7700   -7.5160    2.9660 C   0  0  0  0  0
   -6.2310   -6.1820    2.7910 O   0  0  0  0  0
   -6.5660  -10.5580    1.6830 N   0  0  0  0  0
   -6.0770  -11.9600    1.5790 C   0  0  0  0  0
   -5.7320  -12.2850    0.1240 C   0  0  0  0  0
   -6.3090  -11.7420   -0.8030 O   0  0  0  0  0
   -7.1630  -12.9170    2.0740 C   0  0  0  0  0
   -4.7970  -13.1740   -0.0800 N   0  0  0  0  0
   -4.4070  -13.5480   -1.4680 C   0  0  0  0  0
   -3.4110  -14.7070   -1.4280 C   0  0  0  0  0
   -3.1130  -15.2470   -0.3810 O   0  0  0  0  0
   -2.8930  -15.0950   -2.5620 N   0  0  0  0  0
   -1.9170  -16.2200   -2.5920 C   0  0  0  0  0
   -2.6690  -17.5470   -2.6950 C   0  0  0  0  0
   -3.8650  -17.5750   -2.9110 O   0  0  0  0  0
   -1.9780  -18.6450   -2.5420 N   0  0  0  0  0
   -2.6490  -19.9750   -2.6300 C   0  0  0  0  0
   -2.2940  -20.8100   -1.4000 C   0  0  0  0  0
   -1.4680  -21.7000   -1.4620 O   0  0  0  0  0
   -2.9160  -20.5240   -0.2890 N   0  0  0  0  0
   -2.6690  -21.2570    0.9860 C   0  0  0  0  0
   -2.8520  -22.7700    0.8280 C   0  0  0  0  0
   -3.7080  -23.2260    0.0960 O   0  0  0  0  0
   -3.7170  -20.6940    1.9520 C   0  0  0  0  0
   -4.1220  -19.3740    1.3820 C   0  0  0  0  0
   -3.9240  -19.4670   -0.1300 C   0  0  0  0  0
   -2.0520  -23.5480    1.5080 N   0  0  0  0  0
   -2.1760  -25.0300    1.3990 C   0  0  0  0  0
   -2.7430  -25.5910    2.7050 C   0  0  0  0  0
   -2.0260  -26.3120    3.3780 O   0  0  0  0  0
   -0.7970  -25.6380    1.1400 C   0  0  0  0  0
   -0.9510  -26.9870    0.7180 O   0  0  0  0  0
   -3.8860  -25.2890    3.0090 O   0  0  0  0  0
   -3.6288    3.5478   23.2593 H   0  0  0  0  0
   -3.2091    2.1094   22.5301 H   0  0  0  0  0
   -2.5577    3.5422   21.9828 H   0  0  0  0  0
   -4.7196    4.3123   21.2535 H   0  0  0  0  0
   -5.0609    2.1281   19.6631 H   0  0  0  0  0
   -3.5348    0.9252   20.9258 H   0  0  0  0  0
   -2.7239    4.0855   19.5499 H   0  0  0  0  0
   -3.3643    3.1501   18.1765 H   0  0  0  0  0
   -4.3716    4.3977   18.9510 H   0  0  0  0  0
   -4.8112    0.8278   22.2100 H   0  0  0  0  0
   -7.6508    0.5550   22.1614 H   0  0  0  0  0
   -7.2455    1.1959   23.7719 H   0  0  0  0  0
   -8.3626   -1.2217   23.8809 H   0  0  0  0  0
   -6.3581   -2.8725   25.1213 H   0  0  0  0  0
   -8.0995   -4.6726   25.0125 H   0  0  0  0  0
   -9.0693   -3.6279   23.9456 H   0  0  0  0  0
   -9.2219   -1.9193   25.6909 H   0  0  0  0  0
   -8.1442   -2.8634   26.7493 H   0  0  0  0  0
   -9.7843   -4.6755   26.8708 H   0  0  0  0  0
  -10.8397   -3.8386   25.7062 H   0  0  0  0  0
  -11.8063   -2.7324   27.4178 H   0  0  0  0  0
  -10.2380   -1.9738   27.7856 H   0  0  0  0  0
  -11.1003   -3.1952   29.6719 H   0  0  0  0  0
  -11.1565   -4.6042   28.7841 H   0  0  0  0  0
   -9.6887   -3.8943   29.1283 H   0  0  0  0  0
   -7.6236   -2.8025   21.7886 H   0  0  0  0  0
   -6.8986   -5.0948   20.5625 H   0  0  0  0  0
   -5.2747   -4.5112   21.0064 H   0  0  0  0  0
   -5.1819   -4.6281   18.5047 H   0  0  0  0  0
   -5.9308   -1.8721   17.4867 H   0  0  0  0  0
   -4.1473   -2.2935   15.7792 H   0  0  0  0  0
   -3.8184   -3.8647   16.5486 H   0  0  0  0  0
   -3.2200   -2.7540   18.6500 H   0  0  0  0  0
   -3.6602   -1.1690   17.9703 H   0  0  0  0  0
   -1.8841   -1.3541   16.2905 H   0  0  0  0  0
   -1.4872   -2.9963   16.8519 H   0  0  0  0  0
    0.0942   -1.7928   18.0467 H   0  0  0  0  0
   -1.2567   -1.7322   19.2057 H   0  0  0  0  0
   -0.3081    0.4481   18.8289 H   0  0  0  0  0
   -0.6164    0.3432   17.1946 H   0  0  0  0  0
   -1.8804    0.4000   18.2791 H   0  0  0  0  0
   -6.8780   -1.6748   15.3807 H   0  0  0  0  0
   -8.3452   -4.1923   14.5754 H   0  0  0  0  0
   -9.7742   -2.5986   13.2558 H   0  0  0  0  0
   -8.7931   -1.2542   13.8879 H   0  0  0  0  0
   -9.4436   -0.3079   16.1708 H   0  0  0  0  0
  -10.8868   -4.8963   14.4173 H   0  0  0  0  0
  -12.7950   -3.2052   18.7074 H   0  0  0  0  0
  -12.5232   -6.2744   15.6891 H   0  0  0  0  0
  -13.4765   -5.4368   17.8307 H   0  0  0  0  0
   -8.0898   -5.0983   12.5476 H   0  0  0  0  0
   -5.9874   -3.7683   10.8132 H   0  0  0  0  0
   -5.5498   -6.1003    9.9539 H   0  0  0  0  0
   -6.6937   -6.7156   11.1704 H   0  0  0  0  0
   -5.3198   -5.8183   12.9816 H   0  0  0  0  0
   -4.2223   -5.0479   11.8111 H   0  0  0  0  0
   -3.5849   -7.2548   10.9229 H   0  0  0  0  0
   -4.7279   -8.0493   12.0289 H   0  0  0  0  0
   -3.4268   -7.6082   13.9112 H   0  0  0  0  0
   -2.6624   -6.1781   13.1756 H   0  0  0  0  0
   -1.1389   -8.0379   13.2982 H   0  0  0  0  0
   -2.1665   -8.9901   12.3959 H   0  0  0  0  0
   -1.4512   -7.6518   11.7075 H   0  0  0  0  0
   -6.2737   -3.9467    8.4965 H   0  0  0  0  0
   -9.1761   -3.8610    7.7580 H   0  0  0  0  0
   -7.5476   -2.1572    6.9236 H   0  0  0  0  0
   -8.3714   -3.0361    5.6077 H   0  0  0  0  0
   -6.4485   -4.3542    5.1361 H   0  0  0  0  0
   -5.6867   -3.9563    6.6894 H   0  0  0  0  0
   -5.3841   -1.6265    5.9950 H   0  0  0  0  0
   -6.2649   -1.9372    4.4755 H   0  0  0  0  0
   -4.2230   -3.7813    4.2965 H   0  0  0  0  0
   -2.1495   -3.2952    3.5242 H   0  0  0  0  0
   -2.7783   -0.0346    4.6133 H   0  0  0  0  0
   -4.3969   -0.4117    5.2125 H   0  0  0  0  0
  -10.0621   -5.1717    6.0180 H   0  0  0  0  0
   -9.0733   -7.9461    6.1998 H   0  0  0  0  0
  -10.9565   -8.4289    4.6169 H   0  0  0  0  0
  -11.2454   -6.6789    4.4677 H   0  0  0  0  0
  -11.8081   -6.4915    6.8082 H   0  0  0  0  0
  -11.2556   -8.1510    7.1347 H   0  0  0  0  0
  -13.6991   -8.1350    6.9905 H   0  0  0  0  0
  -13.0382   -8.9987    5.5798 H   0  0  0  0  0
  -13.5157   -6.0325    5.3618 H   0  0  0  0  0
  -14.9155   -7.1295    5.2794 H   0  0  0  0  0
  -13.9761   -6.7198    3.1009 H   0  0  0  0  0
  -12.4916   -7.2986    3.5888 H   0  0  0  0  0
  -13.8017   -8.3254    3.5116 H   0  0  0  0  0
   -7.8148   -9.0463    4.7981 H   0  0  0  0  0
   -7.5341   -8.2481    1.9799 H   0  0  0  0  0
   -5.0450   -7.7567    2.1884 H   0  0  0  0  0
   -5.2958   -7.6132    3.9426 H   0  0  0  0  0
   -5.4873   -5.5776    2.8479 H   0  0  0  0  0
   -6.9963  -10.1035    0.8776 H   0  0  0  0  0
   -5.1830  -12.0743    2.1920 H   0  0  0  0  0
   -7.3991  -12.6901    3.1136 H   0  0  0  0  0
   -8.0573  -12.7972    1.4625 H   0  0  0  0  0
   -6.8037  -13.9432    1.9973 H   0  0  0  0  0
   -4.3321  -13.6138    0.7143 H   0  0  0  0  0
   -3.9446  -12.6906   -1.9571 H   0  0  0  0  0
   -5.2942  -13.8527   -2.0232 H   0  0  0  0  0
   -3.1571  -14.6269   -3.4289 H   0  0  0  0  0
   -1.3234  -16.2096   -1.6779 H   0  0  0  0  0
   -1.2603  -16.1074   -3.4546 H   0  0  0  0  0
   -0.9754  -18.5930   -2.3616 H   0  0  0  0  0
   -2.3123  -20.4921   -3.5285 H   0  0  0  0  0
   -3.7290  -19.8339   -2.6729 H   0  0  0  0  0
   -1.6445  -21.1211    1.3325 H   0  0  0  0  0
   -3.3132  -20.5859    2.9587 H   0  0  0  0  0
   -4.5707  -21.3648    2.0484 H   0  0  0  0  0
   -3.5199  -18.5688    1.8030 H   0  0  0  0  0
   -5.1609  -19.1496    1.6238 H   0  0  0  0  0
   -4.8509  -19.6959   -0.6559 H   0  0  0  0  0
   -3.6037  -18.5202   -0.5649 H   0  0  0  0  0
   -1.3408  -23.1404    2.1150 H   0  0  0  0  0
   -2.8445  -25.2799    0.5752 H   0  0  0  0  0
   -0.2063  -25.6069    2.0555 H   0  0  0  0  0
   -0.2867  -25.0683    0.3634 H   0  0  0  0  0
   -0.0863  -27.3707    0.5548 H   0  0  0  0  0
   -4.2547  -24.7154    2.3333 H   0  0  0  0  0
  1  2  1  0  0  0
  2  3  1  0  0  0
  2  5  1  0  0  0
  3  4  2  0  0  0
  3  8  1  0  0  0
  5  6  1  0  0  0
  5  7  1  0  0  0
  8  9  1  0  0  0
  9 10  1  0  0  0
 10 11  2  0  0  0
 10 12  1  0  0  0
 12 13  1  0  0  0
 13 14  1  0  0  0
 13 16  1  0  0  0
 14 15  2  0  0  0
 14 21  1  0  0  0
 16 17  1  0  0  0
 17 18  1  0  0  0
 18 19  1  0  0  0
 19 20  1  0  0  0
 21 22  1  0  0  0
 22 23  1  0  0  0
 23 24  2  0  0  0
 23 25  1  0  0  0
 25 26  1  0  0  0
 26 27  1  0  0  0
 26 29  1  0  0  0
 27 28  2  0  0  0
 27 34  1  0  0  0
 29 30  1  0  0  0
 30 31  1  0  0  0
 31 32  1  0  0  0
 32 33  1  0  0  0
 34 35  1  0  0  0
 35 36  1  0  0  0
 35 38  1  0  0  0
 36 37  2  0  0  0
 36 48  1  0  0  0
 38 39  1  0  0  0
 39 40  4  0  0  0
 39 41  4  0  0  0
 40 42  4  0  0  0
 41 43  4  0  0  0
 41 44  4  0  0  0
 42 43  4  0  0  0
 43 45  4  0  0  0
 44 46  4  0  0  0
 45 47  4  0  0  0
 46 47  4  0  0  0
 48 49  1  0  0  0
 49 50  1  0  0  0
 49 52  1  0  0  0
 50 51  2  0  0  0
 50 57  1  0  0  0
 52 53  1  0  0  0
 53 54  1  0  0  0
 54 55  1  0  0  0
 55 56  1  0  0  0
 57 58  1  0  0  0
 58 59  1  0  0  0
 58 61  1  0  0  0
 59 60  2  0  0  0
 59 68  1  0  0  0
 61 62  1  0  0  0
 62 63  1  0  0  0
 63 64  1  0  0  0
 64 65  1  0  0  0
 65 66  2  0  0  0
 65 67  1  0  0  0
 68 69  1  0  0  0
 69 70  1  0  0  0
 69 72  1  0  0  0
 70 71  2  0  0  0
 70 77  1  0  0  0
 72 73  1  0  0  0
 73 74  1  0  0  0
 74 75  1  0  0  0
 75 76  1  0  0  0
 77 78  1  0  0  0
 78 79  1  0  0  0
 78 81  1  0  0  0
 79 80  2  0  0  0
 79 83  1  0  0  0
 81 82  1  0  0  0
 83 84  1  0  0  0
 84 85  1  0  0  0
 84 87  1  0  0  0
 85 86  2  0  0  0
 85 88  1  0  0  0
 88 89  1  0  0  0
 89 90  1  0  0  0
 90 91  2  0  0  0
 90 92  1  0  0  0
 92 93  1  0  0  0
 93 94  1  0  0  0
 94 95  2  0  0  0
 94 96  1  0  0  0
 96 97  1  0  0  0
 97 98  1  0  0  0
 98 99  2  0  0  0
 98100  1  0  0  0
100101  1  0  0  0
100106  1  0  0  0
101102  1  0  0  0
101104  1  0  0  0
102103  2  0  0  0
102107  1  0  0  0
104105  1  0  0  0
105106  1  0  0  0
107108  1  0  0  0
108109  1  0  0  0
108111  1  0  0  0
109110  2  0  0  0
109113  1  0  0  0
111112  1  0  0  0
  1114  1  0  0  0
  1115  1  0  0  0
  1116  1  0  0  0
  2117  1  0  0  0
  5118  1  0  0  0
  6119  1  0  0  0
  7120  1  0  0  0
  7121  1  0  0  0
  7122  1  0  0  0
  8123  1  0  0  0
  9124  1  0  0  0
  9125  1  0  0  0
 12126  1  0  0  0
 13127  1  0  0  0
 16128  1  0  0  0
 16129  1  0  0  0
 17130  1  0  0  0
 17131  1  0  0  0
 18132  1  0  0  0
 18133  1  0  0  0
 19134  1  0  0  0
 19135  1  0  0  0
 20136  1  0  0  0
 20137  1  0  0  0
 20138  1  0  0  0
 21139  1  0  0  0
 22140  1  0  0  0
 22141  1  0  0  0
 25142  1  0  0  0
 26143  1  0  0  0
 29144  1  0  0  0
 29145  1  0  0  0
 30146  1  0  0  0
 30147  1  0  0  0
 31148  1  0  0  0
 31149  1  0  0  0
 32150  1  0  0  0
 32151  1  0  0  0
 33152  1  0  0  0
 33153  1  0  0  0
 33154  1  0  0  0
 34155  1  0  0  0
 35156  1  0  0  0
 38157  1  0  0  0
 38158  1  0  0  0
 40159  1  0  0  0
 44160  1  0  0  0
 45161  1  0  0  0
 46162  1  0  0  0
 47163  1  0  0  0
 48164  1  0  0  0
 49165  1  0  0  0
 52166  1  0  0  0
 52167  1  0  0  0
 53168  1  0  0  0
 53169  1  0  0  0
 54170  1  0  0  0
 54171  1  0  0  0
 55172  1  0  0  0
 55173  1  0  0  0
 56174  1  0  0  0
 56175  1  0  0  0
 56176  1  0  0  0
 57177  1  0  0  0
 58178  1  0  0  0
 61179  1  0  0  0
 61180  1  0  0  0
 62181  1  0  0  0
 62182  1  0  0  0
 63183  1  0  0  0
 63184  1  0  0  0
 64185  1  0  0  0
 66186  1  0  0  0
 67187  1  0  0  0
 67188  1  0  0  0
 68189  1  0  0  0
 69190  1  0  0  0
 72191  1  0  0  0
 72192  1  0  0  0
 73193  1  0  0  0
 73194  1  0  0  0
 74195  1  0  0  0
 74196  1  0  0  0
 75197  1  0  0  0
 75198  1  0  0  0
 76199  1  0  0  0
 76200  1  0  0  0
 76201  1  0  0  0
 77202  1  0  0  0
 78203  1  0  0  0
 81204  1  0  0  0
 81205  1  0  0  0
 82206  1  0  0  0
 83207  1  0  0  0
 84208  1  0  0  0
 87209  1  0  0  0
 87210  1  0  0  0
 87211  1  0  0  0
 88212  1  0  0  0
 89213  1  0  0  0
 89214  1  0  0  0
 92215  1  0  0  0
 93216  1  0  0  0
 93217  1  0  0  0
 96218  1  0  0  0
 97219  1  0  0  0
 97220  1  0  0  0
101221  1  0  0  0
104222  1  0  0  0
104223  1  0  0  0
105224  1  0  0  0
105225  1  0  0  0
106226  1  0  0  0
106227  1  0  0  0
107228  1  0  0  0
108229  1  0  0  0
111230  1  0  0  0
111231  1  0  0  0
112232  1  0  0  0
113233  1  0  0  0
M  END
$$$$
