3cj5_ligand
  -I-interpret- 

 60 62  0  0  0  0  0  0  0  0999 V2000
    4.0490   36.2850   79.7630 O   0  0  0  0  0
    3.4170   35.2210   79.8290 C   0  0  0  0  0
    2.1550   35.1860   80.4080 N   0  0  0  0  0
    1.4380   36.3480   80.9850 C   0  0  0  0  0
    0.5810   35.9860   82.2120 C   0  0  0  0  0
   -0.3200   34.9030   81.9100 O   0  0  0  0  0
    0.3980   33.7270   81.4840 C   0  0  0  0  0
    1.2380   34.0280   80.2320 C   0  0  0  0  0
    3.9530   33.8970   79.2940 C   0  0  0  0  0
    5.4380   33.8940   78.9370 C   0  0  0  0  0
    5.7350   34.8110   77.7640 C   0  0  0  0  0
    5.0850   34.8090   76.7120 O   0  0  0  0  0
    6.7970   35.6420   78.0490 N   0  0  0  0  0
    7.2940   36.6130   77.1510 C   0  0  0  0  0
    6.4080   37.4510   76.4550 C   0  0  0  0  0
    6.8910   38.4100   75.5600 C   0  0  0  0  0
    8.2690   38.5200   75.3750 C   0  0  0  0  0
    8.9710   39.7720   74.1750 Br  0  0  0  0  0
    9.1700   37.7090   76.0390 C   0  0  0  0  0
    8.6940   36.7490   76.9290 C   0  0  0  0  0
    9.7280   35.9310   77.6180 C   0  0  0  0  0
   10.4970   36.5350   78.3570 O   0  0  0  0  0
    9.8500   34.5630   77.4540 N   0  0  0  0  0
   10.8590   33.7750   78.1700 C   0  0  0  0  0
   11.7790   32.9980   77.2330 C   0  0  0  0  0
   12.7690   32.1440   78.0290 C   0  0  0  0  0
   10.9420   32.1540   76.2720 C   0  0  0  0  0
    9.0940   33.8780   76.3820 C   0  0  0  0  0
    9.9550   33.0030   75.4640 C   0  0  0  0  0
    9.0960   32.1430   74.5410 C   0  0  0  0  0
    0.7680   36.7361   80.2178 H   0  0  0  0  0
    2.1874   37.0706   81.3079 H   0  0  0  0  0
   -0.0049   36.8590   82.4996 H   0  0  0  0  0
    1.2419   35.6761   83.0215 H   0  0  0  0  0
   -0.3201   32.9421   81.2466 H   0  0  0  0  0
    1.0632   33.4097   82.2871 H   0  0  0  0  0
    1.8498   33.1499   80.0250 H   0  0  0  0  0
    0.5498   34.2709   79.4224 H   0  0  0  0  0
    3.4090   33.6882   78.3728 H   0  0  0  0  0
    3.8202   33.1618   80.0877 H   0  0  0  0  0
    5.7228   32.8789   78.6602 H   0  0  0  0  0
    5.9998   34.2486   79.8011 H   0  0  0  0  0
    7.2493   35.5509   78.9587 H   0  0  0  0  0
    5.3341   37.3529   76.6140 H   0  0  0  0  0
    6.2040   39.0592   75.0172 H   0  0  0  0  0
   10.2408   37.8194   75.8681 H   0  0  0  0  0
   10.3351   33.0533   78.7967 H   0  0  0  0  0
   11.4755   34.4662   78.7447 H   0  0  0  0  0
   12.3676   33.7000   76.6425 H   0  0  0  0  0
   13.3763   32.7900   78.6631 H   0  0  0  0  0
   12.2193   31.4363   78.6496 H   0  0  0  0  0
   13.4139   31.5997   77.3391 H   0  0  0  0  0
   10.3695   31.4375   76.8610 H   0  0  0  0  0
   11.6198   31.6647   75.5725 H   0  0  0  0  0
    8.6463   34.6528   75.7596 H   0  0  0  0  0
    8.3726   33.2209   76.8676 H   0  0  0  0  0
   10.5398   33.6686   74.8292 H   0  0  0  0  0
    9.7393   31.6063   73.8437 H   0  0  0  0  0
    8.5279   31.4286   75.1367 H   0  0  0  0  0
    8.4095   32.7821   73.9857 H   0  0  0  0  0
  1  2  2  0  0  0
  2  3  1  0  0  0
  2  9  1  0  0  0
  3  4  1  0  0  0
  3  8  1  0  0  0
  4  5  1  0  0  0
  5  6  1  0  0  0
  6  7  1  0  0  0
  7  8  1  0  0  0
  9 10  1  0  0  0
 10 11  1  0  0  0
 11 12  2  0  0  0
 11 13  1  0  0  0
 13 14  1  0  0  0
 14 15  4  0  0  0
 14 20  4  0  0  0
 15 16  4  0  0  0
 16 17  4  0  0  0
 17 18  1  0  0  0
 17 19  4  0  0  0
 19 20  4  0  0  0
 20 21  1  0  0  0
 21 22  2  0  0  0
 21 23  1  0  0  0
 23 24  1  0  0  0
 23 28  1  0  0  0
 24 25  1  0  0  0
 25 26  1  0  0  0
 25 27  1  0  0  0
 27 29  1  0  0  0
 28 29  1  0  0  0
 29 30  1  0  0  0
  4 31  1  0  0  0
  4 32  1  0  0  0
  5 33  1  0  0  0
  5 34  1  0  0  0
  7 35  1  0  0  0
  7 36  1  0  0  0
  8 37  1  0  0  0
  8 38  1  0  0  0
  9 39  1  0  0  0
  9 40  1  0  0  0
 10 41  1  0  0  0
 10 42  1  0  0  0
 13 43  1  0  0  0
 15 44  1  0  0  0
 16 45  1  0  0  0
 19 46  1  0  0  0
 24 47  1  0  0  0
 24 48  1  0  0  0
 25 49  1  0  0  0
 26 50  1  0  0  0
 26 51  1  0  0  0
 26 52  1  0  0  0
 27 53  1  0  0  0
 27 54  1  0  0  0
 28 55  1  0  0  0
 28 56  1  0  0  0
 29 57  1  0  0  0
 30 58  1  0  0  0
 30 59  1  0  0  0
 30 60  1  0  0  0
M  END
$$$$
