3ggu_ligand
  -I-interpret- 

 75 78  0  0  0  0  0  0  0  0999 V2000
   -9.3630   16.8160   18.7360 N   0  0  0  0  0
   -9.1960   16.5170   20.0320 C   0  0  0  0  0
  -10.3240   16.4200   20.8380 C   0  0  0  0  0
  -10.1840   16.1130   22.1820 C   0  0  0  0  0
   -8.9080   15.8960   22.7100 C   0  0  0  0  0
   -7.7810   15.9870   21.8870 C   0  0  0  0  0
   -7.9200   16.3050   20.5390 C   0  0  0  0  0
   -8.7740   15.5360   24.2600 S   0  0  0  0  0
   -9.9220   14.7830   24.6610 O   0  0  0  0  0
   -7.5990   14.7620   24.4660 O   0  0  0  0  0
   -8.6080   16.8270   25.2560 N   0  0  0  0  0
   -7.4760   17.7030   24.8680 C   0  0  0  0  0
   -6.9370   18.4360   26.1080 C   0  0  0  0  0
   -6.3150   17.4760   27.1190 C   0  0  0  0  0
   -5.9480   19.5240   25.7120 C   0  0  0  0  0
   -9.8680   17.5970   25.3870 C   0  0  0  0  0
  -10.3380   17.6320   26.8480 C   0  0  0  0  0
  -11.3910   18.5840   27.0110 O   0  0  0  0  0
  -10.8000   16.2660   27.3620 C   0  0  0  0  0
  -10.8560   16.4080   28.8070 N   0  0  0  0  0
   -9.9920   15.8310   29.6430 C   0  0  0  0  0
   -9.0390   15.1110   29.3290 O   0  0  0  0  0
  -10.2390   16.1190   31.0320 O   0  0  0  0  0
   -9.5500   15.3460   32.0010 C   0  0  0  0  0
   -9.2420   16.3700   33.0730 C   0  0  0  0  0
  -10.4870   16.5310   33.7560 O   0  0  0  0  0
  -11.1740   15.2720   33.7600 C   0  0  0  0  0
  -12.5360   15.4970   33.4170 O   0  0  0  0  0
  -12.9000   14.7710   32.2320 C   0  0  0  0  0
  -11.6850   13.9630   31.7920 C   0  0  0  0  0
  -10.5390   14.4150   32.6790 C   0  0  0  0  0
  -12.2200   15.8860   26.9260 C   0  0  0  0  0
  -13.5770   14.3570   28.3480 C   0  0  0  0  0
  -13.8270   13.0950   28.8470 C   0  0  0  0  0
  -13.0520   12.0110   28.4690 C   0  0  0  0  0
  -11.9960   12.1870   27.5850 C   0  0  0  0  0
  -11.7260   13.4490   27.0740 C   0  0  0  0  0
  -12.5230   14.5300   27.4540 C   0  0  0  0  0
  -10.3008   16.9661   18.3640 H   0  0  0  0  0
   -8.5523   16.8934   18.1219 H   0  0  0  0  0
  -11.3148   16.5847   20.4147 H   0  0  0  0  0
  -11.0627   16.0412   22.8230 H   0  0  0  0  0
   -6.7895   15.8081   22.3029 H   0  0  0  0  0
   -7.0451   16.3861   19.8940 H   0  0  0  0  0
   -7.8203   18.4351   24.1375 H   0  0  0  0  0
   -6.6817   17.0953   24.4345 H   0  0  0  0  0
   -7.7899   18.9079   26.5958 H   0  0  0  0  0
   -7.0675   16.7596   27.4484 H   0  0  0  0  0
   -5.4859   16.9449   26.6513 H   0  0  0  0  0
   -5.9490   18.0405   27.9766 H   0  0  0  0  0
   -5.1100   19.0749   25.1790 H   0  0  0  0  0
   -6.4453   20.2477   25.0661 H   0  0  0  0  0
   -5.5833   20.0255   26.6084 H   0  0  0  0  0
  -10.6373   17.1166   24.7823 H   0  0  0  0  0
   -9.6915   18.6187   25.0506 H   0  0  0  0  0
   -9.4721   17.9261   27.4412 H   0  0  0  0  0
  -11.6730   18.5935   27.9286 H   0  0  0  0  0
  -10.1204   15.5051   26.9782 H   0  0  0  0  0
  -11.5992   16.9822   29.2049 H   0  0  0  0  0
   -8.7087   14.7982   31.5764 H   0  0  0  0  0
   -8.8712   17.3073   32.6582 H   0  0  0  0  0
   -8.4415   16.0470   33.7386 H   0  0  0  0  0
  -11.1124   14.7904   34.7359 H   0  0  0  0  0
  -13.2033   15.4597   31.4434 H   0  0  0  0  0
  -13.7418   14.1094   32.4361 H   0  0  0  0  0
  -11.4593   14.1309   30.7389 H   0  0  0  0  0
  -11.8646   12.8927   31.8935 H   0  0  0  0  0
  -10.0084   13.5199   33.0036 H   0  0  0  0  0
  -12.2903   15.8881   25.8383 H   0  0  0  0  0
  -12.9369   16.6082   27.3166 H   0  0  0  0  0
  -14.1938   15.2040   28.6483 H   0  0  0  0  0
  -14.6473   12.9489   29.5497 H   0  0  0  0  0
  -13.2712   11.0197   28.8656 H   0  0  0  0  0
  -11.3804   11.3362   27.2930 H   0  0  0  0  0
  -10.8975   13.5948   26.3809 H   0  0  0  0  0
  2  1  1  0  0  0
  3  2  4  0  0  0
  7  2  4  0  0  0
  4  3  4  0  0  0
  5  4  4  0  0  0
  5  6  4  0  0  0
  8  5  1  0  0  0
  6  7  4  0  0  0
  8  9  2  0  0  0
  8 10  2  0  0  0
 11  8  1  0  0  0
 11 12  1  0  0  0
 16 11  1  0  0  0
 12 13  1  0  0  0
 13 14  1  0  0  0
 13 15  1  0  0  0
 17 16  1  0  0  0
 17 18  1  0  0  0
 19 17  1  0  0  0
 19 20  1  0  0  0
 32 19  1  0  0  0
 20 21  1  0  0  0
 21 22  2  0  0  0
 21 23  1  0  0  0
 23 24  1  0  0  0
 24 25  1  0  0  0
 24 31  1  0  0  0
 25 26  1  0  0  0
 27 26  1  0  0  0
 27 28  1  0  0  0
 31 27  1  0  0  0
 29 28  1  0  0  0
 30 29  1  0  0  0
 31 30  1  0  0  0
 38 32  1  0  0  0
 33 34  4  0  0  0
 33 38  4  0  0  0
 34 35  4  0  0  0
 35 36  4  0  0  0
 36 37  4  0  0  0
 37 38  4  0  0  0
  1 39  1  0  0  0
  1 40  1  0  0  0
  3 41  1  0  0  0
  4 42  1  0  0  0
  6 43  1  0  0  0
  7 44  1  0  0  0
 12 45  1  0  0  0
 12 46  1  0  0  0
 13 47  1  0  0  0
 14 48  1  0  0  0
 14 49  1  0  0  0
 14 50  1  0  0  0
 15 51  1  0  0  0
 15 52  1  0  0  0
 15 53  1  0  0  0
 16 54  1  0  0  0
 16 55  1  0  0  0
 17 56  1  0  0  0
 18 57  1  0  0  0
 19 58  1  0  0  0
 20 59  1  0  0  0
 24 60  1  0  0  0
 25 61  1  0  0  0
 25 62  1  0  0  0
 27 63  1  0  0  0
 29 64  1  0  0  0
 29 65  1  0  0  0
 30 66  1  0  0  0
 30 67  1  0  0  0
 31 68  1  0  0  0
 32 69  1  0  0  0
 32 70  1  0  0  0
 33 71  1  0  0  0
 34 72  1  0  0  0
 35 73  1  0  0  0
 36 74  1  0  0  0
 37 75  1  0  0  0
M  END
$$$$
