3s77_ligand
  -I-interpret- 

 13 13  0  0  0  0  0  0  0  0999 V2000
   15.1670    0.9770   16.8070 S   0  0  0  0  0
   13.7410    1.1890   16.7080 O   0  0  0  0  0
   15.1160    3.5770   15.2090 S   0  0  0  0  0
   15.9030    2.3060   16.0740 C   0  0  0  0  0
   15.5290    0.9760   18.1880 O   0  0  0  0  0
   17.2010    2.4600   16.1220 N   0  0  0  0  0
   17.6380    3.5750   15.4050 C   0  0  0  0  0
   16.6080    4.3490   14.8290 C   0  0  0  0  0
   15.8070   -0.3170   16.1930 N   0  0  0  0  0
   18.6928    3.8282   15.2983 H   0  0  0  0  0
   16.7334    5.2648   14.2513 H   0  0  0  0  0
   15.2169   -1.0054   15.7258 H   0  0  0  0  0
   16.8132   -0.4699   16.2610 H   0  0  0  0  0
  1  2  2  0  0  0
  1  4  1  0  0  0
  1  5  2  0  0  0
  1  9  1  0  0  0
  4  3  4  0  0  0
  3  8  4  0  0  0
  4  6  4  0  0  0
  6  7  4  0  0  0
  7  8  4  0  0  0
  7 10  1  0  0  0
  8 11  1  0  0  0
  9 12  1  0  0  0
  9 13  1  0  0  0
M  END
$$$$
