### 
### Created by X-TOOL on Wed Jan  1 15:39:37 2020
### 

@<TRIPOS>MOLECULE
5wzw_ligand
   55    57     1     0     0
SMALL
GAST_HUCK


@<TRIPOS>ATOM
      1 N1         14.2090   20.0130   12.5660 N.pl3     1 U8D        -0.2603
      2 C2         13.8590   19.2280   13.5940 C.2       1 U8D         0.0428
      3 C3         14.4350   18.0510   13.4370 C.2       1 U8D        -0.0332
      4 C4         15.1590   18.0710   12.3170 C.ar      1 U8D        -0.0392
      5 C5         15.9210   17.1330   11.7320 C.ar      1 U8D        -0.0536
      6 C6         16.6030   17.3990   10.5420 C.ar      1 U8D         0.0692
      7 C7         16.4600   18.6690    9.9790 C.ar      1 U8D        -0.0492
      8 C8         15.6530   19.6100   10.6300 C.ar      1 U8D        -0.0532
      9 C9         15.0250   19.2980   11.7780 C.ar      1 U8D         0.0517
     10 C10        12.9540   19.6010   14.7540 C.3       1 U8D        -0.0030
     11 C11        14.3010   16.8450   14.3880 C.3       1 U8D         0.0470
     12 O12        17.3810   16.4410    9.9370 O.3       1 U8D        -0.3278
     13 C13        13.8150   21.4070   12.3220 C.3       1 U8D         0.0817
     14 C14        10.8990   21.9150    9.2890 C.ar      1 U8D        -0.0687
     15 C15        11.6560   22.9800    9.7500 C.ar      1 U8D        -0.0685
     16 C16        12.6060   22.7760   10.7500 C.ar      1 U8D        -0.0579
     17 C17        12.8240   21.5050   11.3050 C.ar      1 U8D        -0.0151
     18 C18        12.0410   20.4340   10.8280 C.ar      1 U8D        -0.0579
     19 C19        11.0950   20.6430    9.8230 C.ar      1 U8D        -0.0685
     20 C20        11.6150   18.9410   14.4330 C.3       1 U8D        -0.0538
     21 C21        15.6590   16.4820   14.9960 C.2       1 U8D         0.1761
     22 O22        16.6150   17.2450   14.9390 O.2       1 U8D        -0.3963
     23 N23        15.7140   15.3070   15.5740 N.am      1 U8D        -0.3003
     24 C24        18.5940   16.0860   10.6510 C.3       1 U8D         0.0689
     25 C25        19.1840   14.9060    9.8990 C.3       1 U8D        -0.0105
     26 P26        21.2940   14.6930   11.8050 P.3       1 U8D         0.0580
     27 O27        21.8840   13.3990   12.1780 O.co2     1 U8D        -0.5623
     28 O28        21.9020   15.4450   10.6910 O.co2     1 U8D        -0.5623
     29 O29        20.5760   15.4470   12.8480 O.co2     1 U8D        -0.5623
     30 C30        19.8120   13.9720   10.9290 C.3       1 U8D         0.0220
     31 H1         16.0084   16.1544   12.1900 H         1 U8D         0.0406
     32 H2         16.9651   18.9219    9.0538 H         1 U8D         0.0453
     33 H3         15.5331   20.5998   10.2047 H         1 U8D         0.0515
     34 H4         12.8412   20.6931   14.8217 H         1 U8D         0.0442
     35 H5         13.3590   19.2148   15.7010 H         1 U8D         0.0442
     36 H6         13.9152   15.9823   13.8251 H         1 U8D         0.0553
     37 H7         13.5996   17.0988   15.1965 H         1 U8D         0.0553
     38 H8         14.7019   21.9787   12.0114 H         1 U8D         0.0755
     39 H9         13.4126   21.8317   13.2535 H         1 U8D         0.0755
     40 H10        10.1563   22.0709    8.5150 H         1 U8D         0.0559
     41 H11        11.5099   23.9702    9.3339 H         1 U8D         0.0599
     42 H12        13.1891   23.6173   11.1068 H         1 U8D         0.0557
     43 H13        12.1744   19.4420   11.2443 H         1 U8D         0.0557
     44 H14        10.5082   19.8091    9.4551 H         1 U8D         0.0599
     45 H15        10.8946   19.1649   15.2336 H         1 U8D         0.0253
     46 H16        11.7518   17.8522   14.3568 H         1 U8D         0.0253
     47 H17        11.2339   19.3305   13.4775 H         1 U8D         0.0253
     48 H18        16.5662   14.9963   15.9951 H         1 U8D         0.1814
     49 H19        14.9038   14.7212   15.5939 H         1 U8D         0.1814
     50 H20        18.3596   15.8016   11.6874 H         1 U8D         0.0609
     51 H21        19.2988   16.9305   10.6530 H         1 U8D         0.0609
     52 H22        19.9513   15.2565    9.1930 H         1 U8D         0.0304
     53 H23        18.3919   14.3783    9.3475 H         1 U8D         0.0304
     54 H24        20.1280   13.0525   10.4147 H         1 U8D         0.0452
     55 H25        19.0500   13.7268   11.6834 H         1 U8D         0.0452
@<TRIPOS>BOND
     1    1    2 1  
     2    9    1 1  
     3    1   13 1  
     4    3    2 2  
     5    2   10 1  
     6    4    3 1  
     7    3   11 1  
     8    5    4 ar 
     9    4    9 ar 
    10    6    5 ar 
    11    6    7 ar 
    12   12    6 1  
    13    7    8 ar 
    14    8    9 ar 
    15   10   20 1  
    16   11   21 1  
    17   24   12 1  
    18   13   17 1  
    19   15   14 ar 
    20   19   14 ar 
    21   16   15 ar 
    22   17   16 ar 
    23   17   18 ar 
    24   18   19 ar 
    25   21   22 2  
    26   21   23 am 
    27   25   24 1  
    28   30   25 1  
    29   26   27 ar 
    30   26   28 ar 
    31   26   29 ar 
    32   26   30 1  
    33    5   31 1  
    34    7   32 1  
    35    8   33 1  
    36   10   34 1  
    37   10   35 1  
    38   11   36 1  
    39   11   37 1  
    40   13   38 1  
    41   13   39 1  
    42   14   40 1  
    43   15   41 1  
    44   16   42 1  
    45   18   43 1  
    46   19   44 1  
    47   20   45 1  
    48   20   46 1  
    49   20   47 1  
    50   23   48 1  
    51   23   49 1  
    52   24   50 1  
    53   24   51 1  
    54   25   52 1  
    55   25   53 1  
    56   30   54 1  
    57   30   55 1  
@<TRIPOS>SUBSTRUCTURE
     1 U8D         1

