5wzw_ligand
  -I-interpret- 

 57 59  0  0  0  0  0  0  0  0999 V2000
   14.2090   20.0130   12.5660 N   0  0  0  0  0
   13.8590   19.2280   13.5940 C   0  0  0  0  0
   14.4350   18.0510   13.4370 C   0  0  0  0  0
   15.1590   18.0710   12.3170 C   0  0  0  0  0
   15.9210   17.1330   11.7320 C   0  0  0  0  0
   16.6030   17.3990   10.5420 C   0  0  0  0  0
   16.4600   18.6690    9.9790 C   0  0  0  0  0
   15.6530   19.6100   10.6300 C   0  0  0  0  0
   15.0250   19.2980   11.7780 C   0  0  0  0  0
   12.9540   19.6010   14.7540 C   0  0  0  0  0
   14.3010   16.8450   14.3880 C   0  0  0  0  0
   17.3810   16.4410    9.9370 O   0  0  0  0  0
   13.8150   21.4070   12.3220 C   0  0  0  0  0
   10.8990   21.9150    9.2890 C   0  0  0  0  0
   11.6560   22.9800    9.7500 C   0  0  0  0  0
   12.6060   22.7760   10.7500 C   0  0  0  0  0
   12.8240   21.5050   11.3050 C   0  0  0  0  0
   12.0410   20.4340   10.8280 C   0  0  0  0  0
   11.0950   20.6430    9.8230 C   0  0  0  0  0
   11.6150   18.9410   14.4330 C   0  0  0  0  0
   15.6590   16.4820   14.9960 C   0  0  0  0  0
   16.6150   17.2450   14.9390 O   0  0  0  0  0
   15.7140   15.3070   15.5740 N   0  0  0  0  0
   18.5940   16.0860   10.6510 C   0  0  0  0  0
   19.1840   14.9060    9.8990 C   0  0  0  0  0
   21.2940   14.6930   11.8050 P   0  0  0  0  0
   21.8840   13.3990   12.1780 O   0  0  0  0  0
   21.9020   15.4450   10.6910 O   0  0  0  0  0
   20.5760   15.4470   12.8480 O   0  0  0  0  0
   19.8120   13.9720   10.9290 C   0  0  0  0  0
   16.0089   16.1490   12.1925 H   0  0  0  0  0
   16.9679   18.9233    9.0487 H   0  0  0  0  0
   15.5324   20.6053   10.2023 H   0  0  0  0  0
   12.8579   20.6814   14.8622 H   0  0  0  0  0
   13.3560   19.2597   15.7079 H   0  0  0  0  0
   13.9279   15.9906   13.8233 H   0  0  0  0  0
   13.6129   17.1051   15.1923 H   0  0  0  0  0
   14.6959   21.9605   11.9969 H   0  0  0  0  0
   13.4006   21.8128   13.2449 H   0  0  0  0  0
   10.1522   22.0718    8.5107 H   0  0  0  0  0
   11.5091   23.9757    9.3316 H   0  0  0  0  0
   13.1923   23.6220   11.1087 H   0  0  0  0  0
   12.1751   19.4366   11.2466 H   0  0  0  0  0
   10.5050   19.8045    9.4530 H   0  0  0  0  0
   11.2385   19.3277   13.4860 H   0  0  0  0  0
   11.7519   17.8623   14.3577 H   0  0  0  0  0
   10.9021   19.1635   15.2269 H   0  0  0  0  0
   16.5830   14.9903   16.0040 H   0  0  0  0  0
   14.8878   14.7092   15.5939 H   0  0  0  0  0
   18.3833   15.8301   11.6894 H   0  0  0  0  0
   19.2920   16.9223   10.6885 H   0  0  0  0  0
   19.9347   15.2460    9.1856 H   0  0  0  0  0
   18.4081   14.3863    9.3368 H   0  0  0  0  0
   21.4192   16.2640   10.5581 H   0  0  0  0  0
   20.2424   16.2668   12.4763 H   0  0  0  0  0
   20.1523   13.0846   10.3953 H   0  0  0  0  0
   19.0549   13.7711   11.6869 H   0  0  0  0  0
  1  2  4  0  0  0
  9  1  4  0  0  0
  1 13  1  0  0  0
  3  2  4  0  0  0
  2 10  1  0  0  0
  4  3  4  0  0  0
  3 11  1  0  0  0
  5  4  4  0  0  0
  4  9  4  0  0  0
  6  5  4  0  0  0
  6  7  4  0  0  0
 12  6  1  0  0  0
  7  8  4  0  0  0
  8  9  4  0  0  0
 10 20  1  0  0  0
 11 21  1  0  0  0
 24 12  1  0  0  0
 13 17  1  0  0  0
 15 14  4  0  0  0
 19 14  4  0  0  0
 16 15  4  0  0  0
 17 16  4  0  0  0
 17 18  4  0  0  0
 18 19  4  0  0  0
 21 22  2  0  0  0
 21 23  1  0  0  0
 25 24  1  0  0  0
 30 25  1  0  0  0
 26 27  2  0  0  0
 26 28  1  0  0  0
 26 29  1  0  0  0
 26 30  1  0  0  0
  5 31  1  0  0  0
  7 32  1  0  0  0
  8 33  1  0  0  0
 10 34  1  0  0  0
 10 35  1  0  0  0
 11 36  1  0  0  0
 11 37  1  0  0  0
 13 38  1  0  0  0
 13 39  1  0  0  0
 14 40  1  0  0  0
 15 41  1  0  0  0
 16 42  1  0  0  0
 18 43  1  0  0  0
 19 44  1  0  0  0
 20 45  1  0  0  0
 20 46  1  0  0  0
 20 47  1  0  0  0
 23 48  1  0  0  0
 23 49  1  0  0  0
 24 50  1  0  0  0
 24 51  1  0  0  0
 25 52  1  0  0  0
 25 53  1  0  0  0
 28 54  1  0  0  0
 29 55  1  0  0  0
 30 56  1  0  0  0
 30 57  1  0  0  0
M  END
$$$$
