5z1t_ligand
  -I-interpret- 

 44 46  0  0  0  0  0  0  0  0999 V2000
  -10.7510   11.6460   -6.3510 C   0  0  0  0  0
  -10.1830   10.9400   -5.2310 O   0  0  0  0  0
   -9.9000    9.6230   -5.4340 C   0  0  0  0  0
  -10.0520    8.9400   -6.6350 C   0  0  0  0  0
   -9.6970    7.5930   -6.6990 C   0  0  0  0  0
   -9.1810    6.9620   -5.5710 C   0  0  0  0  0
   -8.6820    5.1460   -5.6440 Br  0  0  0  0  0
   -8.9950    7.6380   -4.4080 C   0  0  0  0  0
   -9.3070    9.0070   -4.3290 C   0  0  0  0  0
   -9.0520    9.8340   -2.8190 S   0  0  0  0  0
   -8.4420    8.8770   -1.9080 O   0  0  0  0  0
   -8.2830   11.0980   -3.0560 O   0  0  0  0  0
  -10.5910   10.2250   -2.3210 N   0  0  0  0  0
  -11.4750    9.2270   -2.0530 C   0  0  0  0  0
  -11.2290    8.1870   -1.1460 C   0  0  0  0  0
  -12.2270    7.2900   -0.9170 C   0  0  0  0  0
  -11.9690    6.2290   -0.0480 O   0  0  0  0  0
  -13.0840    5.8810    0.8050 C   0  0  0  0  0
  -13.2670    7.0070    1.7910 C   0  0  0  0  0
  -12.6320    4.5990    1.5030 C   0  0  0  0  0
  -14.2900    5.6550   -0.0070 C   0  0  0  0  0
  -15.1320    4.8040    0.2670 O   0  0  0  0  0
  -14.4600    6.3640   -1.1570 N   0  0  0  0  0
  -13.4670    7.3280   -1.4870 C   0  0  0  0  0
  -13.7600    8.3410   -2.4090 C   0  0  0  0  0
  -12.7330    9.2690   -2.6650 C   0  0  0  0  0
  -12.9480   10.3190   -3.5680 O   0  0  0  0  0
  -10.0566   11.6118   -7.1905 H   0  0  0  0  0
  -11.6916   11.1751   -6.6365 H   0  0  0  0  0
  -10.9330   12.6834   -6.0704 H   0  0  0  0  0
  -10.4434    9.4504   -7.5150 H   0  0  0  0  0
   -9.8230    7.0370   -7.6280 H   0  0  0  0  0
   -8.6030    7.1183   -3.5337 H   0  0  0  0  0
  -10.8679   11.2013   -2.2180 H   0  0  0  0  0
  -10.2678    8.0992   -0.6395 H   0  0  0  0  0
  -12.3573    7.1239    2.3800 H   0  0  0  0  0
  -13.4730    7.9312    1.2510 H   0  0  0  0  0
  -14.1025    6.7771    2.4522 H   0  0  0  0  0
  -12.4315    3.8313    0.7557 H   0  0  0  0  0
  -11.7249    4.7980    2.0737 H   0  0  0  0  0
  -13.4183    4.2565    2.1757 H   0  0  0  0  0
  -15.2687    6.2098   -1.7592 H   0  0  0  0  0
  -14.7302    8.4071   -2.9013 H   0  0  0  0  0
  -13.8358   10.2538   -3.9273 H   0  0  0  0  0
  1  2  1  0  0  0
  2  3  1  0  0  0
  3  4  4  0  0  0
  3  9  4  0  0  0
  4  5  4  0  0  0
  5  6  4  0  0  0
  6  7  1  0  0  0
  6  8  4  0  0  0
  8  9  4  0  0  0
  9 10  1  0  0  0
 10 11  2  0  0  0
 10 12  2  0  0  0
 10 13  1  0  0  0
 13 14  1  0  0  0
 14 15  4  0  0  0
 14 26  4  0  0  0
 15 16  4  0  0  0
 16 17  1  0  0  0
 16 24  4  0  0  0
 17 18  1  0  0  0
 18 19  1  0  0  0
 18 20  1  0  0  0
 18 21  1  0  0  0
 21 22  2  0  0  0
 21 23  1  0  0  0
 23 24  1  0  0  0
 24 25  4  0  0  0
 25 26  4  0  0  0
 26 27  1  0  0  0
  1 28  1  0  0  0
  1 29  1  0  0  0
  1 30  1  0  0  0
  4 31  1  0  0  0
  5 32  1  0  0  0
  8 33  1  0  0  0
 13 34  1  0  0  0
 15 35  1  0  0  0
 19 36  1  0  0  0
 19 37  1  0  0  0
 19 38  1  0  0  0
 20 39  1  0  0  0
 20 40  1  0  0  0
 20 41  1  0  0  0
 23 42  1  0  0  0
 25 43  1  0  0  0
 27 44  1  0  0  0
M  END
$$$$
