2v2c_ligand
  -I-interpret- 

 14 13  0  0  0  0  0  0  0  0999 V2000
   12.0650   15.8960   15.4530 P   0  0  0  0  0
   11.7780   14.3280   15.6450 O   0  0  0  0  0
   13.1490   15.9000   14.3700 O   0  0  0  0  0
   10.7410   16.4640   15.0340 O   0  0  0  0  0
   12.5070   16.5490   16.7240 O   0  0  0  0  0
   12.8660   13.4140   15.7810 C   0  0  0  0  0
   12.3250   11.9850   15.8680 C   0  0  0  0  0
   12.7150   11.0490   15.1230 O   0  0  0  0  0
   11.4370   11.7630   16.6950 O   0  0  0  0  0
   12.8123   15.4704   13.5802 H   0  0  0  0  0
   10.4579   16.0445   14.2182 H   0  0  0  0  0
   13.4244   13.6466   16.6877 H   0  0  0  0  0
   13.5237   13.5012   14.9162 H   0  0  0  0  0
   13.4036   11.3730   14.5378 H   0  0  0  0  0
  1  2  1  0  0  0
  1  3  1  0  0  0
  1  4  1  0  0  0
  1  5  2  0  0  0
  2  6  1  0  0  0
  6  7  1  0  0  0
  7  8  1  0  0  0
  7  9  2  0  0  0
  3 10  1  0  0  0
  4 11  1  0  0  0
  6 12  1  0  0  0
  6 13  1  0  0  0
  8 14  1  0  0  0
M  END
$$$$
