3lfs_ligand
  -I-interpret- 

 37 39  0  0  0  0  0  0  0  0999 V2000
   39.4270   -7.6870   25.5620 C   0  0  0  0  0
   37.9800   -7.6880   22.8980 Cl  0  0  0  0  0
   40.2440   -6.5870   25.8510 C   0  0  0  0  0
   39.8200   -5.6070   26.7540 C   0  0  0  0  0
   38.5750   -5.7250   27.3790 C   0  0  0  0  0
   37.7640   -6.8320   27.1060 C   0  0  0  0  0
   38.1830   -7.8050   26.1900 C   0  0  0  0  0
   39.3150   -8.6950   23.3510 C   0  0  0  0  0
   39.8160   -9.6030   22.4150 C   0  0  0  0  0
   40.8690  -10.4530   22.7620 C   0  0  0  0  0
   41.4350  -10.3960   24.0320 C   0  0  0  0  0
   40.9560   -9.4580   24.9590 C   0  0  0  0  0
   39.8680   -8.6360   24.6400 C   0  0  0  0  0
   41.5610  -11.3490   22.0640 N   0  0  0  0  0
   42.4290  -11.8890   22.7660 N   0  0  0  0  0
   42.4770  -11.3210   23.9680 C   0  0  0  0  0
   43.3290  -11.7590   24.9180 N   0  0  0  0  0
   43.4730  -11.3490   26.1890 C   0  0  0  0  0
   44.5440  -12.1110   26.9810 C   0  0  0  0  0
   45.9230  -11.4400   26.9320 C   0  0  0  0  0
   45.8560   -9.9340   27.2150 C   0  0  0  0  0
   42.8300  -10.4590   26.7450 O   0  0  0  0  0
   41.2171   -6.4940   25.3688 H   0  0  0  0  0
   40.4599   -4.7515   26.9705 H   0  0  0  0  0
   38.2376   -4.9579   28.0760 H   0  0  0  0  0
   36.8024   -6.9375   27.6082 H   0  0  0  0  0
   37.5388   -8.6553   25.9663 H   0  0  0  0  0
   39.3856   -9.6483   21.4146 H   0  0  0  0  0
   41.4341   -9.3684   25.9344 H   0  0  0  0  0
   43.9548  -12.5108   24.6290 H   0  0  0  0  0
   44.6422  -13.1011   26.5359 H   0  0  0  0  0
   44.2269  -12.1388   28.0235 H   0  0  0  0  0
   46.3266  -11.5753   25.9285 H   0  0  0  0  0
   46.5467  -11.8983   27.6995 H   0  0  0  0  0
   45.2224   -9.4534   26.4696 H   0  0  0  0  0
   45.4385   -9.7705   28.2085 H   0  0  0  0  0
   46.8597   -9.5116   27.1673 H   0  0  0  0  0
  1  3  4  0  0  0
  1  7  4  0  0  0
 13  1  1  0  0  0
  8  2  1  0  0  0
  3  4  4  0  0  0
  4  5  4  0  0  0
  6  5  4  0  0  0
  7  6  4  0  0  0
  8  9  4  0  0  0
  8 13  4  0  0  0
  9 10  4  0  0  0
 10 11  4  0  0  0
 10 14  4  0  0  0
 11 12  4  0  0  0
 11 16  4  0  0  0
 12 13  4  0  0  0
 14 15  4  0  0  0
 15 16  4  0  0  0
 16 17  1  0  0  0
 17 18  1  0  0  0
 18 19  1  0  0  0
 18 22  2  0  0  0
 19 20  1  0  0  0
 20 21  1  0  0  0
  3 23  1  0  0  0
  4 24  1  0  0  0
  5 25  1  0  0  0
  6 26  1  0  0  0
  7 27  1  0  0  0
  9 28  1  0  0  0
 12 29  1  0  0  0
 17 30  1  0  0  0
 19 31  1  0  0  0
 19 32  1  0  0  0
 20 33  1  0  0  0
 20 34  1  0  0  0
 21 35  1  0  0  0
 21 36  1  0  0  0
 21 37  1  0  0  0
M  END
$$$$
