5t2p_ligand
  -I-interpret- 

 45 47  0  0  0  0  0  0  0  0999 V2000
   14.8480   24.2190   -6.0930 C   0  0  0  0  0
   17.1510   23.4440   -6.1060 C   0  0  0  0  0
   14.7090   23.7620   -7.3970 C   0  0  0  0  0
   10.3100   24.6760   -0.1170 O   0  0  0  0  0
    7.9430   23.0270   -1.0580 C   0  0  0  0  0
    7.0190   21.7730   -0.9930 C   0  0  0  0  0
    7.1400   20.8230   -2.1840 C   0  0  0  0  0
    9.4820   21.7380   -2.5190 C   0  0  0  0  0
   10.6610   26.6530   -4.9650 C   0  0  0  0  0
    9.6990   26.8620   -3.9770 C   0  0  0  0  0
    9.6950   26.0110   -2.8620 C   0  0  0  0  0
   10.5870   24.9840   -2.6650 C   0  0  0  0  0
   11.5120   24.8220   -3.6630 C   0  0  0  0  0
   11.5980   25.6490   -4.8360 C   0  0  0  0  0
   12.6100   25.3410   -5.7990 C   0  0  0  0  0
   12.4410   25.5830   -6.9970 O   0  0  0  0  0
   13.7830   24.7400   -5.3800 N   0  0  0  0  0
   16.0680   24.0560   -5.4610 C   0  0  0  0  0
   17.0450   22.9940   -7.4090 C   0  0  0  0  0
   15.7950   23.1590   -8.0490 C   0  0  0  0  0
   15.6690   22.7280   -9.3090 F   0  0  0  0  0
   18.1140   22.4290   -7.9900 F   0  0  0  0  0
   18.3020   23.3280   -5.4530 F   0  0  0  0  0
   10.5770   23.9110   -1.2740 S   0  0  0  0  0
   11.8190   23.2070   -1.3120 O   0  0  0  0  0
    9.3820   22.7870   -1.4720 N   0  0  0  0  0
    8.6080   20.4930   -2.3450 C   0  0  0  0  0
    6.3940   19.6440   -1.9470 O   0  0  0  0  0
    8.7810   26.2470   -1.9250 F   0  0  0  0  0
   13.7558   23.8719   -7.9141 H   0  0  0  0  0
    7.9832   23.4250   -0.0441 H   0  0  0  0  0
    7.5145   23.6783   -1.8198 H   0  0  0  0  0
    5.9919   22.1377   -0.9831 H   0  0  0  0  0
    7.3138   21.2091   -0.1080 H   0  0  0  0  0
    6.7480   21.2859   -3.0896 H   0  0  0  0  0
   10.5124   21.3840   -2.4867 H   0  0  0  0  0
    9.1472   22.2086   -3.4434 H   0  0  0  0  0
   10.6725   27.2903   -5.8492 H   0  0  0  0  0
    8.9689   27.6661   -4.0690 H   0  0  0  0  0
   12.2322   24.0103   -3.5605 H   0  0  0  0  0
   13.8800   24.6682   -4.3672 H   0  0  0  0  0
   16.1894   24.4118   -4.4379 H   0  0  0  0  0
    8.7159   19.8822   -3.2413 H   0  0  0  0  0
    8.9353   19.9798   -1.4408 H   0  0  0  0  0
    5.4660   19.8685   -1.8471 H   0  0  0  0  0
  1  3  4  0  0  0
 17  1  1  0  0  0
  1 18  4  0  0  0
 18  2  4  0  0  0
  2 19  4  0  0  0
  2 23  1  0  0  0
  3 20  4  0  0  0
 24  4  2  0  0  0
  5  6  1  0  0  0
 26  5  1  0  0  0
  6  7  1  0  0  0
 27  7  1  0  0  0
  7 28  1  0  0  0
 26  8  1  0  0  0
  8 27  1  0  0  0
 10  9  4  0  0  0
 14  9  4  0  0  0
 11 10  4  0  0  0
 12 11  4  0  0  0
 11 29  1  0  0  0
 12 13  4  0  0  0
 24 12  1  0  0  0
 13 14  4  0  0  0
 14 15  1  0  0  0
 15 16  2  0  0  0
 15 17  1  0  0  0
 20 19  4  0  0  0
 19 22  1  0  0  0
 20 21  1  0  0  0
 24 25  2  0  0  0
 24 26  1  0  0  0
  3 30  1  0  0  0
  5 31  1  0  0  0
  5 32  1  0  0  0
  6 33  1  0  0  0
  6 34  1  0  0  0
  7 35  1  0  0  0
  8 36  1  0  0  0
  8 37  1  0  0  0
  9 38  1  0  0  0
 10 39  1  0  0  0
 13 40  1  0  0  0
 17 41  1  0  0  0
 18 42  1  0  0  0
 27 43  1  0  0  0
 27 44  1  0  0  0
 28 45  1  0  0  0
M  END
$$$$
