6pyc_ligand
  -I-interpret- 

 61 66  0  0  0  0  0  0  0  0999 V2000
   13.5230  107.5620   60.6650 C   0  0  0  0  0
   12.7430  107.6580   61.9840 C   0  0  0  0  0
   13.6090  107.4520   63.2260 C   0  0  0  0  0
   14.7180  108.4910   63.3130 C   0  0  0  0  0
   14.9070  109.2500   62.0040 C   0  0  0  0  0
   14.8370  108.3750   60.7580 C   0  0  0  0  0
   16.1290  107.5680   60.7540 C   0  0  0  0  0
   14.2700  100.0040   55.8280 O   0  0  0  0  0
   12.8260   98.5660   54.8580 O   0  0  0  0  0
   14.9310  109.2820   59.6520 O   0  0  0  0  0
   14.3770  109.4490   64.3160 O   0  0  0  0  0
   13.0820   99.3280   55.8140 C   0  0  0  0  0
   14.5850  100.8270   56.8290 C   0  0  0  0  0
   12.1810   99.4980   56.8620 C   0  0  0  0  0
   12.5010  100.3550   57.9140 C   0  0  0  0  0
   13.7170  101.0380   57.9110 C   0  0  0  0  0
   14.0240  101.9670   59.0550 C   0  0  0  0  0
   13.7410  103.4540   58.7650 C   0  0  0  0  0
   13.4710  103.7830   57.2960 C   0  0  0  0  0
   12.5700  103.8930   59.6360 C   0  0  0  0  0
   12.4570  105.4080   59.7740 C   0  0  0  0  0
   13.7210  106.0670   60.3450 C   0  0  0  0  0
   12.6370  108.2140   59.6020 C   0  0  0  0  0
   15.4560  101.8810   59.6030 C   0  0  0  0  0
   16.0530  103.2890   59.6510 C   0  0  0  0  0
   16.1600  103.9900   58.4110 O   0  0  0  0  0
   14.9710  104.2450   59.1780 C   0  0  0  0  0
   14.8630  105.7760   59.3760 C   0  0  0  0  0
   16.1960  106.3930   59.7990 C   0  0  0  0  0
   11.9912  106.8688   61.9763 H   0  0  0  0  0
   12.3233  108.6623   62.0422 H   0  0  0  0  0
   14.0659  106.4641   63.1678 H   0  0  0  0  0
   12.9757  107.5490   64.1079 H   0  0  0  0  0
   15.6406  107.9595   63.5464 H   0  0  0  0  0
   15.9026  109.6929   62.0302 H   0  0  0  0  0
   14.0965  109.9754   61.9332 H   0  0  0  0  0
   16.2224  107.1466   61.7549 H   0  0  0  0  0
   16.9119  108.2570   60.4371 H   0  0  0  0  0
   14.1354  109.8175   59.6103 H   0  0  0  0  0
   14.2509  109.0006   65.1555 H   0  0  0  0  0
   15.5415  101.3492   56.8060 H   0  0  0  0  0
   11.2308   98.9640   56.8598 H   0  0  0  0  0
   11.8012  100.4912   58.7385 H   0  0  0  0  0
   13.3296  101.5953   59.8085 H   0  0  0  0  0
   14.3388  103.5060   56.6975 H   0  0  0  0  0
   12.5993  103.2250   56.9543 H   0  0  0  0  0
   13.2832  104.8517   57.1929 H   0  0  0  0  0
   12.7281  103.4818   60.6330 H   0  0  0  0  0
   11.6551  103.5356   59.1633 H   0  0  0  0  0
   11.6395  105.6140   60.4649 H   0  0  0  0  0
   12.2965  105.8168   58.7764 H   0  0  0  0  0
   13.9681  105.6413   61.3176 H   0  0  0  0  0
   13.1115  108.1162   58.6256 H   0  0  0  0  0
   11.6660  107.7191   59.5867 H   0  0  0  0  0
   12.5045  109.2697   59.8389 H   0  0  0  0  0
   16.0609  101.2459   58.9558 H   0  0  0  0  0
   15.4422  101.4520   60.6049 H   0  0  0  0  0
   16.7527  103.1530   60.4756 H   0  0  0  0  0
   14.6285  106.2550   58.4254 H   0  0  0  0  0
   16.7367  105.6074   60.3268 H   0  0  0  0  0
   16.6540  106.7736   58.8861 H   0  0  0  0  0
  1  2  1  0  0  0
  1  6  1  0  0  0
 22  1  1  0  0  0
  1 23  1  0  0  0
  2  3  1  0  0  0
  3  4  1  0  0  0
  5  4  1  0  0  0
  4 11  1  0  0  0
  6  5  1  0  0  0
  6  7  1  0  0  0
  6 10  1  0  0  0
  7 29  1  0  0  0
  8 12  1  0  0  0
 13  8  1  0  0  0
 12  9  2  0  0  0
 14 12  1  0  0  0
 16 13  2  0  0  0
 15 14  2  0  0  0
 16 15  1  0  0  0
 17 16  1  0  0  0
 18 17  1  0  0  0
 17 24  1  0  0  0
 18 19  1  0  0  0
 20 18  1  0  0  0
 18 27  1  0  0  0
 21 20  1  0  0  0
 21 22  1  0  0  0
 22 28  1  0  0  0
 24 25  1  0  0  0
 25 26  1  0  0  0
 25 27  1  0  0  0
 26 27  1  0  0  0
 27 28  1  0  0  0
 28 29  1  0  0  0
  2 30  1  0  0  0
  2 31  1  0  0  0
  3 32  1  0  0  0
  3 33  1  0  0  0
  4 34  1  0  0  0
  5 35  1  0  0  0
  5 36  1  0  0  0
  7 37  1  0  0  0
  7 38  1  0  0  0
 10 39  1  0  0  0
 11 40  1  0  0  0
 13 41  1  0  0  0
 14 42  1  0  0  0
 15 43  1  0  0  0
 17 44  1  0  0  0
 19 45  1  0  0  0
 19 46  1  0  0  0
 19 47  1  0  0  0
 20 48  1  0  0  0
 20 49  1  0  0  0
 21 50  1  0  0  0
 21 51  1  0  0  0
 22 52  1  0  0  0
 23 53  1  0  0  0
 23 54  1  0  0  0
 23 55  1  0  0  0
 24 56  1  0  0  0
 24 57  1  0  0  0
 25 58  1  0  0  0
 28 59  1  0  0  0
 29 60  1  0  0  0
 29 61  1  0  0  0
M  END
$$$$
