6rvk_ligand

Created by X-TOOL on Mon Aug  2 16:17:20 2021
 42 44  0  0  0  0  0  0  0  0999 V2000
   -5.0750    2.2940   15.9670  C 0  0  0  2  0  4
   -3.8910    2.8200   15.3960  C 0  0  0  2  0  3
   -3.8530    4.1140   14.8320  C 0  0  0  1  0  3
   -5.0060    4.8970   14.8290  C 0  0  0  2  0  3
   -6.1690    4.4110   15.3850  C 0  0  0  2  0  3
   -6.1970    3.1390   15.9480  C 0  0  0  1  0  3
   -7.3300    2.4400   16.6070  C 0  0  0  3  0  4
   -2.5630    5.8520   13.5630  C 0  0  0  1  0  3
   -1.0070    7.3300   12.3590  C 0  0  0  3  0  4
   -1.1440    8.6720   13.0440  C 0  0  0  1  0  3
   -1.9080    9.6820   12.4680  C 0  0  0  2  0  3
   -2.0290   10.9240   13.0780  C 0  0  0  2  0  3
   -1.3860   11.1730   14.2760  C 0  0  0  2  0  3
   -0.6230   10.1800   14.8620  C 0  0  0  2  0  3
   -0.5020    8.9390   14.2500  C 0  0  0  2  0  3
   -6.9640    1.0810   16.4930  O 0  0  0  2  0  3
   -5.2940    0.7850   18.1400  O 0  0  0  3  0  3
   -3.5210    6.5550   13.2430  O 0  0  0  1  0  1
   -2.6720    4.6720   14.2720  N 0  0  0  2  0  3
   -1.3040    6.1650   13.1870  N 0  0  0  2  0  3
   -5.5140    0.8830   16.6900  B 0  0  0  1  0  4
   -5.1490   -0.4060   16.0650  O 0  0  0  3  0  3
   -5.1134    1.2982   16.3936  H 0  0  0  1  0  1
   -2.9918    2.2146   15.3917  H 0  0  0  1  0  1
   -4.9877    5.8877   14.3895  H 0  0  0  1  0  1
   -7.0648    5.0214   15.3838  H 0  0  0  1  0  1
   -8.2774    2.6408   16.0855  H 0  0  0  1  0  1
   -7.4214    2.7391   17.6616  H 0  0  0  1  0  1
    0.0295    7.2363   12.0027  H 0  0  0  1  0  1
   -1.6929    7.3175   11.4991  H 0  0  0  1  0  1
   -2.4166    9.4968   11.5288  H 0  0  0  1  0  1
   -2.6284   11.6989   12.6140  H 0  0  0  1  0  1
   -1.4795   12.1417   14.7535  H 0  0  0  1  0  1
   -0.1177   10.3706   15.8019  H 0  0  0  1  0  1
    0.1002    8.1684   14.7176  H 0  0  0  1  0  1
   -6.1360    0.9389   16.9365  H 0  0  0  1  0  1
   -5.7859    0.0491   18.4848  H 0  0  0  1  0  1
   -5.7859    0.0491   18.4848  H 0  0  0  1  0  1
   -1.8275    4.1534   14.4060  H 0  0  0  1  0  1
   -0.5505    5.5793   13.4857  H 0  0  0  1  0  1
   -5.3567   -0.3774   15.1385  H 0  0  0  1  0  1
   -5.3567   -0.3774   15.1384  H 0  0  0  1  0  1
  2  1  4  0  0  1
  1  6  4  0  0  1
  1 21  1  0  0  1
  3  2  4  0  0  1
  3  4  4  0  0  1
 19  3  1  0  0  2
  4  5  4  0  0  1
  5  6  4  0  0  1
  6  7  1  0  0  1
  7 16  1  0  0  1
  8 18  2  0  0  2
  8 19  1  0  0  2
 20  8  1  0  0  2
  9 10  1  0  0  2
  9 20  1  0  0  2
 10 11  4  0  0  1
 10 15  4  0  0  1
 11 12  4  0  0  1
 12 13  4  0  0  1
 13 14  4  0  0  1
 14 15  4  0  0  1
 16 21  1  0  0  1
 21 17  1  0  0  2
 21 22  1  0  0  2
  1 23  1  0  0  2
  2 24  1  0  0  2
  4 25  1  0  0  2
  5 26  1  0  0  2
  7 27  1  0  0  2
  7 28  1  0  0  2
  9 29  1  0  0  2
  9 30  1  0  0  2
 11 31  1  0  0  2
 12 32  1  0  0  2
 13 33  1  0  0  2
 14 34  1  0  0  2
 15 35  1  0  0  2
 16 36  1  0  0  2
 17 37  1  0  0  2
 17 38  1  0  0  2
 19 39  1  0  0  2
 20 40  1  0  0  2
 22 41  1  0  0  2
 22 42  1  0  0  2
M  END
> <MOLECULAR_FORMULA>
C15H20N2O4B

> <MOLECULAR_WEIGHT>
303.0

> <NUM_HB_ATOMS>
6  

> <NUM_ROTOR>
2  

> <XLOGP2>
1.37 

$$$$
