#	Name:			6rvk_ligand
#	Creating user name:	wangrx
#	Creation time:		Thu Aug  5 18:09:55 2021

#	Modifying user name:	wangrx
#	Modification time:	Thu Aug  5 18:10:08 2021

@<TRIPOS>MOLECULE
6rvk_ligand
   40    42     1     0     0
SMALL
GAST_HUCK


@<TRIPOS>ATOM
      1 C1         -5.0750    2.2940   15.9670 C.ar      1 R29        -0.2041 
      2 C2         -3.8910    2.8200   15.3960 C.ar      1 R29        -0.1668 
      3 C3         -3.8530    4.1140   14.8320 C.ar      1 R29        -0.0378 
      4 C4         -5.0060    4.8970   14.8290 C.ar      1 R29        -0.1635 
      5 C5         -6.1690    4.4110   15.3850 C.ar      1 R29        -0.1897 
      6 C6         -6.1970    3.1390   15.9480 C.ar      1 R29        -0.1756 
      7 C7         -7.3300    2.4400   16.6070 C.3       1 R29        -0.1295 
      8 C8         -2.5630    5.8520   13.5630 C.2       1 R29         0.2858 
      9 C9         -1.0070    7.3300   12.3590 C.3       1 R29         0.0653 
     10 C10        -1.1440    8.6720   13.0440 C.ar      1 R29        -0.0212 
     11 C11        -1.9080    9.6820   12.4680 C.ar      1 R29        -0.0584 
     12 C12        -2.0290   10.9240   13.0780 C.ar      1 R29        -0.0685 
     13 C13        -1.3860   11.1730   14.2760 C.ar      1 R29        -0.0687 
     14 C14        -0.6230   10.1800   14.8620 C.ar      1 R29        -0.0685 
     15 C15        -0.5020    8.9390   14.2500 C.ar      1 R29        -0.0584 
     16 O1         -6.9640    1.0810   16.4930 O.3       1 R29        -0.8475 
     17 O3         -5.2940    0.7850   18.1400 O.3       1 R29        -0.4105 
     18 O4         -3.5210    6.5550   13.2430 O.2       1 R29        -0.3911 
     19 N1         -2.6720    4.6720   14.2720 N.am      1 R29        -0.2424 
     20 N2         -1.3040    6.1650   13.1870 N.am      1 R29        -0.2569 
     21 B1         -5.5140    0.8830   16.6900 B         1 R29         4.0000 
     22 O2         -5.1490   -0.4060   16.0650 O.3       1 R29        -0.4105 
     23 H2         -2.9918    2.2146   15.3917 H         1 R29        -0.0261 
     24 H3         -4.9877    5.8877   14.3895 H         1 R29        -0.0258 
     25 H4         -7.0648    5.0214   15.3838 H         1 R29        -0.0224 
     26 H5         -8.2774    2.6408   16.0855 H         1 R29         0.0196 
     27 H6         -7.4214    2.7391   17.6616 H         1 R29         0.0196 
     28 H7          0.0295    7.2363   12.0027 H         1 R29         0.0681 
     29 H8         -1.6929    7.3175   11.4991 H         1 R29         0.0681 
     30 H9         -2.4166    9.4968   11.5288 H         1 R29         0.0557 
     31 H10        -2.6284   11.6989   12.6140 H         1 R29         0.0599 
     32 H11        -1.4795   12.1417   14.7535 H         1 R29         0.0559 
     33 H12        -0.1177   10.3706   15.8019 H         1 R29         0.0599 
     34 H13         0.1002    8.1684   14.7176 H         1 R29         0.0557 
     35 H15        -5.7859    0.0491   18.4848 H         1 R29         0.2052 
     36 H16        -5.7859    0.0491   18.4848 H         1 R29         0.2052 
     37 H17        -1.8275    4.1534   14.4060 H         1 R29         0.2214 
     38 H18        -0.5505    5.5793   13.4857 H         1 R29         0.1879 
     39 H19        -5.3567   -0.3774   15.1385 H         1 R29         0.2052 
     40 H20        -5.3567   -0.3774   15.1384 H         1 R29         0.2052 
@<TRIPOS>BOND
     1    2    1 ar   
     2    1    6 ar   
     3    1   21 1    
     4    3    2 ar   
     5    3    4 ar   
     6   19    3 1    
     7    4    5 ar   
     8    5    6 ar   
     9    6    7 1    
    10    7   16 1    
    11    8   18 2    
    12    8   19 am   
    13   20    8 am   
    14    9   10 1    
    15    9   20 1    
    16   10   11 ar   
    17   10   15 ar   
    18   11   12 ar   
    19   12   13 ar   
    20   13   14 ar   
    21   14   15 ar   
    22   16   21 1    
    23   21   17 1    
    24   21   22 1    
    25    2   23 1    
    26    4   24 1    
    27    5   25 1    
    28    7   26 1    
    29    7   27 1    
    30    9   28 1    
    31    9   29 1    
    32   11   30 1    
    33   12   31 1    
    34   13   32 1    
    35   14   33 1    
    36   15   34 1    
    37   17   35 1    
    38   17   36 1    
    39   19   37 1    
    40   20   38 1    
    41   22   39 1    
    42   22   40 1    
@<TRIPOS>SUBSTRUCTURE
     1 R29         1 PERM              0 ****  ****    0 ROOT 
