4a6b_ligand
  -I-interpret- 

107112  0  0  0  0  0  0  0  0999 V2000
   10.5810   24.1940    6.1680 C   0  0  0  0  0
   10.3020   23.1950    6.8270 O   0  0  0  0  0
   11.8820   24.2760    5.2930 C   0  0  0  0  0
   11.8990   25.8270    5.0080 C   0  0  0  0  0
   10.4780   26.2600    5.2200 C   0  0  0  0  0
    9.8420   25.3180    6.1030 N   0  0  0  0  0
    8.5550   25.5940    6.8020 C   0  0  0  0  0
    8.4680   26.8600    7.6580 C   0  0  0  0  0
    7.1380   27.3880    7.6210 C   0  0  0  0  0
    6.2480   26.5480    6.7520 C   0  0  0  0  0
    7.2470   25.7020    5.9240 C   0  0  0  0  0
    7.4050   26.4330    4.7030 O   0  0  0  0  0
    6.7760   28.5910    8.3480 C   0  0  0  0  0
    7.8020   29.2680    9.1300 C   0  0  0  0  0
    9.1680   28.7350    9.1690 C   0  0  0  0  0
    9.5100   27.5230    8.4370 C   0  0  0  0  0
   12.6160   26.6320    5.9050 O   0  0  0  0  0
   14.4990   24.0060    5.5580 C   0  0  0  0  0
   15.6380   23.8450    6.5310 C   0  0  0  0  0
   13.0820   23.7840    6.1560 C   0  0  0  0  0
   11.7550   23.3560    3.9420 C   0  0  0  0  0
   10.6600   23.7040    2.9080 C   0  0  0  0  0
   10.9410   24.5980    1.7910 C   0  0  0  0  0
    9.9050   24.9210    0.8390 C   0  0  0  0  0
    8.5840   24.3600    0.9900 C   0  0  0  0  0
    8.3020   23.4750    2.0900 C   0  0  0  0  0
    9.3240   23.1420    3.0480 C   0  0  0  0  0
   17.7430   17.3490   10.8930 C   0  0  0  0  0
   17.4430   18.6510   10.2400 C   0  0  0  0  0
   18.5370   19.4900    9.7600 C   0  0  0  0  0
   18.2780   20.7620    9.1260 C   0  0  0  0  0
   16.9170   21.2340    8.9530 C   0  0  0  0  0
   15.7980   20.4180    9.4210 C   0  0  0  0  0
   16.0620   19.1290   10.0620 C   0  0  0  0  0
   16.7130   22.5890    8.2800 C   0  0  0  0  0
   15.7740   22.5130    7.1350 N   0  3  0  0  0
   16.2600   21.6140    6.1680 N   0  0  0  0  0
   15.5500   20.6050    5.6480 C   0  0  0  0  0
   16.3590   19.7980    4.6180 C   0  0  0  0  0
   17.1470   18.9070    5.4710 N   0  0  0  0  0
   18.5150   19.0190    5.6740 C   0  0  0  0  0
   18.8950   18.0300    6.5190 O   0  0  0  0  0
   20.2570   17.8860    6.9140 C   0  0  0  0  0
   19.2320   19.8900    5.1520 O   0  0  0  0  0
   15.5870   18.8970    3.5410 C   0  0  0  0  0
   14.7390   19.8260    2.6260 C   0  0  0  0  0
   16.6130   18.1840    2.6090 C   0  0  0  0  0
   14.6830   17.7890    4.1490 C   0  0  0  0  0
   14.3770   20.3610    5.9720 O   0  0  0  0  0
   17.8420   17.2480   12.3500 C   0  0  0  0  0
   18.1330   15.9780   12.9980 C   0  0  0  0  0
   18.3310   14.7810   12.1920 C   0  0  0  0  0
   18.2380   14.8610   10.7400 C   0  0  0  0  0
   17.9460   16.1310   10.0950 C   0  0  0  0  0
   12.3551   25.9505    4.0257 H   0  0  0  0  0
    9.9515   26.2906    4.2661 H   0  0  0  0  0
   10.4539   27.2573    5.6592 H   0  0  0  0  0
    8.5827   24.6828    7.3996 H   0  0  0  0  0
    5.5884   27.1481    6.1252 H   0  0  0  0  0
    5.5583   25.9332    7.3303 H   0  0  0  0  0
    6.9444   24.6839    5.6790 H   0  0  0  0  0
    6.5687   26.4515    4.2319 H   0  0  0  0  0
    5.7583   28.9796    8.3097 H   0  0  0  0  0
    7.5542   30.1717    9.6868 H   0  0  0  0  0
    9.9330   29.2498    9.7502 H   0  0  0  0  0
   10.5221   27.1196    8.4700 H   0  0  0  0  0
   13.5513   26.4249    5.8418 H   0  0  0  0  0
   14.6360   23.2474    4.7874 H   0  0  0  0  0
   14.5320   25.0368    5.2052 H   0  0  0  0  0
   15.4454   24.5378    7.3501 H   0  0  0  0  0
   16.5538   24.0241    5.9676 H   0  0  0  0  0
   12.9610   22.7054    6.2562 H   0  0  0  0  0
   13.0487   24.3627    7.0791 H   0  0  0  0  0
   11.4995   22.3590    4.3009 H   0  0  0  0  0
   12.6983   23.4959    3.4140 H   0  0  0  0  0
   11.9374   25.0242    1.6743 H   0  0  0  0  0
   10.1207   25.5893    0.0053 H   0  0  0  0  0
    7.8011   24.6059    0.2725 H   0  0  0  0  0
    7.3033   23.0522    2.1988 H   0  0  0  0  0
    9.0981   22.4706    3.8764 H   0  0  0  0  0
   19.5658   19.1513    9.8819 H   0  0  0  0  0
   19.1109   21.3714    8.7752 H   0  0  0  0  0
   14.7734   20.7674    9.2934 H   0  0  0  0  0
   15.2293   18.5180   10.4104 H   0  0  0  0  0
   17.6781   22.9285    7.9039 H   0  0  0  0  0
   16.2925   23.2729    9.0173 H   0  0  0  0  0
   14.8672   22.1864    7.4689 H   0  0  0  0  0
   17.2180   21.7394    5.8410 H   0  0  0  0  0
   16.8771   20.5117    3.9774 H   0  0  0  0  0
   16.6565   18.1514    5.9493 H   0  0  0  0  0
   20.8741   17.7178    6.0314 H   0  0  0  0  0
   20.5850   18.7937    7.4206 H   0  0  0  0  0
   20.3498   17.0368    7.5910 H   0  0  0  0  0
   14.0192   20.3740    3.2340 H   0  0  0  0  0
   15.3965   20.5301    2.1161 H   0  0  0  0  0
   14.2092   19.2226    1.8889 H   0  0  0  0  0
   17.2107   18.9325    2.0889 H   0  0  0  0  0
   17.2652   17.5483    3.2078 H   0  0  0  0  0
   16.0780   17.5743    1.8809 H   0  0  0  0  0
   15.2927   17.1122    4.7476 H   0  0  0  0  0
   13.9219   18.2483    4.7797 H   0  0  0  0  0
   14.2025   17.2320    3.3447 H   0  0  0  0  0
   17.6952   18.1394   12.9600 H   0  0  0  0  0
   18.2027   15.9225   14.0844 H   0  0  0  0  0
   18.5482   13.8277   12.6738 H   0  0  0  0  0
   18.3877   13.9663   10.1357 H   0  0  0  0  0
   17.8769   16.1806    9.0083 H   0  0  0  0  0
  1  2  2  0  0  0
  3  1  1  0  0  0
  1  6  1  0  0  0
  3  4  1  0  0  0
 20  3  1  0  0  0
  3 21  1  0  0  0
  4  5  1  0  0  0
  4 17  1  0  0  0
  5  6  1  0  0  0
  6  7  1  0  0  0
  7  8  1  0  0  0
  7 11  1  0  0  0
  8  9  4  0  0  0
  8 16  4  0  0  0
 10  9  1  0  0  0
  9 13  4  0  0  0
 11 10  1  0  0  0
 11 12  1  0  0  0
 13 14  4  0  0  0
 15 14  4  0  0  0
 16 15  4  0  0  0
 19 18  1  0  0  0
 18 20  1  0  0  0
 36 19  1  0  0  0
 21 22  1  0  0  0
 22 23  4  0  0  0
 22 27  4  0  0  0
 23 24  4  0  0  0
 24 25  4  0  0  0
 26 25  4  0  0  0
 27 26  4  0  0  0
 29 28  1  0  0  0
 28 50  4  0  0  0
 28 54  4  0  0  0
 30 29  4  0  0  0
 34 29  4  0  0  0
 31 30  4  0  0  0
 32 31  4  0  0  0
 32 33  4  0  0  0
 35 32  1  0  0  0
 33 34  4  0  0  0
 35 36  1  0  0  0
 36 37  1  0  0  0
 37 38  1  0  0  0
 38 39  1  0  0  0
 38 49  2  0  0  0
 39 40  1  0  0  0
 39 45  1  0  0  0
 40 41  1  0  0  0
 41 42  1  0  0  0
 41 44  2  0  0  0
 42 43  1  0  0  0
 45 46  1  0  0  0
 45 47  1  0  0  0
 45 48  1  0  0  0
 50 51  4  0  0  0
 51 52  4  0  0  0
 52 53  4  0  0  0
 53 54  4  0  0  0
  4 55  1  0  0  0
  5 56  1  0  0  0
  5 57  1  0  0  0
  7 58  1  0  0  0
 10 59  1  0  0  0
 10 60  1  0  0  0
 11 61  1  0  0  0
 12 62  1  0  0  0
 13 63  1  0  0  0
 14 64  1  0  0  0
 15 65  1  0  0  0
 16 66  1  0  0  0
 17 67  1  0  0  0
 18 68  1  0  0  0
 18 69  1  0  0  0
 19 70  1  0  0  0
 19 71  1  0  0  0
 20 72  1  0  0  0
 20 73  1  0  0  0
 21 74  1  0  0  0
 21 75  1  0  0  0
 23 76  1  0  0  0
 24 77  1  0  0  0
 25 78  1  0  0  0
 26 79  1  0  0  0
 27 80  1  0  0  0
 30 81  1  0  0  0
 31 82  1  0  0  0
 33 83  1  0  0  0
 34 84  1  0  0  0
 35 85  1  0  0  0
 35 86  1  0  0  0
 36 87  1  0  0  0
 37 88  1  0  0  0
 39 89  1  0  0  0
 40 90  1  0  0  0
 43 91  1  0  0  0
 43 92  1  0  0  0
 43 93  1  0  0  0
 46 94  1  0  0  0
 46 95  1  0  0  0
 46 96  1  0  0  0
 47 97  1  0  0  0
 47 98  1  0  0  0
 47 99  1  0  0  0
 48100  1  0  0  0
 48101  1  0  0  0
 48102  1  0  0  0
 50103  1  0  0  0
 51104  1  0  0  0
 52105  1  0  0  0
 53106  1  0  0  0
 54107  1  0  0  0
M  END
$$$$
