### 
### Created by X-TOOL on Mon Sep 10 21:13:09 2018
### 

@<TRIPOS>MOLECULE
3v30_ligand
  226   228     1     0     0
SMALL
GAST_HUCK


@<TRIPOS>ATOM
      1 N         -11.6930  -13.3630  -17.8390 N.4       1 THR         0.2398
      2 CA        -11.5050  -12.8400  -16.4520 C.3       1 THR         0.0910
      3 C         -11.2870  -13.9860  -15.4640 C.2       1 THR         0.2293
      4 O         -12.1970  -14.7770  -15.2100 O.2       1 THR        -0.3906
      5 CB        -12.7180  -11.9810  -15.9990 C.3       1 THR         0.1120
      6 OG1       -12.8810  -10.8650  -16.8860 O.3       1 THR        -0.3840
      7 CG2       -12.5360  -11.4720  -14.5650 C.3       1 THR        -0.0314
      8 N         -10.0720  -14.0730  -14.9290 N.am      1 LEU        -0.2609
      9 CA         -9.7330  -15.0410  -13.8820 C.3       1 LEU         0.1313
     10 C          -9.1310  -14.2630  -12.7170 C.2       1 LEU         0.2039
     11 O          -8.0410  -13.6900  -12.8510 O.2       1 LEU        -0.3944
     12 CB         -8.7450  -16.0860  -14.4200 C.3       1 LEU        -0.0101
     13 CG         -8.4530  -17.3720  -13.6380 C.3       1 LEU        -0.0425
     14 CD1        -7.9220  -18.4760  -14.5520 C.3       1 LEU        -0.0625
     15 CD2        -7.4740  -17.1290  -12.5010 C.3       1 LEU        -0.0625
     16 N          -9.8460  -14.2520  -11.5880 N.am      1 VAL        -0.2635
     17 CA         -9.4780  -13.4550  -10.4030 C.3       1 VAL         0.1333
     18 C          -8.4620  -14.1710   -9.5120 C.2       1 VAL         0.2042
     19 O          -8.3780  -15.4000   -9.5100 O.2       1 VAL        -0.3944
     20 CB        -10.7140  -12.9760   -9.5680 C.3       1 VAL        -0.0063
     21 CG1       -11.5850  -12.0260  -10.4000 C.3       1 VAL        -0.0584
     22 CG2       -11.5420  -14.1370   -9.0450 C.3       1 VAL        -0.0584
     23 N          -7.6940  -13.3740   -8.7720 N.am      1 SER        -0.2616
     24 CA         -6.5750  -13.8910   -7.9970 C.3       1 SER         0.1539
     25 C          -6.9480  -14.0110   -6.5190 C.2       1 SER         0.2062
     26 O          -7.3670  -13.0450   -5.8950 O.2       1 SER        -0.3943
     27 CB         -5.3710  -12.9510   -8.1790 C.3       1 SER         0.0843
     28 OG         -4.2020  -13.4820   -7.5750 O.3       1 SER        -0.3903
     29 N          -6.7550  -15.1940   -5.9520 N.am      1 MET        -0.2636
     30 CA         -7.0450  -15.3940   -4.5240 C.3       1 MET         0.1319
     31 C          -6.2000  -14.4290   -3.6950 C.2       1 MET         0.2064
     32 O          -4.9770  -14.4090   -3.8420 O.2       1 MET        -0.3942
     33 CB         -6.7390  -16.8350   -4.0900 C.3       1 MET        -0.0034
     34 CG         -7.0290  -17.1230   -2.6050 C.3       1 MET        -0.0024
     35 SD         -8.7820  -17.0960   -2.2210 S.3       1 MET        -0.1639
     36 CE         -9.1960  -18.7560   -2.7170 C.3       1 MET        -0.0181
     37 N          -6.8370  -13.6390   -2.8090 N.am      1 PRO        -0.2498
     38 CA         -6.0250  -12.7280   -2.0000 C.3       1 PRO         0.1340
     39 C          -5.1370  -13.5090   -1.0290 C.2       1 PRO         0.2066
     40 O          -5.4890  -14.6210   -0.6350 O.2       1 PRO        -0.3942
     41 CB         -7.0600  -11.9220   -1.2010 C.3       1 PRO        -0.0104
     42 CG         -8.3400  -12.1730   -1.8440 C.3       1 PRO        -0.0281
     43 CD         -8.2830  -13.4650   -2.5710 C.3       1 PRO         0.0369
     44 N          -3.9900  -12.9250   -0.6370 N.am      1 PRO        -0.2498
     45 CA         -3.1390  -13.5370    0.3690 C.3       1 PRO         0.1338
     46 C          -3.6980  -13.3460    1.7800 C.2       1 PRO         0.2041
     47 O          -4.4320  -12.3870    2.0390 O.2       1 PRO        -0.3944
     48 CB         -1.8260  -12.7520    0.2310 C.3       1 PRO        -0.0104
     49 CG         -2.2440  -11.4260   -0.2110 C.3       1 PRO        -0.0281
     50 CD         -3.4270  -11.6600   -1.1390 C.3       1 PRO         0.0369
     51 N          -3.3400  -14.2520    2.6840 N.am      1 LEU        -0.2637
     52 CA         -3.5080  -13.9750    4.1190 C.3       1 LEU         0.1314
     53 C          -2.3750  -13.0430    4.5110 C.2       1 LEU         0.2064
     54 O          -1.2150  -13.3370    4.2070 O.2       1 LEU        -0.3942
     55 CB         -3.4440  -15.2720    4.9250 C.3       1 LEU        -0.0101
     56 CG         -4.5940  -16.2430    4.6690 C.3       1 LEU        -0.0425
     57 CD1        -4.3350  -17.5730    5.3370 C.3       1 LEU        -0.0625
     58 CD2        -5.8990  -15.6470    5.1870 C.3       1 LEU        -0.0625
     59 N          -2.6950  -11.9130    5.1670 N.am      1 PRO        -0.2498
     60 CA         -1.6770  -10.9020    5.4550 C.3       1 PRO         0.1338
     61 C          -0.6670  -11.3250    6.5220 C.2       1 PRO         0.2039
     62 O          -0.9860  -12.1200    7.4130 O.2       1 PRO        -0.3944
     63 CB         -2.5080   -9.7120    5.9470 C.3       1 PRO        -0.0104
     64 CG         -3.6700  -10.3470    6.6350 C.3       1 PRO        -0.0281
     65 CD         -4.0180  -11.4990    5.6810 C.3       1 PRO         0.0369
     66 N           0.5450  -10.7700    6.4310 N.am      1 GLY        -0.2664
     67 CA          1.5520  -10.9280    7.4810 C.3       1 GLY         0.1201
     68 C           1.1010  -10.2810    8.7810 C.2       1 GLY         0.2007
     69 O           0.5470   -9.1730    8.7830 O.2       1 GLY        -0.3947
     70 N           1.3550  -10.9730    9.8890 N.am      1 LEU        -0.2640
     71 CA          0.9180  -10.5010   11.2070 C.3       1 LEU         0.1312
     72 C           2.0490   -9.8780   11.9910 C.2       1 LEU         0.2040
     73 O           2.2380  -10.1090   13.1920 O.2       1 LEU        -0.3944
     74 CB          0.2440  -11.6240   11.9800 C.3       1 LEU        -0.0101
     75 CG         -0.9780  -12.1680   11.2530 C.3       1 LEU        -0.0425
     76 CD1        -1.5210  -13.2770   12.0140 C.3       1 LEU        -0.0625
     77 CD2        -2.0510  -11.0940   11.0170 C.3       1 LEU        -0.0625
     78 N           2.8070   -9.0730   11.2800 N.am      1 ASP        -0.2622
     79 CA          3.6860   -8.1300   11.9240 C.3       1 ASP         0.1423
     80 C           3.3900   -6.7510   11.3420 C.2       1 ASP         0.2056
     81 O           2.3490   -6.5450   10.6720 O.2       1 ASP        -0.3943
     82 CB          5.1550   -8.5580   11.7930 C.3       1 ASP         0.0406
     83 CG          5.5670   -8.8330   10.3590 C.2       1 ASP         0.0393
     84 OD1         5.1890   -8.0390    9.4710 O.co2     1 ASP        -0.5688
     85 OD2         6.2810   -9.8320   10.1240 O.co2     1 ASP        -0.5688
     86 N           4.2940   -5.8150   11.5980 N.am      1 LEU        -0.2636
     87 CA          4.0520   -4.4190   11.2800 C.3       1 LEU         0.1312
     88 C           4.5930   -4.0280    9.9090 C.2       1 LEU         0.2039
     89 O           4.4110   -2.8880    9.4780 O.2       1 LEU        -0.3944
     90 CB          4.6380   -3.5270   12.3850 C.3       1 LEU        -0.0101
     91 CG          4.3200   -3.9330   13.8360 C.3       1 LEU        -0.0425
     92 CD1         4.9630   -2.9730   14.8420 C.3       1 LEU        -0.0625
     93 CD2         2.8040   -4.0760   14.0970 C.3       1 LEU        -0.0625
     94 N           5.2440   -4.9710    9.2250 N.am      1 LYS        -0.2640
     95 CA          5.8450   -4.7000    7.9120 C.3       1 LYS         0.1282
     96 C           4.8490   -4.0690    6.9290 C.2       1 LYS         0.2034
     97 O           3.7760   -4.6200    6.6720 O.2       1 LYS        -0.3944
     98 CB          6.4620   -5.9720    7.3140 C.3       1 LYS        -0.0244
     99 N           5.2000   -2.8960    6.4050 N.am      1 GLY        -0.2664
    100 CA          4.3520   -2.2060    5.4320 C.3       1 GLY         0.1201
    101 C           3.1940   -1.4030    6.0060 C.2       1 GLY         0.2003
    102 O           2.4950   -0.7180    5.2570 O.2       1 GLY        -0.3947
    103 N           2.9950   -1.4860    7.3260 N.am      1 SER        -0.2675
    104 CA          1.9380   -0.7470    8.0490 C.3       1 SER         0.1173
    105 C           0.5380   -0.8890    7.4270 C.2       1 SER         0.0623
    106 O          -0.0650   -1.9640    7.4340 O.co2     1 SER        -0.5665
    107 CB          2.3130    0.7350    8.2020 C.3       1 SER         0.0789
    108 OG          3.5020    0.8850    8.9600 O.3       1 SER        -0.3910
    109 OXT        -0.0310    0.0680    6.8990 O.co2     1 SER        -0.5665
    110 H1        -10.8911  -13.9143  -18.1017 H         1 THR         0.2016
    111 H2        -11.7938  -12.5905  -18.4786 H         1 THR         0.2016
    112 H3        -12.5209  -13.9370  -17.8723 H         1 THR         0.2016
    113 H4        -10.6092  -12.2017  -16.4467 H         1 THR         0.1125
    114 H5        -13.6235  -12.6043  -16.0387 H         1 THR         0.0674
    115 H6        -13.6236  -10.3438  -16.6042 H         1 THR         0.2102
    116 H7        -13.4097  -10.8692  -14.2762 H         1 THR         0.0258
    117 H8        -11.6285  -10.8530  -14.5080 H         1 THR         0.0258
    118 H9        -12.4393  -12.3284  -13.8814 H         1 THR         0.0258
    119 H10        -9.3597  -13.4515  -15.2551 H         1 LEU         0.1885
    120 H11       -10.6456  -15.5550  -13.5458 H         1 LEU         0.0800
    121 H12        -7.7814  -15.5703  -14.5450 H         1 LEU         0.0315
    122 H13        -9.1245  -16.3978  -15.4043 H         1 LEU         0.0315
    123 H14        -9.4011  -17.7189  -13.2011 H         1 LEU         0.0298
    124 H15        -7.7244  -19.3804  -13.9579 H         1 LEU         0.0232
    125 H16        -6.9897  -18.1400  -15.0294 H         1 LEU         0.0232
    126 H17        -8.6697  -18.7021  -15.3264 H         1 LEU         0.0232
    127 H18        -7.8616  -16.3339  -11.8471 H         1 LEU         0.0232
    128 H19        -6.5014  -16.8228  -12.9137 H         1 LEU         0.0232
    129 H20        -7.3506  -18.0544  -11.9193 H         1 LEU         0.0232
    130 H21       -10.6728  -14.8128  -11.5445 H         1 VAL         0.1883
    131 H22        -8.9845  -12.5479  -10.7820 H         1 VAL         0.0802
    132 H23       -10.3348  -12.4181   -8.6991 H         1 VAL         0.0343
    133 H24       -12.4473  -11.6993   -9.8002 H         1 VAL         0.0234
    134 H25       -11.9413  -12.5487  -11.2999 H         1 VAL         0.0234
    135 H26       -10.9911  -11.1489  -10.6964 H         1 VAL         0.0234
    136 H27       -10.9015  -14.8063   -8.4518 H         1 VAL         0.0234
    137 H28       -11.9690  -14.6938   -9.8921 H         1 VAL         0.0234
    138 H29       -12.3551  -13.7518   -8.4122 H         1 VAL         0.0234
    139 H30        -7.8910  -12.3939   -8.7478 H         1 SER         0.1884
    140 H31        -6.3097  -14.8897   -8.3741 H         1 SER         0.0823
    141 H32        -5.6025  -11.9798   -7.7172 H         1 SER         0.0606
    142 H33        -5.1859  -12.8110   -9.2542 H         1 SER         0.0606
    143 H34        -4.3537  -13.6011   -6.6448 H         1 SER         0.2097
    144 H35        -6.4096  -15.9561   -6.4996 H         1 MET         0.1883
    145 H36        -8.1107  -15.1876   -4.3458 H         1 MET         0.0800
    146 H37        -5.6734  -17.0328   -4.2778 H         1 MET         0.0320
    147 H38        -7.3513  -17.5160   -4.6993 H         1 MET         0.0320
    148 H39        -6.5236  -16.3607   -1.9939 H         1 MET         0.0378
    149 H40        -6.6298  -18.1171   -2.3552 H         1 MET         0.0378
    150 H41       -10.2689  -18.9318   -2.5497 H         1 MET         0.0340
    151 H42        -8.6100  -19.4730   -2.1233 H         1 MET         0.0340
    152 H43        -8.9649  -18.8882   -3.7843 H         1 MET         0.0340
    153 H44        -5.4084  -12.0750   -2.6351 H         1 PRO         0.0802
    154 H45        -6.8186  -10.8493   -1.2340 H         1 PRO         0.0313
    155 H46        -7.0842  -12.2604   -0.1546 H         1 PRO         0.0313
    156 H47        -8.5589  -11.3620   -2.5542 H         1 PRO         0.0287
    157 H48        -9.1314  -12.2161   -1.0812 H         1 PRO         0.0287
    158 H49        -8.6854  -14.2840   -1.9567 H         1 PRO         0.0524
    159 H50        -8.8376  -13.4113   -3.5194 H         1 PRO         0.0524
    160 H51        -2.9940  -14.6085    0.1667 H         1 PRO         0.0802
    161 H52        -1.1676  -13.2217   -0.5146 H         1 PRO         0.0313
    162 H53        -1.3032  -12.6939    1.1971 H         1 PRO         0.0313
    163 H54        -1.4263  -10.9250   -0.7498 H         1 PRO         0.0287
    164 H55        -2.5466  -10.8116    0.6498 H         1 PRO         0.0287
    165 H56        -4.1588  -10.8424   -1.0620 H         1 PRO         0.0524
    166 H57        -3.0974  -11.7599   -2.1837 H         1 PRO         0.0524
    167 H58        -2.9547  -15.1259    2.3875 H         1 LEU         0.1883
    168 H59        -4.4768  -13.4856    4.2978 H         1 LEU         0.0800
    169 H60        -3.4480  -15.0112    5.9936 H         1 LEU         0.0315
    170 H61        -2.5026  -15.7835    4.6759 H         1 LEU         0.0315
    171 H62        -4.6829  -16.4054    3.5847 H         1 LEU         0.0298
    172 H63        -5.1762  -18.2533    5.1379 H         1 LEU         0.0232
    173 H64        -4.2324  -17.4246    6.4221 H         1 LEU         0.0232
    174 H65        -3.4079  -18.0097    4.9374 H         1 LEU         0.0232
    175 H66        -6.0804  -14.6794    4.6962 H         1 LEU         0.0232
    176 H67        -5.8282  -15.4988    6.2747 H         1 LEU         0.0232
    177 H68        -6.7295  -16.3328    4.9636 H         1 LEU         0.0232
    178 H69        -1.1301  -10.6439    4.5362 H         1 PRO         0.0802
    179 H70        -2.8438   -9.0929    5.1021 H         1 PRO         0.0313
    180 H71        -1.9287   -9.0929    6.6478 H         1 PRO         0.0313
    181 H72        -4.5093   -9.6428    6.7336 H         1 PRO         0.0287
    182 H73        -3.3884  -10.7234    7.6295 H         1 PRO         0.0287
    183 H74        -4.5094  -12.3233    6.2186 H         1 PRO         0.0524
    184 H75        -4.6694  -11.1537    4.8647 H         1 PRO         0.0524
    185 H76         0.7710  -10.2299    5.6203 H         1 GLY         0.1881
    186 H77         2.4896  -10.4559    7.1523 H         1 GLY         0.0763
    187 H78         1.7229  -12.0006    7.6551 H         1 GLY         0.0763
    188 H79         1.8560  -11.8358    9.8212 H         1 LEU         0.1883
    189 H80         0.1656   -9.7155   11.0427 H         1 LEU         0.0800
    190 H81        -0.0695  -11.2400   12.9619 H         1 LEU         0.0315
    191 H82         0.9665  -12.4416   12.1196 H         1 LEU         0.0315
    192 H83        -0.6546  -12.5424   10.2705 H         1 LEU         0.0298
    193 H84        -2.4053  -13.6781   11.4972 H         1 LEU         0.0232
    194 H85        -1.8092  -12.9276   13.0164 H         1 LEU         0.0232
    195 H86        -0.7603  -14.0663   12.1054 H         1 LEU         0.0232
    196 H87        -1.6182  -10.2641   10.4392 H         1 LEU         0.0232
    197 H88        -2.4121  -10.7174   11.9854 H         1 LEU         0.0232
    198 H89        -2.8909  -11.5315   10.4574 H         1 LEU         0.0232
    199 H90         2.7733   -9.1155   10.2815 H         1 ASP         0.1884
    200 H91         3.4468   -8.1050   12.9974 H         1 ASP         0.0819
    201 H92         5.3072   -9.4738   12.3831 H         1 ASP         0.0478
    202 H93         5.7912   -7.7544   12.1924 H         1 ASP         0.0478
    203 H94         5.1622   -6.0766   12.0197 H         1 LEU         0.1883
    204 H95         2.9631   -4.2641   11.2605 H         1 LEU         0.0800
    205 H96         4.2534   -2.5080   12.2311 H         1 LEU         0.0315
    206 H97         5.7320   -3.5274   12.2699 H         1 LEU         0.0315
    207 H98         4.7694   -4.9240   13.9972 H         1 LEU         0.0298
    208 H99         4.7150   -3.2935   15.8646 H         1 LEU         0.0232
    209 H100        4.5806   -1.9554   14.6738 H         1 LEU         0.0232
    210 H101        6.0550   -2.9809   14.7100 H         1 LEU         0.0232
    211 H102        2.3692   -4.7693   13.3619 H         1 LEU         0.0232
    212 H103        2.3213   -3.0920   14.0031 H         1 LEU         0.0232
    213 H104        2.6420   -4.4686   15.1117 H         1 LEU         0.0232
    214 H105        5.3250   -5.8874    9.6170 H         1 LYS         0.1883
    215 H106        6.6579   -3.9754    8.0673 H         1 LYS         0.0797
    216 H107        6.9033   -5.7395    6.3336 H         1 LYS         0.0277
    217 H108        5.6804   -6.7364    7.1922 H         1 LYS         0.0277
    218 H109        7.2444   -6.3516    7.9875 H         1 LYS         0.0277
    219 H110        6.0641   -2.4765    6.6832 H         1 GLY         0.1881
    220 H111        3.9324   -2.9640    4.7542 H         1 GLY         0.0763
    221 H112        4.9894   -1.5155    4.8602 H         1 GLY         0.0763
    222 H113        3.5971   -2.0836    7.8556 H         1 SER         0.1876
    223 H114        1.8829   -1.1791    9.0591 H         1 SER         0.0749
    224 H115        1.4931    1.2623    8.7117 H         1 SER         0.0599
    225 H116        2.4656    1.1719    7.2041 H         1 SER         0.0599
    226 H117        4.2145    0.4343    8.5220 H         1 SER         0.2096
@<TRIPOS>BOND
     1    1    2 1  
     2    2    3 1  
     3    2    5 1  
     4    3    4 2  
     5    3    8 am 
     6    5    6 1  
     7    5    7 1  
     8    8    9 1  
     9    9   10 1  
    10    9   12 1  
    11   10   11 2  
    12   10   16 am 
    13   12   13 1  
    14   13   14 1  
    15   13   15 1  
    16   16   17 1  
    17   17   18 1  
    18   17   20 1  
    19   18   19 2  
    20   18   23 am 
    21   20   21 1  
    22   20   22 1  
    23   23   24 1  
    24   24   25 1  
    25   24   27 1  
    26   25   26 2  
    27   25   29 am 
    28   27   28 1  
    29   29   30 1  
    30   30   31 1  
    31   30   33 1  
    32   31   32 2  
    33   31   37 am 
    34   33   34 1  
    35   34   35 1  
    36   35   36 1  
    37   37   38 1  
    38   37   43 1  
    39   38   39 1  
    40   38   41 1  
    41   39   40 2  
    42   39   44 am 
    43   41   42 1  
    44   42   43 1  
    45   44   45 1  
    46   44   50 1  
    47   45   46 1  
    48   45   48 1  
    49   46   47 2  
    50   46   51 am 
    51   48   49 1  
    52   49   50 1  
    53   51   52 1  
    54   52   53 1  
    55   52   55 1  
    56   53   54 2  
    57   53   59 am 
    58   55   56 1  
    59   56   57 1  
    60   56   58 1  
    61   59   60 1  
    62   59   65 1  
    63   60   61 1  
    64   60   63 1  
    65   61   62 2  
    66   61   66 am 
    67   63   64 1  
    68   64   65 1  
    69   66   67 1  
    70   67   68 1  
    71   68   69 2  
    72   68   70 am 
    73   70   71 1  
    74   71   72 1  
    75   71   74 1  
    76   72   73 2  
    77   72   78 am 
    78   74   75 1  
    79   75   76 1  
    80   75   77 1  
    81   78   79 1  
    82   79   80 1  
    83   79   82 1  
    84   80   81 2  
    85   80   86 am 
    86   82   83 1  
    87   83   84 ar 
    88   83   85 ar 
    89   86   87 1  
    90   87   88 1  
    91   87   90 1  
    92   88   89 2  
    93   88   94 am 
    94   90   91 1  
    95   91   92 1  
    96   91   93 1  
    97   94   95 1  
    98   95   96 1  
    99   95   98 1  
   100   96   97 2  
   101   96   99 am 
   102   99  100 1  
   103  100  101 1  
   104  101  102 2  
   105  101  103 am 
   106  103  104 1  
   107  104  105 1  
   108  104  107 1  
   109  105  106 ar 
   110  105  109 ar 
   111  107  108 1  
   112    1  110 1  
   113    1  111 1  
   114    1  112 1  
   115    2  113 1  
   116    5  114 1  
   117    6  115 1  
   118    7  116 1  
   119    7  117 1  
   120    7  118 1  
   121    8  119 1  
   122    9  120 1  
   123   12  121 1  
   124   12  122 1  
   125   13  123 1  
   126   14  124 1  
   127   14  125 1  
   128   14  126 1  
   129   15  127 1  
   130   15  128 1  
   131   15  129 1  
   132   16  130 1  
   133   17  131 1  
   134   20  132 1  
   135   21  133 1  
   136   21  134 1  
   137   21  135 1  
   138   22  136 1  
   139   22  137 1  
   140   22  138 1  
   141   23  139 1  
   142   24  140 1  
   143   27  141 1  
   144   27  142 1  
   145   28  143 1  
   146   29  144 1  
   147   30  145 1  
   148   33  146 1  
   149   33  147 1  
   150   34  148 1  
   151   34  149 1  
   152   36  150 1  
   153   36  151 1  
   154   36  152 1  
   155   38  153 1  
   156   41  154 1  
   157   41  155 1  
   158   42  156 1  
   159   42  157 1  
   160   43  158 1  
   161   43  159 1  
   162   45  160 1  
   163   48  161 1  
   164   48  162 1  
   165   49  163 1  
   166   49  164 1  
   167   50  165 1  
   168   50  166 1  
   169   51  167 1  
   170   52  168 1  
   171   55  169 1  
   172   55  170 1  
   173   56  171 1  
   174   57  172 1  
   175   57  173 1  
   176   57  174 1  
   177   58  175 1  
   178   58  176 1  
   179   58  177 1  
   180   60  178 1  
   181   63  179 1  
   182   63  180 1  
   183   64  181 1  
   184   64  182 1  
   185   65  183 1  
   186   65  184 1  
   187   66  185 1  
   188   67  186 1  
   189   67  187 1  
   190   70  188 1  
   191   71  189 1  
   192   74  190 1  
   193   74  191 1  
   194   75  192 1  
   195   76  193 1  
   196   76  194 1  
   197   76  195 1  
   198   77  196 1  
   199   77  197 1  
   200   77  198 1  
   201   78  199 1  
   202   79  200 1  
   203   82  201 1  
   204   82  202 1  
   205   86  203 1  
   206   87  204 1  
   207   90  205 1  
   208   90  206 1  
   209   91  207 1  
   210   92  208 1  
   211   92  209 1  
   212   92  210 1  
   213   93  211 1  
   214   93  212 1  
   215   93  213 1  
   216   94  214 1  
   217   95  215 1  
   218   98  216 1  
   219   98  217 1  
   220   98  218 1  
   221   99  219 1  
   222  100  220 1  
   223  100  221 1  
   224  103  222 1  
   225  104  223 1  
   226  107  224 1  
   227  107  225 1  
   228  108  226 1  
@<TRIPOS>SUBSTRUCTURE
     1 THR         1

