3v30_ligand
  -I-interpret- 

228230  0  0  0  0  0  0  0  0999 V2000
  -11.6930  -13.3630  -17.8390 N   0  3  0  0  0
  -11.5050  -12.8400  -16.4520 C   0  0  0  0  0
  -11.2870  -13.9860  -15.4640 C   0  0  0  0  0
  -12.1970  -14.7770  -15.2100 O   0  0  0  0  0
  -12.7180  -11.9810  -15.9990 C   0  0  0  0  0
  -12.8810  -10.8650  -16.8860 O   0  0  0  0  0
  -12.5360  -11.4720  -14.5650 C   0  0  0  0  0
  -10.0720  -14.0730  -14.9290 N   0  0  0  0  0
   -9.7330  -15.0410  -13.8820 C   0  0  0  0  0
   -9.1310  -14.2630  -12.7170 C   0  0  0  0  0
   -8.0410  -13.6900  -12.8510 O   0  0  0  0  0
   -8.7450  -16.0860  -14.4200 C   0  0  0  0  0
   -8.4530  -17.3720  -13.6380 C   0  0  0  0  0
   -7.9220  -18.4760  -14.5520 C   0  0  0  0  0
   -7.4740  -17.1290  -12.5010 C   0  0  0  0  0
   -9.8460  -14.2520  -11.5880 N   0  0  0  0  0
   -9.4780  -13.4550  -10.4030 C   0  0  0  0  0
   -8.4620  -14.1710   -9.5120 C   0  0  0  0  0
   -8.3780  -15.4000   -9.5100 O   0  0  0  0  0
  -10.7140  -12.9760   -9.5680 C   0  0  0  0  0
  -11.5850  -12.0260  -10.4000 C   0  0  0  0  0
  -11.5420  -14.1370   -9.0450 C   0  0  0  0  0
   -7.6940  -13.3740   -8.7720 N   0  0  0  0  0
   -6.5750  -13.8910   -7.9970 C   0  0  0  0  0
   -6.9480  -14.0110   -6.5190 C   0  0  0  0  0
   -7.3670  -13.0450   -5.8950 O   0  0  0  0  0
   -5.3710  -12.9510   -8.1790 C   0  0  0  0  0
   -4.2020  -13.4820   -7.5750 O   0  0  0  0  0
   -6.7550  -15.1940   -5.9520 N   0  0  0  0  0
   -7.0450  -15.3940   -4.5240 C   0  0  0  0  0
   -6.2000  -14.4290   -3.6950 C   0  0  0  0  0
   -4.9770  -14.4090   -3.8420 O   0  0  0  0  0
   -6.7390  -16.8350   -4.0900 C   0  0  0  0  0
   -7.0290  -17.1230   -2.6050 C   0  0  0  0  0
   -8.7820  -17.0960   -2.2210 S   0  0  0  0  0
   -9.1960  -18.7560   -2.7170 C   0  0  0  0  0
   -6.8370  -13.6390   -2.8090 N   0  0  0  0  0
   -6.0250  -12.7280   -2.0000 C   0  0  0  0  0
   -5.1370  -13.5090   -1.0290 C   0  0  0  0  0
   -5.4890  -14.6210   -0.6350 O   0  0  0  0  0
   -7.0600  -11.9220   -1.2010 C   0  0  0  0  0
   -8.3400  -12.1730   -1.8440 C   0  0  0  0  0
   -8.2830  -13.4650   -2.5710 C   0  0  0  0  0
   -3.9900  -12.9250   -0.6370 N   0  0  0  0  0
   -3.1390  -13.5370    0.3690 C   0  0  0  0  0
   -3.6980  -13.3460    1.7800 C   0  0  0  0  0
   -4.4320  -12.3870    2.0390 O   0  0  0  0  0
   -1.8260  -12.7520    0.2310 C   0  0  0  0  0
   -2.2440  -11.4260   -0.2110 C   0  0  0  0  0
   -3.4270  -11.6600   -1.1390 C   0  0  0  0  0
   -3.3400  -14.2520    2.6840 N   0  0  0  0  0
   -3.5080  -13.9750    4.1190 C   0  0  0  0  0
   -2.3750  -13.0430    4.5110 C   0  0  0  0  0
   -1.2150  -13.3370    4.2070 O   0  0  0  0  0
   -3.4440  -15.2720    4.9250 C   0  0  0  0  0
   -4.5940  -16.2430    4.6690 C   0  0  0  0  0
   -4.3350  -17.5730    5.3370 C   0  0  0  0  0
   -5.8990  -15.6470    5.1870 C   0  0  0  0  0
   -2.6950  -11.9130    5.1670 N   0  0  0  0  0
   -1.6770  -10.9020    5.4550 C   0  0  0  0  0
   -0.6670  -11.3250    6.5220 C   0  0  0  0  0
   -0.9860  -12.1200    7.4130 O   0  0  0  0  0
   -2.5080   -9.7120    5.9470 C   0  0  0  0  0
   -3.6700  -10.3470    6.6350 C   0  0  0  0  0
   -4.0180  -11.4990    5.6810 C   0  0  0  0  0
    0.5450  -10.7700    6.4310 N   0  0  0  0  0
    1.5520  -10.9280    7.4810 C   0  0  0  0  0
    1.1010  -10.2810    8.7810 C   0  0  0  0  0
    0.5470   -9.1730    8.7830 O   0  0  0  0  0
    1.3550  -10.9730    9.8890 N   0  0  0  0  0
    0.9180  -10.5010   11.2070 C   0  0  0  0  0
    2.0490   -9.8780   11.9910 C   0  0  0  0  0
    2.2380  -10.1090   13.1920 O   0  0  0  0  0
    0.2440  -11.6240   11.9800 C   0  0  0  0  0
   -0.9780  -12.1680   11.2530 C   0  0  0  0  0
   -1.5210  -13.2770   12.0140 C   0  0  0  0  0
   -2.0510  -11.0940   11.0170 C   0  0  0  0  0
    2.8070   -9.0730   11.2800 N   0  0  0  0  0
    3.6860   -8.1300   11.9240 C   0  0  0  0  0
    3.3900   -6.7510   11.3420 C   0  0  0  0  0
    2.3490   -6.5450   10.6720 O   0  0  0  0  0
    5.1550   -8.5580   11.7930 C   0  0  0  0  0
    5.5670   -8.8330   10.3590 C   0  0  0  0  0
    5.1890   -8.0390    9.4710 O   0  0  0  0  0
    6.2810   -9.8320   10.1240 O   0  0  0  0  0
    4.2940   -5.8150   11.5980 N   0  0  0  0  0
    4.0520   -4.4190   11.2800 C   0  0  0  0  0
    4.5930   -4.0280    9.9090 C   0  0  0  0  0
    4.4110   -2.8880    9.4780 O   0  0  0  0  0
    4.6380   -3.5270   12.3850 C   0  0  0  0  0
    4.3200   -3.9330   13.8360 C   0  0  0  0  0
    4.9630   -2.9730   14.8420 C   0  0  0  0  0
    2.8040   -4.0760   14.0970 C   0  0  0  0  0
    5.2440   -4.9710    9.2250 N   0  0  0  0  0
    5.8450   -4.7000    7.9120 C   0  0  0  0  0
    4.8490   -4.0690    6.9290 C   0  0  0  0  0
    3.7760   -4.6200    6.6720 O   0  0  0  0  0
    6.4620   -5.9720    7.3140 C   0  0  0  0  0
    5.2000   -2.8960    6.4050 N   0  0  0  0  0
    4.3520   -2.2060    5.4320 C   0  0  0  0  0
    3.1940   -1.4030    6.0060 C   0  0  0  0  0
    2.4950   -0.7180    5.2570 O   0  0  0  0  0
    2.9950   -1.4860    7.3260 N   0  0  0  0  0
    1.9380   -0.7470    8.0490 C   0  0  0  0  0
    0.5380   -0.8890    7.4270 C   0  0  0  0  0
   -0.0650   -1.9640    7.4340 O   0  0  0  0  0
    2.3130    0.7350    8.2020 C   0  0  0  0  0
    3.5020    0.8850    8.9600 O   0  0  0  0  0
   -0.0310    0.0680    6.8990 O   0  0  0  0  0
  -10.8810  -13.9207  -18.1038 H   0  0  0  0  0
  -12.5310  -13.9436  -17.8715 H   0  0  0  0  0
  -11.7949  -12.5805  -18.4853 H   0  0  0  0  0
  -10.6188  -12.2055  -16.4631 H   0  0  0  0  0
  -13.6069  -12.6112  -16.0284 H   0  0  0  0  0
  -12.9949  -11.1852  -17.7838 H   0  0  0  0  0
  -11.6520  -10.8361  -14.5160 H   0  0  0  0  0
  -13.4146  -10.8983  -14.2702 H   0  0  0  0  0
  -12.4123  -12.3208  -13.8925 H   0  0  0  0  0
   -9.3455  -13.4390  -15.2616 H   0  0  0  0  0
  -10.6207  -15.5801  -13.5512 H   0  0  0  0  0
   -7.7889  -15.5628  -14.4352 H   0  0  0  0  0
   -9.2073  -16.4367  -15.3427 H   0  0  0  0  0
   -9.4014  -17.6992  -13.2118 H   0  0  0  0  0
   -8.6637  -18.6991  -15.3189 H   0  0  0  0  0
   -6.9983  -18.1419  -15.0244 H   0  0  0  0  0
   -7.7266  -19.3716  -13.9622 H   0  0  0  0  0
   -6.5347  -16.7525  -12.9062 H   0  0  0  0  0
   -7.8938  -16.3959  -11.8122 H   0  0  0  0  0
   -7.2939  -18.0649  -11.9721 H   0  0  0  0  0
  -10.6893  -14.8241  -11.5436 H   0  0  0  0  0
   -9.0012  -12.5592  -10.8007 H   0  0  0  0  0
  -10.3293  -12.4406   -8.7000 H   0  0  0  0  0
  -10.9953  -11.1574  -10.6930 H   0  0  0  0  0
  -11.9373  -12.5450  -11.2914 H   0  0  0  0  0
  -12.4390  -11.7030   -9.8047 H   0  0  0  0  0
  -11.9095  -14.7268   -9.8847 H   0  0  0  0  0
  -10.9225  -14.7632   -8.4029 H   0  0  0  0  0
  -12.3861  -13.7512   -8.4733 H   0  0  0  0  0
   -7.8949  -12.3743   -8.7473 H   0  0  0  0  0
   -6.3168  -14.8886   -8.3522 H   0  0  0  0  0
   -5.6023  -11.9972   -7.7048 H   0  0  0  0  0
   -5.1845  -12.8308   -9.2462 H   0  0  0  0  0
   -3.4710  -12.8736   -7.7059 H   0  0  0  0  0
   -6.4027  -15.9714   -6.5105 H   0  0  0  0  0
   -8.1059  -15.2036   -4.3615 H   0  0  0  0  0
   -5.6727  -16.9982   -4.2467 H   0  0  0  0  0
   -7.3828  -17.4907   -4.6762 H   0  0  0  0  0
   -6.5456  -16.3455   -2.0135 H   0  0  0  0  0
   -6.6530  -18.1208   -2.3788 H   0  0  0  0  0
   -8.9665  -18.8857   -3.7746 H   0  0  0  0  0
   -8.6147  -19.4655   -2.1280 H   0  0  0  0  0
  -10.2593  -18.9290   -2.5508 H   0  0  0  0  0
   -5.3669  -12.1107   -2.6115 H   0  0  0  0  0
   -6.8190  -10.8590   -1.1990 H   0  0  0  0  0
   -7.0761  -12.2249   -0.1541 H   0  0  0  0  0
   -8.5570  -11.3693   -2.5476 H   0  0  0  0  0
   -9.1242  -12.2156   -1.0882 H   0  0  0  0  0
   -8.7240  -14.2888   -2.0098 H   0  0  0  0  0
   -8.8682  -13.4619   -3.4906 H   0  0  0  0  0
   -3.0409  -14.6132    0.2263 H   0  0  0  0  0
   -1.1390  -13.2217   -0.4729 H   0  0  0  0  0
   -1.2690  -12.7160    1.1672 H   0  0  0  0  0
   -1.4352  -10.9016   -0.7199 H   0  0  0  0  0
   -2.5177  -10.7921    0.6324 H   0  0  0  0  0
   -4.1457  -10.8406   -1.1252 H   0  0  0  0  0
   -3.1391  -11.7108   -2.1891 H   0  0  0  0  0
   -2.9470  -15.1433    2.3815 H   0  0  0  0  0
   -4.4774  -13.5203    4.3231 H   0  0  0  0  0
   -3.4940  -14.9930    5.9775 H   0  0  0  0  0
   -2.5273  -15.7827    4.6301 H   0  0  0  0  0
   -4.6722  -16.4086    3.5945 H   0  0  0  0  0
   -3.4161  -18.0046    4.9402 H   0  0  0  0  0
   -4.2335  -17.4245    6.4121 H   0  0  0  0  0
   -5.1692  -18.2461    5.1390 H   0  0  0  0  0
   -5.8133  -15.4635    6.2580 H   0  0  0  0  0
   -6.0981  -14.7078    4.6709 H   0  0  0  0  0
   -6.7150  -16.3453    5.0009 H   0  0  0  0  0
   -1.0616  -10.6983    4.5787 H   0  0  0  0  0
   -2.8164   -9.0569    5.1322 H   0  0  0  0  0
   -1.9419   -9.0569    6.6092 H   0  0  0  0  0
   -4.4998   -9.6602    6.8021 H   0  0  0  0  0
   -3.4420  -10.6799    7.6476 H   0  0  0  0  0
   -4.5532  -12.3103    6.1744 H   0  0  0  0  0
   -4.7051  -11.2002    4.8894 H   0  0  0  0  0
    0.7755  -10.2191    5.6041 H   0  0  0  0  0
    2.4728  -10.4448    7.1542 H   0  0  0  0  0
    1.7046  -11.9927    7.6580 H   0  0  0  0  0
    1.8660  -11.8530    9.8199 H   0  0  0  0  0
    0.1827   -9.7117   11.0503 H   0  0  0  0  0
   -0.0817  -11.2267   12.9413 H   0  0  0  0  0
    0.9615  -12.4367   12.0932 H   0  0  0  0  0
   -0.6639  -12.5074   10.2660 H   0  0  0  0  0
   -0.7663  -14.0584   12.1039 H   0  0  0  0  0
   -1.8061  -12.9295   13.0070 H   0  0  0  0  0
   -2.3971  -13.6736   11.5010 H   0  0  0  0  0
   -2.3812  -10.6952   11.9762 H   0  0  0  0  0
   -1.6315  -10.2897   10.4126 H   0  0  0  0  0
   -2.8989  -11.5378   10.4953 H   0  0  0  0  0
    2.7726   -9.1163   10.2615 H   0  0  0  0  0
    3.5065   -8.0956   12.9986 H   0  0  0  0  0
    5.2834   -9.4812   12.3581 H   0  0  0  0  0
    5.7732   -7.7411   12.1651 H   0  0  0  0  0
    6.4525  -10.3013   10.9437 H   0  0  0  0  0
    5.1795   -6.0818   12.0281 H   0  0  0  0  0
    2.9732   -4.2704   11.2332 H   0  0  0  0  0
    4.1956   -2.5409   12.2435 H   0  0  0  0  0
    5.7213   -3.5928   12.2835 H   0  0  0  0  0
    4.7593   -4.9200   13.9804 H   0  0  0  0  0
    6.0450   -2.9817   14.7101 H   0  0  0  0  0
    4.5833   -1.9651   14.6742 H   0  0  0  0  0
    4.7166   -3.2916   15.8549 H   0  0  0  0  0
    2.3114   -3.1237   13.9007 H   0  0  0  0  0
    2.3938   -4.8413   13.4381 H   0  0  0  0  0
    2.6410   -4.3635   15.1357 H   0  0  0  0  0
    5.3266   -5.9057    9.6248 H   0  0  0  0  0
    6.6388   -3.9714    8.0769 H   0  0  0  0  0
    7.2371   -6.3472    7.9823 H   0  0  0  0  0
    5.6866   -6.7286    7.1939 H   0  0  0  0  0
    6.8989   -5.7403    6.3427 H   0  0  0  0  0
    6.0813   -2.4681    6.6887 H   0  0  0  0  0
    3.9069   -2.9822    4.8095 H   0  0  0  0  0
    4.9950   -1.4911    4.9186 H   0  0  0  0  0
    3.6091   -2.0955    7.8661 H   0  0  0  0  0
    1.8772   -1.2094    9.0342 H   0  0  0  0  0
    0.4739   -2.6291    7.8686 H   0  0  0  0  0
    1.5024    1.2483    8.7193 H   0  0  0  0  0
    2.4757    1.1578    7.2106 H   0  0  0  0  0
    3.7134    1.8180    9.0404 H   0  0  0  0  0
  1  2  1  0  0  0
  2  3  1  0  0  0
  2  5  1  0  0  0
  3  4  2  0  0  0
  3  8  1  0  0  0
  5  6  1  0  0  0
  5  7  1  0  0  0
  8  9  1  0  0  0
  9 10  1  0  0  0
  9 12  1  0  0  0
 10 11  2  0  0  0
 10 16  1  0  0  0
 12 13  1  0  0  0
 13 14  1  0  0  0
 13 15  1  0  0  0
 16 17  1  0  0  0
 17 18  1  0  0  0
 17 20  1  0  0  0
 18 19  2  0  0  0
 18 23  1  0  0  0
 20 21  1  0  0  0
 20 22  1  0  0  0
 23 24  1  0  0  0
 24 25  1  0  0  0
 24 27  1  0  0  0
 25 26  2  0  0  0
 25 29  1  0  0  0
 27 28  1  0  0  0
 29 30  1  0  0  0
 30 31  1  0  0  0
 30 33  1  0  0  0
 31 32  2  0  0  0
 31 37  1  0  0  0
 33 34  1  0  0  0
 34 35  1  0  0  0
 35 36  1  0  0  0
 37 38  1  0  0  0
 37 43  1  0  0  0
 38 39  1  0  0  0
 38 41  1  0  0  0
 39 40  2  0  0  0
 39 44  1  0  0  0
 41 42  1  0  0  0
 42 43  1  0  0  0
 44 45  1  0  0  0
 44 50  1  0  0  0
 45 46  1  0  0  0
 45 48  1  0  0  0
 46 47  2  0  0  0
 46 51  1  0  0  0
 48 49  1  0  0  0
 49 50  1  0  0  0
 51 52  1  0  0  0
 52 53  1  0  0  0
 52 55  1  0  0  0
 53 54  2  0  0  0
 53 59  1  0  0  0
 55 56  1  0  0  0
 56 57  1  0  0  0
 56 58  1  0  0  0
 59 60  1  0  0  0
 59 65  1  0  0  0
 60 61  1  0  0  0
 60 63  1  0  0  0
 61 62  2  0  0  0
 61 66  1  0  0  0
 63 64  1  0  0  0
 64 65  1  0  0  0
 66 67  1  0  0  0
 67 68  1  0  0  0
 68 69  2  0  0  0
 68 70  1  0  0  0
 70 71  1  0  0  0
 71 72  1  0  0  0
 71 74  1  0  0  0
 72 73  2  0  0  0
 72 78  1  0  0  0
 74 75  1  0  0  0
 75 76  1  0  0  0
 75 77  1  0  0  0
 78 79  1  0  0  0
 79 80  1  0  0  0
 79 82  1  0  0  0
 80 81  2  0  0  0
 80 86  1  0  0  0
 82 83  1  0  0  0
 83 84  2  0  0  0
 83 85  1  0  0  0
 86 87  1  0  0  0
 87 88  1  0  0  0
 87 90  1  0  0  0
 88 89  2  0  0  0
 88 94  1  0  0  0
 90 91  1  0  0  0
 91 92  1  0  0  0
 91 93  1  0  0  0
 94 95  1  0  0  0
 95 96  1  0  0  0
 95 98  1  0  0  0
 96 97  2  0  0  0
 96 99  1  0  0  0
 99100  1  0  0  0
100101  1  0  0  0
101102  2  0  0  0
101103  1  0  0  0
103104  1  0  0  0
104105  1  0  0  0
104107  1  0  0  0
105106  1  0  0  0
105109  2  0  0  0
107108  1  0  0  0
  1110  1  0  0  0
  1111  1  0  0  0
  1112  1  0  0  0
  2113  1  0  0  0
  5114  1  0  0  0
  6115  1  0  0  0
  7116  1  0  0  0
  7117  1  0  0  0
  7118  1  0  0  0
  8119  1  0  0  0
  9120  1  0  0  0
 12121  1  0  0  0
 12122  1  0  0  0
 13123  1  0  0  0
 14124  1  0  0  0
 14125  1  0  0  0
 14126  1  0  0  0
 15127  1  0  0  0
 15128  1  0  0  0
 15129  1  0  0  0
 16130  1  0  0  0
 17131  1  0  0  0
 20132  1  0  0  0
 21133  1  0  0  0
 21134  1  0  0  0
 21135  1  0  0  0
 22136  1  0  0  0
 22137  1  0  0  0
 22138  1  0  0  0
 23139  1  0  0  0
 24140  1  0  0  0
 27141  1  0  0  0
 27142  1  0  0  0
 28143  1  0  0  0
 29144  1  0  0  0
 30145  1  0  0  0
 33146  1  0  0  0
 33147  1  0  0  0
 34148  1  0  0  0
 34149  1  0  0  0
 36150  1  0  0  0
 36151  1  0  0  0
 36152  1  0  0  0
 38153  1  0  0  0
 41154  1  0  0  0
 41155  1  0  0  0
 42156  1  0  0  0
 42157  1  0  0  0
 43158  1  0  0  0
 43159  1  0  0  0
 45160  1  0  0  0
 48161  1  0  0  0
 48162  1  0  0  0
 49163  1  0  0  0
 49164  1  0  0  0
 50165  1  0  0  0
 50166  1  0  0  0
 51167  1  0  0  0
 52168  1  0  0  0
 55169  1  0  0  0
 55170  1  0  0  0
 56171  1  0  0  0
 57172  1  0  0  0
 57173  1  0  0  0
 57174  1  0  0  0
 58175  1  0  0  0
 58176  1  0  0  0
 58177  1  0  0  0
 60178  1  0  0  0
 63179  1  0  0  0
 63180  1  0  0  0
 64181  1  0  0  0
 64182  1  0  0  0
 65183  1  0  0  0
 65184  1  0  0  0
 66185  1  0  0  0
 67186  1  0  0  0
 67187  1  0  0  0
 70188  1  0  0  0
 71189  1  0  0  0
 74190  1  0  0  0
 74191  1  0  0  0
 75192  1  0  0  0
 76193  1  0  0  0
 76194  1  0  0  0
 76195  1  0  0  0
 77196  1  0  0  0
 77197  1  0  0  0
 77198  1  0  0  0
 78199  1  0  0  0
 79200  1  0  0  0
 82201  1  0  0  0
 82202  1  0  0  0
 85203  1  0  0  0
 86204  1  0  0  0
 87205  1  0  0  0
 90206  1  0  0  0
 90207  1  0  0  0
 91208  1  0  0  0
 92209  1  0  0  0
 92210  1  0  0  0
 92211  1  0  0  0
 93212  1  0  0  0
 93213  1  0  0  0
 93214  1  0  0  0
 94215  1  0  0  0
 95216  1  0  0  0
 98217  1  0  0  0
 98218  1  0  0  0
 98219  1  0  0  0
 99220  1  0  0  0
100221  1  0  0  0
100222  1  0  0  0
103223  1  0  0  0
104224  1  0  0  0
106225  1  0  0  0
107226  1  0  0  0
107227  1  0  0  0
108228  1  0  0  0
M  END
$$$$
