1jev_ligand
  -I-interpret- 

 71 72  0  0  0  0  0  0  0  0999 V2000
    6.8620   16.6290   15.1970 N   0  3  0  0  0
    6.3920   17.9340   14.6200 C   0  0  0  0  0
    5.1030   18.3620   15.3010 C   0  0  0  0  0
    4.3370   17.5010   15.7230 O   0  0  0  0  0
    6.2400   17.8330   13.1120 C   0  0  0  0  0
    5.3540   16.6850   12.6460 C   0  0  0  0  0
    5.3180   16.6000   11.1250 C   0  0  0  0  0
    6.6030   15.9860   10.5700 C   0  0  0  0  0
    6.7150   14.5550   10.9660 N   0  3  0  0  0
    4.8910   19.6600   15.4540 N   0  0  0  0  0
    3.6920   20.1550   16.1270 C   0  0  0  0  0
    2.4620   20.0900   15.2250 C   0  0  0  0  0
    2.5160   20.3800   14.0430 O   0  0  0  0  0
    3.8860   21.6000   16.6060 C   0  0  0  0  0
    4.9530   21.7050   17.6590 C   0  0  0  0  0
    6.1460   22.3450   17.5650 C   0  0  0  0  0
    4.9170   21.1080   18.9620 C   0  0  0  0  0
    6.8600   22.1910   18.7300 N   0  0  0  0  0
    6.1270   21.4330   19.6020 C   0  0  0  0  0
    3.9680   20.3360   19.6490 C   0  0  0  0  0
    6.4170   21.0100   20.9010 C   0  0  0  0  0
    4.2640   19.9040   20.9250 C   0  0  0  0  0
    5.4830   20.2430   21.5420 C   0  0  0  0  0
    1.3330   19.6990   15.8410 N   0  0  0  0  0
    0.0750   19.6230   15.1390 C   0  0  0  0  0
   -1.0010   20.4270   15.8820 C   0  0  0  0  0
   -1.9790   20.8010   15.1960 O   0  0  0  0  0
   -0.4160   18.1660   15.0560 C   0  0  0  0  0
   -1.4650   18.0070   13.9580 C   0  0  0  0  0
   -2.3620   16.8230   14.1800 C   0  0  0  0  0
   -3.4910   16.8170   13.1640 C   0  0  0  0  0
   -2.9740   16.8470   11.7710 N   0  3  0  0  0
   -0.8210   20.6520   17.0920 O   0  0  0  0  0
    7.7272   16.3468   14.7362 H   0  0  0  0  0
    7.0289   16.7412   16.1970 H   0  0  0  0  0
    6.1479   15.9160   15.0482 H   0  0  0  0  0
    7.1405   18.7035   14.8090 H   0  0  0  0  0
    7.2341   17.6578   12.7008 H   0  0  0  0  0
    5.7708   18.7572   12.7746 H   0  0  0  0  0
    4.3409   16.8576   13.0091 H   0  0  0  0  0
    5.7589   15.7517   13.0374 H   0  0  0  0  0
    5.2152   17.6085   10.7244 H   0  0  0  0  0
    4.4787   15.9686   10.8334 H   0  0  0  0  0
    7.4568   16.5312   10.9722 H   0  0  0  0  0
    6.5835   16.0505    9.4821 H   0  0  0  0  0
    7.5776   14.1649   10.5863 H   0  0  0  0  0
    6.7278   14.4850   11.9835 H   0  0  0  0  0
    5.9161   14.0382   10.5985 H   0  0  0  0  0
    5.5761   20.3256   15.0961 H   0  0  0  0  0
    3.5279   19.5041   16.9858 H   0  0  0  0  0
    2.9463   21.9455   17.0370 H   0  0  0  0  0
    4.1895   22.2047   15.7514 H   0  0  0  0  0
    6.4887   22.9008   16.6922 H   0  0  0  0  0
    3.0155   20.0826   19.1835 H   0  0  0  0  0
    7.3542   21.2813   21.3869 H   0  0  0  0  0
    3.5425   19.2903   21.4643 H   0  0  0  0  0
    5.6870   19.8869   22.5518 H   0  0  0  0  0
    1.3666   19.4498   16.8295 H   0  0  0  0  0
    0.2362   20.0263   14.1393 H   0  0  0  0  0
   -1.8709   20.4942   14.2928 H   0  0  0  0  0
   -0.8637   17.8918   16.0112 H   0  0  0  0  0
    0.4330   17.5223   14.8259 H   0  0  0  0  0
   -0.9411   17.8575   13.0139 H   0  0  0  0  0
   -2.0868   18.9023   13.9571 H   0  0  0  0  0
   -2.7864   16.8818   15.1823 H   0  0  0  0  0
   -1.7784   15.9092   14.0680 H   0  0  0  0  0
   -4.1024   17.7052   13.3235 H   0  0  0  0  0
   -4.0690   15.9025   13.2971 H   0  0  0  0  0
   -3.7580   16.8421   11.1185 H   0  0  0  0  0
   -2.4206   17.6927   11.6331 H   0  0  0  0  0
   -2.3898   16.0268   11.6087 H   0  0  0  0  0
  2  1  1  0  0  0
  2  5  1  0  0  0
  3  2  1  0  0  0
  3  4  2  0  0  0
  5  6  1  0  0  0
  6  7  1  0  0  0
  7  8  1  0  0  0
  8  9  1  0  0  0
 11 10  1  0  0  0
 11 14  1  0  0  0
 12 11  1  0  0  0
 12 13  2  0  0  0
 14 15  1  0  0  0
 15 16  4  0  0  0
 15 17  4  0  0  0
 17 20  4  0  0  0
 17 19  4  0  0  0
 19 21  4  0  0  0
 19 18  4  0  0  0
 16 18  4  0  0  0
 21 23  4  0  0  0
 22 23  4  0  0  0
 20 22  4  0  0  0
 10  3  1  0  0  0
 24 25  1  0  0  0
 25 28  1  0  0  0
 25 26  1  0  0  0
 26 27  1  0  0  0
 26 33  2  0  0  0
 28 29  1  0  0  0
 29 30  1  0  0  0
 30 31  1  0  0  0
 31 32  1  0  0  0
 12 24  1  0  0  0
  1 34  1  0  0  0
  1 35  1  0  0  0
  1 36  1  0  0  0
  2 37  1  0  0  0
  5 38  1  0  0  0
  5 39  1  0  0  0
  6 40  1  0  0  0
  6 41  1  0  0  0
  7 42  1  0  0  0
  7 43  1  0  0  0
  8 44  1  0  0  0
  8 45  1  0  0  0
  9 46  1  0  0  0
  9 47  1  0  0  0
  9 48  1  0  0  0
 10 49  1  0  0  0
 11 50  1  0  0  0
 14 51  1  0  0  0
 14 52  1  0  0  0
 16 53  1  0  0  0
 20 54  1  0  0  0
 21 55  1  0  0  0
 22 56  1  0  0  0
 23 57  1  0  0  0
 24 58  1  0  0  0
 25 59  1  0  0  0
 27 60  1  0  0  0
 28 61  1  0  0  0
 28 62  1  0  0  0
 29 63  1  0  0  0
 29 64  1  0  0  0
 30 65  1  0  0  0
 30 66  1  0  0  0
 31 67  1  0  0  0
 31 68  1  0  0  0
 32 69  1  0  0  0
 32 70  1  0  0  0
 32 71  1  0  0  0
M  END
$$$$
