1cbr_ligand
  -I-interpret- 

 50 50  0  0  0  0  0  0  0  0999 V2000
    5.0920    2.4270  -10.7940 C   0  0  0  0  0
    6.0790    1.2390  -10.8790 C   0  0  0  0  0
    7.4570    1.5880  -11.3400 C   0  0  0  0  0
    8.1090    2.6160  -10.4790 C   0  0  0  0  0
    7.1710    3.7700  -10.1040 C   0  0  0  0  0
    5.8090    3.6640  -10.1590 C   0  0  0  0  0
    4.8670    4.7410   -9.7870 C   0  0  0  0  0
    5.0090    5.6850   -8.8490 C   0  0  0  0  0
    4.0490    6.7120   -8.5120 C   0  0  0  0  0
    4.3830    7.6020   -7.5550 C   0  0  0  0  0
    3.5130    8.6700   -7.1050 C   0  0  0  0  0
    3.9620    9.5090   -6.1670 C   0  0  0  0  0
    3.1640   10.5920   -5.6370 C   0  0  0  0  0
    3.7030   11.3990   -4.6890 C   0  0  0  0  0
    3.0710   12.5430   -4.0160 C   0  0  0  0  0
    3.9070    2.0000   -9.9190 C   0  0  0  0  0
    4.5820    2.7980  -12.2130 C   0  0  0  0  0
    7.9800    4.9390   -9.5360 C   0  0  0  0  0
    2.7160    6.8010   -9.2660 C   0  0  0  0  0
    1.7300   10.7780   -6.1620 C   0  0  0  0  0
    2.5240   13.4330   -4.7040 O   0  0  0  0  0
    3.0900   12.6020   -2.7660 O   0  0  0  0  0
    5.6701    0.5445  -11.6129 H   0  0  0  0  0
    6.1783    0.8418   -9.8688 H   0  0  0  0  0
    7.3794    1.9960  -12.3478 H   0  0  0  0  0
    8.0631    0.6830  -11.2979 H   0  0  0  0  0
    8.9436    3.0366  -11.0399 H   0  0  0  0  0
    8.4177    2.1267   -9.5552 H   0  0  0  0  0
    3.9345    4.7700  -10.3506 H   0  0  0  0  0
    5.9406    5.6789   -8.2832 H   0  0  0  0  0
    5.3660    7.5125   -7.0925 H   0  0  0  0  0
    2.5131    8.7865   -7.5230 H   0  0  0  0  0
    4.9735    9.3710   -5.7849 H   0  0  0  0  0
    4.7266   11.1721   -4.3908 H   0  0  0  0  0
    3.1958    2.8228   -9.8461 H   0  0  0  0  0
    3.4189    1.1348  -10.3676 H   0  0  0  0  0
    4.2671    1.7401   -8.9236 H   0  0  0  0  0
    4.0934    1.9322  -12.6600 H   0  0  0  0  0
    3.8703    3.6202  -12.1384 H   0  0  0  0  0
    5.4256    3.1011  -12.8331 H   0  0  0  0  0
    7.7371    5.8483  -10.0857 H   0  0  0  0  0
    7.7327    5.0725   -8.4828 H   0  0  0  0  0
    9.0442    4.7255   -9.6364 H   0  0  0  0  0
    1.8926    6.7213   -8.5563 H   0  0  0  0  0
    2.6575    7.7569   -9.7864 H   0  0  0  0  0
    2.6541    5.9878   -9.9892 H   0  0  0  0  0
    1.0262   10.6794   -5.3355 H   0  0  0  0  0
    1.6331   11.7681   -6.6073 H   0  0  0  0  0
    1.5182   10.0177   -6.9138 H   0  0  0  0  0
    3.5508   11.8353   -2.4175 H   0  0  0  0  0
  1  2  1  0  0  0
  1  6  1  0  0  0
  1 16  1  0  0  0
  1 17  1  0  0  0
  2  3  1  0  0  0
  3  4  1  0  0  0
  4  5  1  0  0  0
  5  6  2  0  0  0
  5 18  1  0  0  0
  6  7  1  0  0  0
  7  8  2  0  0  0
  8  9  1  0  0  0
  9 10  2  0  0  0
  9 19  1  0  0  0
 10 11  1  0  0  0
 11 12  2  0  0  0
 12 13  1  0  0  0
 13 14  2  0  0  0
 13 20  1  0  0  0
 14 15  1  0  0  0
 15 21  2  0  0  0
 15 22  1  0  0  0
  2 23  1  0  0  0
  2 24  1  0  0  0
  3 25  1  0  0  0
  3 26  1  0  0  0
  4 27  1  0  0  0
  4 28  1  0  0  0
  7 29  1  0  0  0
  8 30  1  0  0  0
 10 31  1  0  0  0
 11 32  1  0  0  0
 12 33  1  0  0  0
 14 34  1  0  0  0
 16 35  1  0  0  0
 16 36  1  0  0  0
 16 37  1  0  0  0
 17 38  1  0  0  0
 17 39  1  0  0  0
 17 40  1  0  0  0
 18 41  1  0  0  0
 18 42  1  0  0  0
 18 43  1  0  0  0
 19 44  1  0  0  0
 19 45  1  0  0  0
 19 46  1  0  0  0
 20 47  1  0  0  0
 20 48  1  0  0  0
 20 49  1  0  0  0
 22 50  1  0  0  0
M  END
$$$$
