3p3u_ligand
  -I-interpret- 

 33 35  0  0  0  0  0  0  0  0999 V2000
    3.1670   -2.3870   -3.0100 C   0  0  0  0  0
   -1.0650    1.0220   -1.1220 C   0  0  0  0  0
   -1.7560    1.6100   -2.1770 C   0  0  0  0  0
   -0.1800    2.9570   -9.7420 C   0  0  0  0  0
   -1.2610    1.0740  -10.2090 C   0  0  0  0  0
   -0.0530    0.1100   -1.3570 C   0  0  0  0  0
   -1.3610    1.2390   -3.4590 C   0  0  0  0  0
    0.1510    2.3180   -8.5460 C   0  0  0  0  0
   -0.9470    0.3080   -9.0840 C   0  0  0  0  0
    2.0950   -1.5740   -3.8100 C   0  0  0  0  0
   -0.8650    2.3020  -10.5790 N   0  0  0  0  0
    0.4290   -0.9010   -6.8500 N   0  0  0  0  0
   -0.3490    0.9240   -5.9370 N   0  0  0  0  0
    1.3380   -1.1360   -2.7130 O   0  0  0  0  0
    0.3940   -1.1020   -5.4940 O   0  0  0  0  0
   -0.2070    1.0210   -8.2150 C   0  0  0  0  0
    0.3410   -0.2360   -2.6300 C   0  0  0  0  0
    0.0210    0.3560   -7.0490 C   0  0  0  0  0
   -0.3360    0.3440   -3.6750 C   0  0  0  0  0
   -0.0810    0.0720   -4.9860 C   0  0  0  0  0
    3.6901   -1.7200   -2.3248 H   0  0  0  0  0
    2.6739   -3.1774   -2.4441 H   0  0  0  0  0
    3.8808   -2.8277   -3.7060 H   0  0  0  0  0
   -1.3252    1.2840   -0.0964 H   0  0  0  0  0
   -2.5632    2.3228   -2.0085 H   0  0  0  0  0
    0.1390    3.9791   -9.9461 H   0  0  0  0  0
   -1.9455    0.5914  -10.9066 H   0  0  0  0  0
    0.4496   -0.3503   -0.5064 H   0  0  0  0  0
   -1.8776    1.6690   -4.3171 H   0  0  0  0  0
    0.7347    2.8814   -7.8180 H   0  0  0  0  0
   -1.2585   -0.7253   -8.9310 H   0  0  0  0  0
    1.5478   -2.1322   -4.5697 H   0  0  0  0  0
    2.4838   -0.7899   -4.4597 H   0  0  0  0  0
 10  1  1  0  0  0
  3  2  4  0  0  0
  6  2  4  0  0  0
  7  3  4  0  0  0
  8  4  4  0  0  0
  4 11  4  0  0  0
  9  5  4  0  0  0
  5 11  4  0  0  0
 17  6  4  0  0  0
 19  7  4  0  0  0
 16  8  4  0  0  0
 16  9  4  0  0  0
 14 10  1  0  0  0
 15 12  4  0  0  0
 12 18  4  0  0  0
 13 18  4  0  0  0
 20 13  4  0  0  0
 17 14  1  0  0  0
 20 15  4  0  0  0
 18 16  1  0  0  0
 19 17  4  0  0  0
 19 20  1  0  0  0
  1 21  1  0  0  0
  1 22  1  0  0  0
  1 23  1  0  0  0
  2 24  1  0  0  0
  3 25  1  0  0  0
  4 26  1  0  0  0
  5 27  1  0  0  0
  6 28  1  0  0  0
  7 29  1  0  0  0
  8 30  1  0  0  0
  9 31  1  0  0  0
 10 32  1  0  0  0
 10 33  1  0  0  0
M  END
$$$$
