5k4z_ligand
  -I-interpret- 

 46 49  0  0  0  0  0  0  0  0999 V2000
   37.7170   71.0180   -5.4090 C   0  0  0  0  0
   39.0820   69.1260   -4.2290 C   0  0  0  0  0
   39.2750   75.9630   -6.6810 C   0  0  0  0  0
   41.7470   76.8250   -4.7170 C   0  0  0  0  0
   42.9380   78.0100   -2.9740 C   0  0  0  0  0
   43.2830   80.0950   -1.8570 C   0  0  0  0  0
   42.4420   78.2010   -0.6350 C   0  0  0  0  0
   43.6110   73.4930   -7.9480 C   0  0  0  0  0
   42.6010   74.3960   -7.2670 C   0  0  0  0  0
   42.8830   75.1940   -6.2290 N   0  0  0  0  0
   41.7780   75.8720   -5.8780 C   0  0  0  0  0
   40.7200   75.4860   -6.6950 C   0  0  0  0  0
   41.2540   74.5640   -7.5820 C   0  0  0  0  0
   40.3260   73.7530   -8.8580 S   0  0  0  0  0
   41.1270   72.7500   -9.5110 O   0  0  0  0  0
   40.0040   74.6700   -9.9240 O   0  0  0  0  0
   38.9520   73.1210   -8.2120 N   0  0  0  0  0
   38.9440   72.1230   -7.1890 C   0  0  0  0  0
   37.7850   71.9740   -6.4190 C   0  0  0  0  0
   38.8340   70.1800   -5.1620 C   0  0  0  0  0
   40.3350   68.6760   -4.4390 N   0  0  0  0  0
   40.8920   69.3910   -5.4530 N   0  0  0  0  0
   39.9800   70.3220   -5.9110 C   0  0  0  0  0
   40.0490   71.3090   -6.9450 C   0  0  0  0  0
   40.6930   77.2480   -4.2890 O   0  0  0  0  0
   42.9690   77.1730   -4.1050 N   0  0  0  0  0
   43.3390   79.3370   -3.0180 C   0  0  0  0  0
   42.8370   79.5310   -0.6680 C   0  0  0  0  0
   42.4920   77.4390   -1.7870 C   0  0  0  0  0
   42.7860   80.2680    0.4560 F   0  0  0  0  0
   36.8109   70.9144   -4.8120 H   0  0  0  0  0
   38.3825   68.7527   -3.4810 H   0  0  0  0  0
   38.8307   75.7436   -5.7101 H   0  0  0  0  0
   39.2468   77.0378   -6.8604 H   0  0  0  0  0
   38.7162   75.4481   -7.4625 H   0  0  0  0  0
   43.5911   81.1403   -1.8779 H   0  0  0  0  0
   42.0929   77.7581    0.2978 H   0  0  0  0  0
   44.4250   74.0974   -8.3483 H   0  0  0  0  0
   44.0072   72.7817   -7.2233 H   0  0  0  0  0
   43.1242   72.9531   -8.7602 H   0  0  0  0  0
   38.0555   73.4602   -8.5609 H   0  0  0  0  0
   36.9245   72.6145   -6.6124 H   0  0  0  0  0
   40.9574   71.4232   -7.5364 H   0  0  0  0  0
   43.8546   76.8262   -4.4735 H   0  0  0  0  0
   43.6927   79.7777   -3.9501 H   0  0  0  0  0
   42.1829   76.3940   -1.7652 H   0  0  0  0  0
 19  1  4  0  0  0
  1 20  4  0  0  0
 20  2  4  0  0  0
  2 21  4  0  0  0
 12  3  1  0  0  0
 11  4  1  0  0  0
  4 25  2  0  0  0
  4 26  1  0  0  0
 26  5  1  0  0  0
  5 27  4  0  0  0
  5 29  4  0  0  0
 27  6  4  0  0  0
  6 28  4  0  0  0
  7 28  4  0  0  0
 29  7  4  0  0  0
  9  8  1  0  0  0
  9 10  4  0  0  0
 13  9  4  0  0  0
 11 10  4  0  0  0
 12 11  4  0  0  0
 13 12  4  0  0  0
 14 13  1  0  0  0
 14 15  2  0  0  0
 14 16  2  0  0  0
 17 14  1  0  0  0
 18 17  1  0  0  0
 18 19  4  0  0  0
 18 24  4  0  0  0
 20 23  4  0  0  0
 21 22  4  0  0  0
 22 23  4  0  0  0
 23 24  4  0  0  0
 28 30  1  0  0  0
  1 31  1  0  0  0
  2 32  1  0  0  0
  3 33  1  0  0  0
  3 34  1  0  0  0
  3 35  1  0  0  0
  6 36  1  0  0  0
  7 37  1  0  0  0
  8 38  1  0  0  0
  8 39  1  0  0  0
  8 40  1  0  0  0
 17 41  1  0  0  0
 19 42  1  0  0  0
 24 43  1  0  0  0
 26 44  1  0  0  0
 27 45  1  0  0  0
 29 46  1  0  0  0
M  END
$$$$
