5gjf_ligand
  -I-interpret- 

 78 82  0  0  0  0  0  0  0  0999 V2000
  -16.6500  -50.3840  -19.2060 C   0  0  0  0  0
  -15.4060  -50.8540  -19.6290 C   0  0  0  0  0
  -14.2820  -50.6710  -18.8390 C   0  0  0  0  0
  -14.3770  -49.9600  -17.6110 C   0  0  0  0  0
  -15.6270  -49.4950  -17.2020 C   0  0  0  0  0
  -16.7460  -49.7000  -17.9920 C   0  0  0  0  0
  -17.8430  -50.6060  -20.0920 C   0  0  0  0  0
  -20.1290  -51.3610  -19.7740 C   0  0  0  0  0
  -21.2930  -51.0790  -18.8340 C   0  0  0  0  0
  -20.7680  -48.7550  -18.8120 C   0  0  0  0  0
  -17.6750  -50.9710  -21.2430 O   0  0  0  0  0
  -19.0750  -50.3500  -19.6050 N   0  0  0  0  0
  -13.0290  -51.0930  -19.2300 O   0  0  0  0  0
  -13.1930  -49.7860  -16.8400 N   0  0  0  0  0
  -21.8240  -49.7350  -19.0480 N   0  3  0  0  0
  -19.5950  -48.9830  -19.7520 C   0  0  0  0  0
  -22.9730  -49.4810  -18.1690 C   0  0  0  0  0
  -12.8060  -48.7460  -16.0310 C   0  0  0  0  0
  -11.4090  -48.8470  -15.5380 C   0  0  0  0  0
  -13.5270  -47.8030  -15.7060 O   0  0  0  0  0
   -9.1700  -48.3490  -14.4740 S   0  0  0  0  0
  -10.7650  -47.8510  -14.8850 C   0  0  0  0  0
   -9.4730  -49.8780  -15.2270 C   0  0  0  0  0
  -10.6760  -50.0080  -15.7290 N   0  0  0  0  0
   -8.4400  -50.9300  -15.2400 C   0  0  0  0  0
  -12.4990  -52.4120  -18.8630 C   0  0  0  0  0
  -13.0900  -53.5130  -19.7030 C   0  0  0  0  0
  -10.9860  -52.2990  -19.0020 C   0  0  0  0  0
   -8.8090  -52.2640  -15.3740 C   0  0  0  0  0
   -7.8470  -53.2610  -15.3740 C   0  0  0  0  0
   -6.5050  -52.9420  -15.2440 C   0  0  0  0  0
   -6.1200  -51.6140  -15.1120 C   0  0  0  0  0
   -7.0890  -50.6120  -15.1050 C   0  0  0  0  0
   -4.7380  -51.3480  -14.9600 N   0  0  0  0  0
   -4.0120  -50.3320  -15.5270 C   0  0  0  0  0
   -2.6560  -50.5600  -15.4890 N   0  0  0  0  0
   -4.5250  -49.3310  -16.0160 O   0  0  0  0  0
   -1.6100  -49.7420  -15.9940 C   0  0  0  0  0
   -1.8260  -48.6110  -16.7840 C   0  0  0  0  0
   -0.7500  -47.8650  -17.2400 C   0  0  0  0  0
    0.5410  -48.2340  -16.9190 C   0  0  0  0  0
    0.7620  -49.3510  -16.1360 C   0  0  0  0  0
   -0.3050  -50.1080  -15.6740 C   0  0  0  0  0
  -15.3178  -51.3680  -20.5862 H   0  0  0  0  0
  -15.7238  -48.9664  -16.2537 H   0  0  0  0  0
  -17.7139  -49.3227  -17.6621 H   0  0  0  0  0
  -20.4885  -51.3297  -20.8025 H   0  0  0  0  0
  -19.7176  -52.3438  -19.5437 H   0  0  0  0  0
  -20.9391  -51.1559  -17.8059 H   0  0  0  0  0
  -22.0840  -51.8030  -19.0294 H   0  0  0  0  0
  -20.4185  -48.8574  -17.7846 H   0  0  0  0  0
  -21.1700  -47.7575  -18.9892 H   0  0  0  0  0
  -12.5264  -50.5559  -16.8976 H   0  0  0  0  0
  -22.1478  -49.6544  -20.0119 H   0  0  0  0  0
  -18.8031  -48.2749  -19.5080 H   0  0  0  0  0
  -19.9316  -48.8409  -20.7789 H   0  0  0  0  0
  -23.7581  -50.2070  -18.3804 H   0  0  0  0  0
  -22.6607  -49.5742  -17.1289 H   0  0  0  0  0
  -23.3499  -48.4740  -18.3477 H   0  0  0  0  0
  -11.1942  -46.8762  -14.6535 H   0  0  0  0  0
  -12.7706  -52.6857  -17.8435 H   0  0  0  0  0
  -14.1714  -53.5310  -19.5675 H   0  0  0  0  0
  -12.8570  -53.3326  -20.7524 H   0  0  0  0  0
  -12.6679  -54.4696  -19.3951 H   0  0  0  0  0
  -10.7352  -52.0419  -20.0311 H   0  0  0  0  0
  -10.6179  -51.5220  -18.3320 H   0  0  0  0  0
  -10.5263  -53.2525  -18.7420 H   0  0  0  0  0
   -9.8615  -52.5269  -15.4797 H   0  0  0  0  0
   -8.1480  -54.3035  -15.4770 H   0  0  0  0  0
   -5.7532  -53.7312  -15.2453 H   0  0  0  0  0
   -6.7880  -49.5704  -14.9930 H   0  0  0  0  0
   -4.2207  -51.9879  -14.3572 H   0  0  0  0  0
   -2.3639  -51.4282  -15.0404 H   0  0  0  0  0
   -2.8424  -48.3141  -17.0426 H   0  0  0  0  0
   -0.9243  -46.9823  -17.8553 H   0  0  0  0  0
    1.3838  -47.6458  -17.2822 H   0  0  0  0  0
    1.7814  -49.6393  -15.8796 H   0  0  0  0  0
   -0.1217  -50.9898  -15.0601 H   0  0  0  0  0
  1  2  4  0  0  0
  1  6  4  0  0  0
  7  1  1  0  0  0
  2  3  4  0  0  0
  3  4  4  0  0  0
  3 13  1  0  0  0
  5  4  4  0  0  0
  4 14  1  0  0  0
  6  5  4  0  0  0
  7 11  2  0  0  0
 12  7  1  0  0  0
  8  9  1  0  0  0
  8 12  1  0  0  0
  9 15  1  0  0  0
 15 10  1  0  0  0
 10 16  1  0  0  0
 12 16  1  0  0  0
 13 26  1  0  0  0
 14 18  1  0  0  0
 15 17  1  0  0  0
 18 19  1  0  0  0
 18 20  2  0  0  0
 19 22  4  0  0  0
 19 24  4  0  0  0
 22 21  4  0  0  0
 21 23  4  0  0  0
 23 24  4  0  0  0
 23 25  1  0  0  0
 25 29  4  0  0  0
 25 33  4  0  0  0
 26 27  1  0  0  0
 26 28  1  0  0  0
 29 30  4  0  0  0
 30 31  4  0  0  0
 31 32  4  0  0  0
 32 33  4  0  0  0
 32 34  1  0  0  0
 34 35  1  0  0  0
 35 36  1  0  0  0
 35 37  2  0  0  0
 36 38  1  0  0  0
 38 39  4  0  0  0
 38 43  4  0  0  0
 39 40  4  0  0  0
 40 41  4  0  0  0
 41 42  4  0  0  0
 42 43  4  0  0  0
  2 44  1  0  0  0
  5 45  1  0  0  0
  6 46  1  0  0  0
  8 47  1  0  0  0
  8 48  1  0  0  0
  9 49  1  0  0  0
  9 50  1  0  0  0
 10 51  1  0  0  0
 10 52  1  0  0  0
 14 53  1  0  0  0
 15 54  1  0  0  0
 16 55  1  0  0  0
 16 56  1  0  0  0
 17 57  1  0  0  0
 17 58  1  0  0  0
 17 59  1  0  0  0
 22 60  1  0  0  0
 26 61  1  0  0  0
 27 62  1  0  0  0
 27 63  1  0  0  0
 27 64  1  0  0  0
 28 65  1  0  0  0
 28 66  1  0  0  0
 28 67  1  0  0  0
 29 68  1  0  0  0
 30 69  1  0  0  0
 31 70  1  0  0  0
 33 71  1  0  0  0
 34 72  1  0  0  0
 36 73  1  0  0  0
 39 74  1  0  0  0
 40 75  1  0  0  0
 41 76  1  0  0  0
 42 77  1  0  0  0
 43 78  1  0  0  0
M  END
$$$$
