3tlh_ligand
  -I-interpret- 

 66 67  0  0  0  0  0  0  0  0999 V2000
  -10.8980   15.6660   28.1900 C   0  0  0  0  0
  -10.6990   17.0740   27.5780 C   0  0  0  0  0
  -11.6950   17.9760   28.0890 O   0  0  0  0  0
  -12.2740   15.1240   27.7430 C   0  0  0  0  0
  -12.4980   13.6760   28.1510 C   0  0  0  0  0
  -13.4090   13.3590   29.1750 C   0  0  0  0  0
  -13.6320   12.0100   29.5310 C   0  0  0  0  0
  -12.8530   11.0060   28.9270 C   0  0  0  0  0
  -11.9990   11.3240   27.8520 C   0  0  0  0  0
  -11.7950   12.6610   27.4670 C   0  0  0  0  0
  -10.8640   15.6730   29.6610 N   0  0  0  0  0
  -10.1580   15.1010   31.9390 C   0  0  0  0  0
  -10.0020   14.9730   30.3970 C   0  0  0  0  0
   -9.1330   14.2470   29.9260 O   0  0  0  0  0
   -8.8090   15.3800   32.6590 C   0  0  0  0  0
   -8.1090   16.5860   32.0050 C   0  0  0  0  0
   -9.0100   15.6490   34.1650 C   0  0  0  0  0
  -10.7810   13.8790   32.5180 N   0  0  0  0  0
  -11.9140   13.9480   33.2250 C   0  0  0  0  0
  -12.2480   15.0360   33.6770 O   0  0  0  0  0
  -12.6740   12.5910   33.3750 C   0  0  0  0  0
  -14.1920   12.7440   33.5010 C   0  0  0  0  0
  -12.2180   11.8320   34.5640 N   0  0  0  0  0
  -12.4200   12.1700   35.8190 C   0  0  0  0  0
  -13.2290   13.0360   36.1140 O   0  0  0  0  0
  -11.6970   11.4700   36.7340 O   0  0  0  0  0
  -12.4270   11.2850   37.9560 C   0  0  0  0  0
  -12.8110    9.8050   37.9640 C   0  0  0  0  0
  -11.9130    8.8230   38.4190 C   0  0  0  0  0
  -12.2810    7.4590   38.4450 C   0  0  0  0  0
  -13.5420    7.0720   37.9440 C   0  0  0  0  0
  -14.4580    8.0550   37.5130 C   0  0  0  0  0
  -14.0920    9.4160   37.5090 C   0  0  0  0  0
  -10.0771   15.0401   27.8400 H   0  0  0  0  0
  -10.7938   17.0111   26.4940 H   0  0  0  0  0
   -9.7089   17.4444   27.8437 H   0  0  0  0  0
  -11.5645   18.8460   27.7048 H   0  0  0  0  0
  -12.3152   15.1744   26.6549 H   0  0  0  0  0
  -13.0431   15.7289   28.2233 H   0  0  0  0  0
  -13.9432   14.1547   29.6942 H   0  0  0  0  0
  -14.3967   11.7508   30.2632 H   0  0  0  0  0
  -12.9101    9.9803   29.2912 H   0  0  0  0  0
  -11.4908   10.5245   27.3128 H   0  0  0  0  0
  -11.1084   12.9083   26.6574 H   0  0  0  0  0
  -11.5461   16.2527   30.1500 H   0  0  0  0  0
  -10.8098   15.9589   32.1043 H   0  0  0  0  0
   -8.1873   14.4904   32.5581 H   0  0  0  0  0
   -7.9193   16.3683   30.9540 H   0  0  0  0  0
   -8.7498   17.4640   32.0855 H   0  0  0  0  0
   -7.1642   16.7762   32.5143 H   0  0  0  0  0
   -9.6547   16.5183   34.2946 H   0  0  0  0  0
   -9.4736   14.7787   34.6295 H   0  0  0  0  0
   -8.0432   15.8393   34.6310 H   0  0  0  0  0
  -10.3356   12.9729   32.3728 H   0  0  0  0  0
  -12.4429   12.0573   32.4531 H   0  0  0  0  0
  -14.4236   13.3444   34.3808 H   0  0  0  0  0
  -14.5814   13.2371   32.6103 H   0  0  0  0  0
  -14.6481   11.7591   33.6014 H   0  0  0  0  0
  -11.7008   10.9696   34.3934 H   0  0  0  0  0
  -13.3035   11.9311   38.0059 H   0  0  0  0  0
  -11.8311   11.5535   38.8283 H   0  0  0  0  0
  -10.9194    9.1181   38.7563 H   0  0  0  0  0
  -11.5969    6.7125   38.8485 H   0  0  0  0  0
  -13.8079    6.0163   37.8900 H   0  0  0  0  0
  -15.4537    7.7603   37.1815 H   0  0  0  0  0
  -14.7965   10.1687   37.1551 H   0  0  0  0  0
  1  2  1  0  0  0
  1  4  1  0  0  0
  1 11  1  0  0  0
  2  3  1  0  0  0
  4  5  1  0  0  0
  5  6  4  0  0  0
  5 10  4  0  0  0
  6  7  4  0  0  0
  7  8  4  0  0  0
  8  9  4  0  0  0
  9 10  4  0  0  0
 11 13  1  0  0  0
 13 12  1  0  0  0
 12 15  1  0  0  0
 12 18  1  0  0  0
 13 14  2  0  0  0
 15 16  1  0  0  0
 15 17  1  0  0  0
 18 19  1  0  0  0
 19 20  2  0  0  0
 19 21  1  0  0  0
 21 22  1  0  0  0
 21 23  1  0  0  0
 23 24  1  0  0  0
 24 25  2  0  0  0
 24 26  1  0  0  0
 26 27  1  0  0  0
 27 28  1  0  0  0
 28 29  4  0  0  0
 28 33  4  0  0  0
 29 30  4  0  0  0
 30 31  4  0  0  0
 31 32  4  0  0  0
 32 33  4  0  0  0
  1 34  1  0  0  0
  2 35  1  0  0  0
  2 36  1  0  0  0
  3 37  1  0  0  0
  4 38  1  0  0  0
  4 39  1  0  0  0
  6 40  1  0  0  0
  7 41  1  0  0  0
  8 42  1  0  0  0
  9 43  1  0  0  0
 10 44  1  0  0  0
 11 45  1  0  0  0
 12 46  1  0  0  0
 15 47  1  0  0  0
 16 48  1  0  0  0
 16 49  1  0  0  0
 16 50  1  0  0  0
 17 51  1  0  0  0
 17 52  1  0  0  0
 17 53  1  0  0  0
 18 54  1  0  0  0
 21 55  1  0  0  0
 22 56  1  0  0  0
 22 57  1  0  0  0
 22 58  1  0  0  0
 23 59  1  0  0  0
 27 60  1  0  0  0
 27 61  1  0  0  0
 29 62  1  0  0  0
 30 63  1  0  0  0
 31 64  1  0  0  0
 32 65  1  0  0  0
 33 66  1  0  0  0
M  END
$$$$
