6br2_ligand
  -I-interpret- 

 63 66  0  0  0  0  0  0  0  0999 V2000
  -12.9770  -26.9890   -0.3990 C   0  0  0  0  0
  -11.8080  -26.5530    0.2100 C   0  0  0  0  0
  -11.7760  -26.2770    1.5850 C   0  0  0  0  0
  -10.4740  -25.8260    2.2340 C   0  0  0  0  0
  -12.0950  -24.9460    4.0390 C   0  0  0  0  0
  -14.1100  -26.8960    1.7240 C   0  0  0  0  0
  -10.1180  -22.3300    4.9940 C   0  0  0  0  0
   -8.3890  -28.8820    1.3160 C   0  0  0  0  0
   -7.3080  -30.5290   -0.1020 C   0  0  0  0  0
  -16.2080  -26.6630   -0.8870 C   0  0  0  0  0
  -15.3190  -27.5930   -0.2370 O   0  0  0  0  0
  -14.1520  -27.1590    0.3510 C   0  0  0  0  0
  -10.7070  -25.0860    3.5040 N   0  0  0  0  0
  -12.9530  -26.1860    3.8120 C   0  0  0  0  0
  -12.9270  -26.4640    2.3350 C   0  0  0  0  0
   -9.6500  -24.5240    4.1630 C   0  0  0  0  0
   -8.5280  -24.6330    3.7150 O   0  0  0  0  0
   -9.7990  -23.7300    5.4440 C   0  0  0  0  0
  -11.3300  -21.7270    5.0120 C   0  0  0  0  0
  -11.0860  -20.4420    4.4590 C   0  0  0  0  0
  -11.9950  -19.4500    4.2660 O   0  0  0  0  0
   -9.8080  -20.4090    4.1750 N   0  0  0  0  0
   -9.2600  -21.4530    4.4570 O   0  0  0  0  0
   -9.7740  -27.1460    2.4290 C   0  0  0  0  0
   -9.9350  -27.7390    3.4740 O   0  0  0  0  0
   -9.0040  -27.6250    1.4100 N   0  0  0  0  0
   -7.8500  -29.2590    0.0860 C   0  0  0  0  0
   -7.3160  -31.4780    0.9190 C   0  0  0  0  0
   -7.8980  -31.1070    2.1490 C   0  0  0  0  0
   -7.9630  -31.9560    3.1970 F   0  0  0  0  0
   -8.4370  -29.8380    2.3350 C   0  0  0  0  0
   -6.7360  -32.8700    0.6710 C   0  0  0  0  0
   -6.2070  -33.0600   -0.7560 C   0  0  0  0  0
   -5.6070  -33.2480    1.6250 C   0  0  0  0  0
   -7.8480  -33.9090    0.8350 C   0  0  0  0  0
  -12.9828  -27.2011   -1.4681 H   0  0  0  0  0
  -10.9051  -26.4237   -0.3869 H   0  0  0  0  0
   -9.8963  -25.1130    1.6459 H   0  0  0  0  0
  -12.5689  -24.1156    3.5157 H   0  0  0  0  0
  -12.0203  -24.7879    5.1149 H   0  0  0  0  0
  -15.0092  -27.0290    2.3255 H   0  0  0  0  0
   -6.8692  -30.7853   -1.0663 H   0  0  0  0  0
  -16.5459  -25.9200   -0.1646 H   0  0  0  0  0
  -15.6802  -26.1663   -1.7011 H   0  0  0  0  0
  -17.0678  -27.2019   -1.2851 H   0  0  0  0  0
  -13.9732  -26.0214    4.1586 H   0  0  0  0  0
  -12.5649  -27.0354    4.3742 H   0  0  0  0  0
  -10.5802  -24.1378    6.0855 H   0  0  0  0  0
   -8.8940  -23.7648    6.0505 H   0  0  0  0  0
  -12.2759  -22.1343    5.3690 H   0  0  0  0  0
   -9.3324  -19.6042    3.7669 H   0  0  0  0  0
   -8.8581  -26.9936    0.6223 H   0  0  0  0  0
   -7.8528  -28.5491   -0.7411 H   0  0  0  0  0
   -8.9028  -29.5858    3.2876 H   0  0  0  0  0
   -7.0201  -32.9106   -1.4664 H   0  0  0  0  0
   -5.4165  -32.3347   -0.9487 H   0  0  0  0  0
   -5.8098  -34.0693   -0.8635 H   0  0  0  0  0
   -4.7901  -32.5340    1.5202 H   0  0  0  0  0
   -5.9777  -33.2301    2.6499 H   0  0  0  0  0
   -5.2494  -34.2491    1.3841 H   0  0  0  0  0
   -8.2501  -33.8523    1.8465 H   0  0  0  0  0
   -8.6413  -33.7069    0.1154 H   0  0  0  0  0
   -7.4416  -34.9051    0.6595 H   0  0  0  0  0
  2  1  4  0  0  0
  1 12  4  0  0  0
  3  2  4  0  0  0
  4  3  1  0  0  0
  3 15  4  0  0  0
  4 13  1  0  0  0
 24  4  1  0  0  0
 13  5  1  0  0  0
  5 14  1  0  0  0
  6 12  4  0  0  0
 15  6  4  0  0  0
 18  7  1  0  0  0
  7 19  2  0  0  0
  7 23  1  0  0  0
 26  8  1  0  0  0
  8 27  4  0  0  0
  8 31  4  0  0  0
 27  9  4  0  0  0
  9 28  4  0  0  0
 11 10  1  0  0  0
 12 11  1  0  0  0
 13 16  1  0  0  0
 15 14  1  0  0  0
 16 17  2  0  0  0
 16 18  1  0  0  0
 19 20  1  0  0  0
 20 21  2  0  0  0
 22 20  1  0  0  0
 23 22  1  0  0  0
 24 25  2  0  0  0
 24 26  1  0  0  0
 28 29  4  0  0  0
 28 32  1  0  0  0
 29 30  1  0  0  0
 29 31  4  0  0  0
 32 33  1  0  0  0
 32 34  1  0  0  0
 32 35  1  0  0  0
  1 36  1  0  0  0
  2 37  1  0  0  0
  4 38  1  0  0  0
  5 39  1  0  0  0
  5 40  1  0  0  0
  6 41  1  0  0  0
  9 42  1  0  0  0
 10 43  1  0  0  0
 10 44  1  0  0  0
 10 45  1  0  0  0
 14 46  1  0  0  0
 14 47  1  0  0  0
 18 48  1  0  0  0
 18 49  1  0  0  0
 19 50  1  0  0  0
 22 51  1  0  0  0
 26 52  1  0  0  0
 27 53  1  0  0  0
 31 54  1  0  0  0
 33 55  1  0  0  0
 33 56  1  0  0  0
 33 57  1  0  0  0
 34 58  1  0  0  0
 34 59  1  0  0  0
 34 60  1  0  0  0
 35 61  1  0  0  0
 35 62  1  0  0  0
 35 63  1  0  0  0
M  END
$$$$
