5gic_ligand
  -I-interpret- 

 89 93  0  0  0  0  0  0  0  0999 V2000
  -11.9370   -2.9410   -8.2970 O   0  0  0  0  0
  -12.2580   -1.9640   -7.6350 C   0  0  0  0  0
  -11.9360   -1.8090   -6.1790 C   0  0  0  0  0
  -12.8970   -2.4970   -5.3790 O   0  0  0  0  0
  -10.5410   -2.3260   -5.8600 C   0  0  0  0  0
  -12.0880   -0.3120   -5.9460 C   0  0  0  0  0
  -12.8290    0.2630   -7.1570 C   0  0  0  0  0
  -12.9260   -0.8920   -8.0480 N   0  0  0  0  0
  -13.7600   -0.6920   -9.2290 C   0  0  0  0  0
  -12.8550   -0.8970  -10.4400 C   0  0  0  0  0
  -12.0040    0.3400  -10.6170 C   0  0  0  0  0
  -10.6200    0.2330  -10.7130 C   0  0  0  0  0
   -9.8380    1.3730  -10.8730 C   0  0  0  0  0
  -10.4440    2.6220  -10.9410 C   0  0  0  0  0
  -11.8290    2.7280  -10.8460 C   0  0  0  0  0
  -12.6110    1.5890  -10.6870 C   0  0  0  0  0
  -14.2300    0.7230   -6.7400 C   0  0  0  0  0
  -14.1420    2.2030   -6.3550 C   0  0  0  0  0
  -13.3070    2.8860   -7.4430 C   0  0  0  0  0
  -15.5070    2.8690   -6.0770 C   0  0  0  0  0
  -15.4690    4.3400   -5.6530 C   0  0  0  0  0
  -14.3310    4.5790   -4.6620 C   0  0  0  0  0
  -16.7750    4.5290   -4.8980 C   0  0  0  0  0
  -16.9140    3.2630   -4.0620 C   0  0  0  0  0
  -16.2900    2.1770   -4.9530 C   0  0  0  0  0
  -15.4380    5.3610   -6.7860 C   0  0  0  0  0
  -15.5660    6.7910   -6.2660 C   0  0  0  0  0
  -16.7960    6.9920   -5.3850 C   0  0  0  0  0
  -16.7930    5.9310   -4.3180 C   0  0  0  0  0
  -16.7990    6.3950   -3.0480 C   0  0  0  0  0
  -16.7650    5.6700   -1.7840 C   0  0  0  0  0
  -16.6350    6.3560   -0.6290 C   0  0  0  0  0
  -16.5830    5.6720    0.5050 C   0  0  0  0  0
  -16.0670    4.4650    0.4940 C   0  0  0  0  0
  -17.0900    6.2440    1.7880 C   0  0  0  0  0
  -16.6290    5.4310    2.8720 O   0  0  0  0  0
  -16.5100    7.6410    1.9090 C   0  0  0  0  0
  -16.9920    8.4750    0.7300 C   0  0  0  0  0
  -18.4200    8.5380    0.8060 O   0  0  0  0  0
  -16.5560    7.8710   -0.6120 C   0  0  0  0  0
  -12.8096   -3.4428   -5.5186 H   0  0  0  0  0
   -9.8131   -1.8179   -6.4926 H   0  0  0  0  0
  -10.3131   -2.1302   -4.8122 H   0  0  0  0  0
  -10.5009   -3.3990   -6.0475 H   0  0  0  0  0
  -11.1118    0.1598   -5.8343 H   0  0  0  0  0
  -12.6458   -0.1213   -5.0291 H   0  0  0  0  0
  -12.3348    1.1236   -7.6078 H   0  0  0  0  0
  -14.1965    0.3068   -9.2333 H   0  0  0  0  0
  -14.5929   -1.3950   -9.2415 H   0  0  0  0  0
  -13.4588   -1.0643  -11.3319 H   0  0  0  0  0
  -12.2182   -1.7680  -10.2857 H   0  0  0  0  0
  -10.1465   -0.7475  -10.6627 H   0  0  0  0  0
   -8.7538    1.2867  -10.9448 H   0  0  0  0  0
   -9.8357    3.5174  -11.0685 H   0  0  0  0  0
  -12.3027    3.7084  -10.8965 H   0  0  0  0  0
  -13.6954    1.6751  -10.6175 H   0  0  0  0  0
  -14.5861    0.1330   -5.8955 H   0  0  0  0  0
  -14.9330    0.5871   -7.5618 H   0  0  0  0  0
  -13.6513    2.3132   -5.3880 H   0  0  0  0  0
  -12.3166    2.4322   -7.4776 H   0  0  0  0  0
  -13.7987    2.7623   -8.4079 H   0  0  0  0  0
  -13.2138    3.9478   -7.2148 H   0  0  0  0  0
  -15.9776    2.7765   -7.0558 H   0  0  0  0  0
  -14.4833    3.9581   -3.7792 H   0  0  0  0  0
  -13.3820    4.3193   -5.1310 H   0  0  0  0  0
  -14.3187    5.6294   -4.3713 H   0  0  0  0  0
  -17.7195    4.5681   -5.4407 H   0  0  0  0  0
  -17.9496    3.0458   -3.8004 H   0  0  0  0  0
  -16.4203    3.3446   -3.0936 H   0  0  0  0  0
  -15.6225    1.5477   -4.3643 H   0  0  0  0  0
  -17.0711    1.5447   -5.3752 H   0  0  0  0  0
  -16.2795    5.1616   -7.4495 H   0  0  0  0  0
  -14.4830    5.2692   -7.3033 H   0  0  0  0  0
  -15.6607    7.4522   -7.1273 H   0  0  0  0  0
  -14.6843    7.0070   -5.6626 H   0  0  0  0  0
  -17.7022    6.9149   -5.9857 H   0  0  0  0  0
  -16.7704    7.9812   -4.9280 H   0  0  0  0  0
  -16.8349    7.4804   -2.9549 H   0  0  0  0  0
  -16.8439    4.5829   -1.7717 H   0  0  0  0  0
  -15.6905    4.0417   -0.4372 H   0  0  0  0  0
  -16.0150    3.8861    1.4161 H   0  0  0  0  0
  -18.1793    6.2757    1.8110 H   0  0  0  0  0
  -16.9510    5.7924    3.7010 H   0  0  0  0  0
  -15.4212    7.5908    1.9059 H   0  0  0  0  0
  -16.8371    8.0975    2.8432 H   0  0  0  0  0
  -16.5515    9.4707    0.7820 H   0  0  0  0  0
  -18.7556    9.0593    0.0731 H   0  0  0  0  0
  -17.2286    8.2488   -1.3820 H   0  0  0  0  0
  -15.5170    8.1528   -0.7828 H   0  0  0  0  0
  1  2  2  0  0  0
  2  3  1  0  0  0
  2  8  1  0  0  0
  3  4  1  0  0  0
  3  5  1  0  0  0
  3  6  1  0  0  0
  6  7  1  0  0  0
  7  8  1  0  0  0
  7 17  1  0  0  0
  8  9  1  0  0  0
  9 10  1  0  0  0
 10 11  1  0  0  0
 11 12  4  0  0  0
 11 16  4  0  0  0
 12 13  4  0  0  0
 13 14  4  0  0  0
 14 15  4  0  0  0
 15 16  4  0  0  0
 17 18  1  0  0  0
 18 19  1  0  0  0
 18 20  1  0  0  0
 20 21  1  0  0  0
 20 25  1  0  0  0
 21 22  1  0  0  0
 21 23  1  0  0  0
 21 26  1  0  0  0
 23 24  1  0  0  0
 23 29  1  0  0  0
 24 25  1  0  0  0
 26 27  1  0  0  0
 27 28  1  0  0  0
 28 29  1  0  0  0
 29 30  2  0  0  0
 30 31  1  0  0  0
 31 32  2  0  0  0
 32 33  1  0  0  0
 32 40  1  0  0  0
 33 34  2  0  0  0
 33 35  1  0  0  0
 35 36  1  0  0  0
 35 37  1  0  0  0
 37 38  1  0  0  0
 38 39  1  0  0  0
 38 40  1  0  0  0
  4 41  1  0  0  0
  5 42  1  0  0  0
  5 43  1  0  0  0
  5 44  1  0  0  0
  6 45  1  0  0  0
  6 46  1  0  0  0
  7 47  1  0  0  0
  9 48  1  0  0  0
  9 49  1  0  0  0
 10 50  1  0  0  0
 10 51  1  0  0  0
 12 52  1  0  0  0
 13 53  1  0  0  0
 14 54  1  0  0  0
 15 55  1  0  0  0
 16 56  1  0  0  0
 17 57  1  0  0  0
 17 58  1  0  0  0
 18 59  1  0  0  0
 19 60  1  0  0  0
 19 61  1  0  0  0
 19 62  1  0  0  0
 20 63  1  0  0  0
 22 64  1  0  0  0
 22 65  1  0  0  0
 22 66  1  0  0  0
 23 67  1  0  0  0
 24 68  1  0  0  0
 24 69  1  0  0  0
 25 70  1  0  0  0
 25 71  1  0  0  0
 26 72  1  0  0  0
 26 73  1  0  0  0
 27 74  1  0  0  0
 27 75  1  0  0  0
 28 76  1  0  0  0
 28 77  1  0  0  0
 30 78  1  0  0  0
 31 79  1  0  0  0
 34 80  1  0  0  0
 34 81  1  0  0  0
 35 82  1  0  0  0
 36 83  1  0  0  0
 37 84  1  0  0  0
 37 85  1  0  0  0
 38 86  1  0  0  0
 39 87  1  0  0  0
 40 88  1  0  0  0
 40 89  1  0  0  0
M  END
$$$$
