2q2z_ligand
  -I-interpret- 

 69 72  0  0  0  0  0  0  0  0999 V2000
   21.9390   16.3780  106.8010 C   0  0  0  0  0
   20.8940   16.2580  107.7810 C   0  0  0  0  0
   20.8550   15.0040  108.6450 C   0  0  0  0  0
   21.7960   14.0510  108.4120 C   0  0  0  0  0
   22.8530   14.0980  107.5250 C   0  0  0  0  0
   22.8710   15.2870  106.7010 C   0  0  0  0  0
   19.8030   14.9600  109.5910 N   0  3  0  0  0
   19.2370   15.9940  110.1130 N   0  0  0  0  0
   18.1900   15.9200  110.9110 C   0  0  0  0  0
   17.9360   14.4530  110.9630 C   0  0  0  0  0
   19.2200   13.8630  110.3100 C   0  0  0  0  0
   18.0440   13.9180  112.3780 C   0  0  0  0  0
   17.0780   12.9400  112.8250 C   0  0  0  0  0
   17.2430   12.4510  114.1900 C   0  0  0  0  0
   18.3700   13.0050  115.0340 C   0  0  0  0  0
   19.3710   13.9870  114.6170 C   0  0  0  0  0
   19.1400   14.4120  113.2510 C   0  0  0  0  0
   17.5020   17.1510  111.5140 C   0  0  0  0  0
   18.2350   18.4940  111.1570 C   0  0  0  0  0
   16.4600   17.1550  112.2320 O   0  0  0  0  0
   21.7890   12.9590  109.0780 F   0  0  0  0  0
   22.1930   17.4780  105.9020 C   0  0  0  0  0
   16.6190   14.2230  110.1310 C   0  0  0  0  0
   16.5880   15.0110  108.8600 C   0  0  0  0  0
   15.2640   14.9690  108.0520 C   0  0  0  0  0
   15.6040   14.5620  106.6140 N   0  3  0  0  0
   14.6410   13.4540  106.1960 C   0  0  0  0  0
   15.7160   15.7320  105.6520 C   0  0  0  0  0
   14.2990   16.3190  105.3890 C   0  0  0  0  0
   13.2460   14.2040  106.3050 C   0  0  0  0  0
   13.2750   15.1750  105.1600 N   0  0  0  0  0
   12.3950   14.8750  104.0090 C   0  0  0  0  0
   11.4650   13.6430  104.1160 C   0  0  0  0  0
   12.2950   15.5300  102.9640 O   0  0  0  0  0
   20.1488   17.0441  107.9027 H   0  0  0  0  0
   23.6045   13.3119  107.4523 H   0  0  0  0  0
   23.6524   15.3620  105.9448 H   0  0  0  0  0
   17.5065   16.4121  111.6029 H   0  0  0  0  0
   19.9042   13.4568  111.0550 H   0  0  0  0  0
   18.9922   13.0230  109.6538 H   0  0  0  0  0
   16.2729   12.5881  112.1799 H   0  0  0  0  0
   16.5656   11.6991  114.5948 H   0  0  0  0  0
   18.4435   12.6348  116.0566 H   0  0  0  0  0
   20.1816   14.3501  115.2488 H   0  0  0  0  0
   19.8229   15.1509  112.8317 H   0  0  0  0  0
   17.5511   19.1465  110.6143 H   0  0  0  0  0
   18.5570   18.9858  112.0749 H   0  0  0  0  0
   19.1037   18.2781  110.5350 H   0  0  0  0  0
   21.3245   17.6298  105.2611 H   0  0  0  0  0
   22.3817   18.3823  106.4806 H   0  0  0  0  0
   23.0640   17.2498  105.2877 H   0  0  0  0  0
   15.7775   14.5464  110.7437 H   0  0  0  0  0
   16.5714   13.1661  109.8686 H   0  0  0  0  0
   17.3496   14.5733  108.2147 H   0  0  0  0  0
   16.7339   16.0524  109.1467 H   0  0  0  0  0
   14.7825   15.9468  108.0643 H   0  0  0  0  0
   14.5736   14.2511  108.4948 H   0  0  0  0  0
   16.5511   14.1852  106.5763 H   0  0  0  0  0
   14.7078   12.5573  106.8121 H   0  0  0  0  0
   14.8443   13.0445  105.2065 H   0  0  0  0  0
   16.1500   15.3912  104.7120 H   0  0  0  0  0
   16.3549   16.5012  106.0858 H   0  0  0  0  0
   14.3342   16.9480  104.4995 H   0  0  0  0  0
   13.9903   16.9044  106.2551 H   0  0  0  0  0
   13.1134   14.6988  107.2671 H   0  0  0  0  0
   12.3997   13.5193  106.2489 H   0  0  0  0  0
   10.4261   13.9671  104.0543 H   0  0  0  0  0
   11.6811   12.9542  103.2993 H   0  0  0  0  0
   11.6349   13.1428  105.0695 H   0  0  0  0  0
  1  2  4  0  0  0
  1  6  4  0  0  0
  1 22  1  0  0  0
  2  3  4  0  0  0
  3  4  4  0  0  0
  3  7  1  0  0  0
  4  5  4  0  0  0
  4 21  1  0  0  0
  5  6  4  0  0  0
  7  8  2  0  0  0
  7 11  1  0  0  0
  8  9  1  0  0  0
  9 10  1  0  0  0
  9 18  1  0  0  0
 10 11  1  0  0  0
 10 12  1  0  0  0
 10 23  1  0  0  0
 12 13  4  0  0  0
 12 17  4  0  0  0
 13 14  4  0  0  0
 14 15  4  0  0  0
 15 16  4  0  0  0
 16 17  4  0  0  0
 18 19  1  0  0  0
 18 20  2  0  0  0
 23 24  1  0  0  0
 24 25  1  0  0  0
 25 26  1  0  0  0
 26 27  1  0  0  0
 26 28  1  0  0  0
 27 30  1  0  0  0
 28 29  1  0  0  0
 29 31  1  0  0  0
 30 31  1  0  0  0
 31 32  1  0  0  0
 32 33  1  0  0  0
 32 34  2  0  0  0
  2 35  1  0  0  0
  5 36  1  0  0  0
  6 37  1  0  0  0
  9 38  1  0  0  0
 11 39  1  0  0  0
 11 40  1  0  0  0
 13 41  1  0  0  0
 14 42  1  0  0  0
 15 43  1  0  0  0
 16 44  1  0  0  0
 17 45  1  0  0  0
 19 46  1  0  0  0
 19 47  1  0  0  0
 19 48  1  0  0  0
 22 49  1  0  0  0
 22 50  1  0  0  0
 22 51  1  0  0  0
 23 52  1  0  0  0
 23 53  1  0  0  0
 24 54  1  0  0  0
 24 55  1  0  0  0
 25 56  1  0  0  0
 25 57  1  0  0  0
 26 58  1  0  0  0
 27 59  1  0  0  0
 27 60  1  0  0  0
 28 61  1  0  0  0
 28 62  1  0  0  0
 29 63  1  0  0  0
 29 64  1  0  0  0
 30 65  1  0  0  0
 30 66  1  0  0  0
 33 67  1  0  0  0
 33 68  1  0  0  0
 33 69  1  0  0  0
M  END
$$$$
