### 
### Created by X-TOOL on Mon Aug  2 16:11:10 2021
### 

@<TRIPOS>MOLECULE
6p7q_ligand
   68    73     1     0     0
SMALL
GAST_HUCK


@<TRIPOS>ATOM
      1 OP3        -2.3330    2.9000   16.0380 O.co2     1 A          -0.5537
      2 P          -1.2490    3.8570   16.5610 P.3       1 A           0.2008
      3 OP1        -1.5050    4.1380   17.9930 O.co2     1 A          -0.5537
      4 OP2        -1.2590    4.9260   15.5800 O.co2     1 A          -0.5537
      5 O5'         0.0980    3.0170   16.5630 O.3       1 A          -0.2734
      6 C5'         0.5710    2.3850   15.3640 C.3       1 A           0.1075
      7 C4'         2.0900    2.2880   15.3330 C.3       1 A           0.1235
      8 O4'         2.6390    3.6240   15.4910 O.3       1 A          -0.3360
      9 C3'         2.6780    1.4370   16.4630 C.3       1 A           0.1539
     10 O3'         3.7460    0.6140   16.0010 O.3       1 A          -0.2453
     11 C2'         3.1630    2.4820   17.4880 C.3       1 A           0.1439
     12 O2'         4.2790    2.0940   18.2670 O.3       1 A          -0.3832
     13 C1'         3.5170    3.6680   16.6000 C.3       1 A           0.2014
     14 N9          3.3610    4.9700   17.2800 N.pl3     1 A          -0.1919
     15 C8          2.2190    5.7330   17.2900 C.2       1 A           0.1123
     16 N7          2.3130    6.8440   17.9390 N.2       1 A          -0.2958
     17 C5          3.6130    6.8610   18.3950 C.ar      1 A           0.1045
     18 C6          4.3160    7.7680   19.1600 C.ar      1 A           0.1298
     19 N6          3.7960    8.9000   19.5970 N.pl3     1 A          -0.3152
     20 N1          5.6050    7.4720   19.4460 N.ar      1 A          -0.2698
     21 C2          6.1230    6.3370   18.9740 C.ar      1 A           0.0533
     22 N3          5.5560    5.3630   18.2350 N.ar      1 A          -0.2714
     23 C4          4.2780    5.6920   17.9800 C.ar      1 A           0.1613
     24 P           3.9120   -0.9200   16.5760 P.3       1 A           0.2557
     25 OP1         4.1200   -0.8410   18.0490 O.co2     1 A          -0.6177
     26 OP2         4.8180   -1.6190   15.6860 O.co2     1 A          -0.6177
     27 O5'         2.4470   -1.5160   16.4700 O.3       1 A          -0.2514
     28 C5'         1.8770   -1.8970   15.2210 C.3       1 A           0.1124
     29 C4'         0.8320   -2.9800   15.3820 C.3       1 A           0.1189
     30 O4'         1.5200   -4.2530   15.4900 O.3       1 A          -0.3364
     31 C3'        -0.0400   -2.8450   16.6320 C.3       1 A           0.1149
     32 O3'        -1.3830   -3.1720   16.3350 O.3       1 A          -0.3864
     33 C2'         0.5670   -3.8320   17.6300 C.3       1 A           0.1385
     34 O2'        -0.3380   -4.4130   18.5570 O.3       1 A          -0.3836
     35 C1'         1.2200   -4.8820   16.7240 C.3       1 A           0.2010
     36 N9          2.4910   -5.3500   17.2930 N.pl3     1 A          -0.1919
     37 C8          3.7050   -4.7080   17.2420 C.2       1 A           0.1123
     38 N7          4.6620   -5.3530   17.8460 N.2       1 A          -0.2958
     39 C5          4.0320   -6.4800   18.3240 C.ar      1 A           0.1045
     40 C6          4.4730   -7.5600   19.0620 C.ar      1 A           0.1298
     41 N6          5.7290   -7.7080   19.4630 N.pl3     1 A          -0.3152
     42 N1          3.5810   -8.5080   19.3730 N.ar      1 A          -0.2698
     43 C2          2.3160   -8.3920   18.9570 C.ar      1 A           0.0533
     44 N3          1.7460   -7.4020   18.2560 N.ar      1 A          -0.2714
     45 C4          2.6780   -6.4800   17.9770 C.ar      1 A           0.1613
     46 H1          0.2347    2.9718   14.4965 H         1 A           0.0639
     47 H2          0.1490    1.3708   15.3066 H         1 A           0.0639
     48 H3          2.3972    1.8634   14.3659 H         1 A           0.0654
     49 H4          1.9014    0.7961   16.9059 H         1 A           0.0712
     50 H5          2.3411    2.7398   18.1721 H         1 A           0.0680
     51 H6          5.0161    1.9148   17.6951 H         1 A           0.2101
     52 H7          4.5587    3.5678   16.2612 H         1 A           0.0996
     53 H8          1.3034    5.4236   16.7881 H         1 A           0.1349
     54 H9          4.3656    9.5428   20.1656 H         1 A           0.1820
     55 H10         2.8207    9.1404   19.3694 H         1 A           0.1820
     56 H11         7.1647    6.1720   19.2244 H         1 A           0.0996
     57 H12         2.6769   -2.2700   14.5645 H         1 A           0.0647
     58 H13         1.4067   -1.0152   14.7614 H         1 A           0.0647
     59 H14         0.1823   -2.9742   14.4944 H         1 A           0.0651
     60 H15         0.0055   -1.8200   17.0285 H         1 A           0.0648
     61 H16        -1.9104   -3.0833   17.1202 H         1 A           0.2100
     62 H17         1.3420   -3.3149   18.2148 H         1 A           0.0676
     63 H18        -1.0089   -4.8923   18.0850 H         1 A           0.2101
     64 H19         0.5361   -5.7306   16.5751 H         1 A           0.0996
     65 H20         3.8529   -3.7509   16.7439 H         1 A           0.1349
     66 H21         6.0001   -8.5362   20.0121 H         1 A           0.1820
     67 H22         6.4330   -6.9947   19.2252 H         1 A           0.1820
     68 H23         1.6599   -9.2127   19.2237 H         1 A           0.0996
@<TRIPOS>BOND
     1    1    2 ar 
     2    2    3 ar 
     3    2    4 ar 
     4    2    5 1  
     5    5    6 1  
     6    6    7 1  
     7    7    8 1  
     8    7    9 1  
     9    8   13 1  
    10    9   10 1  
    11    9   11 1  
    12   10   24 1  
    13   11   12 1  
    14   11   13 1  
    15   13   14 1  
    16   14   15 1  
    17   14   23 1  
    18   15   16 2  
    19   16   17 1  
    20   17   18 ar 
    21   17   23 ar 
    22   18   19 1  
    23   18   20 ar 
    24   20   21 ar 
    25   21   22 ar 
    26   22   23 ar 
    27   24   25 ar 
    28   24   26 ar 
    29   24   27 1  
    30   27   28 1  
    31   28   29 1  
    32   29   30 1  
    33   29   31 1  
    34   30   35 1  
    35   31   32 1  
    36   31   33 1  
    37   33   34 1  
    38   33   35 1  
    39   35   36 1  
    40   36   37 1  
    41   36   45 1  
    42   37   38 2  
    43   38   39 1  
    44   39   40 ar 
    45   39   45 ar 
    46   40   41 1  
    47   40   42 ar 
    48   42   43 ar 
    49   43   44 ar 
    50   44   45 ar 
    51    6   46 1  
    52    6   47 1  
    53    7   48 1  
    54    9   49 1  
    55   11   50 1  
    56   12   51 1  
    57   13   52 1  
    58   15   53 1  
    59   19   54 1  
    60   19   55 1  
    61   21   56 1  
    62   28   57 1  
    63   28   58 1  
    64   29   59 1  
    65   31   60 1  
    66   32   61 1  
    67   33   62 1  
    68   34   63 1  
    69   35   64 1  
    70   37   65 1  
    71   41   66 1  
    72   41   67 1  
    73   43   68 1  
@<TRIPOS>SUBSTRUCTURE
     1 A           1

