6p7q_ligand
  -I-interpret- 

 71 76  0  0  0  0  0  0  0  0999 V2000
   -2.3330    2.9000   16.0380 O   0  0  0  0  0
   -1.2490    3.8570   16.5610 P   0  0  0  0  0
   -1.5050    4.1380   17.9930 O   0  0  0  0  0
   -1.2590    4.9260   15.5800 O   0  0  0  0  0
    0.0980    3.0170   16.5630 O   0  0  0  0  0
    0.5710    2.3850   15.3640 C   0  0  0  0  0
    2.0900    2.2880   15.3330 C   0  0  0  0  0
    2.6390    3.6240   15.4910 O   0  0  0  0  0
    2.6780    1.4370   16.4630 C   0  0  0  0  0
    3.7460    0.6140   16.0010 O   0  0  0  0  0
    3.1630    2.4820   17.4880 C   0  0  0  0  0
    4.2790    2.0940   18.2670 O   0  0  0  0  0
    3.5170    3.6680   16.6000 C   0  0  0  0  0
    3.3610    4.9700   17.2800 N   0  0  0  0  0
    2.2190    5.7330   17.2900 C   0  0  0  0  0
    2.3130    6.8440   17.9390 N   0  0  0  0  0
    3.6130    6.8610   18.3950 C   0  0  0  0  0
    4.3160    7.7680   19.1600 C   0  0  0  0  0
    3.7960    8.9000   19.5970 N   0  0  0  0  0
    5.6050    7.4720   19.4460 N   0  0  0  0  0
    6.1230    6.3370   18.9740 C   0  0  0  0  0
    5.5560    5.3630   18.2350 N   0  0  0  0  0
    4.2780    5.6920   17.9800 C   0  0  0  0  0
    3.9120   -0.9200   16.5760 P   0  0  0  0  0
    4.1200   -0.8410   18.0490 O   0  0  0  0  0
    4.8180   -1.6190   15.6860 O   0  0  0  0  0
    2.4470   -1.5160   16.4700 O   0  0  0  0  0
    1.8770   -1.8970   15.2210 C   0  0  0  0  0
    0.8320   -2.9800   15.3820 C   0  0  0  0  0
    1.5200   -4.2530   15.4900 O   0  0  0  0  0
   -0.0400   -2.8450   16.6320 C   0  0  0  0  0
   -1.3830   -3.1720   16.3350 O   0  0  0  0  0
    0.5670   -3.8320   17.6300 C   0  0  0  0  0
   -0.3380   -4.4130   18.5570 O   0  0  0  0  0
    1.2200   -4.8820   16.7240 C   0  0  0  0  0
    2.4910   -5.3500   17.2930 N   0  0  0  0  0
    3.7050   -4.7080   17.2420 C   0  0  0  0  0
    4.6620   -5.3530   17.8460 N   0  0  0  0  0
    4.0320   -6.4800   18.3240 C   0  0  0  0  0
    4.4730   -7.5600   19.0620 C   0  0  0  0  0
    5.7290   -7.7080   19.4630 N   0  0  0  0  0
    3.5810   -8.5080   19.3730 N   0  0  0  0  0
    2.3160   -8.3920   18.9570 C   0  0  0  0  0
    1.7460   -7.4020   18.2560 N   0  0  0  0  0
    2.6780   -6.4800   17.9770 C   0  0  0  0  0
   -2.4049    2.1464   16.6284 H   0  0  0  0  0
   -1.4594    3.3190   18.4918 H   0  0  0  0  0
    0.2499    2.9849   14.5125 H   0  0  0  0  0
    0.1637    1.3746   15.3273 H   0  0  0  0  0
    2.3487    1.8195   14.3834 H   0  0  0  0  0
    1.9547    0.7395   16.8854 H   0  0  0  0  0
    2.3988    2.6694   18.2423 H   0  0  0  0  0
    4.5073    2.8032   18.8724 H   0  0  0  0  0
    4.5663    3.5894   16.3157 H   0  0  0  0  0
    1.3026    5.4233   16.7876 H   0  0  0  0  0
    2.8301    9.1381   19.3716 H   0  0  0  0  0
    4.3601    9.5365   20.1601 H   0  0  0  0  0
    7.1705    6.1711   19.2258 H   0  0  0  0  0
    3.4071   -0.3344   18.4450 H   0  0  0  0  0
    2.6741   -2.2840   14.5862 H   0  0  0  0  0
    1.3964   -1.0216   14.7843 H   0  0  0  0  0
    0.1757   -2.8988   14.5156 H   0  0  0  0  0
   -0.0578   -1.8290   17.0263 H   0  0  0  0  0
   -1.9160   -3.0824   17.1284 H   0  0  0  0  0
    1.2581   -3.3221   18.3012 H   0  0  0  0  0
    0.1389   -5.0132   19.1349 H   0  0  0  0  0
    0.5410   -5.7273   16.6117 H   0  0  0  0  0
    3.8530   -3.7501   16.7435 H   0  0  0  0  0
    6.4261   -7.0016   19.2275 H   0  0  0  0  0
    5.9975   -8.5281   20.0068 H   0  0  0  0  0
    1.6563   -9.2172   19.2251 H   0  0  0  0  0
  1  2  1  0  0  0
  2  3  1  0  0  0
  2  4  2  0  0  0
  2  5  1  0  0  0
  5  6  1  0  0  0
  6  7  1  0  0  0
  7  8  1  0  0  0
  7  9  1  0  0  0
  8 13  1  0  0  0
  9 10  1  0  0  0
  9 11  1  0  0  0
 10 24  1  0  0  0
 11 12  1  0  0  0
 11 13  1  0  0  0
 13 14  1  0  0  0
 14 15  4  0  0  0
 14 23  4  0  0  0
 15 16  4  0  0  0
 16 17  4  0  0  0
 17 18  4  0  0  0
 17 23  4  0  0  0
 18 19  1  0  0  0
 18 20  4  0  0  0
 20 21  4  0  0  0
 21 22  4  0  0  0
 22 23  4  0  0  0
 24 25  1  0  0  0
 24 26  2  0  0  0
 24 27  1  0  0  0
 27 28  1  0  0  0
 28 29  1  0  0  0
 29 30  1  0  0  0
 29 31  1  0  0  0
 30 35  1  0  0  0
 31 32  1  0  0  0
 31 33  1  0  0  0
 33 34  1  0  0  0
 33 35  1  0  0  0
 35 36  1  0  0  0
 36 37  4  0  0  0
 36 45  4  0  0  0
 37 38  4  0  0  0
 38 39  4  0  0  0
 39 40  4  0  0  0
 39 45  4  0  0  0
 40 41  1  0  0  0
 40 42  4  0  0  0
 42 43  4  0  0  0
 43 44  4  0  0  0
 44 45  4  0  0  0
  1 46  1  0  0  0
  3 47  1  0  0  0
  6 48  1  0  0  0
  6 49  1  0  0  0
  7 50  1  0  0  0
  9 51  1  0  0  0
 11 52  1  0  0  0
 12 53  1  0  0  0
 13 54  1  0  0  0
 15 55  1  0  0  0
 19 56  1  0  0  0
 19 57  1  0  0  0
 21 58  1  0  0  0
 25 59  1  0  0  0
 28 60  1  0  0  0
 28 61  1  0  0  0
 29 62  1  0  0  0
 31 63  1  0  0  0
 32 64  1  0  0  0
 33 65  1  0  0  0
 34 66  1  0  0  0
 35 67  1  0  0  0
 37 68  1  0  0  0
 41 69  1  0  0  0
 41 70  1  0  0  0
 43 71  1  0  0  0
M  END
$$$$
