1cpi_ligand
  -I-interpret- 

103105  0  0  0  0  0  0  0  0999 V2000
    4.2490    3.3440   10.4910 C   0  0  0  0  0
    4.1140    4.2700   11.3000 O   0  0  0  0  0
    4.8290    3.5710    9.1120 C   0  0  0  0  0
    5.8690    4.6580    9.0570 C   0  0  0  0  0
    3.9120    2.0840   10.7490 N   0  0  0  0  0
    3.3240    1.6650   12.0230 C   0  0  0  0  0
    4.0550    0.4320   12.5450 C   0  0  0  0  0
    3.8610   -0.6810   12.0360 O   0  0  0  0  0
    1.8370    1.3720   11.8290 C   0  0  0  0  0
    1.0780    2.5770   11.2900 C   0  0  0  0  0
    0.7740    3.5130   12.0260 O   0  0  0  0  0
    0.8110    2.5770    9.9930 N   0  0  0  0  0
    4.8980    0.6450   13.5590 N   0  0  0  0  0
    5.6950   -0.4380   14.1710 C   0  0  0  0  0
    5.1730   -0.7350   15.5820 C   0  0  0  0  0
    5.2660    0.4250   16.4280 O   0  0  0  0  0
    7.1400    0.0470   14.2830 C   0  0  0  0  0
    7.5240    0.8130   13.0560 C   0  0  0  0  0
    7.6430    0.1830   11.8220 C   0  0  0  0  0
    7.5550    2.1930   13.0970 C   0  0  0  0  0
    7.7510    0.9180   10.6550 C   0  0  0  0  0
    7.6690    2.9320   11.9650 C   0  0  0  0  0
    7.7530    2.2990   10.7300 C   0  0  0  0  0
    7.7360    3.0770    9.5830 O   0  0  0  0  0
    3.7270   -1.1680   15.4940 C   0  0  0  0  0
    3.5730   -2.6280   15.5040 N   0  3  0  0  0
    4.2990   -3.4650   16.4560 C   0  0  0  0  0
    5.5900   -4.1130   15.9410 C   0  0  0  0  0
    5.8690   -4.1740   14.7250 O   0  0  0  0  0
    3.2690   -4.5380   16.7950 C   0  0  0  0  0
    2.6110   -4.7530   15.4730 C   0  0  0  0  0
    2.4310   -3.3560   14.9190 C   0  0  0  0  0
    6.4040   -4.5230   16.9010 N   0  0  0  0  0
    7.6420   -5.2620   16.6320 C   0  0  0  0  0
    7.4690   -6.3740   17.6280 C   0  0  0  0  0
    7.5770   -6.1410   18.8380 O   0  0  0  0  0
    8.9410   -4.5460   17.0440 C   0  0  0  0  0
    9.1960   -3.3310   16.1680 C   0  0  0  0  0
   10.1040   -5.5230   16.9400 C   0  0  0  0  0
    9.2120   -3.6560   14.7230 C   0  0  0  0  0
    7.1020   -7.5530   17.1500 N   0  0  0  0  0
    6.9450   -8.6850   18.0590 C   0  0  0  0  0
    8.0200   -9.7490   17.8010 C   0  0  0  0  0
    8.3360  -10.0780   16.6430 O   0  0  0  0  0
    5.5150   -9.2710   18.0080 C   0  0  0  0  0
    4.5130   -8.2070   18.3910 C   0  0  0  0  0
    5.2000   -9.8440   16.6210 C   0  0  0  0  0
    8.6340  -10.2480   18.8790 N   0  0  0  0  0
    7.1280    4.3450    9.8830 C   0  0  0  0  0
    4.0085    3.8751    8.4620 H   0  0  0  0  0
    5.3142    2.6434    8.8084 H   0  0  0  0  0
    5.4212    5.5611    9.4718 H   0  0  0  0  0
    6.1775    4.7638    8.0169 H   0  0  0  0  0
    4.0698    1.3791   10.0288 H   0  0  0  0  0
    3.4276    2.4646   12.7564 H   0  0  0  0  0
    1.4137    1.1111   12.7990 H   0  0  0  0  0
    1.7428    0.5613   11.1065 H   0  0  0  0  0
    0.3359    3.3744    9.5701 H   0  0  0  0  0
    1.0804    1.7796    9.4168 H   0  0  0  0  0
    4.9952    1.5921   13.9250 H   0  0  0  0  0
    5.6260   -1.3392   13.5618 H   0  0  0  0  0
    5.7846   -1.5266   16.0150 H   0  0  0  0  0
    4.9330    0.2096   17.3023 H   0  0  0  0  0
    7.7989   -0.8151   14.3865 H   0  0  0  0  0
    7.2320    0.6971   15.1531 H   0  0  0  0  0
    7.6513   -0.9059   11.7736 H   0  0  0  0  0
    7.4864    2.6995   14.0597 H   0  0  0  0  0
    7.8333    0.4163    9.6909 H   0  0  0  0  0
    7.6947    4.0201   12.0236 H   0  0  0  0  0
    3.3217   -0.7945   14.5536 H   0  0  0  0  0
    3.2042   -0.7697   16.3635 H   0  0  0  0  0
    4.1384   -2.3917   14.6886 H   0  0  0  0  0
    4.6590   -2.8625   17.2899 H   0  0  0  0  0
    2.5760   -4.2421   17.5826 H   0  0  0  0  0
    3.7067   -5.4435   17.2152 H   0  0  0  0  0
    1.6641   -5.2849   15.5655 H   0  0  0  0  0
    3.2069   -5.3842   14.8138 H   0  0  0  0  0
    2.4208   -3.3278   13.8294 H   0  0  0  0  0
    1.4678   -2.9160   15.1774 H   0  0  0  0  0
    6.1597   -4.3161   17.8695 H   0  0  0  0  0
    7.7520   -5.4804   15.5698 H   0  0  0  0  0
    8.8419   -4.1997   18.0728 H   0  0  0  0  0
   10.1754   -2.9309   16.4303 H   0  0  0  0  0
    8.3878   -2.6203   16.3407 H   0  0  0  0  0
    9.9258   -6.3699   17.6026 H   0  0  0  0  0
   10.1896   -5.8759   15.9123 H   0  0  0  0  0
   11.0263   -5.0202   17.2309 H   0  0  0  0  0
   10.0008   -4.3814   14.5238 H   0  0  0  0  0
    8.2484   -4.0770   14.4359 H   0  0  0  0  0
    9.3985   -2.7479   14.1497 H   0  0  0  0  0
    6.9298   -7.6700   16.1515 H   0  0  0  0  0
    7.0890   -8.3182   19.0753 H   0  0  0  0  0
    5.4500  -10.0914   18.7227 H   0  0  0  0  0
    4.7245   -7.8575   19.4015 H   0  0  0  0  0
    4.5867   -7.3725   17.6937 H   0  0  0  0  0
    3.5075   -8.6261   18.3531 H   0  0  0  0  0
    5.2790   -9.0525   15.8758 H   0  0  0  0  0
    5.9101  -10.6372   16.3871 H   0  0  0  0  0
    4.1877  -10.2483   16.6176 H   0  0  0  0  0
    9.3904  -10.9233   18.7682 H   0  0  0  0  0
    8.3460   -9.9533   19.8121 H   0  0  0  0  0
    6.8243    4.3142   10.9294 H   0  0  0  0  0
    7.8631    5.1152    9.6495 H   0  0  0  0  0
  1  2  2  0  0  0
  1  3  1  0  0  0
  1  5  1  0  0  0
  3  4  1  0  0  0
  4 49  1  0  0  0
  5  6  1  0  0  0
  6  7  1  0  0  0
  6  9  1  0  0  0
  7  8  2  0  0  0
  7 13  1  0  0  0
  9 10  1  0  0  0
 10 11  2  0  0  0
 10 12  1  0  0  0
 13 14  1  0  0  0
 14 15  1  0  0  0
 14 17  1  0  0  0
 15 16  1  0  0  0
 15 25  1  0  0  0
 17 18  1  0  0  0
 18 19  4  0  0  0
 18 20  4  0  0  0
 19 21  4  0  0  0
 20 22  4  0  0  0
 21 23  4  0  0  0
 22 23  4  0  0  0
 23 24  1  0  0  0
 24 49  1  0  0  0
 25 26  1  0  0  0
 26 27  1  0  0  0
 26 32  1  0  0  0
 27 28  1  0  0  0
 27 30  1  0  0  0
 28 29  2  0  0  0
 28 33  1  0  0  0
 30 31  1  0  0  0
 31 32  1  0  0  0
 33 34  1  0  0  0
 34 35  1  0  0  0
 34 37  1  0  0  0
 35 36  2  0  0  0
 35 41  1  0  0  0
 37 38  1  0  0  0
 37 39  1  0  0  0
 38 40  1  0  0  0
 41 42  1  0  0  0
 42 43  1  0  0  0
 42 45  1  0  0  0
 43 44  2  0  0  0
 43 48  1  0  0  0
 45 46  1  0  0  0
 45 47  1  0  0  0
  3 50  1  0  0  0
  3 51  1  0  0  0
  4 52  1  0  0  0
  4 53  1  0  0  0
  5 54  1  0  0  0
  6 55  1  0  0  0
  9 56  1  0  0  0
  9 57  1  0  0  0
 12 58  1  0  0  0
 12 59  1  0  0  0
 13 60  1  0  0  0
 14 61  1  0  0  0
 15 62  1  0  0  0
 16 63  1  0  0  0
 17 64  1  0  0  0
 17 65  1  0  0  0
 19 66  1  0  0  0
 20 67  1  0  0  0
 21 68  1  0  0  0
 22 69  1  0  0  0
 25 70  1  0  0  0
 25 71  1  0  0  0
 26 72  1  0  0  0
 27 73  1  0  0  0
 30 74  1  0  0  0
 30 75  1  0  0  0
 31 76  1  0  0  0
 31 77  1  0  0  0
 32 78  1  0  0  0
 32 79  1  0  0  0
 33 80  1  0  0  0
 34 81  1  0  0  0
 37 82  1  0  0  0
 38 83  1  0  0  0
 38 84  1  0  0  0
 39 85  1  0  0  0
 39 86  1  0  0  0
 39 87  1  0  0  0
 40 88  1  0  0  0
 40 89  1  0  0  0
 40 90  1  0  0  0
 41 91  1  0  0  0
 42 92  1  0  0  0
 45 93  1  0  0  0
 46 94  1  0  0  0
 46 95  1  0  0  0
 46 96  1  0  0  0
 47 97  1  0  0  0
 47 98  1  0  0  0
 47 99  1  0  0  0
 48100  1  0  0  0
 48101  1  0  0  0
 49102  1  0  0  0
 49103  1  0  0  0
M  END
$$$$
