5t2i_ligand
  -I-interpret- 

 49 53  0  0  0  0  0  0  0  0999 V2000
   13.8640   -2.2530   18.9800 C   0  0  0  0  0
   12.9220   -2.1330   19.9730 C   0  0  0  0  0
   15.0970   -2.7920   19.2840 C   0  0  0  0  0
    9.6020   -4.2850   26.1050 C   0  0  0  0  0
   10.5380   -8.6640   24.1040 C   0  0  0  0  0
   10.1750   -9.9610   23.8400 C   0  0  0  0  0
   14.4560   -3.0960   21.5980 C   0  0  0  0  0
   10.6520   -4.8340   25.4070 C   0  0  0  0  0
    9.6140   -6.8400   25.4370 C   0  0  0  0  0
    8.5510   -6.2950   26.1420 C   0  0  0  0  0
   11.7670   -4.0200   24.9830 C   0  0  0  0  0
   13.5050   -3.4730   23.9250 C   0  0  0  0  0
   10.8330  -10.8510   22.9230 C   0  0  0  0  0
   14.7460   -3.5150   22.9930 C   0  0  0  0  0
   13.4710   -1.0320   24.6720 C   0  0  0  0  0
   10.6670   -6.1180   25.0490 N   0  0  0  0  0
   11.9020   -2.7320   25.3150 N   0  0  0  0  0
    9.6640   -8.1840   25.0390 N   0  0  0  0  0
   10.4710  -12.1590   23.1400 N   0  0  0  0  0
   13.2240   -2.5570   21.2520 C   0  0  0  0  0
   15.3840   -3.2020   20.5720 C   0  0  0  0  0
    9.0550  -10.1930   24.6670 C   0  0  0  0  0
   15.7800   -4.5930   23.2520 C   0  0  0  0  0
   16.0760   -3.1680   23.6120 C   0  0  0  0  0
    8.5470   -4.9990   26.4790 N   0  0  0  0  0
    8.7600   -9.1160   25.3980 N   0  0  0  0  0
   12.7310   -4.5110   24.1410 N   0  0  0  0  0
   13.0120   -2.4110   24.6390 N   0  0  0  0  0
    7.4430   -7.0530   26.5270 N   0  0  0  0  0
   11.6170  -10.4530   22.0690 O   0  0  0  0  0
   13.6399   -1.9264   17.9645 H   0  0  0  0  0
   11.9435   -1.7062   19.7528 H   0  0  0  0  0
   15.8501   -2.8952   18.5027 H   0  0  0  0  0
    9.6371   -3.2259   26.3603 H   0  0  0  0  0
   11.3673   -8.1191   23.6529 H   0  0  0  0  0
   14.5044   -1.0026   25.0174 H   0  0  0  0  0
   13.4089   -0.6057   23.6707 H   0  0  0  0  0
   12.8426   -0.4574   25.3525 H   0  0  0  0  0
   10.8660  -12.9002   22.5612 H   0  0  0  0  0
    9.8074  -12.3885   23.8798 H   0  0  0  0  0
   12.4609   -2.4644   22.0248 H   0  0  0  0  0
   16.3670   -3.6204   20.7880 H   0  0  0  0  0
    8.5019  -11.1315   24.7039 H   0  0  0  0  0
   16.2537   -5.4167   22.7180 H   0  0  0  0  0
   15.8345   -5.5804   23.7105 H   0  0  0  0  0
   16.4530   -2.6071   24.4672 H   0  0  0  0  0
   16.8759   -2.4420   23.4661 H   0  0  0  0  0
    7.3959   -8.0441   26.2904 H   0  0  0  0  0
    6.6808   -6.6155   27.0448 H   0  0  0  0  0
  2  1  4  0  0  0
  3  1  4  0  0  0
 20  2  4  0  0  0
 21  3  4  0  0  0
  8  4  4  0  0  0
  4 25  4  0  0  0
  5  6  4  0  0  0
 18  5  4  0  0  0
  6 13  1  0  0  0
  6 22  4  0  0  0
 14  7  1  0  0  0
  7 20  4  0  0  0
  7 21  4  0  0  0
 11  8  1  0  0  0
  8 16  4  0  0  0
  9 10  4  0  0  0
 16  9  4  0  0  0
  9 18  1  0  0  0
 25 10  4  0  0  0
 10 29  1  0  0  0
 11 17  4  0  0  0
 27 11  4  0  0  0
 12 14  1  0  0  0
 12 27  4  0  0  0
 12 28  4  0  0  0
 13 19  1  0  0  0
 13 30  2  0  0  0
 14 23  1  0  0  0
 14 24  1  0  0  0
 28 15  1  0  0  0
 17 28  4  0  0  0
 18 26  4  0  0  0
 22 26  4  0  0  0
 23 24  1  0  0  0
  1 31  1  0  0  0
  2 32  1  0  0  0
  3 33  1  0  0  0
  4 34  1  0  0  0
  5 35  1  0  0  0
 15 36  1  0  0  0
 15 37  1  0  0  0
 15 38  1  0  0  0
 19 39  1  0  0  0
 19 40  1  0  0  0
 20 41  1  0  0  0
 21 42  1  0  0  0
 22 43  1  0  0  0
 23 44  1  0  0  0
 23 45  1  0  0  0
 24 46  1  0  0  0
 24 47  1  0  0  0
 29 48  1  0  0  0
 29 49  1  0  0  0
M  END
$$$$
