4y85_ligand
  -I-interpret- 

 34 38  0  0  0  0  0  0  0  0999 V2000
   14.7450    0.3450  194.2530 C   0  0  0  0  0
   14.6270   -0.5270  195.3750 C   0  0  0  0  0
   15.0850   -1.8190  195.4480 C   0  0  0  0  0
   11.6330    3.5310  200.7400 C   0  0  0  0  0
   10.7420    3.9630  201.7210 C   0  0  0  0  0
   10.0150    3.0050  202.4250 C   0  0  0  0  0
   10.1720    1.6520  202.1500 C   0  0  0  0  0
   11.0650    1.2220  201.1670 C   0  0  0  0  0
   11.8080    2.1630  200.4490 C   0  0  0  0  0
   14.4340    3.5240  193.2020 N   0  0  0  0  0
   14.6730    2.2190  193.2910 C   0  0  0  0  0
   14.4130    1.6370  194.4860 O   0  0  0  0  0
   15.1600    0.1420  193.0530 N   0  0  0  0  0
   15.1230    1.3830  192.4090 N   0  0  0  0  0
   14.1520   -0.1930  196.7000 C   0  0  0  0  0
   14.3690   -1.3250  197.4960 C   0  0  0  0  0
   14.9450   -2.3000  196.7280 N   0  0  0  0  0
   13.6250    0.9320  197.3290 C   0  0  0  0  0
   13.3390    0.8790  198.6930 C   0  0  0  0  0
   13.5810   -0.3190  199.3700 C   0  0  0  0  0
   14.0870   -1.4310  198.8030 N   0  0  0  0  0
   12.8080    2.0870  199.3870 C   0  0  0  0  0
   12.4710    4.2480  199.9150 N   0  0  0  0  0
   13.1660    3.3850  199.1120 C   0  0  0  0  0
   15.4997   -2.3820  194.6119 H   0  0  0  0  0
   10.6169    5.0249  201.9325 H   0  0  0  0  0
    9.3158    3.3203  203.1995 H   0  0  0  0  0
    9.5911    0.9179  202.7083 H   0  0  0  0  0
   11.1821    0.1582  200.9606 H   0  0  0  0  0
   14.0737    4.0327  194.0093 H   0  0  0  0  0
   14.6110    4.0164  192.3264 H   0  0  0  0  0
   13.4381    1.8438  196.7617 H   0  0  0  0  0
   13.3433   -0.3564  200.4331 H   0  0  0  0  0
   13.8983    3.6841  198.3621 H   0  0  0  0  0
  2  1  1  0  0  0
  1 12  4  0  0  0
  1 13  4  0  0  0
  2  3  4  0  0  0
 15  2  4  0  0  0
 17  3  4  0  0  0
  4  5  4  0  0  0
  9  4  4  0  0  0
  4 23  4  0  0  0
  5  6  4  0  0  0
  7  6  4  0  0  0
  8  7  4  0  0  0
  9  8  4  0  0  0
 22  9  4  0  0  0
 11 10  1  0  0  0
 12 11  4  0  0  0
 14 11  4  0  0  0
 13 14  4  0  0  0
 15 16  4  0  0  0
 18 15  4  0  0  0
 16 17  4  0  0  0
 16 21  4  0  0  0
 19 18  4  0  0  0
 19 20  4  0  0  0
 19 22  1  0  0  0
 20 21  4  0  0  0
 22 24  4  0  0  0
 23 24  4  0  0  0
  3 25  1  0  0  0
  5 26  1  0  0  0
  6 27  1  0  0  0
  7 28  1  0  0  0
  8 29  1  0  0  0
 10 30  1  0  0  0
 10 31  1  0  0  0
 18 32  1  0  0  0
 20 33  1  0  0  0
 24 34  1  0  0  0
M  END
$$$$
