### 
### Created by X-TOOL on Mon Sep 10 21:12:48 2018
### 

@<TRIPOS>MOLECULE
1hq5_ligand
   26    25     1     0     0
SMALL
GAST_HUCK


@<TRIPOS>ATOM
      1 OXT        24.1900   12.9070   -6.6340 O.co2     1 S2C        -0.5642
      2 N          23.2770   10.5560   -3.9420 N.4       1 S2C         0.2333
      3 CA         23.0380   11.4710   -5.0910 C.3       1 S2C         0.0375
      4 C          24.3470   12.2210   -5.4990 C.2       1 S2C         0.0852
      5 O          25.4030   12.2060   -4.9030 O.co2     1 S2C        -0.5642
      6 CB         21.9170   12.3870   -4.6300 C.3       1 S2C         0.0487
      7 SG         20.5470   12.3180   -5.7750 S.3       1 S2C        -0.1518
      8 CD         19.4250   13.3270   -4.8170 C.3       1 S2C         0.0139
      9 CE         18.4440   14.0030   -5.7530 C.3       1 S2C         0.0857
     10 B          17.3200   14.8040   -5.0520 B         1 S2C         1.0137
     11 O1         17.6150   16.2060   -4.9290 O.3       1 S2C        -0.3003
     12 O2         16.1130   14.6930   -5.8120 O.3       1 S2C        -0.3003
     13 O3         17.0360   14.2940   -3.7100 O.3       1 S2C        -0.3003
     14 H1         22.4177   10.0872   -3.7015 H         1 S2C         0.2010
     15 H2         23.6021   11.0885   -3.1503 H         1 S2C         0.2010
     16 H3         23.9730    9.8725   -4.1959 H         1 S2C         0.2010
     17 H4         22.6954   10.8921   -5.9613 H         1 S2C         0.1033
     18 H5         22.2919   13.4197   -4.5751 H         1 S2C         0.0451
     19 H6         21.5741   12.0679   -3.6347 H         1 S2C         0.0451
     20 H7         19.9946   14.0903   -4.2666 H         1 S2C         0.0392
     21 H8         18.8770   12.6934   -4.1041 H         1 S2C         0.0392
     22 H9         17.9737   13.2264   -6.3740 H         1 S2C         0.0511
     23 H10        19.0070   14.6956   -6.3959 H         1 S2C         0.0511
     24 H11        18.4141   16.3175   -4.4276 H         1 S2C         0.2287
     25 H12        15.4114   15.1448   -5.3578 H         1 S2C         0.2287
     26 H13        16.2919   14.7594   -3.3465 H         1 S2C         0.2287
@<TRIPOS>BOND
     1    4    1 ar 
     2    3    2 1  
     3    3    4 1  
     4    3    6 1  
     5    4    5 ar 
     6    6    7 1  
     7    7    8 1  
     8    8    9 1  
     9    9   10 1  
    10   10   11 1  
    11   10   12 1  
    12   10   13 1  
    13    2   14 1  
    14    2   15 1  
    15    2   16 1  
    16    3   17 1  
    17    6   18 1  
    18    6   19 1  
    19    8   20 1  
    20    8   21 1  
    21    9   22 1  
    22    9   23 1  
    23   11   24 1  
    24   12   25 1  
    25   13   26 1  
@<TRIPOS>SUBSTRUCTURE
     1 S2C         1

