1hq5_ligand
  -I-interpret- 

 27 26  0  0  0  0  0  0  0  0999 V2000
   24.1900   12.9070   -6.6340 O   0  0  0  0  0
   23.2770   10.5560   -3.9420 N   0  3  0  0  0
   23.0380   11.4710   -5.0910 C   0  0  0  0  0
   24.3470   12.2210   -5.4990 C   0  0  0  0  0
   25.4030   12.2060   -4.9030 O   0  0  0  0  0
   21.9170   12.3870   -4.6300 C   0  0  0  0  0
   20.5470   12.3180   -5.7750 S   0  0  0  0  0
   19.4250   13.3270   -4.8170 C   0  0  0  0  0
   18.4440   14.0030   -5.7530 C   0  0  0  0  0
   17.3200   14.8040   -5.0520 B   0  0  0  0  0
   17.6150   16.2060   -4.9290 O   0  0  0  0  0
   16.1130   14.6930   -5.8120 O   0  0  0  0  0
   17.0360   14.2940   -3.7100 O   0  0  0  0  0
   23.2910   12.7960   -6.9519 H   0  0  0  0  0
   24.0248    9.9038   -4.1782 H   0  0  0  0  0
   23.5466   11.1025   -3.1241 H   0  0  0  0  0
   22.4228   10.0368   -3.7390 H   0  0  0  0  0
   22.7469   10.9477   -6.0018 H   0  0  0  0  0
   22.2903   13.4100   -4.5838 H   0  0  0  0  0
   21.5751   12.0632   -3.6469 H   0  0  0  0  0
   19.9882   14.0820   -4.2685 H   0  0  0  0  0
   18.8833   12.7010   -4.1079 H   0  0  0  0  0
   17.9583   13.2126   -6.3253 H   0  0  0  0  0
   19.0154   14.7157   -6.3477 H   0  0  0  0  0
   16.8853   16.6480   -4.4888 H   0  0  0  0  0
   15.4158   15.1897   -5.3775 H   0  0  0  0  0
   16.3359   14.8165   -3.3119 H   0  0  0  0  0
  4  1  1  0  0  0
  3  2  1  0  0  0
  3  4  1  0  0  0
  3  6  1  0  0  0
  4  5  2  0  0  0
  6  7  1  0  0  0
  7  8  1  0  0  0
  8  9  1  0  0  0
  9 10  1  0  0  0
 10 11  1  0  0  0
 10 12  1  0  0  0
 10 13  1  0  0  0
  1 14  1  0  0  0
  2 15  1  0  0  0
  2 16  1  0  0  0
  2 17  1  0  0  0
  3 18  1  0  0  0
  6 19  1  0  0  0
  6 20  1  0  0  0
  8 21  1  0  0  0
  8 22  1  0  0  0
  9 23  1  0  0  0
  9 24  1  0  0  0
 11 25  1  0  0  0
 12 26  1  0  0  0
 13 27  1  0  0  0
M  END
$$$$
