1fzo_ligand
  -I-interpret- 

133136  0  0  0  0  0  0  0  0999 V2000
   49.9980   56.8390    4.5850 N   0  3  0  0  0
   48.9250   57.8010    4.2470 C   0  0  0  0  0
   48.4850   57.5110    2.8140 C   0  0  0  0  0
   49.3070   57.4230    1.9050 O   0  0  0  0  0
   49.4570   59.2330    4.3770 C   0  0  0  0  0
   48.4180   60.2280    4.7980 C   0  0  0  0  0
   47.6680   60.0220    5.9540 C   0  0  0  0  0
   48.1960   61.3800    4.0510 C   0  0  0  0  0
   46.6970   60.9580    6.3700 C   0  0  0  0  0
   47.2350   62.3190    4.4490 C   0  0  0  0  0
   46.4810   62.1060    5.6170 C   0  0  0  0  0
   47.1810   57.3640    2.6330 N   0  0  0  0  0
   46.6010   57.0200    1.3440 C   0  0  0  0  0
   46.6570   58.0950    0.2830 C   0  0  0  0  0
   46.8280   59.2740    0.5800 O   0  0  0  0  0
   45.1430   56.5920    1.5520 C   0  0  0  0  0
   46.5210   57.6920   -0.9920 N   0  0  0  0  0
   46.5420   58.6680   -2.0840 C   0  0  0  0  0
   45.5140   59.7600   -1.7620 C   0  0  0  0  0
   44.4650   59.4680   -1.2110 O   0  0  0  0  0
   46.1150   57.8360   -3.2910 C   0  0  0  0  0
   46.7460   56.4700   -2.9920 C   0  0  0  0  0
   46.4670   56.3000   -1.4990 C   0  0  0  0  0
   45.8070   61.0120   -2.1120 N   0  0  0  0  0
   44.8650   62.0900   -1.8380 C   0  0  0  0  0
   43.4710   61.8100   -2.3730 C   0  0  0  0  0
   42.4610   62.1420   -1.7420 O   0  0  0  0  0
   43.4120   61.2090   -3.5560 N   0  0  0  0  0
   42.1460   60.8620   -4.1650 C   0  0  0  0  0
   42.4240   59.9640   -5.3660 C   0  0  0  0  0
   43.5810   59.7360   -5.7380 O   0  0  0  0  0
   41.3850   62.1140   -4.6290 C   0  0  0  0  0
   41.9470   62.7050   -5.9160 C   0  0  0  0  0
   41.2020   62.9810   -6.8610 O   0  0  0  0  0
   43.2540   62.9160   -5.9540 N   0  0  0  0  0
   41.3550   59.4480   -5.9500 N   0  0  0  0  0
   41.4730   58.5890   -7.1110 C   0  0  0  0  0
   40.6230   59.2360   -8.1920 C   0  0  0  0  0
   39.3930   59.1330   -8.1870 O   0  0  0  0  0
   40.9690   57.1720   -6.8020 C   0  0  0  0  0
   41.7980   56.4070   -5.7760 C   0  0  0  0  0
   41.5060   56.4850   -4.4190 C   0  0  0  0  0
   42.8650   55.5800   -6.1780 C   0  0  0  0  0
   42.2500   55.7600   -3.4850 C   0  0  0  0  0
   43.6160   54.8550   -5.2550 C   0  0  0  0  0
   43.3020   54.9510   -3.9090 C   0  0  0  0  0
   44.0390   54.2570   -2.9800 O   0  0  0  0  0
   41.2700   59.9470   -9.1200 N   0  0  0  0  0
   40.5490   60.6180  -10.2130 C   0  0  0  0  0
   39.5750   59.6530  -10.8850 C   0  0  0  0  0
   39.9070   58.4900  -11.1000 O   0  0  0  0  0
   41.6730   61.0400  -11.1590 C   0  0  0  0  0
   42.8400   61.2490  -10.2330 C   0  0  0  0  0
   42.7300   60.0840   -9.2760 C   0  0  0  0  0
   38.3820   60.1330  -11.2210 N   0  0  0  0  0
   37.3880   59.2820  -11.8620 C   0  0  0  0  0
   37.8930   58.7890  -13.2090 C   0  0  0  0  0
   38.6540   59.4710  -13.8850 O   0  0  0  0  0
   36.0800   60.0320  -12.0420 C   0  0  0  0  0
   37.4750   57.5800  -13.5670 N   0  0  0  0  0
   37.8540   56.9430  -14.8270 C   0  0  0  0  0
   37.1400   57.5810  -16.0360 C   0  0  0  0  0
   36.2100   58.3950  -15.8230 O   0  0  0  0  0
   37.5030   55.4460  -14.7620 C   0  0  0  0  0
   38.1520   54.6360  -13.6420 C   0  0  0  0  0
   37.6350   53.2080  -13.6940 C   0  0  0  0  0
   39.6620   54.6480  -13.7860 C   0  0  0  0  0
   37.5070   57.2420  -17.1890 O   0  0  0  0  0
   49.6402   55.8878    4.4973 H   0  0  0  0  0
   50.7827   56.9686    3.9464 H   0  0  0  0  0
   50.3079   57.0000    5.5434 H   0  0  0  0  0
   48.0768   57.6991    4.9239 H   0  0  0  0  0
   49.8183   59.5362    3.3943 H   0  0  0  0  0
   50.2295   59.2244    5.1460 H   0  0  0  0  0
   47.8340   59.1227    6.5472 H   0  0  0  0  0
   48.7765   61.5545    3.1451 H   0  0  0  0  0
   46.1194   60.7814    7.2773 H   0  0  0  0  0
   47.0715   63.2163    3.8522 H   0  0  0  0  0
   45.7334   62.8353    5.9291 H   0  0  0  0  0
   46.5583   57.4974    3.4298 H   0  0  0  0  0
   47.2229   56.2124    0.9578 H   0  0  0  0  0
   44.5550   57.4526    1.8710 H   0  0  0  0  0
   44.7425   56.2037    0.6155 H   0  0  0  0  0
   45.0989   55.8166    2.3168 H   0  0  0  0  0
   47.4989   59.1636   -2.2477 H   0  0  0  0  0
   46.4436   58.2599   -4.2399 H   0  0  0  0  0
   45.0332   57.7887   -3.4162 H   0  0  0  0  0
   47.8072   56.4257   -3.2371 H   0  0  0  0  0
   46.3321   55.6650   -3.5993 H   0  0  0  0  0
   47.1830   55.6419   -1.0067 H   0  0  0  0  0
   45.5123   55.8133   -1.2993 H   0  0  0  0  0
   46.6935   61.2166   -2.5732 H   0  0  0  0  0
   44.7899   62.1985   -0.7560 H   0  0  0  0  0
   45.2358   62.9885   -2.3312 H   0  0  0  0  0
   44.2785   60.9871   -4.0462 H   0  0  0  0  0
   41.5271   60.3492   -3.4287 H   0  0  0  0  0
   41.4769   62.8685   -3.8478 H   0  0  0  0  0
   40.3514   61.8246   -4.8186 H   0  0  0  0  0
   43.6812   63.3213   -6.7869 H   0  0  0  0  0
   43.8334   62.6732   -5.1504 H   0  0  0  0  0
   40.4298   59.6589   -5.5758 H   0  0  0  0  0
   42.5123   58.4864   -7.4233 H   0  0  0  0  0
   41.0201   56.6082   -7.7335 H   0  0  0  0  0
   39.9675   57.2767   -6.3846 H   0  0  0  0  0
   40.6870   57.1193   -4.0799 H   0  0  0  0  0
   43.1093   55.5053   -7.2376 H   0  0  0  0  0
   42.0074   55.8273   -2.4245 H   0  0  0  0  0
   44.4385   54.2216   -5.5871 H   0  0  0  0  0
   44.7208   53.7506   -3.4276 H   0  0  0  0  0
   39.9396   61.4602   -9.8851 H   0  0  0  0  0
   41.4265   61.9329  -11.7335 H   0  0  0  0  0
   41.8755   60.2966  -11.9300 H   0  0  0  0  0
   42.8097   62.2143   -9.7276 H   0  0  0  0  0
   43.7951   61.2752  -10.7575 H   0  0  0  0  0
   43.2496   60.2517   -8.3326 H   0  0  0  0  0
   43.2102   59.1776   -9.6447 H   0  0  0  0  0
   38.1595   61.1095  -11.0277 H   0  0  0  0  0
   37.2133   58.4208  -11.2171 H   0  0  0  0  0
   36.2398   60.8857  -12.7006 H   0  0  0  0  0
   35.3382   59.3657  -12.4823 H   0  0  0  0  0
   35.7264   60.3811  -11.0719 H   0  0  0  0  0
   36.8598   57.0715  -12.9320 H   0  0  0  0  0
   38.9265   57.0822  -14.9627 H   0  0  0  0  0
   37.8653   55.0124  -15.6941 H   0  0  0  0  0
   36.4288   55.3975  -14.5833 H   0  0  0  0  0
   37.8957   55.0829  -12.6815 H   0  0  0  0  0
   36.5527   53.2099  -13.5651 H   0  0  0  0  0
   37.8865   52.7668  -14.6584 H   0  0  0  0  0
   38.0963   52.6266  -12.8957 H   0  0  0  0  0
   39.9376   54.2113  -14.7459 H   0  0  0  0  0
   40.0223   55.6755  -13.7360 H   0  0  0  0  0
   40.1073   54.0658  -12.9792 H   0  0  0  0  0
   38.2295   56.6135  -17.1217 H   0  0  0  0  0
  3  2  1  0  0  0
  2  5  1  0  0  0
  2  1  1  0  0  0
  5  6  1  0  0  0
  6  8  4  0  0  0
  6  7  4  0  0  0
  7  9  4  0  0  0
  9 11  4  0  0  0
 10 11  4  0  0  0
  8 10  4  0  0  0
  3  4  2  0  0  0
 14 13  1  0  0  0
 13 16  1  0  0  0
 13 12  1  0  0  0
 14 15  2  0  0  0
 18 17  1  0  0  0
 18 21  1  0  0  0
 19 18  1  0  0  0
 19 20  2  0  0  0
 21 22  1  0  0  0
 22 23  1  0  0  0
 17 23  1  0  0  0
 26 25  1  0  0  0
 25 24  1  0  0  0
 26 27  2  0  0  0
 30 29  1  0  0  0
 29 32  1  0  0  0
 29 28  1  0  0  0
 32 33  1  0  0  0
 33 34  2  0  0  0
 33 35  1  0  0  0
 30 31  2  0  0  0
 38 37  1  0  0  0
 37 40  1  0  0  0
 37 36  1  0  0  0
 40 41  1  0  0  0
 41 43  4  0  0  0
 41 42  4  0  0  0
 42 44  4  0  0  0
 44 46  4  0  0  0
 46 47  1  0  0  0
 45 46  4  0  0  0
 43 45  4  0  0  0
 38 39  2  0  0  0
 49 48  1  0  0  0
 49 52  1  0  0  0
 50 49  1  0  0  0
 50 51  2  0  0  0
 52 53  1  0  0  0
 53 54  1  0  0  0
 48 54  1  0  0  0
 57 56  1  0  0  0
 56 59  1  0  0  0
 56 55  1  0  0  0
 57 58  2  0  0  0
 61 62  1  0  0  0
 61 64  1  0  0  0
 60 61  1  0  0  0
 64 65  1  0  0  0
 65 67  1  0  0  0
 65 66  1  0  0  0
 62 68  1  0  0  0
 62 63  2  0  0  0
 12  3  1  0  0  0
 17 14  1  0  0  0
 24 19  1  0  0  0
 28 26  1  0  0  0
 36 30  1  0  0  0
 48 38  1  0  0  0
 55 50  1  0  0  0
 57 60  1  0  0  0
  1 69  1  0  0  0
  1 70  1  0  0  0
  1 71  1  0  0  0
  2 72  1  0  0  0
  5 73  1  0  0  0
  5 74  1  0  0  0
  7 75  1  0  0  0
  8 76  1  0  0  0
  9 77  1  0  0  0
 10 78  1  0  0  0
 11 79  1  0  0  0
 12 80  1  0  0  0
 13 81  1  0  0  0
 16 82  1  0  0  0
 16 83  1  0  0  0
 16 84  1  0  0  0
 18 85  1  0  0  0
 21 86  1  0  0  0
 21 87  1  0  0  0
 22 88  1  0  0  0
 22 89  1  0  0  0
 23 90  1  0  0  0
 23 91  1  0  0  0
 24 92  1  0  0  0
 25 93  1  0  0  0
 25 94  1  0  0  0
 28 95  1  0  0  0
 29 96  1  0  0  0
 32 97  1  0  0  0
 32 98  1  0  0  0
 35 99  1  0  0  0
 35100  1  0  0  0
 36101  1  0  0  0
 37102  1  0  0  0
 40103  1  0  0  0
 40104  1  0  0  0
 42105  1  0  0  0
 43106  1  0  0  0
 44107  1  0  0  0
 45108  1  0  0  0
 47109  1  0  0  0
 49110  1  0  0  0
 52111  1  0  0  0
 52112  1  0  0  0
 53113  1  0  0  0
 53114  1  0  0  0
 54115  1  0  0  0
 54116  1  0  0  0
 55117  1  0  0  0
 56118  1  0  0  0
 59119  1  0  0  0
 59120  1  0  0  0
 59121  1  0  0  0
 60122  1  0  0  0
 61123  1  0  0  0
 64124  1  0  0  0
 64125  1  0  0  0
 65126  1  0  0  0
 66127  1  0  0  0
 66128  1  0  0  0
 66129  1  0  0  0
 67130  1  0  0  0
 67131  1  0  0  0
 67132  1  0  0  0
 68133  1  0  0  0
M  END
$$$$
