2pvu_ligand
  -I-interpret- 

 26 25  0  0  0  0  0  0  0  0999 V2000
  -13.9730   22.9190   12.8300 N   0  3  0  0  0
  -13.0840   23.8760   13.5690 C   0  0  0  0  0
  -12.4030   24.8150   12.5640 C   0  0  0  0  0
  -11.7370   25.7620   12.9560 O   0  0  0  0  0
  -12.0170   23.1140   14.3470 C   0  0  0  0  0
  -11.1420   22.2350   13.4200 C   0  0  0  0  0
   -9.7990   21.8730   14.0890 C   0  0  0  0  0
   -9.2180   20.6340   13.4240 C   0  0  0  0  0
   -7.7710   20.3520   13.9330 N   0  3  0  0  0
  -12.4970   24.6210   11.3320 O   0  0  0  0  0
  -14.6807   23.4428   12.3150 H   0  0  0  0  0
  -13.4124   22.3707   12.1777 H   0  0  0  0  0
  -14.4279   22.2954   13.4968 H   0  0  0  0  0
  -13.6891   24.4531   14.2682 H   0  0  0  0  0
  -12.5171   22.4621   15.0633 H   0  0  0  0  0
  -11.3700   23.8399   14.8395 H   0  0  0  0  0
  -10.9343   22.7944   12.5078 H   0  0  0  0  0
  -11.6821   21.3125   13.2072 H   0  0  0  0  0
   -9.9630   21.6736   15.1480 H   0  0  0  0  0
   -9.1028   22.7044   13.9789 H   0  0  0  0  0
   -9.1836   20.7990   12.3471 H   0  0  0  0  0
   -9.8474   19.7784   13.6687 H   0  0  0  0  0
   -7.4063   19.5182   13.4723 H   0  0  0  0  0
   -7.1741   21.1502   13.7164 H   0  0  0  0  0
   -7.7896   20.2038   14.9420 H   0  0  0  0  0
  -13.0454   23.8496   11.1716 H   0  0  0  0  0
  1  2  1  0  0  0
  2  3  1  0  0  0
  2  5  1  0  0  0
  3  4  2  0  0  0
  3 10  1  0  0  0
  5  6  1  0  0  0
  6  7  1  0  0  0
  7  8  1  0  0  0
  8  9  1  0  0  0
  1 11  1  0  0  0
  1 12  1  0  0  0
  1 13  1  0  0  0
  2 14  1  0  0  0
  5 15  1  0  0  0
  5 16  1  0  0  0
  6 17  1  0  0  0
  6 18  1  0  0  0
  7 19  1  0  0  0
  7 20  1  0  0  0
  8 21  1  0  0  0
  8 22  1  0  0  0
  9 23  1  0  0  0
  9 24  1  0  0  0
  9 25  1  0  0  0
 10 26  1  0  0  0
M  END
$$$$
