3cow_ligand
  -I-interpret- 

 55 57  0  0  0  0  0  0  0  0999 V2000
   13.8990    9.7710   -2.5810 C   0  0  0  0  0
   14.9440   10.2780   -3.3700 C   0  0  0  0  0
   14.8260   10.1480   -4.7550 C   0  0  0  0  0
   15.4340   10.6060   -1.2940 C   0  0  0  0  0
   13.6950    9.5980   -5.2450 N   0  0  0  0  0
   12.8020    9.2040   -3.1430 N   0  0  0  0  0
   14.7240    8.7300    9.1040 C   0  0  0  0  0
   14.5420    9.1160    7.6300 C   0  0  0  0  0
   13.7970   10.4470    7.6040 C   0  0  0  0  0
   13.7600    8.0120    6.9820 C   0  0  0  0  0
   15.9190    9.1990    6.9080 C   0  0  0  0  0
   16.6720    7.9460    7.0220 O   0  0  0  0  0
   15.9110    9.5690    5.3990 C   0  0  0  0  0
   15.9820    8.6990    4.5240 O   0  0  0  0  0
   15.9210   10.8670    5.1770 N   0  0  0  0  0
   16.0610   11.5310    3.6950 S   0  0  0  0  0
   17.3990   11.2600    3.1300 O   0  0  0  0  0
   15.7200   12.9560    3.7950 O   0  0  0  0  0
   15.1560   10.9450    2.7170 O   0  0  0  0  0
   13.7240   11.1290    2.9860 C   0  0  0  0  0
   12.8590   10.2310    2.0620 C   0  0  0  0  0
   13.0500   10.7160    0.7080 O   0  0  0  0  0
   13.3570    8.7880    2.0830 C   0  0  0  0  0
   12.2350    7.9230    2.0590 O   0  0  0  0  0
   14.1670    8.6820    0.7820 C   0  0  0  0  0
   14.2240    7.3520    0.2010 O   0  0  0  0  0
   13.3770    9.6020   -0.1460 C   0  0  0  0  0
   14.2200    9.9950   -1.3100 N   0  0  0  0  0
   15.8830   10.7930   -2.5550 N   0  0  0  0  0
   12.7290    9.1120   -4.4720 C   0  0  0  0  0
   15.7960   10.6090   -5.5710 N   0  0  0  0  0
   15.9694   10.9030   -0.3922 H   0  0  0  0  0
   15.2997    9.5035    9.6124 H   0  0  0  0  0
   13.7464    8.6333    9.5763 H   0  0  0  0  0
   15.2547    7.7800    9.1666 H   0  0  0  0  0
   12.8302   10.3304    8.0937 H   0  0  0  0  0
   14.3835   11.2005    8.1297 H   0  0  0  0  0
   13.6469   10.7578    6.5701 H   0  0  0  0  0
   14.3125    7.0766    7.0708 H   0  0  0  0  0
   12.7941    7.9134    7.4774 H   0  0  0  0  0
   13.6072    8.2466    5.9286 H   0  0  0  0  0
   16.3847   10.0284    7.4403 H   0  0  0  0  0
   17.5120    8.0362    6.5661 H   0  0  0  0  0
   15.8363   11.4926    5.9782 H   0  0  0  0  0
   13.4661   12.1713    2.7985 H   0  0  0  0  0
   13.5267   10.8540    4.0221 H   0  0  0  0  0
   11.8211   10.2640    2.3933 H   0  0  0  0  0
   13.9474    8.5225    2.9600 H   0  0  0  0  0
   12.5350    7.0112    2.0719 H   0  0  0  0  0
   15.2136    8.9362    0.9494 H   0  0  0  0  0
   14.7467    7.3777   -0.6038 H   0  0  0  0  0
   12.4860    9.1502   -0.5820 H   0  0  0  0  0
   11.8648    8.6314   -4.9305 H   0  0  0  0  0
   16.6236   11.0566   -5.1773 H   0  0  0  0  0
   15.7019   10.5100   -6.5818 H   0  0  0  0  0
  1  2  4  0  0  0
  1  6  4  0  0  0
 28  1  4  0  0  0
  2  3  4  0  0  0
 29  2  4  0  0  0
  3  5  4  0  0  0
  3 31  1  0  0  0
 28  4  4  0  0  0
  4 29  4  0  0  0
 30  5  4  0  0  0
  6 30  4  0  0  0
  8  7  1  0  0  0
  8  9  1  0  0  0
  8 10  1  0  0  0
 11  8  1  0  0  0
 11 12  1  0  0  0
 13 11  1  0  0  0
 13 14  2  0  0  0
 15 13  1  0  0  0
 16 15  1  0  0  0
 16 17  2  0  0  0
 16 18  2  0  0  0
 19 16  1  0  0  0
 20 19  1  0  0  0
 21 20  1  0  0  0
 22 21  1  0  0  0
 23 21  1  0  0  0
 27 22  1  0  0  0
 23 24  1  0  0  0
 25 23  1  0  0  0
 25 26  1  0  0  0
 27 25  1  0  0  0
 27 28  1  0  0  0
  4 32  1  0  0  0
  7 33  1  0  0  0
  7 34  1  0  0  0
  7 35  1  0  0  0
  9 36  1  0  0  0
  9 37  1  0  0  0
  9 38  1  0  0  0
 10 39  1  0  0  0
 10 40  1  0  0  0
 10 41  1  0  0  0
 11 42  1  0  0  0
 12 43  1  0  0  0
 15 44  1  0  0  0
 20 45  1  0  0  0
 20 46  1  0  0  0
 21 47  1  0  0  0
 23 48  1  0  0  0
 24 49  1  0  0  0
 25 50  1  0  0  0
 26 51  1  0  0  0
 27 52  1  0  0  0
 30 53  1  0  0  0
 31 54  1  0  0  0
 31 55  1  0  0  0
M  END
$$$$
