4q19_ligand
  -I-interpret- 

 48 50  0  0  0  0  0  0  0  0999 V2000
  -38.9030   10.7870   -4.4130 C   0  0  0  0  0
  -37.9860   10.6790   -3.3020 O   0  0  0  0  0
  -36.7120   11.1430   -3.5400 C   0  0  0  0  0
  -35.6670   10.4930   -2.8650 C   0  0  0  0  0
  -34.3540   10.9000   -3.0340 C   0  0  0  0  0
  -35.9430    9.4770   -2.0040 O   0  0  0  0  0
  -36.4260   12.2160   -4.3940 C   0  0  0  0  0
  -35.0930   12.6140   -4.5630 C   0  0  0  0  0
  -34.0510   11.9340   -3.8910 C   0  0  0  0  0
  -32.7660   12.2810   -3.9910 C   0  0  0  0  0
  -31.8220   11.9760   -3.1020 N   0  0  0  0  0
  -32.1080   13.1010   -5.1140 S   0  0  0  0  0
  -30.6780   13.1530   -4.6020 C   0  0  0  0  0
  -29.5250   13.8640   -5.3350 C   0  0  0  0  0
  -29.6750   15.3510   -5.1300 C   0  0  0  0  0
  -28.8520   15.7670   -3.8870 C   0  0  0  0  0
  -30.6400   12.5050   -3.4440 C   0  0  0  0  0
  -29.3930   12.2980   -2.6310 C   0  0  0  0  0
  -28.6800   10.6790   -3.1050 S   0  0  0  0  0
  -27.0160   11.0490   -3.5030 C   0  0  0  0  0
  -26.1970   10.0250   -3.8840 N   0  0  0  0  0
  -26.5700   12.2970   -3.3970 N   0  0  0  0  0
  -25.2680   12.5430   -3.7050 C   0  0  0  0  0
  -24.7960   13.7840   -3.6240 N   0  0  0  0  0
  -24.4010   11.5100   -4.0880 C   0  0  0  0  0
  -24.9050   10.2090   -4.1900 C   0  0  0  0  0
  -24.1230    9.1600   -4.5410 N   0  0  0  0  0
  -39.0040   11.8341   -4.6986 H   0  0  0  0  0
  -38.5184   10.2143   -5.2569 H   0  0  0  0  0
  -39.8761   10.3938   -4.1188 H   0  0  0  0  0
  -33.5563   10.3990   -2.4856 H   0  0  0  0  0
  -35.1238    9.1446   -1.6299 H   0  0  0  0  0
  -37.2285   12.7337   -4.9193 H   0  0  0  0  0
  -34.8577   13.4536   -5.2170 H   0  0  0  0  0
  -29.5584   13.6291   -6.3989 H   0  0  0  0  0
  -28.5672   13.5277   -4.9380 H   0  0  0  0  0
  -30.7254   15.5994   -4.9783 H   0  0  0  0  0
  -29.3126   15.8840   -6.0090 H   0  0  0  0  0
  -29.2227   15.2331   -3.0120 H   0  0  0  0  0
  -27.8028   15.5191   -4.0479 H   0  0  0  0  0
  -28.9529   16.8407   -3.7288 H   0  0  0  0  0
  -29.6280   12.3116   -1.5667 H   0  0  0  0  0
  -28.6780   13.0979   -2.8236 H   0  0  0  0  0
  -25.4094   14.5449   -3.3322 H   0  0  0  0  0
  -23.8207   13.9747   -3.8537 H   0  0  0  0  0
  -23.3525   11.7169   -4.3026 H   0  0  0  0  0
  -24.5162    8.2194   -4.5743 H   0  0  0  0  0
  -23.1410    9.3107   -4.7720 H   0  0  0  0  0
  1  2  1  0  0  0
  2  3  1  0  0  0
  3  4  4  0  0  0
  3  7  4  0  0  0
  4  5  4  0  0  0
  4  6  1  0  0  0
  5  9  4  0  0  0
  7  8  4  0  0  0
  8  9  4  0  0  0
  9 10  1  0  0  0
 10 11  4  0  0  0
 10 12  4  0  0  0
 11 17  4  0  0  0
 12 13  4  0  0  0
 13 14  1  0  0  0
 13 17  4  0  0  0
 14 15  1  0  0  0
 15 16  1  0  0  0
 17 18  1  0  0  0
 18 19  1  0  0  0
 19 20  1  0  0  0
 20 21  4  0  0  0
 20 22  4  0  0  0
 21 26  4  0  0  0
 22 23  4  0  0  0
 23 24  1  0  0  0
 23 25  4  0  0  0
 25 26  4  0  0  0
 26 27  1  0  0  0
  1 28  1  0  0  0
  1 29  1  0  0  0
  1 30  1  0  0  0
  5 31  1  0  0  0
  6 32  1  0  0  0
  7 33  1  0  0  0
  8 34  1  0  0  0
 14 35  1  0  0  0
 14 36  1  0  0  0
 15 37  1  0  0  0
 15 38  1  0  0  0
 16 39  1  0  0  0
 16 40  1  0  0  0
 16 41  1  0  0  0
 18 42  1  0  0  0
 18 43  1  0  0  0
 24 44  1  0  0  0
 24 45  1  0  0  0
 25 46  1  0  0  0
 27 47  1  0  0  0
 27 48  1  0  0  0
M  END
$$$$
