3n51_ligand
  -I-interpret- 

 53 57  0  0  0  0  0  0  0  0999 V2000
   21.6940   12.4400   63.6670 N   0  0  0  0  0
   22.8590   13.1000   63.6330 C   0  0  0  0  0
   22.9250   14.4290   63.6390 N   0  0  0  0  0
   21.8030   15.1680   63.6190 C   0  0  0  0  0
   20.5760   14.5300   63.6460 C   0  0  0  0  0
   20.5400   13.1220   63.6920 C   0  0  0  0  0
   19.4100   12.4350   63.7320 N   0  0  0  0  0
   21.5430   16.4880   63.5890 N   0  0  0  0  0
   20.3360   16.7300   63.6230 N   0  0  0  0  0
   23.4930   19.7110   59.9360 N   0  3  0  0  0
   13.2990   15.4720   65.4770 C   0  0  0  0  0
   13.8890   15.8410   64.2660 C   0  0  0  0  0
   17.6420   14.3820   67.2670 C   0  0  0  0  0
   18.2490   14.7370   66.0560 C   0  0  0  0  0
   14.1000   15.0150   66.5180 C   0  0  0  0  0
   16.2740   14.4720   67.4060 C   0  0  0  0  0
   15.2740   15.7450   64.1230 C   0  0  0  0  0
   24.6500   19.1850   60.6900 C   0  0  0  0  0
   22.4720   18.6460   59.7760 C   0  0  0  0  0
   24.1710   18.8860   62.1320 C   0  0  0  0  0
   21.9290   18.2680   61.1660 C   0  0  0  0  0
   18.1380   15.5610   63.6770 C   0  0  0  0  0
   22.5290   17.5570   63.5520 C   0  0  0  0  0
   17.4690   15.1840   64.9950 C   0  0  0  0  0
   19.6510   15.5890   63.6570 C   0  0  0  0  0
   15.4880   14.9280   66.3600 C   0  0  0  0  0
   16.0820   15.2840   65.1650 C   0  0  0  0  0
   23.0650   17.8080   62.1160 C   0  0  0  0  0
   23.7862   12.5280   63.5992 H   0  0  0  0  0
   19.4332   11.4153   63.7430 H   0  0  0  0  0
   18.5156   12.9250   63.7518 H   0  0  0  0  0
   23.8033   20.0221   59.0155 H   0  0  0  0  0
   23.0859   20.4949   60.4461 H   0  0  0  0  0
   12.2188   15.5417   65.6052 H   0  0  0  0  0
   13.2740   16.2003   63.4409 H   0  0  0  0  0
   18.2522   14.0341   68.1005 H   0  0  0  0  0
   19.3308   14.6631   65.9452 H   0  0  0  0  0
   13.6436   14.7225   67.4637 H   0  0  0  0  0
   15.8062   14.1820   68.3468 H   0  0  0  0  0
   15.7346   16.0357   63.1788 H   0  0  0  0  0
   25.4601   19.9142   60.7016 H   0  0  0  0  0
   25.0304   18.2783   60.2196 H   0  0  0  0  0
   22.9204   17.7718   59.3039 H   0  0  0  0  0
   21.6582   19.0056   59.1464 H   0  0  0  0  0
   23.7711   19.8000   62.5711 H   0  0  0  0  0
   25.0143   18.5223   62.7191 H   0  0  0  0  0
   21.2237   17.4453   61.0485 H   0  0  0  0  0
   21.4513   19.1464   61.6000 H   0  0  0  0  0
   17.8189   16.5810   63.4627 H   0  0  0  0  0
   17.8454   14.7903   62.9639 H   0  0  0  0  0
   23.3693   17.2665   64.1826 H   0  0  0  0  0
   22.0514   18.4723   63.9014 H   0  0  0  0  0
   23.4740   16.8657   61.7514 H   0  0  0  0  0
  2  1  4  0  0  0
  6  1  4  0  0  0
  3  2  4  0  0  0
  4  3  4  0  0  0
  4  5  4  0  0  0
  8  4  4  0  0  0
  5  6  4  0  0  0
 25  5  4  0  0  0
  6  7  1  0  0  0
  8  9  4  0  0  0
 23  8  1  0  0  0
  9 25  4  0  0  0
 18 10  1  0  0  0
 19 10  1  0  0  0
 11 12  4  0  0  0
 15 11  4  0  0  0
 12 17  4  0  0  0
 14 13  4  0  0  0
 13 16  4  0  0  0
 24 14  4  0  0  0
 26 15  4  0  0  0
 16 26  4  0  0  0
 17 27  4  0  0  0
 20 18  1  0  0  0
 21 19  1  0  0  0
 28 20  1  0  0  0
 28 21  1  0  0  0
 22 24  1  0  0  0
 25 22  1  0  0  0
 23 28  1  0  0  0
 24 27  4  0  0  0
 26 27  4  0  0  0
  2 29  1  0  0  0
  7 30  1  0  0  0
  7 31  1  0  0  0
 10 32  1  0  0  0
 10 33  1  0  0  0
 11 34  1  0  0  0
 12 35  1  0  0  0
 13 36  1  0  0  0
 14 37  1  0  0  0
 15 38  1  0  0  0
 16 39  1  0  0  0
 17 40  1  0  0  0
 18 41  1  0  0  0
 18 42  1  0  0  0
 19 43  1  0  0  0
 19 44  1  0  0  0
 20 45  1  0  0  0
 20 46  1  0  0  0
 21 47  1  0  0  0
 21 48  1  0  0  0
 22 49  1  0  0  0
 22 50  1  0  0  0
 23 51  1  0  0  0
 23 52  1  0  0  0
 28 53  1  0  0  0
M  END
$$$$
