5csw_ligand
  -I-interpret- 

 55 58  0  0  0  0  0  0  0  0999 V2000
  -22.4790   11.1920   36.3390 C   0  0  0  0  0
  -20.9920   10.5430   38.0050 C   0  0  0  0  0
  -22.1580   11.0920   37.6200 N   0  0  0  0  0
  -20.1180   10.0520   37.0070 C   0  0  0  0  0
  -21.6570   10.7510   35.3740 N   0  0  0  0  0
  -20.4890   10.1850   35.6810 C   0  0  0  0  0
  -23.6830   11.7830   36.0110 N   0  0  0  0  0
  -20.7460   10.4630   39.4630 C   0  0  0  0  0
  -22.0960   10.6320   40.5920 S   0  0  0  0  0
  -21.0110   10.4230   41.8970 C   0  0  0  0  0
  -19.7930   10.2560   41.5000 N   0  0  0  0  0
  -19.5760   10.2650   40.2000 C   0  0  0  0  0
  -21.4350   10.4200   43.3350 C   0  0  0  0  0
  -20.4990   11.3180   44.1380 C   0  0  0  0  0
  -22.8840   10.8980   43.4550 C   0  0  0  0  0
  -21.3220    8.9740   43.8200 C   0  0  0  0  0
  -18.2100   10.0670   39.6470 C   0  0  0  0  0
  -16.2430    8.6960   39.3380 C   0  0  0  0  0
  -17.5230    8.8620   39.8520 C   0  0  0  0  0
  -15.6640    9.7100   38.5790 C   0  0  0  0  0
  -17.5930   11.0750   38.8980 C   0  0  0  0  0
  -16.3340   10.8930   38.3700 C   0  0  0  0  0
  -18.0620    7.8530   40.5710 F   0  0  0  0  0
  -15.6090    7.4610   39.5360 N   0  0  0  0  0
  -14.0180    7.1930   39.8560 S   0  0  0  0  0
  -13.4760    6.7270   38.2570 C   0  0  0  0  0
  -13.5440    5.1250   36.4500 C   0  0  0  0  0
  -13.9340    5.5280   37.7270 C   0  0  0  0  0
  -12.7080    5.9240   35.6940 C   0  0  0  0  0
  -12.6450    7.5340   37.4880 C   0  0  0  0  0
  -12.2580    7.1280   36.2120 C   0  0  0  0  0
  -12.2080    8.7130   37.9630 F   0  0  0  0  0
  -14.7530    4.7380   38.4460 F   0  0  0  0  0
  -13.4100    8.4190   40.2090 O   0  0  0  0  0
  -14.0010    6.0410   40.6740 O   0  0  0  0  0
  -19.1735    9.5795   37.2767 H   0  0  0  0  0
  -19.8292    9.8285   34.8900 H   0  0  0  0  0
  -24.2987   12.1288   36.7471 H   0  0  0  0  0
  -23.9568   11.8738   35.0326 H   0  0  0  0  0
  -19.4789   10.9425   44.0567 H   0  0  0  0  0
  -20.5461   12.3336   43.7450 H   0  0  0  0  0
  -20.8056   11.3172   45.1840 H   0  0  0  0  0
  -22.9653   11.9102   43.0588 H   0  0  0  0  0
  -23.5334   10.2311   42.8878 H   0  0  0  0  0
  -23.1816   10.8919   44.5036 H   0  0  0  0  0
  -21.9741    8.3390   43.2204 H   0  0  0  0  0
  -20.2904    8.6373   43.7174 H   0  0  0  0  0
  -21.6212    8.9188   44.8667 H   0  0  0  0  0
  -14.6735    9.5652   38.1478 H   0  0  0  0  0
  -18.1156   12.0167   38.7302 H   0  0  0  0  0
  -15.8683   11.6869   37.7861 H   0  0  0  0  0
  -16.2027    6.6338   39.4745 H   0  0  0  0  0
  -13.8999    4.1767   36.0472 H   0  0  0  0  0
  -12.4041    5.6091   34.6957 H   0  0  0  0  0
  -11.5980    7.7607   35.6185 H   0  0  0  0  0
  1  3  4  0  0  0
  1  5  4  0  0  0
  1  7  1  0  0  0
  3  2  4  0  0  0
  2  4  4  0  0  0
  2  8  1  0  0  0
  4  6  4  0  0  0
  5  6  4  0  0  0
  8  9  4  0  0  0
  8 12  4  0  0  0
  9 10  4  0  0  0
 10 11  4  0  0  0
 10 13  1  0  0  0
 11 12  4  0  0  0
 12 17  1  0  0  0
 13 14  1  0  0  0
 13 15  1  0  0  0
 13 16  1  0  0  0
 17 19  4  0  0  0
 17 21  4  0  0  0
 19 18  4  0  0  0
 18 20  4  0  0  0
 18 24  1  0  0  0
 19 23  1  0  0  0
 20 22  4  0  0  0
 21 22  4  0  0  0
 24 25  1  0  0  0
 25 26  1  0  0  0
 25 34  2  0  0  0
 25 35  2  0  0  0
 26 28  4  0  0  0
 26 30  4  0  0  0
 28 27  4  0  0  0
 27 29  4  0  0  0
 28 33  1  0  0  0
 29 31  4  0  0  0
 30 31  4  0  0  0
 30 32  1  0  0  0
  4 36  1  0  0  0
  6 37  1  0  0  0
  7 38  1  0  0  0
  7 39  1  0  0  0
 14 40  1  0  0  0
 14 41  1  0  0  0
 14 42  1  0  0  0
 15 43  1  0  0  0
 15 44  1  0  0  0
 15 45  1  0  0  0
 16 46  1  0  0  0
 16 47  1  0  0  0
 16 48  1  0  0  0
 20 49  1  0  0  0
 21 50  1  0  0  0
 22 51  1  0  0  0
 24 52  1  0  0  0
 27 53  1  0  0  0
 29 54  1  0  0  0
 31 55  1  0  0  0
M  END
$$$$
