3nnv_ligand
  -I-interpret- 

 57 60  0  0  0  0  0  0  0  0999 V2000
   18.7220   10.9890   30.8090 C   0  0  0  0  0
   19.2770   12.0040   30.0190 C   0  0  0  0  0
   18.4360   12.7960   29.2250 C   0  0  0  0  0
   17.3470   10.7760   30.7950 C   0  0  0  0  0
   16.4990   11.5790   30.0070 C   0  0  0  0  0
   17.0330   12.6120   29.2050 C   0  0  0  0  0
   16.2650   13.4830   28.4360 N   0  0  0  0  0
   16.3960   13.7600   27.1350 C   0  0  0  0  0
   17.2360   13.1860   26.4380 O   0  0  0  0  0
   15.5630   14.6880   26.6140 N   0  0  0  0  0
   15.5710   15.0430   25.2870 C   0  0  0  0  0
   15.9030   14.3430   24.1230 C   0  0  0  0  0
   15.6860   15.2810   23.1050 C   0  0  0  0  0
   15.8780   14.9880   21.6300 C   0  0  0  0  0
   17.1910   14.2290   21.3510 C   0  0  0  0  0
   15.8450   16.2420   20.7370 C   0  0  0  0  0
   14.6960   14.1050   21.2500 C   0  0  0  0  0
   15.2250   16.4690   23.5390 N   0  0  0  0  0
   15.1640   16.2840   24.9100 N   0  0  0  0  0
   14.7560   17.3360   25.6540 C   0  0  0  0  0
   15.3300   17.7590   26.8550 C   0  0  0  0  0
   13.6790   18.1280   25.2050 C   0  0  0  0  0
   13.1910   19.2450   25.8860 C   0  0  0  0  0
   13.7920   19.6270   27.0670 C   0  0  0  0  0
   13.2530   20.8320   27.8160 C   0  0  0  0  0
   14.8750   18.8740   27.5630 C   0  0  0  0  0
   12.8460   21.8590   26.9000 O   0  0  0  0  0
   15.1300   11.3170   30.0400 C   0  0  0  0  0
   14.6240   10.2630   30.8200 C   0  0  0  0  0
   15.4710    9.4860   31.6060 C   0  0  0  0  0
   16.8340    9.7530   31.5940 C   0  0  0  0  0
   19.3652   10.3681   31.4326 H   0  0  0  0  0
   20.3533   12.1764   30.0217 H   0  0  0  0  0
   18.8758   13.5768   28.6045 H   0  0  0  0  0
   15.5121   13.9678   28.9244 H   0  0  0  0  0
   14.8968   15.1465   27.2356 H   0  0  0  0  0
   16.2482   13.3133   24.0298 H   0  0  0  0  0
   18.0353   14.8296   21.6895 H   0  0  0  0  0
   17.1811   13.2795   21.8862 H   0  0  0  0  0
   17.2815   14.0433   20.2807 H   0  0  0  0  0
   14.8808   16.7386   20.8457 H   0  0  0  0  0
   16.6416   16.9222   21.0385 H   0  0  0  0  0
   15.9893   15.9497   19.6969 H   0  0  0  0  0
   14.7170   13.1945   21.8489 H   0  0  0  0  0
   13.7669   14.6433   21.4374 H   0  0  0  0  0
   14.7614   13.8477   20.1928 H   0  0  0  0  0
   16.1705   17.1939   27.2578 H   0  0  0  0  0
   13.1972   17.8507   24.2674 H   0  0  0  0  0
   12.3460   19.8078   25.4893 H   0  0  0  0  0
   14.0386   21.2262   28.4606 H   0  0  0  0  0
   12.3894   20.5231   28.4050 H   0  0  0  0  0
   15.3569   19.1611   28.4976 H   0  0  0  0  0
   12.5089   22.6107   27.3929 H   0  0  0  0  0
   14.4470   11.9343   29.4564 H   0  0  0  0  0
   13.5548   10.0511   30.8095 H   0  0  0  0  0
   15.0704    8.6804   32.2214 H   0  0  0  0  0
   17.5074    9.1597   32.2126 H   0  0  0  0  0
  1  2  4  0  0  0
  1  4  4  0  0  0
  2  3  4  0  0  0
  3  6  4  0  0  0
  4  5  4  0  0  0
  4 31  4  0  0  0
  5  6  4  0  0  0
  5 28  4  0  0  0
  6  7  1  0  0  0
  7  8  1  0  0  0
  8  9  2  0  0  0
  8 10  1  0  0  0
 10 11  1  0  0  0
 11 12  4  0  0  0
 11 19  4  0  0  0
 12 13  4  0  0  0
 13 14  1  0  0  0
 13 18  4  0  0  0
 14 15  1  0  0  0
 14 16  1  0  0  0
 14 17  1  0  0  0
 18 19  4  0  0  0
 19 20  1  0  0  0
 20 21  4  0  0  0
 20 22  4  0  0  0
 21 26  4  0  0  0
 22 23  4  0  0  0
 23 24  4  0  0  0
 24 25  1  0  0  0
 24 26  4  0  0  0
 25 27  1  0  0  0
 28 29  4  0  0  0
 29 30  4  0  0  0
 30 31  4  0  0  0
  1 32  1  0  0  0
  2 33  1  0  0  0
  3 34  1  0  0  0
  7 35  1  0  0  0
 10 36  1  0  0  0
 12 37  1  0  0  0
 15 38  1  0  0  0
 15 39  1  0  0  0
 15 40  1  0  0  0
 16 41  1  0  0  0
 16 42  1  0  0  0
 16 43  1  0  0  0
 17 44  1  0  0  0
 17 45  1  0  0  0
 17 46  1  0  0  0
 21 47  1  0  0  0
 22 48  1  0  0  0
 23 49  1  0  0  0
 25 50  1  0  0  0
 25 51  1  0  0  0
 26 52  1  0  0  0
 27 53  1  0  0  0
 28 54  1  0  0  0
 29 55  1  0  0  0
 30 56  1  0  0  0
 31 57  1  0  0  0
M  END
$$$$
