6j9y_ligand
  -I-interpret- 

 45 46  0  0  0  0  0  0  0  0999 V2000
   -6.5680  -32.4900  -14.0560 C   0  0  0  0  0
   -7.8940  -32.1630  -13.3110 C   0  0  0  0  0
   -8.7230  -31.1960  -14.1110 C   0  0  0  0  0
   -7.9270  -29.9170  -14.2870 C   0  0  0  0  0
   -6.6340  -30.2630  -15.0390 C   0  0  0  0  0
   -5.7300  -29.0740  -15.0910 C   0  0  0  0  0
   -6.8570  -33.2500  -15.2150 O   0  0  0  0  0
   -8.6800  -33.3570  -13.1460 O   0  0  0  0  0
   -9.9300  -30.8590  -13.3480 O   0  0  0  0  0
   -8.6510  -28.9490  -15.0490 O   0  0  0  0  0
   -5.8950  -31.2500  -14.2830 O   0  0  0  0  0
   -4.5570  -29.2500  -15.9210 O   0  0  0  0  0
   -5.7360  -36.6700  -16.9030 C   0  0  0  0  0
   -5.3970  -36.5760  -15.4870 C   0  0  0  0  0
   -6.0850  -35.4570  -14.8530 C   0  0  0  0  0
   -5.7920  -34.1250  -15.6140 C   0  0  0  0  0
   -6.1740  -34.4000  -17.0450 C   0  0  0  0  0
   -6.0740  -33.2760  -17.9520 C   0  0  0  0  0
   -7.0150  -37.2170  -16.9990 O   0  0  0  0  0
   -5.6100  -37.8530  -14.7470 O   0  0  0  0  0
   -5.6190  -35.4820  -13.4600 O   0  0  0  0  0
   -5.4840  -35.4550  -17.6400 O   0  0  0  0  0
   -4.6130  -32.9420  -17.8750 O   0  0  0  0  0
   -5.8893  -33.1172  -13.4780 H   0  0  0  0  0
   -7.6296  -31.7346  -12.3442 H   0  0  0  0  0
   -8.9833  -31.6380  -15.0728 H   0  0  0  0  0
   -7.7219  -29.4930  -13.3040 H   0  0  0  0  0
   -6.9127  -30.6078  -16.0348 H   0  0  0  0  0
   -5.3787  -28.8948  -14.0749 H   0  0  0  0  0
   -6.3052  -28.2536  -15.5201 H   0  0  0  0  0
   -8.1803  -34.0000  -12.6375 H   0  0  0  0  0
  -10.4573  -31.6508  -13.2193 H   0  0  0  0  0
   -9.4630  -28.7236  -14.5891 H   0  0  0  0  0
   -4.0302  -28.4477  -15.9028 H   0  0  0  0  0
   -5.0602  -37.3507  -17.4208 H   0  0  0  0  0
   -4.3256  -36.3817  -15.4369 H   0  0  0  0  0
   -7.1719  -35.5334  -14.8822 H   0  0  0  0  0
   -4.7772  -33.7600  -15.4557 H   0  0  0  0  0
   -7.2243  -34.6596  -16.9122 H   0  0  0  0  0
   -6.7222  -32.4429  -17.6801 H   0  0  0  0  0
   -6.4117  -33.5054  -18.9627 H   0  0  0  0  0
   -7.2622  -37.2895  -17.9238 H   0  0  0  0  0
   -5.3714  -37.7310  -13.8252 H   0  0  0  0  0
   -6.0329  -34.7661  -12.9724 H   0  0  0  0  0
   -4.4260  -32.1952  -18.4485 H   0  0  0  0  0
  1  2  1  0  0  0
  7  1  1  0  0  0
  1 11  1  0  0  0
  2  3  1  0  0  0
  2  8  1  0  0  0
  3  4  1  0  0  0
  3  9  1  0  0  0
  5  4  1  0  0  0
  4 10  1  0  0  0
  5  6  1  0  0  0
 11  5  1  0  0  0
  6 12  1  0  0  0
 16  7  1  0  0  0
 13 14  1  0  0  0
 13 19  1  0  0  0
 22 13  1  0  0  0
 15 14  1  0  0  0
 14 20  1  0  0  0
 16 15  1  0  0  0
 15 21  1  0  0  0
 17 16  1  0  0  0
 18 17  1  0  0  0
 17 22  1  0  0  0
 23 18  1  0  0  0
  1 24  1  0  0  0
  2 25  1  0  0  0
  3 26  1  0  0  0
  4 27  1  0  0  0
  5 28  1  0  0  0
  6 29  1  0  0  0
  6 30  1  0  0  0
  8 31  1  0  0  0
  9 32  1  0  0  0
 10 33  1  0  0  0
 12 34  1  0  0  0
 13 35  1  0  0  0
 14 36  1  0  0  0
 15 37  1  0  0  0
 16 38  1  0  0  0
 17 39  1  0  0  0
 18 40  1  0  0  0
 18 41  1  0  0  0
 19 42  1  0  0  0
 20 43  1  0  0  0
 21 44  1  0  0  0
 23 45  1  0  0  0
M  END
$$$$
