### 
### Created by X-TOOL on Mon Aug  2 16:12:38 2021
### 

@<TRIPOS>MOLECULE
6ak6_ligand
   41    42     1     0     0
SMALL
GAST_HUCK


@<TRIPOS>ATOM
      1 N1        122.9200   92.6130   52.7620 N.am      1 CTP        -0.1467
      2 C2        122.1080   93.4980   53.5240 C.2       1 CTP         0.3488
      3 N3        121.3200   92.9940   54.5100 N.am      1 CTP        -0.1924
      4 C4        121.2840   91.6590   54.7750 C.2       1 CTP         0.0853
      5 C5        122.0650   90.7770   54.0310 C.2       1 CTP         0.0019
      6 C6        122.8770   91.2830   53.0180 C.2       1 CTP         0.0739
      7 O2        122.1150   94.7350   53.3080 O.2       1 CTP        -0.3777
      8 N4        120.4910   91.1760   55.7630 N.2       1 CTP        -0.4291
      9 C1'       123.7730   93.1180   51.6710 C.3       1 CTP         0.2109
     10 C2'       125.2670   92.8610   51.8160 C.3       1 CTP         0.1399
     11 O2'       125.9400   93.9310   52.4950 O.3       1 CTP        -0.3835
     12 C3'       125.6930   92.7300   50.3660 C.3       1 CTP         0.1150
     13 C4'       124.4710   92.1830   49.6320 C.3       1 CTP         0.1190
     14 O4'       123.3660   92.4370   50.4860 O.3       1 CTP        -0.3353
     15 O3'       126.0150   94.0370   49.8520 O.3       1 CTP        -0.3864
     16 C5'       124.4300   90.6960   49.2890 C.3       1 CTP         0.1131
     17 O5'       124.7540   89.9080   50.4390 O.3       1 CTP        -0.2441
     18 PA        125.4030   88.4510   50.2830 P.3       1 CTP         0.3266
     19 O1A       124.5060   87.5480   49.4430 O.co2     1 CTP        -0.5692
     20 O2A       125.8750   88.0170   51.6410 O.co2     1 CTP        -0.5692
     21 O3A       126.7000   88.8460   49.4300 O.3       1 CTP        -0.1171
     22 PB        127.1630   88.3700   47.9650 P.3       1 CTP         0.3553
     23 O1B       125.9450   88.0840   47.1220 O.co2     1 CTP        -0.5652
     24 O2B       128.1220   89.4450   47.5220 O.co2     1 CTP        -0.5652
     25 O3B       128.0700   87.0760   48.2810 O.3       1 CTP        -0.1546
     26 PG        127.8390   85.5350   47.8740 P.3       1 CTP         0.1879
     27 O1G       128.4460   85.3800   46.5140 O.co2     1 CTP        -0.6091
     28 O2G       126.3470   85.2860   47.9820 O.co2     1 CTP        -0.6091
     29 O3G       128.6200   84.8380   48.9650 O.co2     1 CTP        -0.6091
     30 H1        120.7551   93.6164   55.0519 H         1 CTP         0.2412
     31 H2        122.0411   89.7081   54.2381 H         1 CTP         0.0330
     32 H3        123.4845   90.6012   52.4247 H         1 CTP         0.1288
     33 H4        120.4694   90.1864   55.9536 H         1 CTP         0.0340
     34 H5        123.6098   94.2012   51.5707 H         1 CTP         0.1013
     35 H6        125.4521   91.9249   52.3633 H         1 CTP         0.0677
     36 H7        125.8256   94.7369   52.0052 H         1 CTP         0.2101
     37 H8        126.5542   92.0535   50.2628 H         1 CTP         0.0648
     38 H9        124.3631   92.7445   48.6923 H         1 CTP         0.0651
     39 H10       125.2766   94.6196   49.9862 H         1 CTP         0.2100
     40 H11       125.1579   90.4882   48.4909 H         1 CTP         0.0648
     41 H12       123.4201   90.4321   48.9420 H         1 CTP         0.0648
@<TRIPOS>BOND
     1    1    2 am 
     2    1    6 1  
     3    1    9 1  
     4    2    3 am 
     5    2    7 2  
     6    3    4 1  
     7    4    5 1  
     8    4    8 2  
     9    5    6 2  
    10    9   10 1  
    11    9   14 1  
    12   10   11 1  
    13   10   12 1  
    14   12   13 1  
    15   12   15 1  
    16   13   14 1  
    17   13   16 1  
    18   16   17 1  
    19   17   18 1  
    20   18   19 ar 
    21   18   20 ar 
    22   18   21 1  
    23   21   22 1  
    24   22   23 ar 
    25   22   24 ar 
    26   22   25 1  
    27   25   26 1  
    28   26   27 ar 
    29   26   28 ar 
    30   26   29 ar 
    31    3   30 1  
    32    5   31 1  
    33    6   32 1  
    34    8   33 1  
    35    9   34 1  
    36   10   35 1  
    37   11   36 1  
    38   12   37 1  
    39   13   38 1  
    40   15   39 1  
    41   16   40 1  
    42   16   41 1  
@<TRIPOS>SUBSTRUCTURE
     1 CTP         1

