6ak6_ligand
  -I-interpret- 

 45 46  0  0  0  0  0  0  0  0999 V2000
  122.9200   92.6130   52.7620 N   0  0  0  0  0
  122.1080   93.4980   53.5240 C   0  0  0  0  0
  121.3200   92.9940   54.5100 N   0  0  0  0  0
  121.2840   91.6590   54.7750 C   0  0  0  0  0
  122.0650   90.7770   54.0310 C   0  0  0  0  0
  122.8770   91.2830   53.0180 C   0  0  0  0  0
  122.1150   94.7350   53.3080 O   0  0  0  0  0
  120.4910   91.1760   55.7630 N   0  0  0  0  0
  123.7730   93.1180   51.6710 C   0  0  0  0  0
  125.2670   92.8610   51.8160 C   0  0  0  0  0
  125.9400   93.9310   52.4950 O   0  0  0  0  0
  125.6930   92.7300   50.3660 C   0  0  0  0  0
  124.4710   92.1830   49.6320 C   0  0  0  0  0
  123.3660   92.4370   50.4860 O   0  0  0  0  0
  126.0150   94.0370   49.8520 O   0  0  0  0  0
  124.4300   90.6960   49.2890 C   0  0  0  0  0
  124.7540   89.9080   50.4390 O   0  0  0  0  0
  125.4030   88.4510   50.2830 P   0  0  0  0  0
  124.5060   87.5480   49.4430 O   0  0  0  0  0
  125.8750   88.0170   51.6410 O   0  0  0  0  0
  126.7000   88.8460   49.4300 O   0  0  0  0  0
  127.1630   88.3700   47.9650 P   0  0  0  0  0
  125.9450   88.0840   47.1220 O   0  0  0  0  0
  128.1220   89.4450   47.5220 O   0  0  0  0  0
  128.0700   87.0760   48.2810 O   0  0  0  0  0
  127.8390   85.5350   47.8740 P   0  0  0  0  0
  128.4460   85.3800   46.5140 O   0  0  0  0  0
  126.3470   85.2860   47.9820 O   0  0  0  0  0
  128.6200   84.8380   48.9650 O   0  0  0  0  0
  120.7439   93.6288   55.0627 H   0  0  0  0  0
  122.0411   89.7072   54.2383 H   0  0  0  0  0
  123.4851   90.6006   52.4242 H   0  0  0  0  0
  120.4697   90.1747   55.9563 H   0  0  0  0  0
  123.6450   94.2004   51.6662 H   0  0  0  0  0
  125.5103   91.9897   52.4240 H   0  0  0  0  0
  126.8755   93.7268   52.5634 H   0  0  0  0  0
  126.5636   92.0853   50.2458 H   0  0  0  0  0
  124.4766   92.6777   48.6607 H   0  0  0  0  0
  126.2855   93.9609   48.9341 H   0  0  0  0  0
  125.1583   90.4932   48.5038 H   0  0  0  0  0
  123.4257   90.4372   48.9535 H   0  0  0  0  0
  124.3045   87.9832   48.6114 H   0  0  0  0  0
  125.4339   87.3803   47.5285 H   0  0  0  0  0
  126.0676   85.4126   48.8917 H   0  0  0  0  0
  128.1815   84.9744   49.8080 H   0  0  0  0  0
  1  2  1  0  0  0
  1  6  1  0  0  0
  1  9  1  0  0  0
  2  3  1  0  0  0
  2  7  2  0  0  0
  3  4  1  0  0  0
  4  5  1  0  0  0
  4  8  2  0  0  0
  5  6  2  0  0  0
  9 10  1  0  0  0
  9 14  1  0  0  0
 10 11  1  0  0  0
 10 12  1  0  0  0
 12 13  1  0  0  0
 12 15  1  0  0  0
 13 14  1  0  0  0
 13 16  1  0  0  0
 16 17  1  0  0  0
 17 18  1  0  0  0
 18 19  1  0  0  0
 18 20  2  0  0  0
 18 21  1  0  0  0
 21 22  1  0  0  0
 22 23  1  0  0  0
 22 24  2  0  0  0
 22 25  1  0  0  0
 25 26  1  0  0  0
 26 27  2  0  0  0
 26 28  1  0  0  0
 26 29  1  0  0  0
  3 30  1  0  0  0
  5 31  1  0  0  0
  6 32  1  0  0  0
  8 33  1  0  0  0
  9 34  1  0  0  0
 10 35  1  0  0  0
 11 36  1  0  0  0
 12 37  1  0  0  0
 13 38  1  0  0  0
 15 39  1  0  0  0
 16 40  1  0  0  0
 16 41  1  0  0  0
 19 42  1  0  0  0
 23 43  1  0  0  0
 28 44  1  0  0  0
 29 45  1  0  0  0
M  END
$$$$
