5wf6_ligand
  -I-interpret- 

104110  0  0  0  0  0  0  0  0999 V2000
   -6.1840  -11.5920   49.2670 C   0  0  0  0  0
   -5.1860  -10.3530   51.2050 N   0  0  0  0  0
   -3.8770  -11.1450   49.4450 O   0  0  0  0  0
   -5.8090  -10.5770   48.1870 C   0  0  0  0  0
   -2.5960   -9.4340   46.9890 N   0  0  0  0  0
   -6.3980  -10.8930   46.9300 O   0  0  0  0  0
   -4.2840  -10.7350   48.1300 C   0  0  0  0  0
   -5.0970   -8.2870   52.0860 N   0  0  0  0  0
   -6.2320  -12.9230   48.7640 O   0  0  0  0  0
   -5.0150  -11.4320   50.2360 C   0  0  0  0  0
   -6.5840  -10.1220   54.9490 N   0  0  0  0  0
   -4.1600   -8.3400   48.1910 O   0  0  0  0  0
   -3.6760   -9.3870   47.7680 C   0  0  0  0  0
   -6.1830  -11.5360   53.0770 N   0  0  0  0  0
   -7.2750  -13.6000   54.4150 O   0  0  0  0  0
   -1.8280   -8.2620   46.5820 C   0  0  0  0  0
   -6.0940   -7.8470   54.9660 N   0  0  0  0  0
  -10.2700  -12.6630   59.5090 O   0  0  0  0  0
   -2.6450   -7.3130   45.7770 C   0  0  0  0  0
   -7.7740  -12.3170   56.1970 N   0  0  0  0  0
   -4.8390   -9.0370   51.0430 C   0  0  0  0  0
   -8.0450  -12.6120   59.1290 N   0  0  0  0  0
   -5.6540   -9.1710   52.9990 C   0  0  0  0  0
   -8.9530  -11.2800   60.7280 N   0  0  0  0  0
   -5.7150  -10.4450   52.4670 C   0  0  0  0  0
  -11.3980   -8.5520   62.8510 N   0  0  0  0  0
   -6.1180   -9.0240   54.3220 C   0  0  0  0  0
  -10.5570   -6.7790   64.0670 N   0  0  0  0  0
   -6.6150  -11.3070   54.3210 C   0  0  0  0  0
   -6.0830   -7.7110   56.4150 C   0  0  0  0  0
   -7.1980   -8.3310   57.2600 C   0  0  0  0  0
   -8.5190   -8.5690   56.5410 C   0  0  0  0  0
   -7.4230   -7.5390   58.5420 C   0  0  0  0  0
   -9.3020   -9.6640   56.8780 C   0  0  0  0  0
  -10.4980   -9.9030   56.2270 C   0  0  0  0  0
  -10.9300   -9.0520   55.2350 C   0  0  0  0  0
  -10.1670   -7.9550   54.8980 C   0  0  0  0  0
   -8.9700   -7.7130   55.5470 C   0  0  0  0  0
   -7.3850   -8.1670   59.7790 C   0  0  0  0  0
   -7.6380   -7.4550   60.9380 C   0  0  0  0  0
   -7.9290   -6.1110   60.8780 C   0  0  0  0  0
   -7.9640   -5.4750   59.6580 C   0  0  0  0  0
   -7.7110   -6.1820   58.4960 C   0  0  0  0  0
   -7.2460  -12.5140   54.9870 C   0  0  0  0  0
   -8.6240  -13.3060   56.8440 C   0  0  0  0  0
   -8.0630  -13.7210   58.1870 C   0  0  0  0  0
   -9.1590  -12.2130   59.7720 C   0  0  0  0  0
  -10.0350  -10.7410   61.5450 C   0  0  0  0  0
  -10.8610   -9.7400   60.7620 C   0  0  0  0  0
  -11.9600   -9.1640   61.6430 C   0  0  0  0  0
  -10.6210   -9.5180   63.6360 C   0  0  0  0  0
   -9.4870  -10.1080   62.8090 C   0  0  0  0  0
  -11.7710   -6.3050   62.0510 C   0  0  0  0  0
  -11.5910   -4.9510   62.2650 C   0  0  0  0  0
  -10.9020   -4.5140   63.3700 C   0  0  0  0  0
  -10.4060   -5.4590   64.2380 C   0  0  0  0  0
  -11.2350   -7.1910   62.9870 C   0  0  0  0  0
   -7.1716  -11.4240   49.6966 H   0  0  0  0  0
   -6.1516   -9.5656   48.4055 H   0  0  0  0  0
   -2.2865  -10.3471   46.6561 H   0  0  0  0  0
   -7.3504  -10.7875   46.9886 H   0  0  0  0  0
   -3.9608  -11.4649   47.3877 H   0  0  0  0  0
   -6.9709  -13.0081   48.1571 H   0  0  0  0  0
   -4.9287  -12.3500   50.8173 H   0  0  0  0  0
   -0.9921   -8.5981   45.9684 H   0  0  0  0  0
   -1.4919   -7.7453   47.4810 H   0  0  0  0  0
   -6.0828   -6.9950   54.4054 H   0  0  0  0  0
   -3.0029   -7.8155   44.8784 H   0  0  0  0  0
   -3.4955   -6.9750   46.3691 H   0  0  0  0  0
   -2.0327   -6.4561   45.4962 H   0  0  0  0  0
   -7.5751  -11.4437   56.6850 H   0  0  0  0  0
   -4.3890   -8.6493   50.1290 H   0  0  0  0  0
   -7.1667  -12.1247   59.3067 H   0  0  0  0  0
   -8.0043  -10.9395   60.8844 H   0  0  0  0  0
   -6.1809   -6.6388   56.5853 H   0  0  0  0  0
   -5.1826   -8.2397   56.7280 H   0  0  0  0  0
   -6.8264   -9.3278   57.4973 H   0  0  0  0  0
   -8.9707  -10.3426   57.6640 H   0  0  0  0  0
  -11.1013  -10.7687   56.5003 H   0  0  0  0  0
  -11.8705   -9.2448   54.7188 H   0  0  0  0  0
  -10.5082   -7.2755   54.1170 H   0  0  0  0  0
   -8.3752   -6.8411   55.2748 H   0  0  0  0  0
   -7.1538   -9.2306   59.8380 H   0  0  0  0  0
   -7.6067   -7.9607   61.9031 H   0  0  0  0  0
   -8.1308   -5.5531   61.7924 H   0  0  0  0  0
   -8.1919   -4.4103   59.6071 H   0  0  0  0  0
   -7.7381   -5.6683   57.5350 H   0  0  0  0  0
   -8.6793  -14.1869   56.2044 H   0  0  0  0  0
   -9.6092  -12.8667   57.0008 H   0  0  0  0  0
   -8.6968  -14.5081   58.5954 H   0  0  0  0  0
   -7.0387  -14.0634   58.0402 H   0  0  0  0  0
  -10.6863  -11.5678   61.8284 H   0  0  0  0  0
  -11.3145  -10.2419   59.9073 H   0  0  0  0  0
  -10.2143   -8.9309   60.4226 H   0  0  0  0  0
  -12.4950   -8.3993   61.0799 H   0  0  0  0  0
  -12.6300   -9.9711   61.9391 H   0  0  0  0  0
  -11.2821  -10.3261   63.9491 H   0  0  0  0  0
  -10.1945   -9.0051   64.4981 H   0  0  0  0  0
   -8.7923   -9.3131   62.5376 H   0  0  0  0  0
   -8.9758  -10.8703   63.3970 H   0  0  0  0  0
  -12.3143   -6.6691   61.1790 H   0  0  0  0  0
  -11.9964   -4.2293   61.5559 H   0  0  0  0  0
  -10.7527   -3.4500   63.5537 H   0  0  0  0  0
   -9.8587   -5.1139   65.1152 H   0  0  0  0  0
  1  4  1  0  0  0
  1  9  1  0  0  0
 10  1  1  0  0  0
  2 10  1  0  0  0
  2 21  4  0  0  0
 25  2  4  0  0  0
  3  7  1  0  0  0
 10  3  1  0  0  0
  4  6  1  0  0  0
  7  4  1  0  0  0
 13  5  1  0  0  0
  5 16  1  0  0  0
  7 13  1  0  0  0
  8 21  4  0  0  0
 23  8  4  0  0  0
 11 27  4  0  0  0
 29 11  4  0  0  0
 13 12  2  0  0  0
 14 25  4  0  0  0
 29 14  4  0  0  0
 44 15  2  0  0  0
 16 19  1  0  0  0
 27 17  1  0  0  0
 17 30  1  0  0  0
 47 18  2  0  0  0
 20 44  1  0  0  0
 45 20  1  0  0  0
 22 46  1  0  0  0
 47 22  1  0  0  0
 25 23  4  0  0  0
 27 23  4  0  0  0
 24 47  1  0  0  0
 48 24  1  0  0  0
 26 50  1  0  0  0
 26 51  1  0  0  0
 57 26  1  0  0  0
 28 56  4  0  0  0
 57 28  4  0  0  0
 44 29  1  0  0  0
 30 31  1  0  0  0
 31 32  1  0  0  0
 31 33  1  0  0  0
 32 34  4  0  0  0
 32 38  4  0  0  0
 33 39  4  0  0  0
 33 43  4  0  0  0
 34 35  4  0  0  0
 35 36  4  0  0  0
 37 36  4  0  0  0
 38 37  4  0  0  0
 39 40  4  0  0  0
 40 41  4  0  0  0
 42 41  4  0  0  0
 43 42  4  0  0  0
 46 45  1  0  0  0
 49 48  1  0  0  0
 52 48  1  0  0  0
 50 49  1  0  0  0
 51 52  1  0  0  0
 53 54  4  0  0  0
 53 57  4  0  0  0
 54 55  4  0  0  0
 55 56  4  0  0  0
  1 58  1  0  0  0
  4 59  1  0  0  0
  5 60  1  0  0  0
  6 61  1  0  0  0
  7 62  1  0  0  0
  9 63  1  0  0  0
 10 64  1  0  0  0
 16 65  1  0  0  0
 16 66  1  0  0  0
 17 67  1  0  0  0
 19 68  1  0  0  0
 19 69  1  0  0  0
 19 70  1  0  0  0
 20 71  1  0  0  0
 21 72  1  0  0  0
 22 73  1  0  0  0
 24 74  1  0  0  0
 30 75  1  0  0  0
 30 76  1  0  0  0
 31 77  1  0  0  0
 34 78  1  0  0  0
 35 79  1  0  0  0
 36 80  1  0  0  0
 37 81  1  0  0  0
 38 82  1  0  0  0
 39 83  1  0  0  0
 40 84  1  0  0  0
 41 85  1  0  0  0
 42 86  1  0  0  0
 43 87  1  0  0  0
 45 88  1  0  0  0
 45 89  1  0  0  0
 46 90  1  0  0  0
 46 91  1  0  0  0
 48 92  1  0  0  0
 49 93  1  0  0  0
 49 94  1  0  0  0
 50 95  1  0  0  0
 50 96  1  0  0  0
 51 97  1  0  0  0
 51 98  1  0  0  0
 52 99  1  0  0  0
 52100  1  0  0  0
 53101  1  0  0  0
 54102  1  0  0  0
 55103  1  0  0  0
 56104  1  0  0  0
M  END
$$$$
