1l6m_ligand
  -I-interpret- 

 17 17  0  0  0  0  0  0  0  0999 V2000
   31.1090   76.4080   66.2180 O   0  0  0  0  0
   32.0030   75.6200   65.5910 C   0  0  0  0  0
   33.0180   75.2480   66.1960 O   0  0  0  0  0
   31.6450   75.1920   64.1430 C   0  0  0  0  0
   32.4820   74.2040   63.4330 C   0  0  0  0  0
   32.1960   73.7700   62.1370 C   0  0  0  0  0
   30.5140   75.6890   63.4150 C   0  0  0  0  0
   29.6370   76.5890   63.8880 O   0  0  0  0  0
   30.2330   75.2120   62.0490 C   0  0  0  0  0
   31.0810   74.2540   61.4240 C   0  0  0  0  0
   29.1390   75.7420   61.4610 O   0  0  0  0  0
   30.3850   76.6073   65.6200 H   0  0  0  0  0
   33.3570   73.7978   63.9403 H   0  0  0  0  0
   32.8517   73.0384   61.6649 H   0  0  0  0  0
   28.9693   76.7647   63.2210 H   0  0  0  0  0
   30.8718   73.9019   60.4139 H   0  0  0  0  0
   29.0397   75.3727   60.5805 H   0  0  0  0  0
  1  2  1  0  0  0
  2  3  2  0  0  0
  2  4  1  0  0  0
  4  5  4  0  0  0
  4  7  4  0  0  0
  5  6  4  0  0  0
  6 10  4  0  0  0
  7  8  1  0  0  0
  7  9  4  0  0  0
  9 10  4  0  0  0
  9 11  1  0  0  0
  1 12  1  0  0  0
  5 13  1  0  0  0
  6 14  1  0  0  0
  8 15  1  0  0  0
 10 16  1  0  0  0
 11 17  1  0  0  0
M  END
$$$$
