2wc3_ligand
  -I-interpret- 

 50 51  0  0  0  0  0  0  0  0999 V2000
    0.4080   -0.0410   11.7630 O   0  0  0  0  0
    1.6890    0.3380   11.2440 C   0  0  0  0  0
    1.8200    1.8740   11.1390 C   0  0  0  0  0
    0.6760    2.5940   10.3810 C   0  0  0  0  0
    0.3070    3.6430   11.3140 O   0  0  0  0  0
    2.8740   -0.1490   12.0980 C   0  0  0  0  0
    2.9070   -1.5580   12.1860 O   0  0  0  0  0
    2.9180    0.4130   13.5280 C   0  0  0  0  0
    4.2510    0.1860   14.0480 O   0  0  0  0  0
    2.6310    1.9250   13.5880 C   0  0  0  0  0
    1.7810    2.1770   14.6900 O   0  0  0  0  0
    1.8160    2.4440   12.4920 N   0  0  0  0  0
    0.9160    3.5260   12.5140 C   0  0  0  0  0
    0.6120    4.3240   13.5520 N   0  0  0  0  0
   -0.7070    4.7020   14.1310 C   0  0  0  0  0
   -1.0960    6.1100   13.7270 C   0  0  0  0  0
   -1.6840    6.9770   14.8290 C   0  0  0  0  0
   -3.1450    6.6770   15.1400 C   0  0  0  0  0
   -3.8480    7.9790   15.5160 C   0  0  0  0  0
   -5.1960    7.6560   16.1520 C   0  0  0  0  0
   -5.9040    8.9200   16.6040 C   0  0  0  0  0
   -6.7890    9.4530   15.4970 C   0  0  0  0  0
   -0.2818    0.2932   11.1850 H   0  0  0  0  0
    1.7345   -0.1388   10.2649 H   0  0  0  0  0
    2.7424    2.0318   10.5800 H   0  0  0  0  0
   -0.1529    1.9344   10.1241 H   0  0  0  0  0
    0.9773    2.9723    9.4042 H   0  0  0  0  0
    3.7450    0.2344   11.5664 H   0  0  0  0  0
    2.8804   -1.9334   11.3028 H   0  0  0  0  0
    2.1462   -0.0898   14.1108 H   0  0  0  0  0
    4.4490   -0.7529   14.0189 H   0  0  0  0  0
    3.6208    2.3813   13.5981 H   0  0  0  0  0
    1.5935    3.1172   14.7396 H   0  0  0  0  0
   -0.6368    4.6575   15.2178 H   0  0  0  0  0
   -1.4628    4.0106   13.7585 H   0  0  0  0  0
   -1.8720    6.0089   12.9682 H   0  0  0  0  0
   -0.1782    6.6022   13.4052 H   0  0  0  0  0
   -1.6314    8.0114   14.4895 H   0  0  0  0  0
   -1.1129    6.7787   15.7360 H   0  0  0  0  0
   -3.2080    5.9716   15.9686 H   0  0  0  0  0
   -3.6253    6.2382   14.2655 H   0  0  0  0  0
   -4.0010    8.5834   14.6219 H   0  0  0  0  0
   -3.2335    8.5351   16.2240 H   0  0  0  0  0
   -5.0280    7.0205   17.0215 H   0  0  0  0  0
   -5.8189    7.1529   15.4124 H   0  0  0  0  0
   -5.1584    9.6738   16.8568 H   0  0  0  0  0
   -6.5210    8.6903   17.4727 H   0  0  0  0  0
   -6.1785    9.6802   14.6231 H   0  0  0  0  0
   -7.5342    8.7017   15.2358 H   0  0  0  0  0
   -7.2891   10.3595   15.8380 H   0  0  0  0  0
  1  2  1  0  0  0
  2  3  1  0  0  0
  2  6  1  0  0  0
  3  4  1  0  0  0
  3 12  1  0  0  0
  4  5  1  0  0  0
  5 13  1  0  0  0
  6  7  1  0  0  0
  6  8  1  0  0  0
  8  9  1  0  0  0
  8 10  1  0  0  0
 10 11  1  0  0  0
 10 12  1  0  0  0
 12 13  1  0  0  0
 13 14  2  0  0  0
 14 15  1  0  0  0
 15 16  1  0  0  0
 16 17  1  0  0  0
 17 18  1  0  0  0
 18 19  1  0  0  0
 19 20  1  0  0  0
 20 21  1  0  0  0
 21 22  1  0  0  0
  1 23  1  0  0  0
  2 24  1  0  0  0
  3 25  1  0  0  0
  4 26  1  0  0  0
  4 27  1  0  0  0
  6 28  1  0  0  0
  7 29  1  0  0  0
  8 30  1  0  0  0
  9 31  1  0  0  0
 10 32  1  0  0  0
 11 33  1  0  0  0
 15 34  1  0  0  0
 15 35  1  0  0  0
 16 36  1  0  0  0
 16 37  1  0  0  0
 17 38  1  0  0  0
 17 39  1  0  0  0
 18 40  1  0  0  0
 18 41  1  0  0  0
 19 42  1  0  0  0
 19 43  1  0  0  0
 20 44  1  0  0  0
 20 45  1  0  0  0
 21 46  1  0  0  0
 21 47  1  0  0  0
 22 48  1  0  0  0
 22 49  1  0  0  0
 22 50  1  0  0  0
M  END
$$$$
