4ris_ligand
  -I-interpret- 

257259  0  0  0  0  0  0  0  0999 V2000
   13.2130 -112.3530  101.2910 N   0  3  0  0  0
   13.3930 -113.5790  102.0610 C   0  0  0  0  0
   14.8190 -113.6930  102.5680 C   0  0  0  0  0
   15.6230 -112.7880  102.3790 O   0  0  0  0  0
   13.0320 -114.8170  101.2370 C   0  0  0  0  0
   11.6110 -114.8180  100.7040 C   0  0  0  0  0
   11.6180 -115.1100   99.2190 C   0  0  0  0  0
   12.7610 -114.4740   98.5620 N   0  0  0  0  0
   12.7920 -113.2050   98.1590 C   0  0  0  0  0
   11.7360 -112.4220   98.3420 N   0  0  0  0  0
   13.8800 -112.7180   97.5730 N   0  0  0  0  0
   15.1390 -114.8190  103.1910 N   0  0  0  0  0
   16.3340 -114.8840  104.0170 C   0  0  0  0  0
   17.6680 -114.9610  103.2630 C   0  0  0  0  0
   18.6090 -114.2770  103.6420 O   0  0  0  0  0
   16.2250 -115.9870  105.0670 C   0  0  0  0  0
   16.8130 -115.5730  106.3980 C   0  0  0  0  0
   16.6490 -114.3940  106.7850 O   0  0  0  0  0
   17.4460 -116.4270  107.0540 O   0  0  0  0  0
   17.7700 -115.7650  102.2110 N   0  0  0  0  0
   19.0310 -115.7990  101.4530 C   0  0  0  0  0
   19.3930 -114.4500  100.8020 C   0  0  0  0  0
   20.5670 -114.0750  100.7460 O   0  0  0  0  0
   19.0460 -116.9310  100.4160 C   0  0  0  0  0
   19.4910 -118.2780  100.9770 C   0  0  0  0  0
   19.6830 -119.2990   99.8780 C   0  0  0  0  0
   18.3590 -119.6610   99.2080 C   0  0  0  0  0
   18.4820 -120.8190   98.2830 N   0  3  0  0  0
   18.3890 -113.7230  100.3200 N   0  0  0  0  0
   18.6260 -112.4080   99.7680 C   0  0  0  0  0
   18.9650 -111.4290  100.8830 C   0  0  0  0  0
   19.8500 -110.5740  100.7300 O   0  0  0  0  0
   17.4140 -111.9100   98.9940 C   0  0  0  0  0
   17.5720 -110.4880   98.5040 C   0  0  0  0  0
   17.6140 -110.4220   97.0010 C   0  0  0  0  0
   18.8250 -111.1230   96.4340 C   0  0  0  0  0
   18.6040 -111.2840   94.9770 N   0  3  0  0  0
   18.2570 -111.5570  102.0030 N   0  0  0  0  0
   18.5610 -110.7640  103.1890 C   0  0  0  0  0
   20.0540 -110.8820  103.5530 C   0  0  0  0  0
   20.7260 -109.8720  103.7570 O   0  0  0  0  0
   17.6600 -111.1800  104.3560 C   0  0  0  0  0
   18.1350 -110.7050  105.7160 C   0  0  0  0  0
   18.2160 -109.1930  105.8190 C   0  0  0  0  0
   17.3330 -108.4750  105.3370 O   0  0  0  0  0
   19.2800 -108.6980  106.4480 N   0  0  0  0  0
   20.5690 -112.1120  103.5840 N   0  0  0  0  0
   21.9750 -112.3670  103.9050 C   0  0  0  0  0
   22.9720 -111.6750  102.9730 C   0  0  0  0  0
   23.9690 -111.1410  103.4460 O   0  0  0  0  0
   22.2540 -113.8720  103.9410 C   0  0  0  0  0
   21.5070 -114.5940  105.0350 C   0  0  0  0  0
   21.7210 -116.0890  104.9590 C   0  0  0  0  0
   21.0370 -116.7950  106.1190 C   0  0  0  0  0
   21.3400 -118.2510  106.1150 N   0  3  0  0  0
   22.7290 -111.6810  101.6600 N   0  0  0  0  0
   23.6840 -111.0430  100.7590 C   0  0  0  0  0
   23.6390 -109.5280  100.8890 C   0  0  0  0  0
   24.6690 -108.8640  100.7930 O   0  0  0  0  0
   23.5680 -111.5060   99.2920 C   0  0  0  0  0
   23.9720 -112.9650   99.1680 C   0  0  0  0  0
   22.1820 -111.2650   98.7350 C   0  0  0  0  0
   22.4490 -108.9920  101.1600 N   0  0  0  0  0
   22.2950 -107.5720  101.4560 C   0  0  0  0  0
   23.1350 -107.1620  102.6560 C   0  0  0  0  0
   23.7870 -106.1190  102.6400 O   0  0  0  0  0
   20.8440 -107.2410  101.7380 C   0  0  0  0  0
   19.9900 -107.1890  100.5150 C   0  0  0  0  0
   20.4760 -106.8040   99.2850 N   0  0  0  0  0
   18.6800 -107.4730  100.3340 C   0  0  0  0  0
   19.5000 -106.8590   98.3970 C   0  0  0  0  0
   18.3990 -107.2580   99.0100 N   0  0  0  0  0
   23.1150 -107.9940  103.6910 N   0  0  0  0  0
   23.8310 -107.7100  104.9310 C   0  0  0  0  0
   25.3350 -107.7920  104.6940 C   0  0  0  0  0
   26.1250 -107.1710  105.4080 O   0  0  0  0  0
   23.4120 -108.6840  106.0100 C   0  0  0  0  0
   25.7170 -108.5600  103.6770 N   0  0  0  0  0
   27.1070 -108.7410  103.3300 C   0  0  0  0  0
   27.5880 -107.6070  102.4460 C   0  0  0  0  0
   28.6460 -107.0350  102.6690 O   0  0  0  0  0
   27.2700 -110.0420  102.5530 C   0  0  0  0  0
   28.1980 -111.0930  103.1420 C   0  0  0  0  0
   28.4000 -112.2300  102.1510 C   0  0  0  0  0
   29.5310 -110.4710  103.5410 C   0  0  0  0  0
   26.7910 -107.2710  101.4450 N   0  0  0  0  0
   27.2860 -106.4920  100.3240 C   0  0  0  0  0
   26.7370 -105.0750  100.1820 C   0  0  0  0  0
   27.3290 -104.2690   99.4690 O   0  0  0  0  0
   27.0440 -107.2670   99.0220 C   0  0  0  0  0
   27.7570 -108.5890   98.9660 C   0  0  0  0  0
   29.1020 -108.6800   99.2900 C   0  0  0  0  0
   27.0760 -109.7420   98.6130 C   0  0  0  0  0
   29.7630 -109.9050   99.2490 C   0  0  0  0  0
   27.7180 -110.9620   98.5740 C   0  0  0  0  0
   29.0680 -111.0440   98.8890 C   0  0  0  0  0
   25.6200 -104.7520  100.8300 N   0  0  0  0  0
   24.9780 -103.4710  100.5290 C   0  0  0  0  0
   25.7180 -102.2170  100.9970 C   0  0  0  0  0
   26.0870 -102.0900  102.1630 O   0  0  0  0  0
   23.5270 -103.4140  101.0040 C   0  0  0  0  0
   22.8740 -102.0810  100.6860 C   0  0  0  0  0
   22.2870 -101.8530   99.4530 C   0  0  0  0  0
   22.8660 -101.0420  101.6190 C   0  0  0  0  0
   21.7010 -100.6340   99.1580 C   0  0  0  0  0
   22.2840  -99.8210  101.3340 C   0  0  0  0  0
   21.7020  -99.6210  100.1020 C   0  0  0  0  0
   21.1250  -98.4030   99.8130 O   0  0  0  0  0
   25.9000 -101.2920  100.0550 N   0  0  0  0  0
   26.3710  -99.9320  100.3160 C   0  0  0  0  0
   25.5830  -98.9600   99.4300 C   0  0  0  0  0
   25.3170  -99.2540   98.2630 O   0  0  0  0  0
   27.8540  -99.8210   99.9890 C   0  0  0  0  0
   28.7380 -100.8050  100.7300 C   0  0  0  0  0
   29.1950 -100.2290  102.0580 C   0  0  0  0  0
   30.1230 -101.1960  102.7800 C   0  0  0  0  0
   30.7110 -100.6050  104.0230 N   0  3  0  0  0
   25.2230  -97.8000   99.9670 N   0  0  0  0  0
   24.3660  -96.8620   99.2340 C   0  0  0  0  0
   24.9830  -96.3440   97.9280 C   0  0  0  0  0
   26.0870  -95.7980   97.9160 O   0  0  0  0  0
   23.9480  -95.7020  100.1310 C   0  0  0  0  0
   24.3920  -96.4590   96.8530 O   0  0  0  0  0
   13.4619 -111.5503  101.8690 H   0  0  0  0  0
   13.8134 -112.3793  100.4669 H   0  0  0  0  0
   12.2383 -112.2753  101.0007 H   0  0  0  0  0
   12.7167 -113.5280  102.9143 H   0  0  0  0  0
   13.1289 -115.6805  101.8952 H   0  0  0  0  0
   13.6986 -114.8346  100.3747 H   0  0  0  0  0
   11.1619 -113.8398  100.8759 H   0  0  0  0  0
   11.0345 -115.5866  101.2188 H   0  0  0  0  0
   10.7007 -114.7157   98.7818 H   0  0  0  0  0
   11.6892 -116.1882   99.0760 H   0  0  0  0  0
   13.5923 -115.0428   98.4015 H   0  0  0  0  0
   10.8987 -112.7919   98.7920 H   0  0  0  0  0
   13.9018 -111.7457   97.2655 H   0  0  0  0  0
   14.6937 -113.3163   97.4305 H   0  0  0  0  0
   14.5450 -115.6421  103.0905 H   0  0  0  0  0
   16.3656 -113.9137  104.5125 H   0  0  0  0  0
   16.7804 -116.8529  104.7067 H   0  0  0  0  0
   15.1681 -116.2068  105.2180 H   0  0  0  0  0
   16.1364 -113.9123  106.1317 H   0  0  0  0  0
   16.9839 -116.3519  101.9317 H   0  0  0  0  0
   19.8064 -116.0032  102.1913 H   0  0  0  0  0
   19.7596 -116.6511   99.6411 H   0  0  0  0  0
   18.0251 -117.0522  100.0538 H   0  0  0  0  0
   18.7194 -118.6417  101.6556 H   0  0  0  0  0
   20.4422 -118.1409  101.4914 H   0  0  0  0  0
   20.1044 -120.2029  100.3179 H   0  0  0  0  0
   20.3448 -118.8727   99.1241 H   0  0  0  0  0
   18.0324 -118.7999   98.6249 H   0  0  0  0  0
   17.6506 -119.9317   99.9909 H   0  0  0  0  0
   17.5728 -121.0168   97.8650 H   0  0  0  0  0
   19.1539 -120.5962   97.5487 H   0  0  0  0  0
   18.8033 -121.6355   98.8031 H   0  0  0  0  0
   17.4405 -114.0977  100.3400 H   0  0  0  0  0
   19.4666 -112.4774   99.0776 H   0  0  0  0  0
   16.5560 -111.9372   99.6657 H   0  0  0  0  0
   17.2901 -112.5510   98.1211 H   0  0  0  0  0
   18.5101 -110.0918   98.8927 H   0  0  0  0  0
   16.7173 -109.9071   98.8507 H   0  0  0  0  0
   17.6609 -109.3731   96.7084 H   0  0  0  0  0
   16.7232 -110.9171   96.6144 H   0  0  0  0  0
   18.9606 -112.0947   96.9090 H   0  0  0  0  0
   19.7262 -110.5391   96.6210 H   0  0  0  0  0
   19.4075 -111.7562   94.5626 H   0  0  0  0  0
   17.7635 -111.8405   94.8213 H   0  0  0  0  0
   18.4894 -110.3656   94.5482 H   0  0  0  0  0
   17.4856 -112.2237  102.0325 H   0  0  0  0  0
   18.3586 -109.7153  102.9715 H   0  0  0  0  0
   17.6540 -112.2697  104.3823 H   0  0  0  0  0
   16.6835 -110.7277  104.1827 H   0  0  0  0  0
   19.1368 -111.1035  105.8764 H   0  0  0  0  0
   17.4164 -111.0511  106.4589 H   0  0  0  0  0
   19.3901 -107.6888  106.5471 H   0  0  0  0  0
   19.9850 -109.3280  106.8308 H   0  0  0  0  0
   19.9611 -112.9043  103.3765 H   0  0  0  0  0
   22.1297 -111.9298  104.8914 H   0  0  0  0  0
   23.3196 -114.0042  104.1284 H   0  0  0  0  0
   21.9267 -114.2896  102.9889 H   0  0  0  0  0
   20.4424 -114.3913  104.9179 H   0  0  0  0  0
   21.8776 -114.2407  105.9973 H   0  0  0  0  0
   22.7907 -116.2927  105.0065 H   0  0  0  0  0
   21.2959 -116.4568  104.0252 H   0  0  0  0  0
   19.9595 -116.6632  106.0204 H   0  0  0  0  0
   21.4021 -116.3658  107.0521 H   0  0  0  0  0
   20.8691 -118.6972  106.9021 H   0  0  0  0  0
   21.0106 -118.6632  105.2421 H   0  0  0  0  0
   22.3474 -118.3877  106.1981 H   0  0  0  0  0
   21.8879 -112.1252  101.2918 H   0  0  0  0  0
   24.6696 -111.3789  101.0813 H   0  0  0  0  0
   24.2546 -110.9074   98.6934 H   0  0  0  0  0
   25.0034 -113.0845   99.4997 H   0  0  0  0  0
   23.3164 -113.5762   99.7883 H   0  0  0  0  0
   23.8851 -113.2776   98.1274 H   0  0  0  0  0
   21.4526 -111.8172   99.3276 H   0  0  0  0  0
   21.9549 -110.1998   98.7774 H   0  0  0  0  0
   22.1435 -111.6051   97.7001 H   0  0  0  0  0
   21.6235 -109.5912  101.1604 H   0  0  0  0  0
   22.6357 -107.0209  100.5794 H   0  0  0  0  0
   20.8189 -106.2516  102.1946 H   0  0  0  0  0
   20.4487 -108.0302  102.3775 H   0  0  0  0  0
   17.9792 -107.8097  101.0979 H   0  0  0  0  0
   19.5876 -106.6164   97.3379 H   0  0  0  0  0
   22.5816 -108.8603  103.6170 H   0  0  0  0  0
   23.5834 -106.7010  105.2608 H   0  0  0  0  0
   22.3404 -108.5902  106.1862 H   0  0  0  0  0
   23.6412 -109.7002  105.6893 H   0  0  0  0  0
   23.9535 -108.4609  106.9293 H   0  0  0  0  0
   25.0046 -109.0367  103.1242 H   0  0  0  0  0
   27.6889 -108.7623  104.2514 H   0  0  0  0  0
   27.7105 -109.7616  101.5962 H   0  0  0  0  0
   26.2809 -110.4995  102.5319 H   0  0  0  0  0
   27.7379 -111.5009  104.0420 H   0  0  0  0  0
   27.4374 -112.6890  101.9255 H   0  0  0  0  0
   28.8404 -111.8375  101.2345 H   0  0  0  0  0
   29.0663 -112.9751  102.5857 H   0  0  0  0  0
   30.0046 -110.0347  102.6616 H   0  0  0  0  0
   29.3594 -109.6940  104.2860 H   0  0  0  0  0
   30.1789 -111.2410  103.9598 H   0  0  0  0  0
   25.8140 -107.5636  101.4609 H   0  0  0  0  0
   28.3465 -106.3522  100.5335 H   0  0  0  0  0
   27.4240 -106.6562   98.2031 H   0  0  0  0  0
   25.9750 -107.4696   98.9566 H   0  0  0  0  0
   29.6482 -107.7825   99.5801 H   0  0  0  0  0
   26.0168 -109.6845   98.3622 H   0  0  0  0  0
   30.8222 -109.9651   99.4993 H   0  0  0  0  0
   27.1667 -111.8604   98.2964 H   0  0  0  0  0
   29.5791 -112.0060   98.8523 H   0  0  0  0  0
   25.2192 -105.3845  101.5226 H   0  0  0  0  0
   25.0143 -103.4476   99.4399 H   0  0  0  0  0
   23.5179 -103.5476  102.0857 H   0  0  0  0  0
   22.9698 -104.1969  100.4895 H   0  0  0  0  0
   22.2863 -102.6447   98.7038 H   0  0  0  0  0
   23.3289 -101.1972  102.5935 H   0  0  0  0  0
   21.2394 -100.4718   98.1840 H   0  0  0  0  0
   22.2857  -99.0239  102.0775 H   0  0  0  0  0
   21.2130  -97.8206  100.5711 H   0  0  0  0  0
   25.6976 -101.5492   99.0889 H   0  0  0  0  0
   26.2215  -99.6904  101.3683 H   0  0  0  0  0
   28.1716  -98.8214  100.2857 H   0  0  0  0  0
   27.9624 -100.0337   98.9255 H   0  0  0  0  0
   29.6156 -101.0167  100.1192 H   0  0  0  0  0
   28.1678 -101.7143  100.9200 H   0  0  0  0  0
   28.3195 -100.0515  102.6826 H   0  0  0  0  0
   29.7342  -99.3005  101.8701 H   0  0  0  0  0
   30.9422 -101.4436  102.1050 H   0  0  0  0  0
   29.5400 -102.0712  103.0667 H   0  0  0  0  0
   31.3224 -101.2899  104.4674 H   0  0  0  0  0
   31.2496  -99.7733  103.7808 H   0  0  0  0  0
   29.9604 -100.3504  104.6650 H   0  0  0  0  0
   25.5473  -97.5577  100.9032 H   0  0  0  0  0
   23.4836  -97.4305   98.9405 H   0  0  0  0  0
   23.3969  -96.0879  100.9886 H   0  0  0  0  0
   24.8363  -95.1731  100.4764 H   0  0  0  0  0
   23.3130  -95.0188   99.5670 H   0  0  0  0  0
   23.5502  -96.8974   96.9972 H   0  0  0  0  0
  1  2  1  0  0  0
  2  3  1  0  0  0
  2  5  1  0  0  0
  3  4  2  0  0  0
  3 12  1  0  0  0
  5  6  1  0  0  0
  6  7  1  0  0  0
  7  8  1  0  0  0
  8  9  1  0  0  0
  9 10  2  0  0  0
  9 11  1  0  0  0
 12 13  1  0  0  0
 13 14  1  0  0  0
 13 16  1  0  0  0
 14 15  2  0  0  0
 14 20  1  0  0  0
 16 17  1  0  0  0
 17 18  1  0  0  0
 17 19  2  0  0  0
 20 21  1  0  0  0
 21 22  1  0  0  0
 21 24  1  0  0  0
 22 23  2  0  0  0
 22 29  1  0  0  0
 24 25  1  0  0  0
 25 26  1  0  0  0
 26 27  1  0  0  0
 27 28  1  0  0  0
 29 30  1  0  0  0
 30 31  1  0  0  0
 30 33  1  0  0  0
 31 32  2  0  0  0
 31 38  1  0  0  0
 33 34  1  0  0  0
 34 35  1  0  0  0
 35 36  1  0  0  0
 36 37  1  0  0  0
 38 39  1  0  0  0
 39 40  1  0  0  0
 39 42  1  0  0  0
 40 41  2  0  0  0
 40 47  1  0  0  0
 42 43  1  0  0  0
 43 44  1  0  0  0
 44 45  2  0  0  0
 44 46  1  0  0  0
 47 48  1  0  0  0
 48 49  1  0  0  0
 48 51  1  0  0  0
 49 50  2  0  0  0
 49 56  1  0  0  0
 51 52  1  0  0  0
 52 53  1  0  0  0
 53 54  1  0  0  0
 54 55  1  0  0  0
 56 57  1  0  0  0
 57 58  1  0  0  0
 57 60  1  0  0  0
 58 59  2  0  0  0
 58 63  1  0  0  0
 60 61  1  0  0  0
 60 62  1  0  0  0
 63 64  1  0  0  0
 64 65  1  0  0  0
 64 67  1  0  0  0
 65 66  2  0  0  0
 65 73  1  0  0  0
 67 68  1  0  0  0
 68 69  4  0  0  0
 68 70  4  0  0  0
 69 71  4  0  0  0
 70 72  4  0  0  0
 71 72  4  0  0  0
 73 74  1  0  0  0
 74 75  1  0  0  0
 74 77  1  0  0  0
 75 76  2  0  0  0
 75 78  1  0  0  0
 78 79  1  0  0  0
 79 80  1  0  0  0
 79 82  1  0  0  0
 80 81  2  0  0  0
 80 86  1  0  0  0
 82 83  1  0  0  0
 83 84  1  0  0  0
 83 85  1  0  0  0
 86 87  1  0  0  0
 87 88  1  0  0  0
 87 90  1  0  0  0
 88 89  2  0  0  0
 88 97  1  0  0  0
 90 91  1  0  0  0
 91 92  4  0  0  0
 91 93  4  0  0  0
 92 94  4  0  0  0
 93 95  4  0  0  0
 94 96  4  0  0  0
 95 96  4  0  0  0
 97 98  1  0  0  0
 98 99  1  0  0  0
 98101  1  0  0  0
 99100  2  0  0  0
 99109  1  0  0  0
101102  1  0  0  0
102103  4  0  0  0
102104  4  0  0  0
103105  4  0  0  0
104106  4  0  0  0
105107  4  0  0  0
106107  4  0  0  0
107108  1  0  0  0
109110  1  0  0  0
110111  1  0  0  0
110113  1  0  0  0
111112  2  0  0  0
111118  1  0  0  0
113114  1  0  0  0
114115  1  0  0  0
115116  1  0  0  0
116117  1  0  0  0
118119  1  0  0  0
119120  1  0  0  0
119122  1  0  0  0
120121  2  0  0  0
120123  1  0  0  0
  1124  1  0  0  0
  1125  1  0  0  0
  1126  1  0  0  0
  2127  1  0  0  0
  5128  1  0  0  0
  5129  1  0  0  0
  6130  1  0  0  0
  6131  1  0  0  0
  7132  1  0  0  0
  7133  1  0  0  0
  8134  1  0  0  0
 10135  1  0  0  0
 11136  1  0  0  0
 11137  1  0  0  0
 12138  1  0  0  0
 13139  1  0  0  0
 16140  1  0  0  0
 16141  1  0  0  0
 18142  1  0  0  0
 20143  1  0  0  0
 21144  1  0  0  0
 24145  1  0  0  0
 24146  1  0  0  0
 25147  1  0  0  0
 25148  1  0  0  0
 26149  1  0  0  0
 26150  1  0  0  0
 27151  1  0  0  0
 27152  1  0  0  0
 28153  1  0  0  0
 28154  1  0  0  0
 28155  1  0  0  0
 29156  1  0  0  0
 30157  1  0  0  0
 33158  1  0  0  0
 33159  1  0  0  0
 34160  1  0  0  0
 34161  1  0  0  0
 35162  1  0  0  0
 35163  1  0  0  0
 36164  1  0  0  0
 36165  1  0  0  0
 37166  1  0  0  0
 37167  1  0  0  0
 37168  1  0  0  0
 38169  1  0  0  0
 39170  1  0  0  0
 42171  1  0  0  0
 42172  1  0  0  0
 43173  1  0  0  0
 43174  1  0  0  0
 46175  1  0  0  0
 46176  1  0  0  0
 47177  1  0  0  0
 48178  1  0  0  0
 51179  1  0  0  0
 51180  1  0  0  0
 52181  1  0  0  0
 52182  1  0  0  0
 53183  1  0  0  0
 53184  1  0  0  0
 54185  1  0  0  0
 54186  1  0  0  0
 55187  1  0  0  0
 55188  1  0  0  0
 55189  1  0  0  0
 56190  1  0  0  0
 57191  1  0  0  0
 60192  1  0  0  0
 61193  1  0  0  0
 61194  1  0  0  0
 61195  1  0  0  0
 62196  1  0  0  0
 62197  1  0  0  0
 62198  1  0  0  0
 63199  1  0  0  0
 64200  1  0  0  0
 67201  1  0  0  0
 67202  1  0  0  0
 70203  1  0  0  0
 71204  1  0  0  0
 73205  1  0  0  0
 74206  1  0  0  0
 77207  1  0  0  0
 77208  1  0  0  0
 77209  1  0  0  0
 78210  1  0  0  0
 79211  1  0  0  0
 82212  1  0  0  0
 82213  1  0  0  0
 83214  1  0  0  0
 84215  1  0  0  0
 84216  1  0  0  0
 84217  1  0  0  0
 85218  1  0  0  0
 85219  1  0  0  0
 85220  1  0  0  0
 86221  1  0  0  0
 87222  1  0  0  0
 90223  1  0  0  0
 90224  1  0  0  0
 92225  1  0  0  0
 93226  1  0  0  0
 94227  1  0  0  0
 95228  1  0  0  0
 96229  1  0  0  0
 97230  1  0  0  0
 98231  1  0  0  0
101232  1  0  0  0
101233  1  0  0  0
103234  1  0  0  0
104235  1  0  0  0
105236  1  0  0  0
106237  1  0  0  0
108238  1  0  0  0
109239  1  0  0  0
110240  1  0  0  0
113241  1  0  0  0
113242  1  0  0  0
114243  1  0  0  0
114244  1  0  0  0
115245  1  0  0  0
115246  1  0  0  0
116247  1  0  0  0
116248  1  0  0  0
117249  1  0  0  0
117250  1  0  0  0
117251  1  0  0  0
118252  1  0  0  0
119253  1  0  0  0
122254  1  0  0  0
122255  1  0  0  0
122256  1  0  0  0
123257  1  0  0  0
M  END
$$$$
