### 
### Created by X-TOOL on Mon Sep 10 21:13:22 2018
### 

@<TRIPOS>MOLECULE
4ris_ligand
  257   259     1     0     0
SMALL
GAST_HUCK


@<TRIPOS>ATOM
      1 N          13.2130 -112.3530  101.2910 N.4       1 ARG         0.2379
      2 CA         13.3930 -113.5790  102.0610 C.3       1 ARG         0.0651
      3 C          14.8190 -113.6930  102.5680 C.2       1 ARG         0.2268
      4 O          15.6230 -112.7880  102.3790 O.2       1 ARG        -0.3907
      5 CB         13.0320 -114.8170  101.2370 C.3       1 ARG         0.0110
      6 CG         11.6110 -114.8180  100.7040 C.3       1 ARG        -0.0125
      7 CD         11.6180 -115.1100   99.2190 C.3       1 ARG         0.0629
      8 NE         12.7610 -114.4740   98.5620 N.pl3     1 ARG        -0.2723
      9 CZ         12.7920 -113.2050   98.1590 C.cat     1 ARG         0.2882
     10 NH1        11.7360 -112.4220   98.3420 N.pl3     1 ARG        -0.2849
     11 NH2        13.8800 -112.7180   97.5730 N.pl3     1 ARG        -0.2849
     12 N          15.1390 -114.8190  103.1910 N.am      1 ASP        -0.2595
     13 CA         16.3340 -114.8840  104.0170 C.3       1 ASP         0.1424
     14 C          17.6680 -114.9610  103.2630 C.2       1 ASP         0.2056
     15 O          18.6090 -114.2770  103.6420 O.2       1 ASP        -0.3943
     16 CB         16.2250 -115.9870  105.0670 C.3       1 ASP         0.0406
     17 CG         16.8130 -115.5730  106.3980 C.2       1 ASP         0.0393
     18 OD1        16.6490 -114.3940  106.7850 O.co2     1 ASP        -0.5688
     19 OD2        17.4460 -116.4270  107.0540 O.co2     1 ASP        -0.5688
     20 N          17.7700 -115.7650  102.2110 N.am      1 LYS        -0.2636
     21 CA         19.0310 -115.7990  101.4530 C.3       1 LYS         0.1310
     22 C          19.3930 -114.4500  100.8020 C.2       1 LYS         0.2039
     23 O          20.5670 -114.0750  100.7460 O.2       1 LYS        -0.3944
     24 CB         19.0460 -116.9310  100.4160 C.3       1 LYS        -0.0122
     25 CG         19.4910 -118.2780  100.9770 C.3       1 LYS        -0.0440
     26 CD         19.6830 -119.2990   99.8780 C.3       1 LYS        -0.0124
     27 CE         18.3590 -119.6610   99.2080 C.3       1 LYS        -0.0354
     28 NZ         18.4820 -120.8190   98.2830 N.4       1 LYS         0.2185
     29 N          18.3890 -113.7230  100.3200 N.am      1 LYS        -0.2637
     30 CA         18.6260 -112.4080   99.7680 C.3       1 LYS         0.1310
     31 C          18.9650 -111.4290  100.8830 C.2       1 LYS         0.2039
     32 O          19.8500 -110.5740  100.7300 O.2       1 LYS        -0.3944
     33 CB         17.4140 -111.9100   98.9940 C.3       1 LYS        -0.0122
     34 CG         17.5720 -110.4880   98.5040 C.3       1 LYS        -0.0440
     35 CD         17.6140 -110.4220   97.0010 C.3       1 LYS        -0.0124
     36 CE         18.8250 -111.1230   96.4340 C.3       1 LYS        -0.0354
     37 NZ         18.6040 -111.2840   94.9770 N.4       1 LYS         0.2185
     38 N          18.2570 -111.5570  102.0030 N.am      1 GLN        -0.2636
     39 CA         18.5610 -110.7640  103.1890 C.3       1 GLN         0.1330
     40 C          20.0540 -110.8820  103.5530 C.2       1 GLN         0.2040
     41 O          20.7260 -109.8720  103.7570 O.2       1 GLN        -0.3944
     42 CB         17.6600 -111.1800  104.3560 C.3       1 GLN         0.0045
     43 CG         18.1350 -110.7050  105.7160 C.3       1 GLN         0.0412
     44 CD         18.2160 -109.1930  105.8190 C.2       1 GLN         0.1737
     45 OE1        17.3330 -108.4750  105.3370 O.2       1 GLN        -0.3973
     46 NE2        19.2800 -108.6980  106.4480 N.am      1 GLN        -0.3009
     47 N          20.5690 -112.1120  103.5840 N.am      1 LYS        -0.2637
     48 CA         21.9750 -112.3670  103.9050 C.3       1 LYS         0.1310
     49 C          22.9720 -111.6750  102.9730 C.2       1 LYS         0.2039
     50 O          23.9690 -111.1410  103.4460 O.2       1 LYS        -0.3944
     51 CB         22.2540 -113.8720  103.9410 C.3       1 LYS        -0.0122
     52 CG         21.5070 -114.5940  105.0350 C.3       1 LYS        -0.0440
     53 CD         21.7210 -116.0890  104.9590 C.3       1 LYS        -0.0124
     54 CE         21.0370 -116.7950  106.1190 C.3       1 LYS        -0.0354
     55 NZ         21.3400 -118.2510  106.1150 N.4       1 LYS         0.2185
     56 N          22.7290 -111.6810  101.6600 N.am      1 VAL        -0.2635
     57 CA         23.6840 -111.0430  100.7590 C.3       1 VAL         0.1333
     58 C          23.6390 -109.5280  100.8890 C.2       1 VAL         0.2042
     59 O          24.6690 -108.8640  100.7930 O.2       1 VAL        -0.3944
     60 CB         23.5680 -111.5060   99.2920 C.3       1 VAL        -0.0063
     61 CG1        23.9720 -112.9650   99.1680 C.3       1 VAL        -0.0584
     62 CG2        22.1820 -111.2650   98.7350 C.3       1 VAL        -0.0584
     63 N          22.4490 -108.9920  101.1600 N.am      1 HIS        -0.2625
     64 CA         22.2950 -107.5720  101.4560 C.3       1 HIS         0.1369
     65 C          23.1350 -107.1620  102.6560 C.2       1 HIS         0.2054
     66 O          23.7870 -106.1190  102.6400 O.2       1 HIS        -0.3942
     67 CB         20.8440 -107.2410  101.7380 C.3       1 HIS         0.0145
     68 CG         19.9900 -107.1890  100.5150 C.2       1 HIS        -0.0027
     69 ND1        20.4760 -106.8040   99.2850 N.2       1 HIS        -0.3252
     70 CD2        18.6800 -107.4730  100.3340 C.2       1 HIS         0.0291
     71 CE1        19.5000 -106.8590   98.3970 C.2       1 HIS         0.0907
     72 NE2        18.3990 -107.2580   99.0100 N.pl3     1 HIS        -0.2752
     73 N          23.1150 -107.9940  103.6910 N.am      1 ALA        -0.2639
     74 CA         23.8310 -107.7100  104.9310 C.3       1 ALA         0.1282
     75 C          25.3350 -107.7920  104.6940 C.2       1 ALA         0.2036
     76 O          26.1250 -107.1710  105.4080 O.2       1 ALA        -0.3944
     77 CB         23.4120 -108.6840  106.0100 C.3       1 ALA        -0.0244
     78 N          25.7170 -108.5600  103.6770 N.am      1 LEU        -0.2637
     79 CA         27.1070 -108.7410  103.3300 C.3       1 LEU         0.1312
     80 C          27.5880 -107.6070  102.4460 C.2       1 LEU         0.2040
     81 O          28.6460 -107.0350  102.6690 O.2       1 LEU        -0.3944
     82 CB         27.2700 -110.0420  102.5530 C.3       1 LEU        -0.0101
     83 CG         28.1980 -111.0930  103.1420 C.3       1 LEU        -0.0425
     84 CD1        28.4000 -112.2300  102.1510 C.3       1 LEU        -0.0625
     85 CD2        29.5310 -110.4710  103.5410 C.3       1 LEU        -0.0625
     86 N          26.7910 -107.2710  101.4450 N.am      1 PHE        -0.2619
     87 CA         27.2860 -106.4920  100.3240 C.3       1 PHE         0.1404
     88 C          26.7370 -105.0750  100.1820 C.2       1 PHE         0.2061
     89 O          27.3290 -104.2690   99.4690 O.2       1 PHE        -0.3942
     90 CB         27.0440 -107.2670   99.0220 C.3       1 PHE         0.0214
     91 CG         27.7570 -108.5890   98.9660 C.ar      1 PHE        -0.0386
     92 CD1        29.1020 -108.6800   99.2900 C.ar      1 PHE        -0.0601
     93 CD2        27.0760 -109.7420   98.6130 C.ar      1 PHE        -0.0601
     94 CE1        29.7630 -109.9050   99.2490 C.ar      1 PHE        -0.0686
     95 CE2        27.7180 -110.9620   98.5740 C.ar      1 PHE        -0.0686
     96 CZ         29.0680 -111.0440   98.8890 C.ar      1 PHE        -0.0687
     97 N          25.6200 -104.7520  100.8300 N.am      1 TYR        -0.2620
     98 CA         24.9780 -103.4710  100.5290 C.3       1 TYR         0.1390
     99 C          25.7180 -102.2170  100.9970 C.2       1 TYR         0.2057
    100 O          26.0870 -102.0900  102.1630 O.2       1 TYR        -0.3942
    101 CB         23.5270 -103.4140  101.0040 C.3       1 TYR         0.0163
    102 CG         22.8740 -102.0810  100.6860 C.ar      1 TYR        -0.0493
    103 CD1        22.2870 -101.8530   99.4530 C.ar      1 TYR        -0.0685
    104 CD2        22.8660 -101.0420  101.6190 C.ar      1 TYR        -0.0685
    105 CE1        21.7010 -100.6340   99.1580 C.ar      1 TYR        -0.0398
    106 CE2        22.2840  -99.8210  101.3340 C.ar      1 TYR        -0.0398
    107 CZ         21.7020  -99.6210  100.1020 C.ar      1 TYR         0.0805
    108 OH         21.1250  -98.4030   99.8130 O.3       1 TYR        -0.3376
    109 N          25.9000 -101.2920  100.0550 N.am      1 LYS        -0.2636
    110 CA         26.3710  -99.9320  100.3160 C.3       1 LYS         0.1309
    111 C          25.5830  -98.9600   99.4300 C.2       1 LYS         0.2033
    112 O          25.3170  -99.2540   98.2630 O.2       1 LYS        -0.3944
    113 CB         27.8540  -99.8210   99.9890 C.3       1 LYS        -0.0122
    114 CG         28.7380 -100.8050  100.7300 C.3       1 LYS        -0.0440
    115 CD         29.1950 -100.2290  102.0580 C.3       1 LYS        -0.0124
    116 CE         30.1230 -101.1960  102.7800 C.3       1 LYS        -0.0354
    117 NZ         30.7110 -100.6050  104.0230 N.4       1 LYS         0.2185
    118 N          25.2230  -97.8000   99.9670 N.am      1 ALA        -0.2698
    119 CA         24.3660  -96.8620   99.2340 C.3       1 ALA         0.0916
    120 C          24.9830  -96.3440   97.9280 C.2       1 ALA         0.0598
    121 O          26.0870  -95.7980   97.9160 O.co2     1 ALA        -0.5666
    122 CB         23.9480  -95.7020  100.1310 C.3       1 ALA        -0.0300
    123 OXT        24.3920  -96.4590   96.8530 O.co2     1 ALA        -0.5666
    124 H1         12.2609 -112.2979  100.9647 H         1 ARG         0.2015
    125 H2         13.8391 -112.3573  100.5011 H         1 ARG         0.2015
    126 H3         13.4146 -111.5567  101.8752 H         1 ARG         0.2015
    127 H4         12.7196 -113.5368  102.9298 H         1 ARG         0.1098
    128 H5         13.1621 -115.7047  101.8734 H         1 ARG         0.0347
    129 H6         13.7211 -114.8748  100.3816 H         1 ARG         0.0347
    130 H7         11.1548 -113.8326  100.8797 H         1 ARG         0.0302
    131 H8         11.0266 -115.5908  101.2249 H         1 ARG         0.0302
    132 H9         10.6884 -114.7266   98.7731 H         1 ARG         0.0689
    133 H10        11.6761 -116.1979   99.0671 H         1 ARG         0.0689
    134 H11        13.6005 -115.0484   98.3999 H         1 ARG         0.2642
    135 H12        11.7620 -111.4409   98.0296 H         1 ARG         0.2615
    136 H13        10.8905 -112.7955   98.7964 H         1 ARG         0.2615
    137 H14        14.7017 -113.3222   97.4291 H         1 ARG         0.2615
    138 H15        13.9020 -111.7362   97.2625 H         1 ARG         0.2615
    139 H16        14.5567 -115.6260  103.0925 H         1 ASP         0.1886
    140 H17        16.3624 -113.9324  104.5680 H         1 ASP         0.0819
    141 H18        16.7625 -116.8754  104.7039 H         1 ASP         0.0478
    142 H19        15.1629 -116.2344  105.2112 H         1 ASP         0.0478
    143 H20        16.9993 -116.3404  101.9372 H         1 LYS         0.1883
    144 H21        19.8257 -116.0206  102.1806 H         1 LYS         0.0800
    145 H22        19.7342 -116.6491   99.6056 H         1 LYS         0.0312
    146 H23        18.0294 -117.0433  100.0113 H         1 LYS         0.0312
    147 H24        18.7251 -118.6449  101.6761 H         1 LYS         0.0269
    148 H25        20.4428 -118.1456  101.5123 H         1 LYS         0.0269
    149 H26        20.1249 -120.2091  100.3097 H         1 LYS         0.0317
    150 H27        20.3644 -118.8842   99.1206 H         1 LYS         0.0317
    151 H28        18.0039 -118.7905   98.6369 H         1 LYS         0.0813
    152 H29        17.6260 -119.9109   99.9891 H         1 LYS         0.0813
    153 H30        17.5840 -121.0154   97.8693 H         1 LYS         0.1994
    154 H31        18.7994 -121.6266   98.7959 H         1 LYS         0.1994
    155 H32        19.1458 -120.5999   97.5568 H         1 LYS         0.1994
    156 H33        17.4591 -114.0903  100.3396 H         1 LYS         0.1883
    157 H34        19.4806 -112.4681   99.0780 H         1 LYS         0.0800
    158 H35        16.5334 -111.9588   99.6514 H         1 LYS         0.0312
    159 H36        17.2592 -112.5656   98.1244 H         1 LYS         0.0312
    160 H37        18.5084 -110.0738   98.9059 H         1 LYS         0.0269
    161 H38        16.7221 -109.8897   98.8640 H         1 LYS         0.0269
    162 H39        17.6392 -109.3663   96.6931 H         1 LYS         0.0317
    163 H40        16.7079 -110.8995   96.5998 H         1 LYS         0.0317
    164 H41        18.9443 -112.1089   96.9071 H         1 LYS         0.0813
    165 H42        19.7268 -110.5190   96.6127 H         1 LYS         0.0813
    166 H43        19.3976 -111.7506   94.5664 H         1 LYS         0.1994
    167 H44        18.4907 -110.3770   94.5521 H         1 LYS         0.1994
    168 H45        17.7736 -111.8339   94.8218 H         1 LYS         0.1994
    169 H46        17.5007 -112.2106  102.0319 H         1 GLN         0.1883
    170 H47        18.3515 -109.7090  102.9586 H         1 GLN         0.0801
    171 H48        17.6069 -112.2785  104.3748 H         1 GLN         0.0337
    172 H49        16.6558 -110.7673  104.1792 H         1 GLN         0.0337
    173 H50        19.1347 -111.1235  105.9044 H         1 GLN         0.0504
    174 H51        17.4340 -111.0716  106.4803 H         1 GLN         0.0504
    175 H52        19.3872 -107.7087  106.5465 H         1 GLN         0.1814
    176 H53        19.9719 -109.3156  106.8219 H         1 GLN         0.1814
    177 H54        19.9730 -112.8888  103.3805 H         1 LYS         0.1883
    178 H55        22.1493 -111.9689  104.9155 H         1 LYS         0.0800
    179 H56        23.3324 -114.0231  104.0969 H         1 LYS         0.0312
    180 H57        21.9592 -114.3045  102.9735 H         1 LYS         0.0312
    181 H58        20.4325 -114.3813  104.9346 H         1 LYS         0.0269
    182 H59        21.8631 -114.2312  106.0105 H         1 LYS         0.0269
    183 H60        22.7999 -116.3006  104.9944 H         1 LYS         0.0317
    184 H61        21.3045 -116.4648  104.0128 H         1 LYS         0.0317
    185 H62        19.9494 -116.6545  106.0338 H         1 LYS         0.0813
    186 H63        21.3904 -116.3574  107.0643 H         1 LYS         0.0813
    187 H64        20.8751 -118.6931  106.8925 H         1 LYS         0.1994
    188 H65        22.3354 -118.3873  106.1971 H         1 LYS         0.1994
    189 H66        21.0149 -118.6595  105.2528 H         1 LYS         0.1994
    190 H67        21.9043 -112.1165  101.2990 H         1 VAL         0.1883
    191 H68        24.6823 -111.3568  101.0981 H         1 VAL         0.0802
    192 H69        24.2732 -110.9093   98.6948 H         1 VAL         0.0343
    193 H70        23.8847 -113.2817   98.1182 H         1 VAL         0.0234
    194 H71        23.3110 -113.5830   99.7935 H         1 VAL         0.0234
    195 H72        25.0128 -113.0870   99.5024 H         1 VAL         0.0234
    196 H73        21.9240 -110.2010   98.8415 H         1 VAL         0.0234
    197 H74        21.4533 -111.8760   99.2878 H         1 VAL         0.0234
    198 H75        22.1611 -111.5426   97.6708 H         1 VAL         0.0234
    199 H76        21.6397 -109.5794  101.1604 H         1 HIS         0.1885
    200 H77        22.6273 -106.9968  100.5792 H         1 HIS         0.0817
    201 H78        20.8018 -106.2593  102.2325 H         1 HIS         0.0420
    202 H79        20.4376 -108.0091  102.4124 H         1 HIS         0.0420
    203 H80        17.9799 -107.8094  101.0973 H         1 HIS         0.0729
    204 H81        19.5875 -106.6167   97.3389 H         1 HIS         0.1199
    205 H82        17.4791 -107.3865   98.5648 H         1 HIS         0.2361
    206 H83        22.5920 -108.8433  103.6184 H         1 ALA         0.1883
    207 H84        23.5802 -106.6906  105.2596 H         1 ALA         0.0797
    208 H85        23.9579 -108.4599  106.9383 H         1 ALA         0.0277
    209 H86        23.6428 -109.7100  105.6876 H         1 ALA         0.0277
    210 H87        22.3307 -108.5903  106.1888 H         1 ALA         0.0277
    211 H88        25.0185 -109.0273  103.1350 H         1 LEU         0.1883
    212 H89        27.7107 -108.7756  104.2489 H         1 LEU         0.0800
    213 H90        27.6530 -109.7850  101.5544 H         1 LEU         0.0315
    214 H91        26.2732 -110.4973  102.4575 H         1 LEU         0.0315
    215 H92        27.7263 -111.5037  104.0469 H         1 LEU         0.0298
    216 H93        29.0723 -112.9826  102.5886 H         1 LEU         0.0232
    217 H94        28.8445 -111.8352  101.2255 H         1 LEU         0.0232
    218 H95        27.4292 -112.6942  101.9226 H         1 LEU         0.0232
    219 H96        29.3549 -109.6540  104.2562 H         1 LEU         0.0232
    220 H97        30.0325 -110.0734  102.6464 H         1 LEU         0.0232
    221 H98        30.1676 -111.2366  104.0085 H         1 LEU         0.0232
    222 H99        25.8331 -107.5578  101.4606 H         1 PHE         0.1885
    223 H100       28.3726 -106.3945  100.4647 H         1 PHE         0.0823
    224 H101       27.3905 -106.6494   98.1803 H         1 PHE         0.0474
    225 H102       25.9640 -107.4502   98.9222 H         1 PHE         0.0474
    226 H103       29.6452 -107.7874   99.5785 H         1 PHE         0.0557
    227 H104       26.0226 -109.6848   98.3636 H         1 PHE         0.0557
    228 H105       30.8163 -109.9648   99.4980 H         1 PHE         0.0599
    229 H106       27.1697 -111.8554   98.2979 H         1 PHE         0.0599
    230 H107       29.5763 -112.0007   98.8525 H         1 PHE         0.0559
    231 H108       25.2271 -105.3721  101.5090 H         1 TYR         0.1885
    232 H109       24.9511 -103.4118   99.4309 H         1 TYR         0.0821
    233 H110       23.5038 -103.5695  102.0927 H         1 TYR         0.0453
    234 H111       22.9594 -104.2145  100.5070 H         1 TYR         0.0453
    235 H112       22.2863 -102.6403   98.7079 H         1 TYR         0.0530
    236 H113       23.3264 -101.1964  102.5882 H         1 TYR         0.0530
    237 H114       21.2420 -100.4727   98.1893 H         1 TYR         0.0525
    238 H115       22.2857  -99.0283  102.0734 H         1 TYR         0.0525
    239 H116       20.7701  -98.4230   98.9320 H         1 TYR         0.2458
    240 H117       25.7016 -101.5442   99.1079 H         1 LYS         0.1883
    241 H118       26.2097  -99.6830  101.3752 H         1 LYS         0.0800
    242 H119       28.1861  -98.8033  100.2419 H         1 LYS         0.0312
    243 H120       27.9812  -99.9906   98.9096 H         1 LYS         0.0312
    244 H121       29.6201 -101.0319  100.1133 H         1 LYS         0.0269
    245 H122       28.1717 -101.7298  100.9144 H         1 LYS         0.0269
    246 H123       28.3147 -100.0362  102.6888 H         1 LYS         0.0317
    247 H124       29.7297  -99.2851  101.8761 H         1 LYS         0.0317
    248 H125       30.9417 -101.4737  102.0999 H         1 LYS         0.0813
    249 H126       29.5520 -102.0957  103.0530 H         1 LYS         0.0813
    250 H127       31.3154 -101.2811  104.4631 H         1 LYS         0.1994
    251 H128       29.9701 -100.3530  104.6583 H         1 LYS         0.1994
    252 H129       31.2436  -99.7830  103.7848 H         1 LYS         0.1994
    253 H130       25.5409  -97.5624  100.8849 H         1 ALA         0.1875
    254 H131       23.4540  -97.4120   98.9589 H         1 ALA         0.0723
    255 H132       23.3071  -95.0117   99.5629 H         1 ALA         0.0270
    256 H133       24.8436  -95.1673  100.4802 H         1 ALA         0.0270
    257 H134       23.3917  -96.0901  100.9969 H         1 ALA         0.0270
@<TRIPOS>BOND
     1    1    2 1  
     2    2    3 1  
     3    2    5 1  
     4    3    4 2  
     5    3   12 am 
     6    5    6 1  
     7    6    7 1  
     8    7    8 1  
     9    8    9 ar 
    10    9   10 ar 
    11    9   11 ar 
    12   12   13 1  
    13   13   14 1  
    14   13   16 1  
    15   14   15 2  
    16   14   20 am 
    17   16   17 1  
    18   17   18 ar 
    19   17   19 ar 
    20   20   21 1  
    21   21   22 1  
    22   21   24 1  
    23   22   23 2  
    24   22   29 am 
    25   24   25 1  
    26   25   26 1  
    27   26   27 1  
    28   27   28 1  
    29   29   30 1  
    30   30   31 1  
    31   30   33 1  
    32   31   32 2  
    33   31   38 am 
    34   33   34 1  
    35   34   35 1  
    36   35   36 1  
    37   36   37 1  
    38   38   39 1  
    39   39   40 1  
    40   39   42 1  
    41   40   41 2  
    42   40   47 am 
    43   42   43 1  
    44   43   44 1  
    45   44   45 2  
    46   44   46 am 
    47   47   48 1  
    48   48   49 1  
    49   48   51 1  
    50   49   50 2  
    51   49   56 am 
    52   51   52 1  
    53   52   53 1  
    54   53   54 1  
    55   54   55 1  
    56   56   57 1  
    57   57   58 1  
    58   57   60 1  
    59   58   59 2  
    60   58   63 am 
    61   60   61 1  
    62   60   62 1  
    63   63   64 1  
    64   64   65 1  
    65   64   67 1  
    66   65   66 2  
    67   65   73 am 
    68   67   68 1  
    69   68   69 1  
    70   68   70 2  
    71   69   71 2  
    72   70   72 1  
    73   71   72 1  
    74   73   74 1  
    75   74   75 1  
    76   74   77 1  
    77   75   76 2  
    78   75   78 am 
    79   78   79 1  
    80   79   80 1  
    81   79   82 1  
    82   80   81 2  
    83   80   86 am 
    84   82   83 1  
    85   83   84 1  
    86   83   85 1  
    87   86   87 1  
    88   87   88 1  
    89   87   90 1  
    90   88   89 2  
    91   88   97 am 
    92   90   91 1  
    93   91   92 ar 
    94   91   93 ar 
    95   92   94 ar 
    96   93   95 ar 
    97   94   96 ar 
    98   95   96 ar 
    99   97   98 1  
   100   98   99 1  
   101   98  101 1  
   102   99  100 2  
   103   99  109 am 
   104  101  102 1  
   105  102  103 ar 
   106  102  104 ar 
   107  103  105 ar 
   108  104  106 ar 
   109  105  107 ar 
   110  106  107 ar 
   111  107  108 1  
   112  109  110 1  
   113  110  111 1  
   114  110  113 1  
   115  111  112 2  
   116  111  118 am 
   117  113  114 1  
   118  114  115 1  
   119  115  116 1  
   120  116  117 1  
   121  118  119 1  
   122  119  120 1  
   123  119  122 1  
   124  120  121 ar 
   125  120  123 ar 
   126    1  124 1  
   127    1  125 1  
   128    1  126 1  
   129    2  127 1  
   130    5  128 1  
   131    5  129 1  
   132    6  130 1  
   133    6  131 1  
   134    7  132 1  
   135    7  133 1  
   136    8  134 1  
   137   10  135 1  
   138   10  136 1  
   139   11  137 1  
   140   11  138 1  
   141   12  139 1  
   142   13  140 1  
   143   16  141 1  
   144   16  142 1  
   145   20  143 1  
   146   21  144 1  
   147   24  145 1  
   148   24  146 1  
   149   25  147 1  
   150   25  148 1  
   151   26  149 1  
   152   26  150 1  
   153   27  151 1  
   154   27  152 1  
   155   28  153 1  
   156   28  154 1  
   157   28  155 1  
   158   29  156 1  
   159   30  157 1  
   160   33  158 1  
   161   33  159 1  
   162   34  160 1  
   163   34  161 1  
   164   35  162 1  
   165   35  163 1  
   166   36  164 1  
   167   36  165 1  
   168   37  166 1  
   169   37  167 1  
   170   37  168 1  
   171   38  169 1  
   172   39  170 1  
   173   42  171 1  
   174   42  172 1  
   175   43  173 1  
   176   43  174 1  
   177   46  175 1  
   178   46  176 1  
   179   47  177 1  
   180   48  178 1  
   181   51  179 1  
   182   51  180 1  
   183   52  181 1  
   184   52  182 1  
   185   53  183 1  
   186   53  184 1  
   187   54  185 1  
   188   54  186 1  
   189   55  187 1  
   190   55  188 1  
   191   55  189 1  
   192   56  190 1  
   193   57  191 1  
   194   60  192 1  
   195   61  193 1  
   196   61  194 1  
   197   61  195 1  
   198   62  196 1  
   199   62  197 1  
   200   62  198 1  
   201   63  199 1  
   202   64  200 1  
   203   67  201 1  
   204   67  202 1  
   205   70  203 1  
   206   71  204 1  
   207   72  205 1  
   208   73  206 1  
   209   74  207 1  
   210   77  208 1  
   211   77  209 1  
   212   77  210 1  
   213   78  211 1  
   214   79  212 1  
   215   82  213 1  
   216   82  214 1  
   217   83  215 1  
   218   84  216 1  
   219   84  217 1  
   220   84  218 1  
   221   85  219 1  
   222   85  220 1  
   223   85  221 1  
   224   86  222 1  
   225   87  223 1  
   226   90  224 1  
   227   90  225 1  
   228   92  226 1  
   229   93  227 1  
   230   94  228 1  
   231   95  229 1  
   232   96  230 1  
   233   97  231 1  
   234   98  232 1  
   235  101  233 1  
   236  101  234 1  
   237  103  235 1  
   238  104  236 1  
   239  105  237 1  
   240  106  238 1  
   241  108  239 1  
   242  109  240 1  
   243  110  241 1  
   244  113  242 1  
   245  113  243 1  
   246  114  244 1  
   247  114  245 1  
   248  115  246 1  
   249  115  247 1  
   250  116  248 1  
   251  116  249 1  
   252  117  250 1  
   253  117  251 1  
   254  117  252 1  
   255  118  253 1  
   256  119  254 1  
   257  122  255 1  
   258  122  256 1  
   259  122  257 1  
@<TRIPOS>SUBSTRUCTURE
     1 ARG         1

