3f6h_ligand
  -I-interpret- 

 23 22  0  0  0  0  0  0  0  0999 V2000
   35.9230   30.8860   -1.5700 N   0  3  0  0  0
   34.4980   30.4770   -1.7290 C   0  0  0  0  0
   33.8590   30.2650   -0.3590 C   0  0  0  0  0
   32.7900   30.8060   -0.0770 O   0  0  0  0  0
   34.3800   29.2000   -2.5960 C   0  0  0  0  0
   35.0350   29.4140   -3.9650 C   0  0  0  0  0
   32.9160   28.7950   -2.7610 C   0  0  0  0  0
   35.4670   28.1230   -4.6530 C   0  0  0  0  0
   34.4010   29.5510    0.4860 O   0  0  0  0  0
   35.9719   31.7278   -0.9960 H   0  0  0  0  0
   36.4429   30.1340   -1.1177 H   0  0  0  0  0
   36.3257   31.0751   -2.4879 H   0  0  0  0  0
   33.9640   31.2759   -2.2435 H   0  0  0  0  0
   34.9051   28.3921   -2.0865 H   0  0  0  0  0
   35.9324   30.0116   -3.8048 H   0  0  0  0  0
   34.2947   29.8912   -4.6072 H   0  0  0  0  0
   32.3802   29.5821   -3.2915 H   0  0  0  0  0
   32.8589   27.8674   -3.3305 H   0  0  0  0  0
   32.4681   28.6476   -1.7782 H   0  0  0  0  0
   36.1916   27.6035   -4.0260 H   0  0  0  0  0
   34.5960   27.4862   -4.8077 H   0  0  0  0  0
   35.9210   28.3599   -5.6152 H   0  0  0  0  0
   35.2198   29.1995    0.1287 H   0  0  0  0  0
  1  2  1  0  0  0
  2  3  1  0  0  0
  2  5  1  0  0  0
  3  4  2  0  0  0
  3  9  1  0  0  0
  5  6  1  0  0  0
  5  7  1  0  0  0
  6  8  1  0  0  0
  1 10  1  0  0  0
  1 11  1  0  0  0
  1 12  1  0  0  0
  2 13  1  0  0  0
  5 14  1  0  0  0
  6 15  1  0  0  0
  6 16  1  0  0  0
  7 17  1  0  0  0
  7 18  1  0  0  0
  7 19  1  0  0  0
  8 20  1  0  0  0
  8 21  1  0  0  0
  8 22  1  0  0  0
  9 23  1  0  0  0
M  END
$$$$
