6pno_ligand
  -I-interpret- 

 33 33  0  0  0  0  0  0  0  0999 V2000
   18.5370   -7.4600   13.5770 C   0  0  0  0  0
   18.1290   -6.2490   14.3920 C   0  0  0  0  0
   18.8160   -5.1930   14.3480 O   0  0  0  0  0
   16.9740   -6.4680   15.0230 N   0  0  0  0  0
   16.4690   -5.5260   15.8380 C   0  0  0  0  0
   17.3040   -4.6650   16.5640 C   0  0  0  0  0
   15.1020   -5.5320   16.0100 C   0  0  0  0  0
   14.5260   -4.6100   16.8740 C   0  0  0  0  0
   15.3430   -3.7610   17.5980 C   0  0  0  0  0
   14.6250   -2.7090   18.5160 Cl  0  0  0  0  0
   16.7320   -3.7720   17.4300 C   0  0  0  0  0
   17.7740   -2.7040   18.2950 S   0  0  0  0  0
   19.1830   -2.8380   17.9050 O   0  0  0  0  0
   17.5380   -3.1380   19.7900 O   0  0  0  0  0
   17.2230   -1.1210   18.1880 N   0  0  0  0  0
   17.0780   -0.4700   16.8500 C   0  0  0  0  0
   15.6050   -0.0810   16.6350 C   0  0  0  0  0
   17.5950   -1.2270   15.6180 C   0  0  0  0  0
   18.5464   -7.1979   12.5190 H   0  0  0  0  0
   19.5326   -7.7827   13.8816 H   0  0  0  0  0
   17.8244   -8.2672   13.7463 H   0  0  0  0  0
   16.4757   -7.3476   14.8873 H   0  0  0  0  0
   18.3863   -4.7057   16.4415 H   0  0  0  0  0
   14.4811   -6.2507   15.4752 H   0  0  0  0  0
   13.4425   -4.5561   16.9803 H   0  0  0  0  0
   16.9875   -0.6042   19.0353 H   0  0  0  0  0
   17.7448    0.3902   16.9099 H   0  0  0  0  0
   14.9844   -0.9761   16.6767 H   0  0  0  0  0
   15.2962    0.6135   17.4163 H   0  0  0  0  0
   15.4946    0.3942   15.6603 H   0  0  0  0  0
   18.6635   -1.4118   15.7286 H   0  0  0  0  0
   17.0680   -2.1770   15.5293 H   0  0  0  0  0
   17.4192   -0.6277   14.7247 H   0  0  0  0  0
  1  2  1  0  0  0
  2  3  2  0  0  0
  2  4  1  0  0  0
  4  5  1  0  0  0
  5  6  4  0  0  0
  5  7  4  0  0  0
  6 11  4  0  0  0
  7  8  4  0  0  0
  8  9  4  0  0  0
  9 10  1  0  0  0
  9 11  4  0  0  0
 11 12  1  0  0  0
 12 13  2  0  0  0
 12 14  2  0  0  0
 12 15  1  0  0  0
 15 16  1  0  0  0
 16 17  1  0  0  0
 16 18  1  0  0  0
  1 19  1  0  0  0
  1 20  1  0  0  0
  1 21  1  0  0  0
  4 22  1  0  0  0
  6 23  1  0  0  0
  7 24  1  0  0  0
  8 25  1  0  0  0
 15 26  1  0  0  0
 16 27  1  0  0  0
 17 28  1  0  0  0
 17 29  1  0  0  0
 17 30  1  0  0  0
 18 31  1  0  0  0
 18 32  1  0  0  0
 18 33  1  0  0  0
M  END
$$$$
