1rrw_ligand
  -I-interpret- 

 19 20  0  0  0  0  0  0  0  0999 V2000
   51.2670   45.6840   74.4570 C   0  0  0  0  0
   50.0290   46.4900   74.5330 N   0  0  0  0  0
   49.6010   47.4500   73.6390 C   0  0  0  0  0
   48.4430   47.9600   74.0280 N   0  0  0  0  0
   48.0550   47.3390   75.2220 C   0  0  0  0  0
   46.9480   47.4370   76.1020 C   0  0  0  0  0
   45.9320   48.3240   75.8400 O   0  0  0  0  0
   46.9150   46.6380   77.2300 N   0  0  0  0  0
   47.9310   45.7480   77.5070 C   0  0  0  0  0
   47.8780   44.9530   78.6640 N   0  0  0  0  0
   48.9830   45.6350   76.6720 N   0  0  0  0  0
   49.0770   46.3980   75.5520 C   0  0  0  0  0
   51.2620   45.0986   73.5376 H   0  0  0  0  0
   52.1318   46.3474   74.4622 H   0  0  0  0  0
   51.3162   45.0141   75.3155 H   0  0  0  0  0
   50.1403   47.7466   72.7394 H   0  0  0  0  0
   46.1236   46.7084   77.8697 H   0  0  0  0  0
   48.6320   44.2966   78.8668 H   0  0  0  0  0
   47.0856   45.0321   79.3013 H   0  0  0  0  0
  1  2  1  0  0  0
  2  3  4  0  0  0
  2 12  4  0  0  0
  3  4  4  0  0  0
  4  5  4  0  0  0
  5  6  1  0  0  0
  5 12  4  0  0  0
  6  7  2  0  0  0
  6  8  1  0  0  0
  8  9  1  0  0  0
  9 10  1  0  0  0
  9 11  2  0  0  0
 11 12  1  0  0  0
  1 13  1  0  0  0
  1 14  1  0  0  0
  1 15  1  0  0  0
  3 16  1  0  0  0
  8 17  1  0  0  0
 10 18  1  0  0  0
 10 19  1  0  0  0
M  END
$$$$
