5ave_ligand
  -I-interpret- 

 15 14  0  0  0  0  0  0  0  0999 V2000
  -19.5640  -28.1260    6.0890 N   0  3  0  0  0
  -19.9130  -26.7140    6.2720 C   0  0  0  0  0
  -21.4200  -26.5780    6.4100 C   0  0  0  0  0
  -22.1570  -27.4720    5.9690 O   0  0  0  0  0
  -19.4330  -25.8750    5.0810 C   0  0  0  0  0
  -20.1920  -26.1700    3.9130 O   0  0  0  0  0
  -21.9160  -25.5750    6.9470 O   0  0  0  0  0
  -19.8925  -28.6630    6.8916 H   0  0  0  0  0
  -20.0063  -28.4770    5.2395 H   0  0  0  0  0
  -18.5512  -28.2171    6.0090 H   0  0  0  0  0
  -19.4221  -26.3502    7.1746 H   0  0  0  0  0
  -18.3861  -26.1085    4.8870 H   0  0  0  0  0
  -19.5577  -24.8195    5.3228 H   0  0  0  0  0
  -19.8743  -25.6342    3.1825 H   0  0  0  0  0
  -21.2138  -24.9852    7.2310 H   0  0  0  0  0
  1  2  1  0  0  0
  2  3  1  0  0  0
  2  5  1  0  0  0
  3  4  2  0  0  0
  3  7  1  0  0  0
  5  6  1  0  0  0
  1  8  1  0  0  0
  1  9  1  0  0  0
  1 10  1  0  0  0
  2 11  1  0  0  0
  5 12  1  0  0  0
  5 13  1  0  0  0
  6 14  1  0  0  0
  7 15  1  0  0  0
M  END
$$$$
