3c7p_ligand
  -I-interpret- 

 60 64  0  0  0  0  0  0  0  0999 V2000
   -4.6800    1.4930   17.2800 O   0  0  0  0  0
   -4.9330    1.2870   14.8720 O   0  0  0  0  0
   -3.4500   12.4880   13.7150 O   0  0  0  0  0
   -6.9220    1.4180   16.2440 O   0  0  0  0  0
   -4.3760    2.5740   14.6350 C   0  0  0  0  0
   -5.1710    3.7340   14.5710 C   0  0  0  0  0
   -5.5760   -0.6130   16.4690 N   0  0  0  0  0
   -4.5510    4.9930   14.3370 C   0  0  0  0  0
   -3.1170    5.0780   14.1670 C   0  0  0  0  0
   -2.3670    3.8670   14.2420 C   0  0  0  0  0
   -5.5770    0.9490   16.3160 S   0  0  0  0  0
   -2.9870    2.6250   14.4740 C   0  0  0  0  0
   -5.4180    6.2340   14.2780 C   0  0  0  0  0
   -4.6140    7.5400   14.4800 C   0  0  0  0  0
   -3.4180    7.5800   13.5200 C   0  0  0  0  0
   -2.4140    6.4390   13.9220 C   0  0  0  0  0
   -2.6400    8.9410   13.5400 C   0  0  0  0  0
   -1.4390    8.9480   12.4970 C   0  0  0  0  0
   -0.5220    7.7130   12.7590 C   0  0  0  0  0
   -1.2910    6.3770   12.8570 C   0  0  0  0  0
   -1.9510    8.9040   11.0140 C   0  0  0  0  0
   -3.5490   10.1820   13.2730 C   0  0  0  0  0
   -2.8090   11.4950   13.3620 C   0  0  0  0  0
   -1.3750   11.5060   13.0330 N   0  0  0  0  0
   -0.6570   10.2720   12.6100 C   0  0  0  0  0
    0.5590   10.2800   12.3390 O   0  0  0  0  0
   -0.5980   12.8190   13.1270 C   0  0  0  0  0
   -0.1300   13.2150   14.4610 C   0  0  0  0  0
    0.7380   12.4350   15.2330 C   0  0  0  0  0
    1.1880   12.8690   16.5700 C   0  0  0  0  0
    0.7280   14.0810   17.0520 C   0  0  0  0  0
   -0.0900   14.8090   16.3170 N   0  0  0  0  0
   -0.5460   14.4300   15.0300 C   0  0  0  0  0
   -6.2514    3.6683   14.6995 H   0  0  0  0  0
   -4.9898   -1.0558   17.1766 H   0  0  0  0  0
   -6.1616   -1.1854   15.8608 H   0  0  0  0  0
   -1.2849    3.9045   14.1163 H   0  0  0  0  0
   -2.3920    1.7133   14.5276 H   0  0  0  0  0
   -6.1511    6.1666   15.0819 H   0  0  0  0  0
   -5.8753    6.2740   13.2894 H   0  0  0  0  0
   -4.2490    7.5791   15.5063 H   0  0  0  0  0
   -5.2622    8.3928   14.2781 H   0  0  0  0  0
   -3.8176    7.4493   12.5143 H   0  0  0  0  0
   -1.9636    6.6742   14.8863 H   0  0  0  0  0
   -2.2493    9.0242   14.5542 H   0  0  0  0  0
   -0.0251    7.8736   13.7158 H   0  0  0  0  0
    0.1644    7.6325   11.9161 H   0  0  0  0  0
   -1.7471    6.1715   11.8886 H   0  0  0  0  0
   -0.5873    5.5961   13.1451 H   0  0  0  0  0
   -2.5333    7.9957   10.8588 H   0  0  0  0  0
   -2.5765    9.7755   10.8209 H   0  0  0  0  0
   -1.0976    8.9103   10.3360 H   0  0  0  0  0
   -4.3274   10.1903   14.0360 H   0  0  0  0  0
   -3.9395   10.0922   12.2593 H   0  0  0  0  0
   -1.2883   13.5996   12.8073 H   0  0  0  0  0
    0.2989   12.6807   12.5233 H   0  0  0  0  0
    1.0908   11.4827   14.8370 H   0  0  0  0  0
    1.8642   12.2514   17.1612 H   0  0  0  0  0
    1.0402   14.4330   18.0352 H   0  0  0  0  0
   -1.2223   15.0839   14.4794 H   0  0  0  0  0
 11  1  2  0  0  0
  5  2  1  0  0  0
  2 11  1  0  0  0
 23  3  2  0  0  0
 11  4  2  0  0  0
  6  5  4  0  0  0
 12  5  4  0  0  0
  8  6  4  0  0  0
 11  7  1  0  0  0
  9  8  4  0  0  0
 13  8  1  0  0  0
  9 10  4  0  0  0
 16  9  1  0  0  0
 10 12  4  0  0  0
 14 13  1  0  0  0
 15 14  1  0  0  0
 15 16  1  0  0  0
 17 15  1  0  0  0
 16 20  1  0  0  0
 17 18  1  0  0  0
 22 17  1  0  0  0
 18 19  1  0  0  0
 18 21  1  0  0  0
 18 25  1  0  0  0
 19 20  1  0  0  0
 22 23  1  0  0  0
 23 24  1  0  0  0
 24 25  1  0  0  0
 24 27  1  0  0  0
 25 26  2  0  0  0
 27 28  1  0  0  0
 28 29  4  0  0  0
 28 33  4  0  0  0
 29 30  4  0  0  0
 30 31  4  0  0  0
 31 32  4  0  0  0
 32 33  4  0  0  0
  6 34  1  0  0  0
  7 35  1  0  0  0
  7 36  1  0  0  0
 10 37  1  0  0  0
 12 38  1  0  0  0
 13 39  1  0  0  0
 13 40  1  0  0  0
 14 41  1  0  0  0
 14 42  1  0  0  0
 15 43  1  0  0  0
 16 44  1  0  0  0
 17 45  1  0  0  0
 19 46  1  0  0  0
 19 47  1  0  0  0
 20 48  1  0  0  0
 20 49  1  0  0  0
 21 50  1  0  0  0
 21 51  1  0  0  0
 21 52  1  0  0  0
 22 53  1  0  0  0
 22 54  1  0  0  0
 27 55  1  0  0  0
 27 56  1  0  0  0
 29 57  1  0  0  0
 30 58  1  0  0  0
 31 59  1  0  0  0
 33 60  1  0  0  0
M  END
$$$$
