1yhs_ligand
  -I-interpret- 

 62 69  0  0  0  0  0  0  0  0999 V2000
  -17.1900   35.0480    1.5810 C   0  0  0  0  0
  -16.2100   33.9720    1.4150 C   0  0  0  0  0
  -15.8490   33.4570    0.0910 C   0  0  0  0  0
  -16.4820   34.0080   -1.1110 C   0  0  0  0  0
  -17.4740   35.0930   -0.9550 C   0  0  0  0  0
  -18.2290   35.7970   -1.9440 N   0  0  0  0  0
  -18.9440   36.7940   -1.2360 C   0  0  0  0  0
  -19.8090   37.8480   -1.7900 C   0  0  0  0  0
  -20.0550   38.1300   -3.1300 N   0  0  0  0  0
  -20.9280   39.2780   -3.1940 C   0  0  0  0  0
  -21.5190   39.9870   -4.3630 C   0  0  0  0  0
  -22.4160   41.1410   -4.1280 C   0  0  0  0  0
  -22.7190   41.5830   -2.7470 C   0  0  0  0  0
  -22.1230   40.8720   -1.5800 C   0  0  0  0  0
  -21.2300   39.7230   -1.8260 C   0  0  0  0  0
  -20.5160   38.7810   -0.9270 C   0  0  0  0  0
  -20.3280   38.6580    0.5320 C   0  0  0  0  0
  -20.8350   39.4820    1.6050 C   0  0  0  0  0
  -20.2620   39.0860    2.7680 N   0  0  0  0  0
  -19.4500   37.8590    2.6070 C   0  0  0  0  0
  -19.4710   37.6630    1.1090 C   0  0  0  0  0
  -18.7700   36.7070    0.2050 C   0  0  0  0  0
  -17.8100   35.6060    0.3860 C   0  0  0  0  0
  -18.3010   35.4770   -3.4590 C   0  0  0  0  0
  -16.9360   35.8110   -4.2280 C   0  0  0  0  0
  -17.1120   37.0040   -5.2070 C   0  0  0  0  0
  -17.9710   38.0830   -4.5450 C   0  0  0  0  0
  -19.3950   37.5300   -4.2450 C   0  0  0  0  0
  -19.4280   36.1510   -4.0800 O   0  0  0  0  0
  -21.6510   40.3890    1.4550 O   0  0  0  0  0
  -15.8810   37.6390   -5.7070 N   0  3  0  0  0
  -15.3380   36.6840   -6.6890 C   0  0  0  0  0
  -15.9350   36.1960   -3.2830 O   0  0  0  0  0
  -14.6700   35.5240   -3.4470 C   0  0  0  0  0
  -18.6330   33.9860   -3.7300 C   0  0  0  0  0
  -17.4486   35.4213    2.5719 H   0  0  0  0  0
  -15.7371   33.5434    2.2986 H   0  0  0  0  0
  -15.1083   32.6626   -0.0000 H   0  0  0  0  0
  -16.2266   33.6256   -2.0993 H   0  0  0  0  0
  -21.2940   39.6604   -5.3783 H   0  0  0  0  0
  -22.8555   41.6678   -4.9750 H   0  0  0  0  0
  -23.3815   42.4329   -2.5831 H   0  0  0  0  0
  -22.3430   41.1952   -0.5625 H   0  0  0  0  0
  -20.3774   39.5780    3.6540 H   0  0  0  0  0
  -19.8429   37.0056    3.1597 H   0  0  0  0  0
  -18.4440   37.9502    3.0165 H   0  0  0  0  0
  -16.6496   34.9157   -4.7798 H   0  0  0  0  0
  -17.5817   36.5576   -6.0835 H   0  0  0  0  0
  -18.0546   38.9352   -5.2194 H   0  0  0  0  0
  -17.5024   38.3868   -3.6089 H   0  0  0  0  0
  -19.9417   37.8070   -5.1464 H   0  0  0  0  0
  -15.2186   37.8285   -4.9548 H   0  0  0  0  0
  -16.0666   38.5504   -6.1257 H   0  0  0  0  0
  -15.1318   35.7345   -6.1949 H   0  0  0  0  0
  -16.0663   36.5301   -7.4853 H   0  0  0  0  0
  -14.4157   37.0834   -7.1107 H   0  0  0  0  0
  -14.8142   34.4491   -3.3377 H   0  0  0  0  0
  -14.2714   35.7395   -4.4384 H   0  0  0  0  0
  -13.9714   35.8771   -2.6885 H   0  0  0  0  0
  -18.7504   33.8303   -4.8024 H   0  0  0  0  0
  -17.8215   33.3609   -3.3575 H   0  0  0  0  0
  -19.5596   33.7229   -3.2198 H   0  0  0  0  0
  1  2  4  0  0  0
  1 23  4  0  0  0
  2  3  4  0  0  0
  3  4  4  0  0  0
  4  5  4  0  0  0
  5  6  4  0  0  0
  5 23  4  0  0  0
  6  7  4  0  0  0
  6 24  1  0  0  0
  7  8  4  0  0  0
  7 22  4  0  0  0
  8  9  4  0  0  0
  8 16  4  0  0  0
  9 10  4  0  0  0
  9 28  1  0  0  0
 10 11  4  0  0  0
 10 15  4  0  0  0
 11 12  4  0  0  0
 12 13  4  0  0  0
 13 14  4  0  0  0
 14 15  4  0  0  0
 15 16  4  0  0  0
 16 17  4  0  0  0
 17 18  1  0  0  0
 17 21  4  0  0  0
 18 19  1  0  0  0
 18 30  2  0  0  0
 19 20  1  0  0  0
 20 21  1  0  0  0
 21 22  4  0  0  0
 22 23  4  0  0  0
 24 25  1  0  0  0
 24 29  1  0  0  0
 24 35  1  0  0  0
 25 26  1  0  0  0
 25 33  1  0  0  0
 26 27  1  0  0  0
 26 31  1  0  0  0
 27 28  1  0  0  0
 28 29  1  0  0  0
 31 32  1  0  0  0
 33 34  1  0  0  0
  1 36  1  0  0  0
  2 37  1  0  0  0
  3 38  1  0  0  0
  4 39  1  0  0  0
 11 40  1  0  0  0
 12 41  1  0  0  0
 13 42  1  0  0  0
 14 43  1  0  0  0
 19 44  1  0  0  0
 20 45  1  0  0  0
 20 46  1  0  0  0
 25 47  1  0  0  0
 26 48  1  0  0  0
 27 49  1  0  0  0
 27 50  1  0  0  0
 28 51  1  0  0  0
 31 52  1  0  0  0
 31 53  1  0  0  0
 32 54  1  0  0  0
 32 55  1  0  0  0
 32 56  1  0  0  0
 34 57  1  0  0  0
 34 58  1  0  0  0
 34 59  1  0  0  0
 35 60  1  0  0  0
 35 61  1  0  0  0
 35 62  1  0  0  0
M  END
$$$$
