3hb4_ligand
  -I-interpret- 

 61 65  0  0  0  0  0  0  0  0999 V2000
   14.5170   -0.7840   -8.2900 N   0  0  0  0  0
   10.9180    8.7820  -11.5230 C   0  0  0  0  0
   10.9450   10.2200  -11.0590 C   0  0  0  0  0
   11.6700    7.9290  -10.4800 C   0  0  0  0  0
   11.3790    8.6360  -12.9920 C   0  0  0  0  0
   11.2570    8.0940   -8.9950 C   0  0  0  0  0
   10.2270   11.0830  -12.0440 C   0  0  0  0  0
   11.3750    9.5690   -8.5800 C   0  0  0  0  0
   11.5620    6.4270  -10.6420 C   0  0  0  0  0
   13.6860    0.1750   -7.8300 C   0  0  0  0  0
   11.8400    0.4360   -9.7710 C   0  0  0  0  0
    9.9280   10.6210  -13.4480 C   0  0  0  0  0
   10.5370   10.4320   -9.5480 C   0  0  0  0  0
   12.3040    5.9160   -9.4150 C   0  0  0  0  0
   12.2510    7.0980   -8.4180 C   0  0  0  0  0
    9.7970    7.5700   -8.7410 C   0  0  0  0  0
   12.6870    0.9690   -8.7420 C   0  0  0  0  0
    9.8430   12.3750  -11.6520 C   0  0  0  0  0
   10.9130    1.2080  -10.5320 C   0  0  0  0  0
   11.6310    4.6620   -8.8840 C   0  0  0  0  0
   12.5690    2.3600   -8.5650 C   0  0  0  0  0
   10.8560    2.5860  -10.2780 C   0  0  0  0  0
   10.3210    9.2080  -13.9490 C   0  0  0  0  0
    8.9200   12.8460  -13.8660 C   0  0  0  0  0
   11.7100    3.1880   -9.3290 C   0  0  0  0  0
    9.2700   11.5440  -14.3060 C   0  0  0  0  0
    9.2240   13.2460  -12.5470 C   0  0  0  0  0
    8.2710   13.7470  -14.7180 O   0  0  0  0  0
   13.7080    0.4050   -6.5960 O   0  0  0  0  0
   11.9550    6.6890   -7.0760 O   0  0  0  0  0
   15.1258   -1.2848   -7.6427 H   0  0  0  0  0
   14.5362   -1.0079   -9.2849 H   0  0  0  0  0
    9.8994    8.3961  -11.5650 H   0  0  0  0  0
   11.9842   10.5487  -11.0454 H   0  0  0  0  0
   12.6620    8.3287  -10.6905 H   0  0  0  0  0
   11.5221    7.5786  -13.2143 H   0  0  0  0  0
   12.3111    9.1849  -13.1264 H   0  0  0  0  0
   12.4190    9.8798   -8.6203 H   0  0  0  0  0
   11.0063    9.6951   -7.5620 H   0  0  0  0  0
   11.9827    6.0648  -11.5801 H   0  0  0  0  0
   10.5323    6.0741  -10.6991 H   0  0  0  0  0
   11.9099   -0.6304   -9.9853 H   0  0  0  0  0
    9.4924   10.1405   -9.4386 H   0  0  0  0  0
   10.7084   11.4790   -9.2980 H   0  0  0  0  0
   13.3346    5.6232   -9.6157 H   0  0  0  0  0
   13.2301    7.5655   -8.3139 H   0  0  0  0  0
    9.5585    7.6620   -7.6814 H   0  0  0  0  0
    9.0930    8.1619   -9.3259 H   0  0  0  0  0
    9.7306    6.5240   -9.0402 H   0  0  0  0  0
   10.0322   12.7029  -10.6298 H   0  0  0  0  0
   10.2730    0.7444  -11.2827 H   0  0  0  0  0
   10.5985    4.8797   -9.1572 H   0  0  0  0  0
   12.1247    4.5866   -7.9152 H   0  0  0  0  0
   13.1766    2.8299   -7.7916 H   0  0  0  0  0
   10.1405    3.2023  -10.8224 H   0  0  0  0  0
    9.4445    8.5603  -13.9688 H   0  0  0  0  0
   10.7236    9.2676  -14.9602 H   0  0  0  0  0
    9.0289   11.2440  -15.3258 H   0  0  0  0  0
    8.9699   14.2550  -12.2222 H   0  0  0  0  0
    8.1155   14.5715  -14.2515 H   0  0  0  0  0
   11.9352    7.4602   -6.5046 H   0  0  0  0  0
 10  1  1  0  0  0
  2  3  1  0  0  0
  4  2  1  0  0  0
  2  5  1  0  0  0
  3  7  1  0  0  0
 13  3  1  0  0  0
  6  4  1  0  0  0
  9  4  1  0  0  0
  5 23  1  0  0  0
  6  8  1  0  0  0
 15  6  1  0  0  0
  6 16  1  0  0  0
  7 12  4  0  0  0
  7 18  4  0  0  0
  8 13  1  0  0  0
 14  9  1  0  0  0
 17 10  1  0  0  0
 10 29  2  0  0  0
 17 11  4  0  0  0
 11 19  4  0  0  0
 23 12  1  0  0  0
 12 26  4  0  0  0
 14 15  1  0  0  0
 20 14  1  0  0  0
 15 30  1  0  0  0
 21 17  4  0  0  0
 18 27  4  0  0  0
 19 22  4  0  0  0
 25 20  1  0  0  0
 21 25  4  0  0  0
 22 25  4  0  0  0
 26 24  4  0  0  0
 24 27  4  0  0  0
 24 28  1  0  0  0
  1 31  1  0  0  0
  1 32  1  0  0  0
  2 33  1  0  0  0
  3 34  1  0  0  0
  4 35  1  0  0  0
  5 36  1  0  0  0
  5 37  1  0  0  0
  8 38  1  0  0  0
  8 39  1  0  0  0
  9 40  1  0  0  0
  9 41  1  0  0  0
 11 42  1  0  0  0
 13 43  1  0  0  0
 13 44  1  0  0  0
 14 45  1  0  0  0
 15 46  1  0  0  0
 16 47  1  0  0  0
 16 48  1  0  0  0
 16 49  1  0  0  0
 18 50  1  0  0  0
 19 51  1  0  0  0
 20 52  1  0  0  0
 20 53  1  0  0  0
 21 54  1  0  0  0
 22 55  1  0  0  0
 23 56  1  0  0  0
 23 57  1  0  0  0
 26 58  1  0  0  0
 27 59  1  0  0  0
 28 60  1  0  0  0
 30 61  1  0  0  0
M  END
$$$$
