5HJ9_LIGAND
  -I-interpret- 

 51 51  0  0  0  0  0  0  0  0999 V2000
  -27.5930   -0.0070   31.4690 O   0  0  0  0  0
  -26.7010   -0.0130   30.5720 C   0  0  0  0  0
  -26.9810   -0.4530   29.4130 O   0  0  0  0  0
  -25.2610    0.5280   30.8550 C   0  0  0  0  0
  -25.1930    0.9610   32.1890 N   0  3  0  0  0
  -24.1710   -0.5130   30.6570 C   0  0  0  0  0
  -24.5480   -1.9620   31.0480 C   0  0  0  0  0
  -23.3040   -2.9130   31.0890 C   0  0  0  0  0
  -23.6920   -4.4300   31.2750 C   0  0  0  0  0
  -22.3430   -5.3830   31.5480 B   0  0  0  0  0
  -22.6850   -7.0110   31.7310 O   0  0  0  0  0
  -21.6160   -5.0160   32.9710 O   0  0  0  0  0
  -21.2640   -5.2810   30.3100 O   0  0  0  0  0
  -25.0020    1.6800   29.8560 C   0  0  0  0  0
  -25.9280    2.9340   30.0980 C   0  0  0  0  0
  -25.7600    3.8200   29.2240 N   0  3  0  0  0
  -24.6920    4.6940   29.5800 C   0  0  0  0  0
  -24.4910    5.7520   28.4950 C   0  0  0  0  0
  -25.6620    6.4930   28.2410 C   0  0  0  0  0
  -26.7720    5.6450   27.9220 C   0  0  0  0  0
  -26.9580    4.5500   28.9610 C   0  0  0  0  0
  -26.2044   -0.3907   28.8521 H   0  0  0  0  0
  -25.3693    0.1719   32.8108 H   0  0  0  0  0
  -24.2649    1.3411   32.3749 H   0  0  0  0  0
  -25.8955    1.6834   32.3469 H   0  0  0  0  0
  -23.3453   -0.2228   31.3068 H   0  0  0  0  0
  -23.9496   -0.5289   29.5898 H   0  0  0  0  0
  -25.2399   -2.3444   30.2976 H   0  0  0  0  0
  -24.9873   -1.9385   32.0453 H   0  0  0  0  0
  -22.6912   -2.6206   31.9417 H   0  0  0  0  0
  -22.7830   -2.8185   30.1363 H   0  0  0  0  0
  -24.1782   -4.7752   30.3626 H   0  0  0  0  0
  -24.3523   -4.5129   32.1383 H   0  0  0  0  0
  -21.8689   -7.4931   31.8834 H   0  0  0  0  0
  -20.8493   -5.5809   33.0924 H   0  0  0  0  0
  -20.5062   -5.8386   30.5008 H   0  0  0  0  0
  -25.2127    1.3025   28.8554 H   0  0  0  0  0
  -23.9690    2.0029   29.9854 H   0  0  0  0  0
  -25.6757    3.3612   31.0685 H   0  0  0  0  0
  -26.9660    2.6043   30.0533 H   0  0  0  0  0
  -25.5057    3.3436   28.3586 H   0  0  0  0  0
  -23.7758    4.1130   29.6856 H   0  0  0  0  0
  -24.9347    5.1891   30.5203 H   0  0  0  0  0
  -24.2101    5.2406   27.5743 H   0  0  0  0  0
  -23.7226    6.4445   28.8386 H   0  0  0  0  0
  -25.4750    7.1464   27.3888 H   0  0  0  0  0
  -25.9106    7.0580   29.1394 H   0  0  0  0  0
  -26.5798    5.1750   26.9575 H   0  0  0  0  0
  -27.6753    6.2546   27.8992 H   0  0  0  0  0
  -27.2680    5.0251   29.8917 H   0  0  0  0  0
  -27.6962    3.8476   28.5740 H   0  0  0  0  0
  1  2  2  0  0  0
  2  3  1  0  0  0
  2  4  1  0  0  0
  4  5  1  0  0  0
  4  6  1  0  0  0
  4 14  1  0  0  0
  6  7  1  0  0  0
  7  8  1  0  0  0
  8  9  1  0  0  0
  9 10  1  0  0  0
 10 12  1  0  0  0
 10 13  1  0  0  0
 14 15  1  0  0  0
 15 16  1  0  0  0
 16 17  1  0  0  0
 16 21  1  0  0  0
 17 18  1  0  0  0
 18 19  1  0  0  0
 19 20  1  0  0  0
 20 21  1  0  0  0
 10 11  1  0  0  0
  3 22  1  0  0  0
  5 23  1  0  0  0
  5 24  1  0  0  0
  5 25  1  0  0  0
  6 26  1  0  0  0
  6 27  1  0  0  0
  7 28  1  0  0  0
  7 29  1  0  0  0
  8 30  1  0  0  0
  8 31  1  0  0  0
  9 32  1  0  0  0
  9 33  1  0  0  0
 11 34  1  0  0  0
 12 35  1  0  0  0
 13 36  1  0  0  0
 14 37  1  0  0  0
 14 38  1  0  0  0
 15 39  1  0  0  0
 15 40  1  0  0  0
 16 41  1  0  0  0
 17 42  1  0  0  0
 17 43  1  0  0  0
 18 44  1  0  0  0
 18 45  1  0  0  0
 19 46  1  0  0  0
 19 47  1  0  0  0
 20 48  1  0  0  0
 20 49  1  0  0  0
 21 50  1  0  0  0
 21 51  1  0  0  0
M  END
$$$$
