### 
### Created by X-TOOL on Mon Sep 10 21:13:26 2018
### 

@<TRIPOS>MOLECULE
5HJ9_LIGAND
   49    49     1     0     0
SMALL
GAST_HUCK


@<TRIPOS>ATOM
      1 O20       -27.5930   -0.0070   31.4690 O.co2     1 X7A        -0.5422
      2 C18       -26.7010   -0.0130   30.5720 C.2       1 X7A         0.0959
      3 O21       -26.9810   -0.4530   29.4130 O.co2     1 X7A        -0.5422
      4 C1        -25.2610    0.5280   30.8550 C.3       1 X7A         0.0304
      5 N2        -25.1930    0.9610   32.1890 N.4       1 X7A         0.2228
      6 C3        -24.1710   -0.5130   30.6570 C.3       1 X7A        -0.0040
      7 C4        -24.5480   -1.9620   31.0480 C.3       1 X7A        -0.0754
      8 C5        -23.3040   -2.9130   31.0890 C.3       1 X7A        -0.1826
      9 C6        -23.6920   -4.4300   31.2750 C.3       1 X7A        -0.3457
     10 B7        -22.3430   -5.3830   31.5480 B         1 X7A         3.0000
     11 O8        -22.6850   -7.0110   31.7310 O.3       1 X7A        -0.8710
     12 O9        -21.6160   -5.0160   32.9710 O.3       1 X7A        -0.8710
     13 O19       -21.2640   -5.2810   30.3100 O.3       1 X7A        -0.8710
     14 C10       -25.0020    1.6800   29.8560 C.3       1 X7A        -0.0202
     15 C11       -25.9280    2.9340   30.0980 C.3       1 X7A        -0.1081
     16 N12       -25.7600    3.8200   29.2240 N.4       1 X7A         0.4029
     17 C13       -24.6920    4.6940   29.5800 C.3       1 X7A        -0.1130
     18 C14       -24.4910    5.7520   28.4950 C.3       1 X7A        -0.0718
     19 C15       -25.6620    6.4930   28.2410 C.3       1 X7A        -0.0567
     20 C16       -26.7720    5.6450   27.9220 C.3       1 X7A        -0.0718
     21 C17       -26.9580    4.5500   28.9610 C.3       1 X7A        -0.1130
     22 H         -25.3693    0.1719   32.8108 H         1 X7A         0.1999
     23 H         -24.2649    1.3411   32.3749 H         1 X7A         0.1999
     24 H         -25.8955    1.6834   32.3469 H         1 X7A         0.1999
     25 H         -23.3453   -0.2228   31.3068 H         1 X7A         0.0315
     26 H         -23.9496   -0.5289   29.5898 H         1 X7A         0.0315
     27 H         -25.2399   -2.3444   30.2976 H         1 X7A         0.0242
     28 H         -24.9873   -1.9385   32.0453 H         1 X7A         0.0242
     29 H         -22.6912   -2.6206   31.9417 H         1 X7A        -0.0084
     30 H         -22.7830   -2.8185   30.1363 H         1 X7A        -0.0084
     31 H         -24.1782   -4.7752   30.3626 H         1 X7A        -0.2101
     32 H         -24.3523   -4.5129   32.1383 H         1 X7A        -0.2101
     33 H         -22.2573   -5.0798   33.6825 H         1 X7A        -0.1290
     34 H         -20.9163   -4.3874   30.2629 H         1 X7A        -0.1290
     35 H         -25.2127    1.3025   28.8554 H         1 X7A         0.0296
     36 H         -23.9690    2.0029   29.9854 H         1 X7A         0.0296
     37 H         -25.6757    3.3612   31.0685 H         1 X7A         0.0018
     38 H         -26.9660    2.6043   30.0533 H         1 X7A         0.0018
     39 H         -23.7758    4.1130   29.6856 H         1 X7A         0.0017
     40 H         -24.9347    5.1891   30.5203 H         1 X7A         0.0017
     41 H         -24.2101    5.2406   27.5743 H         1 X7A         0.0246
     42 H         -23.7226    6.4445   28.8386 H         1 X7A         0.0246
     43 H         -25.4750    7.1464   27.3888 H         1 X7A         0.0264
     44 H         -25.9106    7.0580   29.1394 H         1 X7A         0.0264
     45 H         -26.5798    5.1750   26.9575 H         1 X7A         0.0246
     46 H         -27.6753    6.2546   27.8992 H         1 X7A         0.0246
     47 H         -27.2680    5.0251   29.8917 H         1 X7A         0.0017
     48 H         -27.6962    3.8476   28.5740 H         1 X7A         0.0017
     49 H1        -23.1162   -7.3328   30.9480 H         1 X7A        -0.1290
@<TRIPOS>BOND
     1    1    2 ar 
     2    2    3 ar 
     3    2    4 1  
     4    4    5 1  
     5    4    6 1  
     6    4   14 1  
     7    6    7 1  
     8    7    8 1  
     9    8    9 1  
    10    9   10 1  
    11   10   12 1  
    12   10   13 1  
    13   14   15 1  
    14   15   16 1  
    15   16   17 1  
    16   16   21 1  
    17   17   18 1  
    18   18   19 1  
    19   19   20 1  
    20   20   21 1  
    21    5   22 1  
    22    5   23 1  
    23    5   24 1  
    24    6   25 1  
    25    6   26 1  
    26    7   27 1  
    27    7   28 1  
    28    8   29 1  
    29    8   30 1  
    30    9   31 1  
    31    9   32 1  
    32   12   33 1  
    33   13   34 1  
    34   14   35 1  
    35   14   36 1  
    36   15   37 1  
    37   15   38 1  
    38   17   39 1  
    39   17   40 1  
    40   18   41 1  
    41   18   42 1  
    42   19   43 1  
    43   19   44 1  
    44   20   45 1  
    45   20   46 1  
    46   21   47 1  
    47   21   48 1  
    48   10   11 1  
    49   11   49 1  
@<TRIPOS>SUBSTRUCTURE
     1 X7A         1

