2vtm_ligand
  -I-interpret- 

 15 16  0  0  0  0  0  0  0  0999 V2000
   24.3040    4.3290   62.8490 N   0  0  0  0  0
   25.2450    4.3530   63.4930 C   0  0  0  0  0
   26.4160    4.3810   64.2970 C   0  0  0  0  0
   26.9870    3.3140   64.9370 C   0  0  0  0  0
   28.0740    3.6690   65.6150 N   0  0  0  0  0
   28.1910    5.0030   65.4010 N   0  0  0  0  0
   29.1430    5.8210   65.8590 C   0  0  0  0  0
   29.0980    7.1530   65.5250 C   0  0  0  0  0
   28.0760    7.6100   64.7190 C   0  0  0  0  0
   27.1240    6.8010   64.2400 N   0  0  0  0  0
   27.1950    5.5020   64.5920 C   0  0  0  0  0
   26.5976    2.2968   64.8957 H   0  0  0  0  0
   29.9449    5.4366   66.4894 H   0  0  0  0  0
   29.8603    7.8400   65.8923 H   0  0  0  0  0
   28.0428    8.6690   64.4630 H   0  0  0  0  0
  1  2  3  0  0  0
  2  3  1  0  0  0
  3  4  4  0  0  0
  3 11  4  0  0  0
  4  5  4  0  0  0
  5  6  4  0  0  0
  6  7  4  0  0  0
  6 11  4  0  0  0
  7  8  4  0  0  0
  8  9  4  0  0  0
  9 10  4  0  0  0
 10 11  4  0  0  0
  4 12  1  0  0  0
  7 13  1  0  0  0
  8 14  1  0  0  0
  9 15  1  0  0  0
M  END
$$$$
