5abf_ligand
  -I-interpret- 

 46 46  0  0  0  0  0  0  0  0999 V2000
   27.6400   53.0050  246.0540 O   0  0  0  0  0
   28.7340   52.4720  245.9830 C   0  0  0  0  0
   29.3230   52.1630  244.8310 N   0  0  0  0  0
   28.6980   52.4570  243.5590 C   0  0  0  0  0
   29.4700   52.1270  247.2490 C   0  0  0  0  0
   28.5500   51.1630  247.9960 C   0  0  0  0  0
   29.2470   49.9360  248.5670 C   0  0  0  0  0
   30.6030   50.2120  248.9180 O   0  0  0  0  0
   28.4060   49.5770  249.7790 C   0  0  0  0  0
   28.0350   48.2030  249.7430 O   0  0  0  0  0
   27.1970   50.5070  249.6730 C   0  0  0  0  0
   26.3690   50.7290  250.9430 C   0  0  0  0  0
   26.9060   50.0150  252.0590 O   0  0  0  0  0
   27.7840   51.7390  249.1230 N   0  3  0  0  0
   28.6330   52.3850  250.1420 C   0  0  0  0  0
   28.1190   53.7730  250.4890 C   0  0  0  0  0
   28.5800   54.1320  251.8970 C   0  0  0  0  0
   28.9070   55.6100  252.0520 C   0  0  0  0  0
   27.6750   56.4090  252.4090 C   0  0  0  0  0
   30.2360   51.7085  244.8443 H   0  0  0  0  0
   27.7417   51.9377  243.4969 H   0  0  0  0  0
   28.5355   53.5316  243.4752 H   0  0  0  0  0
   29.3478   52.1224  242.7504 H   0  0  0  0  0
   29.6891   53.0150  247.8419 H   0  0  0  0  0
   30.4405   51.6768  247.0404 H   0  0  0  0  0
   27.8719   50.8950  247.1858 H   0  0  0  0  0
   29.3134   49.1180  247.8496 H   0  0  0  0  0
   31.0985   50.4337  248.1262 H   0  0  0  0  0
   28.9328   49.7045  250.7247 H   0  0  0  0  0
   27.5048   47.9955  250.5159 H   0  0  0  0  0
   26.4231   50.0613  249.0480 H   0  0  0  0  0
   25.3573   50.3672  250.7597 H   0  0  0  0  0
   26.3823   51.7931  251.1788 H   0  0  0  0  0
   26.3625   50.1781  252.8333 H   0  0  0  0  0
   27.1364   52.4747  248.8406 H   0  0  0  0  0
   29.6433   52.4784  249.7437 H   0  0  0  0  0
   28.6185   51.7737  251.0443 H   0  0  0  0  0
   27.0300   53.7849  250.4434 H   0  0  0  0  0
   28.5098   54.4996  249.7767 H   0  0  0  0  0
   29.4878   53.5658  252.1054 H   0  0  0  0  0
   27.7676   53.8962  252.5844 H   0  0  0  0  0
   29.2989   55.9804  251.1047 H   0  0  0  0  0
   29.6379   55.7220  252.8528 H   0  0  0  0  0
   26.9306   56.2982  251.6205 H   0  0  0  0  0
   27.2661   56.0426  253.3506 H   0  0  0  0  0
   27.9428   57.4605  252.5125 H   0  0  0  0  0
  1  2  2  0  0  0
  2  3  1  0  0  0
  2  5  1  0  0  0
  3  4  1  0  0  0
  5  6  1  0  0  0
  6  7  1  0  0  0
  6 14  1  0  0  0
  7  8  1  0  0  0
  7  9  1  0  0  0
  9 10  1  0  0  0
  9 11  1  0  0  0
 11 12  1  0  0  0
 11 14  1  0  0  0
 12 13  1  0  0  0
 14 15  1  0  0  0
 15 16  1  0  0  0
 16 17  1  0  0  0
 17 18  1  0  0  0
 18 19  1  0  0  0
  3 20  1  0  0  0
  4 21  1  0  0  0
  4 22  1  0  0  0
  4 23  1  0  0  0
  5 24  1  0  0  0
  5 25  1  0  0  0
  6 26  1  0  0  0
  7 27  1  0  0  0
  8 28  1  0  0  0
  9 29  1  0  0  0
 10 30  1  0  0  0
 11 31  1  0  0  0
 12 32  1  0  0  0
 12 33  1  0  0  0
 13 34  1  0  0  0
 14 35  1  0  0  0
 15 36  1  0  0  0
 15 37  1  0  0  0
 16 38  1  0  0  0
 16 39  1  0  0  0
 17 40  1  0  0  0
 17 41  1  0  0  0
 18 42  1  0  0  0
 18 43  1  0  0  0
 19 44  1  0  0  0
 19 45  1  0  0  0
 19 46  1  0  0  0
M  END
$$$$
