2bpm_ligand
  -I-interpret- 

 45 48  0  0  0  0  0  0  0  0999 V2000
   -3.0630  202.6260  113.3500 N   0  0  0  0  0
   -2.6540  201.9980  114.6350 C   0  0  0  0  0
   -1.3800  201.2110  114.3000 C   0  0  0  0  0
   -1.2230  201.4860  112.8790 N   0  0  0  0  0
   -2.1620  202.2610  112.4030 C   0  0  0  0  0
  -12.2960  204.2660  109.2250 N   0  0  0  0  0
  -11.1480  204.9150  109.4510 N   0  0  0  0  0
  -10.8180  204.7010  110.7590 C   0  0  0  0  0
  -11.7870  203.8950  111.3530 C   0  0  0  0  0
  -12.7150  203.6320  110.3740 C   0  0  0  0  0
  -14.0020  202.8030  110.4920 C   0  0  0  0  0
  -14.1600  201.9880  111.7900 C   0  0  0  0  0
  -15.2290  203.0030  111.3220 C   0  0  0  0  0
   -9.6380  205.2810  111.3590 N   0  0  0  0  0
   -9.1350  205.2030  112.6030 C   0  0  0  0  0
   -7.8650  206.0490  112.8610 C   0  0  0  0  0
   -9.6490  204.5320  113.5130 O   0  0  0  0  0
   -6.6220  205.1560  113.0260 C   0  0  0  0  0
   -5.8220  204.9100  111.8750 C   0  0  0  0  0
   -4.6790  204.1010  111.9720 C   0  0  0  0  0
   -4.2900  203.5030  113.2230 C   0  0  0  0  0
   -5.1140  203.7670  114.3740 C   0  0  0  0  0
   -6.2540  204.5750  114.2810 C   0  0  0  0  0
   -2.1580  202.5840  111.2010 O   0  0  0  0  0
   -8.0950  206.9860  114.0850 C   0  0  0  0  0
   -3.4349  201.3529  115.0375 H   0  0  0  0  0
   -2.4783  202.7420  115.4120 H   0  0  0  0  0
   -1.4549  200.1481  114.5295 H   0  0  0  0  0
   -0.5177  201.5090  114.8964 H   0  0  0  0  0
   -0.4601  201.1130  112.3139 H   0  0  0  0  0
  -11.8053  203.5442  112.3848 H   0  0  0  0  0
  -13.9323  202.6845  109.4107 H   0  0  0  0  0
  -13.5945  201.7241  112.6837 H   0  0  0  0  0
  -14.0839  200.9600  112.1444 H   0  0  0  0  0
  -16.3090  203.0340  111.1777 H   0  0  0  0  0
  -15.7972  203.8331  111.7417 H   0  0  0  0  0
   -9.0857  205.8547  110.7216 H   0  0  0  0  0
   -7.6726  206.6782  111.9920 H   0  0  0  0  0
   -6.0972  205.3504  110.9167 H   0  0  0  0  0
   -4.0741  203.9219  111.0831 H   0  0  0  0  0
   -4.8454  203.3298  115.3356 H   0  0  0  0  0
   -6.8621  204.7617  115.1661 H   0  0  0  0  0
   -8.9354  207.6493  113.8803 H   0  0  0  0  0
   -8.3126  206.3831  114.9666 H   0  0  0  0  0
   -7.1973  207.5786  114.2611 H   0  0  0  0  0
  1  2  1  0  0  0
  1  5  1  0  0  0
 21  1  1  0  0  0
  2  3  1  0  0  0
  4  3  1  0  0  0
  5  4  1  0  0  0
  5 24  2  0  0  0
  7  6  4  0  0  0
 10  6  4  0  0  0
  8  7  4  0  0  0
  8  9  4  0  0  0
 14  8  1  0  0  0
  9 10  4  0  0  0
 10 11  1  0  0  0
 11 12  1  0  0  0
 11 13  1  0  0  0
 13 12  1  0  0  0
 15 14  1  0  0  0
 16 15  1  0  0  0
 15 17  2  0  0  0
 18 16  1  0  0  0
 16 25  1  0  0  0
 19 18  4  0  0  0
 18 23  4  0  0  0
 20 19  4  0  0  0
 20 21  4  0  0  0
 21 22  4  0  0  0
 22 23  4  0  0  0
  2 26  1  0  0  0
  2 27  1  0  0  0
  3 28  1  0  0  0
  3 29  1  0  0  0
  4 30  1  0  0  0
  9 31  1  0  0  0
 11 32  1  0  0  0
 12 33  1  0  0  0
 12 34  1  0  0  0
 13 35  1  0  0  0
 13 36  1  0  0  0
 14 37  1  0  0  0
 16 38  1  0  0  0
 19 39  1  0  0  0
 20 40  1  0  0  0
 22 41  1  0  0  0
 23 42  1  0  0  0
 25 43  1  0  0  0
 25 44  1  0  0  0
 25 45  1  0  0  0
M  END
$$$$
