2fu8_ligand
  -I-interpret- 

 29 29  0  0  0  0  0  0  0  0999 V2000
   12.4610   27.8840   36.7350 O   0  0  0  0  0
   12.2550   28.3950   35.5990 C   0  0  0  0  0
   12.4650   29.6100   35.3680 O   0  0  0  0  0
   11.5800   27.5560   34.5390 C   0  0  0  0  0
   10.1170   27.4990   34.9540 C   0  0  0  0  0
    9.2650   28.2030   33.9290 C   0  0  0  0  0
   10.2110   28.5780   32.8020 C   0  0  0  0  0
   11.5460   28.1730   33.1870 N   0  0  0  0  0
   12.6470   28.3380   32.4130 C   0  0  0  0  0
   13.7630   27.9650   32.7670 O   0  0  0  0  0
   12.5530   28.9890   31.0430 C   0  0  0  0  0
   13.1740   28.0450   29.9990 C   0  0  0  0  0
   13.2790   30.3310   31.0050 C   0  0  0  0  0
   12.5730   31.5720   32.1160 S   0  0  0  0  0
   12.2418   26.9497   36.7089 H   0  0  0  0  0
   12.1232   26.6133   34.4736 H   0  0  0  0  0
    9.9978   27.9908   35.9194 H   0  0  0  0  0
    9.8044   26.4573   35.0270 H   0  0  0  0  0
    8.7784   29.0825   34.3508 H   0  0  0  0  0
    8.4564   27.5634   33.5751 H   0  0  0  0  0
   10.1794   29.6531   32.6252 H   0  0  0  0  0
    9.9162   28.0771   31.8799 H   0  0  0  0  0
   11.5013   29.1708   30.8218 H   0  0  0  0  0
   14.2190   27.8640   30.2507 H   0  0  0  0  0
   12.6306   27.1001   29.9967 H   0  0  0  0  0
   13.1108   28.5044   29.0125 H   0  0  0  0  0
   13.1956   30.7179   29.9894 H   0  0  0  0  0
   14.3063   30.1548   31.3241 H   0  0  0  0  0
   13.2675   32.7018   32.0147 H   0  0  0  0  0
  1  2  1  0  0  0
  2  3  2  0  0  0
  2  4  1  0  0  0
  4  5  1  0  0  0
  4  8  1  0  0  0
  5  6  1  0  0  0
  6  7  1  0  0  0
  7  8  1  0  0  0
  8  9  1  0  0  0
  9 10  2  0  0  0
  9 11  1  0  0  0
 11 12  1  0  0  0
 11 13  1  0  0  0
 13 14  1  0  0  0
  1 15  1  0  0  0
  4 16  1  0  0  0
  5 17  1  0  0  0
  5 18  1  0  0  0
  6 19  1  0  0  0
  6 20  1  0  0  0
  7 21  1  0  0  0
  7 22  1  0  0  0
 11 23  1  0  0  0
 12 24  1  0  0  0
 12 25  1  0  0  0
 12 26  1  0  0  0
 13 27  1  0  0  0
 13 28  1  0  0  0
 14 29  1  0  0  0
M  END
$$$$
