### 
### Created by X-TOOL on Wed Jan  1 15:39:36 2020
### 

@<TRIPOS>MOLECULE
6czc_ligand
   42    43     1     0     0
SMALL
GAST_HUCK


@<TRIPOS>ATOM
      1 PA         -6.2090  -33.9510   21.4980 P.3       1 TTP         0.3266
      2 O1A        -6.3620  -33.9780   19.9860 O.co2     1 TTP        -0.5692
      3 O2A        -6.2890  -32.5320   21.9990 O.co2     1 TTP        -0.5692
      4 O3A        -4.7730  -34.4940   21.9680 O.3       1 TTP        -0.1171
      5 PB         -4.0510  -35.7520   21.2710 P.3       1 TTP         0.3553
      6 O1B        -4.7550  -36.1700   19.9830 O.co2     1 TTP        -0.5652
      7 O2B        -3.9140  -36.9090   22.2310 O.co2     1 TTP        -0.5652
      8 O3B        -2.5960  -35.1500   21.0440 O.3       1 TTP        -0.1546
      9 PG         -2.4280  -33.8460   20.1400 P.3       1 TTP         0.1879
     10 O1G        -1.2800  -34.1020   19.1950 O.co2     1 TTP        -0.6091
     11 O2G        -3.7040  -33.5920   19.3860 O.co2     1 TTP        -0.6091
     12 O3G        -2.1690  -32.6400   21.0050 O.co2     1 TTP        -0.6091
     13 O5'        -7.3080  -34.9680   22.1490 O.3       1 TTP        -0.2441
     14 C5'        -8.2220  -35.6310   21.2350 C.3       1 TTP         0.1130
     15 C4'        -9.0410  -36.8430   21.7160 C.3       1 TTP         0.1163
     16 O4'        -8.3630  -38.1160   21.6880 O.3       1 TTP        -0.3395
     17 C3'        -9.6010  -36.7340   23.1260 C.3       1 TTP         0.0889
     18 O3'       -10.9150  -36.1810   23.1080 O.3       1 TTP        -0.3890
     19 C2'        -9.7280  -38.1580   23.6280 C.3       1 TTP         0.0308
     20 C1'        -9.1580  -39.0080   22.4950 C.3       1 TTP         0.1757
     21 N1         -8.4640  -40.1820   23.0530 N.am      1 TTP        -0.1736
     22 C2         -8.3870  -41.3910   22.3110 C.2       1 TTP         0.3265
     23 O2         -8.8920  -41.4640   21.1670 O.2       1 TTP        -0.3843
     24 N3         -7.7750  -42.4770   22.8070 N.am      1 TTP        -0.1859
     25 C4         -7.2210  -42.4630   24.0230 C.2       1 TTP         0.1930
     26 O4         -6.6490  -43.4820   24.4760 O.2       1 TTP        -0.4079
     27 C5         -7.2910  -41.2180   24.8280 C.2       1 TTP         0.0225
     28 C5M        -6.6770  -41.1650   26.2030 C.3       1 TTP        -0.0437
     29 C6         -7.9340  -40.1110   24.2850 C.2       1 TTP         0.0524
     30 H1         -7.6234  -35.9715   20.3773 H         1 TTP         0.0648
     31 H2         -8.9439  -34.8717   20.9000 H         1 TTP         0.0648
     32 H3         -9.8945  -36.9100   21.0253 H         1 TTP         0.0650
     33 H4         -8.9370  -36.1350   23.7665 H         1 TTP         0.0622
     34 H5        -11.2448  -36.1221   23.9970 H         1 TTP         0.2099
     35 H6        -10.7816  -38.4131   23.8148 H         1 TTP         0.0344
     36 H7         -9.1473  -38.2992   24.5515 H         1 TTP         0.0344
     37 H8         -9.9832  -39.3834   21.8720 H         1 TTP         0.0959
     38 H9         -7.7327  -43.3113   22.2573 H         1 TTP         0.2259
     39 H10        -6.8317  -40.1654   26.6353 H         1 TTP         0.0296
     40 H11        -5.5988  -41.3706   26.1313 H         1 TTP         0.0296
     41 H12        -7.1523  -41.9202   26.8462 H         1 TTP         0.0296
     42 H13        -8.0077  -39.1878   24.8579 H         1 TTP         0.1011
@<TRIPOS>BOND
     1    1    2 ar 
     2    1    3 ar 
     3    1    4 1  
     4    1   13 1  
     5    4    5 1  
     6    5    6 ar 
     7    5    7 ar 
     8    5    8 1  
     9    8    9 1  
    10    9   10 ar 
    11    9   11 ar 
    12    9   12 ar 
    13   13   14 1  
    14   14   15 1  
    15   15   16 1  
    16   15   17 1  
    17   16   20 1  
    18   17   18 1  
    19   17   19 1  
    20   19   20 1  
    21   20   21 1  
    22   21   22 am 
    23   21   29 1  
    24   22   23 2  
    25   22   24 am 
    26   24   25 am 
    27   25   26 2  
    28   25   27 1  
    29   27   28 1  
    30   27   29 2  
    31   14   30 1  
    32   14   31 1  
    33   15   32 1  
    34   17   33 1  
    35   18   34 1  
    36   19   35 1  
    37   19   36 1  
    38   20   37 1  
    39   24   38 1  
    40   28   39 1  
    41   28   40 1  
    42   28   41 1  
    43   29   42 1  
@<TRIPOS>SUBSTRUCTURE
     1 TTP         1

