6czc_ligand
  -I-interpret- 

 46 47  0  0  0  0  0  0  0  0999 V2000
   -6.2090  -33.9510   21.4980 P   0  0  0  0  0
   -6.3620  -33.9780   19.9860 O   0  0  0  0  0
   -6.2890  -32.5320   21.9990 O   0  0  0  0  0
   -4.7730  -34.4940   21.9680 O   0  0  0  0  0
   -4.0510  -35.7520   21.2710 P   0  0  0  0  0
   -4.7550  -36.1700   19.9830 O   0  0  0  0  0
   -3.9140  -36.9090   22.2310 O   0  0  0  0  0
   -2.5960  -35.1500   21.0440 O   0  0  0  0  0
   -2.4280  -33.8460   20.1400 P   0  0  0  0  0
   -1.2800  -34.1020   19.1950 O   0  0  0  0  0
   -3.7040  -33.5920   19.3860 O   0  0  0  0  0
   -2.1690  -32.6400   21.0050 O   0  0  0  0  0
   -7.3080  -34.9680   22.1490 O   0  0  0  0  0
   -8.2220  -35.6310   21.2350 C   0  0  0  0  0
   -9.0410  -36.8430   21.7160 C   0  0  0  0  0
   -8.3630  -38.1160   21.6880 O   0  0  0  0  0
   -9.6010  -36.7340   23.1260 C   0  0  0  0  0
  -10.9150  -36.1810   23.1080 O   0  0  0  0  0
   -9.7280  -38.1580   23.6280 C   0  0  0  0  0
   -9.1580  -39.0080   22.4950 C   0  0  0  0  0
   -8.4640  -40.1820   23.0530 N   0  0  0  0  0
   -8.3870  -41.3910   22.3110 C   0  0  0  0  0
   -8.8920  -41.4640   21.1670 O   0  0  0  0  0
   -7.7750  -42.4770   22.8070 N   0  0  0  0  0
   -7.2210  -42.4630   24.0230 C   0  0  0  0  0
   -6.6490  -43.4820   24.4760 O   0  0  0  0  0
   -7.2910  -41.2180   24.8280 C   0  0  0  0  0
   -6.6770  -41.1650   26.2030 C   0  0  0  0  0
   -7.9340  -40.1110   24.2850 C   0  0  0  0  0
   -6.3098  -34.8852   19.6764 H   0  0  0  0  0
   -4.8249  -35.4124   19.3975 H   0  0  0  0  0
   -0.4798  -34.2607   19.7010 H   0  0  0  0  0
   -1.3578  -32.7717   21.5012 H   0  0  0  0  0
   -7.5817  -36.0282   20.4474 H   0  0  0  0  0
   -8.9684  -34.8733   20.9963 H   0  0  0  0  0
   -9.8352  -36.8133   20.9700 H   0  0  0  0  0
   -8.9574  -36.1043   23.7403 H   0  0  0  0  0
  -11.2482  -36.1214   24.0063 H   0  0  0  0  0
  -10.7599  -38.4214   23.8601 H   0  0  0  0  0
   -9.1944  -38.3122   24.5659 H   0  0  0  0  0
   -9.9124  -39.4481   21.8428 H   0  0  0  0  0
   -7.7318  -43.3280   22.2463 H   0  0  0  0  0
   -5.9109  -40.3900   26.2278 H   0  0  0  0  0
   -7.4504  -40.9367   26.9363 H   0  0  0  0  0
   -6.2271  -42.1301   26.4360 H   0  0  0  0  0
   -8.0078  -39.1870   24.8584 H   0  0  0  0  0
  1  2  1  0  0  0
  1  3  2  0  0  0
  1  4  1  0  0  0
  1 13  1  0  0  0
  4  5  1  0  0  0
  5  6  1  0  0  0
  5  7  2  0  0  0
  5  8  1  0  0  0
  8  9  1  0  0  0
  9 10  1  0  0  0
  9 11  2  0  0  0
  9 12  1  0  0  0
 13 14  1  0  0  0
 14 15  1  0  0  0
 15 16  1  0  0  0
 15 17  1  0  0  0
 16 20  1  0  0  0
 17 18  1  0  0  0
 17 19  1  0  0  0
 19 20  1  0  0  0
 20 21  1  0  0  0
 21 22  1  0  0  0
 21 29  1  0  0  0
 22 23  2  0  0  0
 22 24  1  0  0  0
 24 25  1  0  0  0
 25 26  2  0  0  0
 25 27  1  0  0  0
 27 28  1  0  0  0
 27 29  2  0  0  0
  2 30  1  0  0  0
  6 31  1  0  0  0
 10 32  1  0  0  0
 12 33  1  0  0  0
 14 34  1  0  0  0
 14 35  1  0  0  0
 15 36  1  0  0  0
 17 37  1  0  0  0
 18 38  1  0  0  0
 19 39  1  0  0  0
 19 40  1  0  0  0
 20 41  1  0  0  0
 24 42  1  0  0  0
 28 43  1  0  0  0
 28 44  1  0  0  0
 28 45  1  0  0  0
 29 46  1  0  0  0
M  END
$$$$
