6q3q_ligand
  -I-interpret- 

122121  0  0  0  0  0  0  0  0999 V2000
  -52.8380  -12.7790   -6.2120 N   0  3  0  0  0
  -54.1910  -12.5840   -6.8180 C   0  0  0  0  0
  -55.1400  -11.6860   -6.0210 C   0  0  0  0  0
  -54.7560  -10.5860   -5.5810 O   0  0  0  0  0
  -56.3760  -12.1540   -5.8300 N   0  0  0  0  0
  -57.4540  -11.2810   -5.3840 C   0  0  0  0  0
  -57.5340  -11.4030   -3.8980 C   0  0  0  0  0
  -58.0060  -12.4370   -3.4010 O   0  0  0  0  0
  -58.8020  -11.6990   -5.9730 C   0  0  0  0  0
  -58.8550  -11.4570   -7.3480 O   0  0  0  0  0
  -57.0530  -10.3860   -3.1860 N   0  0  0  0  0
  -57.1970  -10.3640   -1.7180 C   0  0  0  0  0
  -58.5450   -9.7610   -1.4020 C   0  0  0  0  0
  -58.7800   -8.5660   -1.6860 O   0  0  0  0  0
  -56.0710   -9.5720   -1.0610 C   0  0  0  0  0
  -54.7110  -10.0200   -1.5570 C   0  0  0  0  0
  -53.6240   -9.7420   -0.5450 C   0  0  0  0  0
  -52.2790  -10.1830   -1.1040 C   0  0  0  0  0
  -51.1720  -10.0220   -0.1210 N   0  3  0  0  0
  -59.4360  -10.5930   -0.8630 N   0  0  0  0  0
  -60.7830  -10.1890   -0.4460 C   0  0  0  0  0
  -60.8580   -9.0210    0.5120 C   0  0  0  0  0
  -61.8830   -8.3040    0.5730 O   0  0  0  0  0
  -61.4280  -11.3400    0.3220 C   0  0  0  0  0
  -62.0770  -12.3360   -0.5500 C   0  0  0  0  0
  -62.9890  -13.3570    0.5760 S   0  0  0  0  0
  -64.5050  -12.4360    0.7700 C   0  0  0  0  0
  -59.8280   -8.9050    1.3380 N   0  0  0  0  0
  -59.7760   -7.8530    2.3370 C   0  0  0  0  0
  -59.3060   -6.4990    1.7230 C   0  0  0  0  0
  -59.1040   -5.5400    2.4740 O   0  0  0  0  0
  -58.8940   -8.2660    3.5470 C   0  0  0  0  0
  -57.3660   -8.1930    3.3680 C   0  0  0  0  0
  -56.7470   -9.4360    2.7360 C   0  0  0  0  0
  -55.5150   -9.5680    2.8360 O   0  0  0  0  0
  -57.4820  -10.2830    2.1540 O   0  0  0  0  0
  -59.0860   -6.4640    0.4050 N   0  0  0  0  0
  -58.7170   -5.2700   -0.3290 C   0  0  0  0  0
  -59.8380   -4.8850   -1.2740 C   0  0  0  0  0
  -60.4180   -5.7190   -1.9880 O   0  0  0  0  0
  -57.4420   -5.5050   -1.1420 C   0  0  0  0  0
  -56.2490   -5.8300   -0.2690 C   0  0  0  0  0
  -54.9400   -5.9410   -1.0380 C   0  0  0  0  0
  -54.9140   -6.4430   -2.1830 O   0  0  0  0  0
  -53.9250   -5.5330   -0.4630 O   0  0  0  0  0
  -60.1010   -3.5890   -1.2960 N   0  0  0  0  0
  -61.0460   -3.0050   -2.2100 C   0  0  0  0  0
  -60.2610   -2.4780   -3.4370 C   0  0  0  0  0
  -59.0250   -2.4150   -3.4010 O   0  0  0  0  0
  -61.9130   -1.9240   -1.5080 C   0  0  0  0  0
  -62.9630   -2.5730   -0.6060 C   0  0  0  0  0
  -61.0510   -0.9240   -0.7470 C   0  0  0  0  0
  -60.9850   -2.1490   -4.5110 N   0  0  0  0  0
  -60.3860   -1.8170   -5.8090 C   0  0  0  0  0
  -60.8510   -0.4790   -6.3310 C   0  0  0  0  0
  -60.4030   -0.1110   -7.4110 O   0  0  0  0  0
  -60.7220   -2.9060   -6.8160 C   0  0  0  0  0
  -60.1040   -4.2460   -6.4130 C   0  0  0  0  0
  -58.9530   -4.4790   -6.7880 O   0  0  0  0  0
  -60.7240   -5.0190   -5.6500 O   0  0  0  0  0
  -61.6710    0.2240   -5.7250 O   0  0  0  0  0
  -52.2824  -13.3882   -6.8125 H   0  0  0  0  0
  -52.3743  -11.8751   -6.1204 H   0  0  0  0  0
  -52.9376  -13.2063   -5.2912 H   0  0  0  0  0
  -54.6573  -13.5681   -6.8646 H   0  0  0  0  0
  -54.0350  -12.0973   -7.7808 H   0  0  0  0  0
  -56.5691  -13.1411   -5.9995 H   0  0  0  0  0
  -57.2455  -10.2616   -5.7088 H   0  0  0  0  0
  -59.5865  -11.1174   -5.4888 H   0  0  0  0  0
  -58.9370  -12.7674   -5.8043 H   0  0  0  0  0
  -59.7110  -11.7291   -7.6869 H   0  0  0  0  0
  -56.5810   -9.6157   -3.6595 H   0  0  0  0  0
  -57.1333  -11.3767   -1.3200 H   0  0  0  0  0
  -56.1165   -9.7369    0.0155 H   0  0  0  0  0
  -56.1991   -8.5189   -1.3112 H   0  0  0  0  0
  -54.4799   -9.4677   -2.4679 H   0  0  0  0  0
  -54.7480  -11.0951   -1.7329 H   0  0  0  0  0
  -53.8333  -10.2939    0.3713 H   0  0  0  0  0
  -53.5939   -8.6737   -0.3309 H   0  0  0  0  0
  -52.0537   -9.5594   -1.9691 H   0  0  0  0  0
  -52.3512  -11.2403   -1.3588 H   0  0  0  0  0
  -50.2963  -10.3304   -0.5434 H   0  0  0  0  0
  -51.0954   -9.0403    0.1452 H   0  0  0  0  0
  -51.3688  -10.5854    0.7062 H   0  0  0  0  0
  -59.1653  -11.5678   -0.7329 H   0  0  0  0  0
  -61.2715   -9.9075   -1.3789 H   0  0  0  0  0
  -62.1988  -10.9146    0.9647 H   0  0  0  0  0
  -60.6379  -11.8508    0.8724 H   0  0  0  0  0
  -61.3560  -12.9065   -1.1354 H   0  0  0  0  0
  -62.7171  -11.8740   -1.3017 H   0  0  0  0  0
  -64.2799  -11.4493    1.1747 H   0  0  0  0  0
  -64.9909  -12.3301   -0.1999 H   0  0  0  0  0
  -65.1669  -12.9680    1.4533 H   0  0  0  0  0
  -59.0562   -9.5684    1.2704 H   0  0  0  0  0
  -60.7908   -7.7042    2.7059 H   0  0  0  0  0
  -59.1189   -9.3167    3.7299 H   0  0  0  0  0
  -59.1315   -7.5567    4.3399 H   0  0  0  0  0
  -56.9315   -8.0888    4.3622 H   0  0  0  0  0
  -57.1613   -7.3574    2.6986 H   0  0  0  0  0
  -58.3956   -9.9904    2.1897 H   0  0  0  0  0
  -59.1842   -7.3341   -0.1181 H   0  0  0  0  0
  -58.5388   -4.4691    0.3886 H   0  0  0  0  0
  -57.2186   -4.5891   -1.6891 H   0  0  0  0  0
  -57.6164   -6.3542   -1.8027 H   0  0  0  0  0
  -56.4381   -6.7985    0.1939 H   0  0  0  0  0
  -56.1381   -5.0160    0.4474 H   0  0  0  0  0
  -55.8041   -6.6925   -2.4421 H   0  0  0  0  0
  -59.6144   -2.9793   -0.6388 H   0  0  0  0  0
  -61.7615   -3.7496   -2.5588 H   0  0  0  0  0
  -62.4413   -1.3628   -2.2787 H   0  0  0  0  0
  -63.6123   -3.2100   -1.2066 H   0  0  0  0  0
  -62.4651   -3.1740    0.1549 H   0  0  0  0  0
  -63.5576   -1.7961   -0.1255 H   0  0  0  0  0
  -60.4720   -1.4494    0.0125 H   0  0  0  0  0
  -60.3745   -0.4266   -1.4420 H   0  0  0  0  0
  -61.6921   -0.1833   -0.2691 H   0  0  0  0  0
  -62.0011   -2.1276   -4.4246 H   0  0  0  0  0
  -59.3072   -1.7526   -5.6668 H   0  0  0  0  0
  -60.3199   -2.6166   -7.7869 H   0  0  0  0  0
  -61.8052   -3.0211   -6.8540 H   0  0  0  0  0
  -61.5985   -4.6627   -5.4770 H   0  0  0  0  0
  -61.9163   -0.2083   -4.9037 H   0  0  0  0  0
  1  2  1  0  0  0
  2  3  1  0  0  0
  3  4  2  0  0  0
  3  5  1  0  0  0
  5  6  1  0  0  0
  6  7  1  0  0  0
  6  9  1  0  0  0
  7  8  2  0  0  0
  7 11  1  0  0  0
  9 10  1  0  0  0
 11 12  1  0  0  0
 12 13  1  0  0  0
 12 15  1  0  0  0
 13 14  2  0  0  0
 13 20  1  0  0  0
 15 16  1  0  0  0
 16 17  1  0  0  0
 17 18  1  0  0  0
 18 19  1  0  0  0
 20 21  1  0  0  0
 21 22  1  0  0  0
 21 24  1  0  0  0
 22 23  2  0  0  0
 22 28  1  0  0  0
 24 25  1  0  0  0
 25 26  1  0  0  0
 26 27  1  0  0  0
 28 29  1  0  0  0
 29 30  1  0  0  0
 29 32  1  0  0  0
 30 31  2  0  0  0
 30 37  1  0  0  0
 32 33  1  0  0  0
 33 34  1  0  0  0
 34 35  2  0  0  0
 34 36  1  0  0  0
 37 38  1  0  0  0
 38 39  1  0  0  0
 38 41  1  0  0  0
 39 40  2  0  0  0
 39 46  1  0  0  0
 41 42  1  0  0  0
 42 43  1  0  0  0
 43 44  1  0  0  0
 43 45  2  0  0  0
 46 47  1  0  0  0
 47 48  1  0  0  0
 47 50  1  0  0  0
 48 49  2  0  0  0
 48 53  1  0  0  0
 50 51  1  0  0  0
 50 52  1  0  0  0
 53 54  1  0  0  0
 54 55  1  0  0  0
 54 57  1  0  0  0
 55 56  2  0  0  0
 55 61  1  0  0  0
 57 58  1  0  0  0
 58 59  2  0  0  0
 58 60  1  0  0  0
  1 62  1  0  0  0
  1 63  1  0  0  0
  1 64  1  0  0  0
  2 65  1  0  0  0
  2 66  1  0  0  0
  5 67  1  0  0  0
  6 68  1  0  0  0
  9 69  1  0  0  0
  9 70  1  0  0  0
 10 71  1  0  0  0
 11 72  1  0  0  0
 12 73  1  0  0  0
 15 74  1  0  0  0
 15 75  1  0  0  0
 16 76  1  0  0  0
 16 77  1  0  0  0
 17 78  1  0  0  0
 17 79  1  0  0  0
 18 80  1  0  0  0
 18 81  1  0  0  0
 19 82  1  0  0  0
 19 83  1  0  0  0
 19 84  1  0  0  0
 20 85  1  0  0  0
 21 86  1  0  0  0
 24 87  1  0  0  0
 24 88  1  0  0  0
 25 89  1  0  0  0
 25 90  1  0  0  0
 27 91  1  0  0  0
 27 92  1  0  0  0
 27 93  1  0  0  0
 28 94  1  0  0  0
 29 95  1  0  0  0
 32 96  1  0  0  0
 32 97  1  0  0  0
 33 98  1  0  0  0
 33 99  1  0  0  0
 36100  1  0  0  0
 37101  1  0  0  0
 38102  1  0  0  0
 41103  1  0  0  0
 41104  1  0  0  0
 42105  1  0  0  0
 42106  1  0  0  0
 44107  1  0  0  0
 46108  1  0  0  0
 47109  1  0  0  0
 50110  1  0  0  0
 51111  1  0  0  0
 51112  1  0  0  0
 51113  1  0  0  0
 52114  1  0  0  0
 52115  1  0  0  0
 52116  1  0  0  0
 53117  1  0  0  0
 54118  1  0  0  0
 57119  1  0  0  0
 57120  1  0  0  0
 60121  1  0  0  0
 61122  1  0  0  0
M  END
$$$$
