1njt_ligand
  -I-interpret- 

 74 73  0  0  0  0  0  0  0  0999 V2000
   50.9190   71.9880   19.1320 C   0  0  0  0  0
   51.5140   70.9900   19.5470 O   0  0  0  0  0
   51.2530   73.3940   19.6890 C   0  0  0  0  0
   49.9740   71.9280   18.2000 N   0  0  0  0  0
   49.5760   70.6600   17.6020 C   0  0  0  0  0
   49.3470   70.7950   16.1000 C   0  0  0  0  0
   48.8880   71.8320   15.6190 O   0  0  0  0  0
   48.2860   70.1280   18.2570 C   0  0  0  0  0
   47.8600   68.8310   17.5970 C   0  0  0  0  0
   48.5250   69.9020   19.7440 C   0  0  0  0  0
   49.6870   69.7470   15.3600 N   0  0  0  0  0
   49.4880   69.7500   13.9170 C   0  0  0  0  0
   50.8290   69.5930   13.1890 C   0  0  0  0  0
   51.5620   70.9630   13.1760 C   0  0  0  0  0
   51.7110   68.5430   13.9140 C   0  0  0  0  0
   50.5890   69.1480   11.7230 C   0  0  0  0  0
   51.7770   71.6180   12.1520 O   0  0  0  0  0
   51.9500   71.5770   14.1750 O   0  0  0  0  0
   48.5240   68.6220   13.5510 C   0  0  0  0  0
   48.7010   67.4660   13.9620 O   0  0  0  0  0
   47.4910   68.9780   12.7960 N   0  0  0  0  0
   46.4850   68.0170   12.3750 C   0  0  0  0  0
   45.0890   68.5620   12.6740 C   0  0  0  0  0
   44.8400   68.7470   14.1680 C   0  0  0  0  0
   45.5280   68.1480   14.9980 O   0  0  0  0  0
   43.8460   69.5710   14.5150 N   0  0  0  0  0
   43.0640   70.2920   13.5420 C   0  0  0  0  0
   43.4970   69.7540   15.9020 C   0  0  0  0  0
   46.6060   67.7000   10.8890 C   0  0  0  0  0
   46.6000   68.6050   10.0520 O   0  0  0  0  0
   46.7160   66.4120   10.5650 N   0  0  0  0  0
   46.8340   65.9830    9.1730 C   0  0  0  0  0
   45.5320   65.3090    8.6740 C   0  0  0  0  0
   45.8470   64.4900    7.5970 O   0  0  0  0  0
   47.9920   65.0300    9.0210 C   0  0  0  0  0
   51.0678   73.4113   20.7630 H   0  0  0  0  0
   52.3017   73.6201   19.4961 H   0  0  0  0  0
   50.6237   74.1366   19.1985 H   0  0  0  0  0
   49.5172   72.7880   17.8965 H   0  0  0  0  0
   50.3925   69.9584   17.7729 H   0  0  0  0  0
   47.4911   70.8624   18.1274 H   0  0  0  0  0
   48.6441   68.0848   17.7254 H   0  0  0  0  0
   46.9390   68.4752   18.0588 H   0  0  0  0  0
   47.6917   69.0039   16.5340 H   0  0  0  0  0
   47.6049   69.5478   20.2088 H   0  0  0  0  0
   49.3101   69.1574   19.8755 H   0  0  0  0  0
   48.8305   70.8397   20.2082 H   0  0  0  0  0
   50.0941   68.9265   15.8088 H   0  0  0  0  0
   49.0586   70.7019   13.6046 H   0  0  0  0  0
   51.8955   68.8697   14.9374 H   0  0  0  0  0
   51.1954   67.5827   13.9252 H   0  0  0  0  0
   52.6597   68.4413   13.3871 H   0  0  0  0  0
   50.0629   68.1934   11.7159 H   0  0  0  0  0
   49.9882   69.8992   11.2103 H   0  0  0  0  0
   51.5478   69.0397   11.2159 H   0  0  0  0  0
   51.7745   71.0526   14.9597 H   0  0  0  0  0
   47.4012   69.9512   12.5040 H   0  0  0  0  0
   46.6468   67.0946   12.9327 H   0  0  0  0  0
   44.3605   67.8434   12.2986 H   0  0  0  0  0
   44.9997   69.5372   12.1954 H   0  0  0  0  0
   43.7190   70.9390   12.9586 H   0  0  0  0  0
   42.5674   69.5831   12.8794 H   0  0  0  0  0
   42.3164   70.8971   14.0548 H   0  0  0  0  0
   43.2010   68.7964   16.3302 H   0  0  0  0  0
   44.3584   70.1449   16.4436 H   0  0  0  0  0
   42.6687   70.4586   15.9770 H   0  0  0  0  0
   46.7179   65.7100   11.3050 H   0  0  0  0  0
   47.0098   66.8708    8.5656 H   0  0  0  0  0
   44.8129   66.0685    8.3672 H   0  0  0  0  0
   45.0876   64.7178    9.4747 H   0  0  0  0  0
   45.0487   64.0643    7.2759 H   0  0  0  0  0
   48.9133   65.5289    9.3215 H   0  0  0  0  0
   47.8276   64.1568    9.6523 H   0  0  0  0  0
   48.0695   64.7176    7.9796 H   0  0  0  0  0
  1  2  2  0  0  0
  1  3  1  0  0  0
  1  4  1  0  0  0
  4  5  1  0  0  0
  5  6  1  0  0  0
  5  8  1  0  0  0
  6  7  2  0  0  0
  6 11  1  0  0  0
  8  9  1  0  0  0
  8 10  1  0  0  0
 11 12  1  0  0  0
 12 13  1  0  0  0
 12 19  1  0  0  0
 13 14  1  0  0  0
 13 15  1  0  0  0
 13 16  1  0  0  0
 14 17  2  0  0  0
 14 18  1  0  0  0
 19 20  2  0  0  0
 19 21  1  0  0  0
 21 22  1  0  0  0
 22 23  1  0  0  0
 22 29  1  0  0  0
 23 24  1  0  0  0
 24 25  2  0  0  0
 24 26  1  0  0  0
 26 27  1  0  0  0
 26 28  1  0  0  0
 29 30  2  0  0  0
 29 31  1  0  0  0
 31 32  1  0  0  0
 32 33  1  0  0  0
 32 35  1  0  0  0
 33 34  1  0  0  0
  3 36  1  0  0  0
  3 37  1  0  0  0
  3 38  1  0  0  0
  4 39  1  0  0  0
  5 40  1  0  0  0
  8 41  1  0  0  0
  9 42  1  0  0  0
  9 43  1  0  0  0
  9 44  1  0  0  0
 10 45  1  0  0  0
 10 46  1  0  0  0
 10 47  1  0  0  0
 11 48  1  0  0  0
 12 49  1  0  0  0
 15 50  1  0  0  0
 15 51  1  0  0  0
 15 52  1  0  0  0
 16 53  1  0  0  0
 16 54  1  0  0  0
 16 55  1  0  0  0
 18 56  1  0  0  0
 21 57  1  0  0  0
 22 58  1  0  0  0
 23 59  1  0  0  0
 23 60  1  0  0  0
 27 61  1  0  0  0
 27 62  1  0  0  0
 27 63  1  0  0  0
 28 64  1  0  0  0
 28 65  1  0  0  0
 28 66  1  0  0  0
 31 67  1  0  0  0
 32 68  1  0  0  0
 33 69  1  0  0  0
 33 70  1  0  0  0
 34 71  1  0  0  0
 35 72  1  0  0  0
 35 73  1  0  0  0
 35 74  1  0  0  0
M  END
$$$$
