3f3v_ligand
  -I-interpret- 

 68 72  0  0  0  0  0  0  0  0999 V2000
  -11.0050   37.0580   -6.3800 C   0  0  0  0  0
   -9.7470   37.6040   -6.4520 C   0  0  0  0  0
   -8.7980   36.9380   -7.1820 C   0  0  0  0  0
   -9.1670   35.8230   -7.7430 N   0  0  0  0  0
  -11.2740   35.9340   -6.9890 N   0  0  0  0  0
    2.1150   35.7970   -9.2860 C   0  0  0  0  0
    2.0660   34.3150   -9.5840 C   0  0  0  0  0
    1.0700   33.5640   -9.0270 C   0  0  0  0  0
    3.0040   33.7670  -10.4080 C   0  0  0  0  0
    2.9720   32.4450  -10.6900 C   0  0  0  0  0
    1.9880   31.6870  -10.1390 C   0  0  0  0  0
    1.0400   32.2470   -9.3330 C   0  0  0  0  0
    0.1640   31.4620   -8.8120 N   0  0  0  0  0
    0.5300   30.4060   -8.3540 N   0  0  0  0  0
   -0.4940   29.8160   -7.8580 C   0  0  0  0  0
   -0.4440   28.4130   -7.2500 C   0  0  0  0  0
    0.9790   28.0920   -6.9270 C   0  0  0  0  0
   -1.2480   28.2390   -6.0230 C   0  0  0  0  0
   -1.0220   27.4540   -8.2480 C   0  0  0  0  0
   -1.5330   30.5910   -8.0430 C   0  0  0  0  0
   -1.0880   31.6680   -8.6140 C   0  0  0  0  0
   -1.7850   32.7080   -9.0140 N   0  0  0  0  0
   -2.8330   33.1740   -8.4240 C   0  0  0  0  0
   -3.1890   32.7220   -7.3730 O   0  0  0  0  0
   -3.4090   34.1660   -9.0420 N   0  0  0  0  0
   -4.4350   34.9190   -8.6220 C   0  0  0  0  0
   -5.2970   35.5370   -9.5100 C   0  0  0  0  0
   -6.3370   36.3370   -9.0800 C   0  0  0  0  0
   -4.6500   35.1690   -7.2910 C   0  0  0  0  0
   -5.6800   35.9640   -6.8690 C   0  0  0  0  0
   -6.5570   36.5590   -7.7520 C   0  0  0  0  0
   -7.5620   37.3420   -7.3330 N   0  0  0  0  0
   -9.5100   38.7770   -5.7910 C   0  0  0  0  0
  -10.5190   39.3810   -5.0700 C   0  0  0  0  0
  -10.3200   40.5050   -4.4220 N   0  0  0  0  0
  -11.7650   38.8160   -5.0140 C   0  0  0  0  0
  -12.0120   37.6510   -5.6720 C   0  0  0  0  0
  -10.3560   35.3310   -7.6420 C   0  0  0  0  0
    1.1921   36.2657   -9.6276 H   0  0  0  0  0
    2.2242   35.9469   -8.2119 H   0  0  0  0  0
    2.9639   36.2427   -9.8045 H   0  0  0  0  0
    0.3291   34.0085   -8.3625 H   0  0  0  0  0
    3.7818   34.3963  -10.8406 H   0  0  0  0  0
    3.7192   31.9971  -11.3450 H   0  0  0  0  0
    1.9555   30.6169  -10.3437 H   0  0  0  0  0
    1.5739   28.1259   -7.8397 H   0  0  0  0  0
    1.3622   28.8226   -6.2146 H   0  0  0  0  0
    1.0353   27.0942   -6.4919 H   0  0  0  0  0
   -0.8917   28.9267   -5.2561 H   0  0  0  0  0
   -2.2947   28.4490   -6.2432 H   0  0  0  0  0
   -1.1488   27.2134   -5.6676 H   0  0  0  0  0
   -2.0528   27.7344   -8.4645 H   0  0  0  0  0
   -0.4344   27.4883   -9.1654 H   0  0  0  0  0
   -0.9973   26.4449   -7.8367 H   0  0  0  0  0
   -2.5662   30.3746   -7.7714 H   0  0  0  0  0
   -1.4718   33.1852   -9.8594 H   0  0  0  0  0
   -3.0317   34.3986   -9.9607 H   0  0  0  0  0
   -5.1510   35.3882  -10.5799 H   0  0  0  0  0
   -6.9948   36.8000   -9.8156 H   0  0  0  0  0
   -3.9843   34.7236   -6.5517 H   0  0  0  0  0
   -5.8121   36.1328   -5.8003 H   0  0  0  0  0
   -7.3494   38.3161   -7.1179 H   0  0  0  0  0
   -8.5221   39.2357   -5.8338 H   0  0  0  0  0
   -9.4031   40.9513   -4.4446 H   0  0  0  0  0
  -11.0823   40.9322   -3.8958 H   0  0  0  0  0
  -12.5580   39.2989   -4.4430 H   0  0  0  0  0
  -13.0018   37.1960   -5.6348 H   0  0  0  0  0
  -10.5820   34.3801   -8.1244 H   0  0  0  0  0
  2  1  4  0  0  0
  1  5  4  0  0  0
  1 37  4  0  0  0
  3  2  4  0  0  0
  2 33  4  0  0  0
  3  4  4  0  0  0
 32  3  1  0  0  0
  4 38  4  0  0  0
 38  5  4  0  0  0
  7  6  1  0  0  0
  8  7  4  0  0  0
  7  9  4  0  0  0
 12  8  4  0  0  0
 10  9  4  0  0  0
 11 10  4  0  0  0
 12 11  4  0  0  0
 13 12  1  0  0  0
 13 14  4  0  0  0
 21 13  4  0  0  0
 15 14  4  0  0  0
 15 16  1  0  0  0
 20 15  4  0  0  0
 16 17  1  0  0  0
 16 18  1  0  0  0
 16 19  1  0  0  0
 21 20  4  0  0  0
 22 21  1  0  0  0
 23 22  1  0  0  0
 23 24  2  0  0  0
 25 23  1  0  0  0
 26 25  1  0  0  0
 27 26  4  0  0  0
 29 26  4  0  0  0
 28 27  4  0  0  0
 31 28  4  0  0  0
 30 29  4  0  0  0
 31 30  4  0  0  0
 31 32  1  0  0  0
 33 34  4  0  0  0
 34 35  1  0  0  0
 34 36  4  0  0  0
 36 37  4  0  0  0
  6 39  1  0  0  0
  6 40  1  0  0  0
  6 41  1  0  0  0
  8 42  1  0  0  0
  9 43  1  0  0  0
 10 44  1  0  0  0
 11 45  1  0  0  0
 17 46  1  0  0  0
 17 47  1  0  0  0
 17 48  1  0  0  0
 18 49  1  0  0  0
 18 50  1  0  0  0
 18 51  1  0  0  0
 19 52  1  0  0  0
 19 53  1  0  0  0
 19 54  1  0  0  0
 20 55  1  0  0  0
 22 56  1  0  0  0
 25 57  1  0  0  0
 27 58  1  0  0  0
 28 59  1  0  0  0
 29 60  1  0  0  0
 30 61  1  0  0  0
 32 62  1  0  0  0
 33 63  1  0  0  0
 35 64  1  0  0  0
 35 65  1  0  0  0
 36 66  1  0  0  0
 37 67  1  0  0  0
 38 68  1  0  0  0
M  END
$$$$
