5qas_ligand
  -I-interpret- 

 38 39  0  0  0  0  0  0  0  0999 V2000
   94.0500  242.7790    4.6800 N   0  0  0  0  0
   92.5510  242.1900    6.4720 C   0  0  0  0  0
   97.6380  253.3040    7.6510 O   0  0  0  0  0
   92.9960  243.1510    5.4100 C   0  0  0  0  0
   95.7180  249.0800    6.7630 C   0  0  0  0  0
   95.0550  249.0390    7.9900 C   0  0  0  0  0
   95.0270  250.1470    8.8190 C   0  0  0  0  0
   95.6580  251.3150    8.4380 C   0  0  0  0  0
   96.3200  251.3850    7.2190 C   0  0  0  0  0
   96.9950  252.6600    6.7870 C   0  0  0  0  0
   96.3460  250.2680    6.3890 C   0  0  0  0  0
   94.4890  243.4970    3.4930 C   0  0  0  0  0
   95.8500  244.1600    3.6800 C   0  0  0  0  0
   95.8210  245.4700    4.4330 C   0  0  0  0  0
   96.9940  246.0620    4.8780 C   0  0  0  0  0
   96.9680  247.2520    5.5840 C   0  0  0  0  0
   94.6240  246.1120    4.7010 C   0  0  0  0  0
   94.5940  247.3000    5.4080 C   0  0  0  0  0
   95.7640  247.8850    5.8830 C   0  0  0  0  0
   96.8650  253.0000    5.5900 O   0  0  0  0  0
   92.4120  244.2130    5.2080 O   0  0  0  0  0
   94.5726  241.9518    4.9681 H   0  0  0  0  0
   92.5922  242.6806    7.4445 H   0  0  0  0  0
   91.5288  241.8719    6.2671 H   0  0  0  0  0
   93.2098  241.3216    6.4735 H   0  0  0  0  0
   97.5922  252.8430    8.4918 H   0  0  0  0  0
   94.5526  248.1226    8.2997 H   0  0  0  0  0
   94.5056  250.0977    9.7750 H   0  0  0  0  0
   95.6364  252.1840    9.0956 H   0  0  0  0  0
   96.8651  250.3224    5.4321 H   0  0  0  0  0
   93.7597  244.2799    3.2851 H   0  0  0  0  0
   94.5746  242.7782    2.6781 H   0  0  0  0  0
   96.2350  244.3770    2.6836 H   0  0  0  0  0
   96.4584  243.4719    4.2669 H   0  0  0  0  0
   97.9503  245.5828    4.6685 H   0  0  0  0  0
   97.9055  247.7014    5.9115 H   0  0  0  0  0
   93.6901  245.6739    4.3490 H   0  0  0  0  0
   93.6372  247.7868    5.5966 H   0  0  0  0  0
  1  4  1  0  0  0
 12  1  1  0  0  0
  4  2  1  0  0  0
 10  3  1  0  0  0
  4 21  2  0  0  0
  5  6  4  0  0  0
  5 11  4  0  0  0
 19  5  1  0  0  0
  6  7  4  0  0  0
  7  8  4  0  0  0
  9  8  4  0  0  0
  9 10  1  0  0  0
 11  9  4  0  0  0
 10 20  2  0  0  0
 13 12  1  0  0  0
 14 13  1  0  0  0
 15 14  4  0  0  0
 14 17  4  0  0  0
 16 15  4  0  0  0
 16 19  4  0  0  0
 17 18  4  0  0  0
 18 19  4  0  0  0
  1 22  1  0  0  0
  2 23  1  0  0  0
  2 24  1  0  0  0
  2 25  1  0  0  0
  3 26  1  0  0  0
  6 27  1  0  0  0
  7 28  1  0  0  0
  8 29  1  0  0  0
 11 30  1  0  0  0
 12 31  1  0  0  0
 12 32  1  0  0  0
 13 33  1  0  0  0
 13 34  1  0  0  0
 15 35  1  0  0  0
 16 36  1  0  0  0
 17 37  1  0  0  0
 18 38  1  0  0  0
M  END
$$$$
