6hm7_ligand
  -I-interpret- 

 55 58  0  0  0  0  0  0  0  0999 V2000
   25.8310  -42.7800   40.7740 C   0  0  0  0  0
   26.6830  -43.6040   40.0730 C   0  0  0  0  0
   26.8520  -43.3950   38.7150 C   0  0  0  0  0
   26.1650  -42.3570   38.1010 C   0  0  0  0  0
   27.4380  -41.8550   34.7430 C   0  0  0  0  0
   25.4750  -39.2840   32.7750 C   0  0  0  0  0
   28.5470  -41.4480   32.7840 C   0  0  0  0  0
   25.3110  -41.5160   38.7910 C   0  0  0  0  0
   22.5740  -39.4120   37.3320 C   0  0  0  0  0
   23.2570  -38.3520   36.7720 C   0  0  0  0  0
   22.4530  -37.2930   36.0640 C   0  0  0  0  0
   25.4420  -37.1940   36.2820 C   0  0  0  0  0
   25.3020  -39.3480   37.5440 C   0  0  0  0  0
   24.0670  -41.0650   42.2190 C   0  0  0  0  0
   24.3030  -40.8840   40.8130 O   0  0  0  0  0
   25.1570  -41.7480   40.1450 C   0  0  0  0  0
   26.2510  -42.0810   36.7520 O   0  0  0  0  0
   27.3760  -42.6040   36.0420 C   0  0  0  0  0
   26.4570  -40.9380   34.3970 C   0  0  0  0  0
   26.5210  -40.2770   33.1870 C   0  0  0  0  0
   27.6040  -40.5300   32.3690 C   0  0  0  0  0
   28.4780  -42.1200   33.9470 N   0  0  0  0  0
   24.6200  -40.4230   38.1050 C   0  0  0  0  0
   23.2420  -40.4270   37.9820 C   0  0  0  0  0
   22.6300  -35.9130   36.6890 C   0  0  0  0  0
   23.8940  -35.3090   36.2560 N   0  3  0  0  0
   25.0520  -35.8810   36.9410 C   0  0  0  0  0
   24.6410  -38.3190   36.8830 C   0  0  0  0  0
   25.6851  -42.9433   41.8418 H   0  0  0  0  0
   27.2162  -44.4085   40.5796 H   0  0  0  0  0
   27.5157  -44.0370   38.1357 H   0  0  0  0  0
   24.5034  -39.7766   32.7364 H   0  0  0  0  0
   25.4428  -38.4704   33.4996 H   0  0  0  0  0
   25.7214  -38.8860   31.7906 H   0  0  0  0  0
   29.3981  -41.6399   32.1306 H   0  0  0  0  0
   21.4870  -39.4472   37.2590 H   0  0  0  0  0
   21.3998  -37.5639   36.1378 H   0  0  0  0  0
   22.7980  -37.2421   35.0313 H   0  0  0  0  0
   26.5039  -37.3789   36.4439 H   0  0  0  0  0
   25.2394  -37.1365   35.2125 H   0  0  0  0  0
   26.3884  -39.3114   37.6252 H   0  0  0  0  0
   23.6372  -42.0520   42.3899 H   0  0  0  0  0
   25.0103  -40.9797   42.7584 H   0  0  0  0  0
   23.3751  -40.3001   42.5714 H   0  0  0  0  0
   28.2952  -42.4753   36.6135 H   0  0  0  0  0
   27.2696  -43.6755   35.8726 H   0  0  0  0  0
   25.6332  -40.7387   35.0824 H   0  0  0  0  0
   27.7120  -40.0149   31.4145 H   0  0  0  0  0
   22.6716  -41.2519   38.4090 H   0  0  0  0  0
   22.6408  -36.0153   37.7741 H   0  0  0  0  0
   21.8061  -35.2734   36.3724 H   0  0  0  0  0
   23.8585  -34.3136   36.4759 H   0  0  0  0  0
   24.0008  -35.4852   35.2570 H   0  0  0  0  0
   25.8880  -35.1842   36.8796 H   0  0  0  0  0
   24.7997  -36.0627   37.9857 H   0  0  0  0  0
  2  1  4  0  0  0
 16  1  4  0  0  0
  3  2  4  0  0  0
  4  3  4  0  0  0
  4  8  4  0  0  0
 17  4  1  0  0  0
  5 18  1  0  0  0
 19  5  4  0  0  0
  5 22  4  0  0  0
 20  6  1  0  0  0
  7 21  4  0  0  0
 22  7  4  0  0  0
  8 16  4  0  0  0
  8 23  1  0  0  0
 10  9  4  0  0  0
  9 24  4  0  0  0
 10 11  1  0  0  0
 28 10  4  0  0  0
 11 25  1  0  0  0
 12 27  1  0  0  0
 28 12  1  0  0  0
 23 13  4  0  0  0
 13 28  4  0  0  0
 15 14  1  0  0  0
 16 15  1  0  0  0
 18 17  1  0  0  0
 19 20  4  0  0  0
 20 21  4  0  0  0
 23 24  4  0  0  0
 25 26  1  0  0  0
 26 27  1  0  0  0
  1 29  1  0  0  0
  2 30  1  0  0  0
  3 31  1  0  0  0
  6 32  1  0  0  0
  6 33  1  0  0  0
  6 34  1  0  0  0
  7 35  1  0  0  0
  9 36  1  0  0  0
 11 37  1  0  0  0
 11 38  1  0  0  0
 12 39  1  0  0  0
 12 40  1  0  0  0
 13 41  1  0  0  0
 14 42  1  0  0  0
 14 43  1  0  0  0
 14 44  1  0  0  0
 18 45  1  0  0  0
 18 46  1  0  0  0
 19 47  1  0  0  0
 21 48  1  0  0  0
 24 49  1  0  0  0
 25 50  1  0  0  0
 25 51  1  0  0  0
 26 52  1  0  0  0
 26 53  1  0  0  0
 27 54  1  0  0  0
 27 55  1  0  0  0
M  END
$$$$
