4er2_ligand
  -I-interpret- 

111110  0  0  0  0  0  0  0  0999 V2000
    2.8600   25.3270   20.0930 C   0  0  0  0  0
    1.4840   24.8890   20.5830 C   0  0  0  0  0
    0.4020   25.4700   19.6740 C   0  0  0  0  0
    1.2510   23.3880   20.7540 C   0  0  0  0  0
    3.0270   26.8360   20.1710 C   0  0  0  0  0
    2.8980   27.5360   21.1540 O   0  0  0  0  0
    3.3910   27.2130   18.9640 N   0  0  0  0  0
    3.8960   28.5530   18.6470 C   0  0  0  0  0
    3.4620   28.9640   17.2340 C   0  0  0  0  0
    3.4300   28.0840   16.3520 O   0  0  0  0  0
    5.3810   28.5990   18.9350 C   0  0  0  0  0
    6.2870   28.9460   17.8130 C   0  0  0  0  0
    5.8850   29.0650   20.3080 C   0  0  0  0  0
    2.9420   30.1740   17.1360 N   0  0  0  0  0
    2.4810   30.8530   15.9210 C   0  0  0  0  0
    3.2560   32.1250   15.7040 C   0  0  0  0  0
    2.9260   33.0720   16.4570 O   0  0  0  0  0
    0.9600   31.0600   15.9490 C   0  0  0  0  0
    0.5030   31.6630   14.6070 C   0  0  0  0  0
    0.1760   29.7940   16.3250 C   0  0  0  0  0
    4.2550   32.0950   14.8200 N   0  0  0  0  0
    5.1250   33.3130   14.6520 C   0  0  0  0  0
    6.5480   33.0030   15.1260 C   0  0  0  0  0
    6.6250   32.4210   16.5110 C   0  0  0  0  0
    8.0080   31.9470   16.9330 C   0  0  0  0  0
    6.2840   33.5640   17.6690 C   0  0  0  0  0
    5.1420   33.8020   13.2200 C   0  0  0  0  0
    5.6070   32.7440   12.3630 O   0  0  0  0  0
    3.7370   34.1780   12.7080 C   0  0  0  0  0
    3.4140   35.6300   13.0990 C   0  0  0  0  0
    2.8250   35.7090   14.1540 O   0  0  0  0  0
    3.7630   36.6750   12.4300 N   0  0  0  0  0
    3.3790   38.0640   12.7460 C   0  0  0  0  0
    1.9250   38.3230   12.3910 C   0  0  0  0  0
    1.7580   38.9230   11.3560 O   0  0  0  0  0
    4.2260   38.9650   11.8660 C   0  0  0  0  0
    0.9420   37.8620   13.0910 N   0  0  0  0  0
   -0.5050   38.0040   13.0580 C   0  0  0  0  0
   -1.2260   36.6870   13.0800 C   0  0  0  0  0
   -0.5150   35.5650   12.3400 C   0  0  0  0  0
   -1.1660   34.2270   12.5960 C   0  0  0  0  0
   -0.5580   35.8460   10.7730 C   0  0  0  0  0
   -1.0400   38.9330   14.1640 C   0  0  0  0  0
   -0.8030   38.3550   15.4410 O   0  0  0  0  0
   -0.4120   40.3050   14.0930 C   0  0  0  0  0
   -0.9000   41.2520   15.1680 C   0  0  0  0  0
   -0.7080   41.0620   16.3770 O   0  0  0  0  0
   -1.5070   42.3400   14.7190 O   0  0  0  0  0
    2.9685   25.0217   19.0523 H   0  0  0  0  0
    3.6154   24.8635   20.7275 H   0  0  0  0  0
    1.4313   25.2854   21.5970 H   0  0  0  0  0
    0.4457   24.9810   18.7008 H   0  0  0  0  0
   -0.5769   25.3017   20.1230 H   0  0  0  0  0
    0.5680   26.5403   19.5520 H   0  0  0  0  0
    0.2710   23.2224   21.2016 H   0  0  0  0  0
    1.2936   22.9017   19.7794 H   0  0  0  0  0
    2.0228   22.9734   21.4024 H   0  0  0  0  0
    3.3178   26.5347   18.2057 H   0  0  0  0  0
    3.4558   29.3180   19.2867 H   0  0  0  0  0
    5.4707   27.5184   19.0464 H   0  0  0  0  0
    6.1708   28.2137   17.0141 H   0  0  0  0  0
    6.0352   29.9379   17.4378 H   0  0  0  0  0
    7.3184   28.9405   18.1655 H   0  0  0  0  0
    5.5501   30.0864   20.4890 H   0  0  0  0  0
    5.4872   28.4083   21.0817 H   0  0  0  0  0
    6.9743   29.0301   20.3248 H   0  0  0  0  0
    2.8504   30.6970   18.0069 H   0  0  0  0  0
    2.6793   30.2180   15.0575 H   0  0  0  0  0
    0.7322   31.7646   16.7489 H   0  0  0  0  0
    0.9994   32.6211   14.4528 H   0  0  0  0  0
    0.7643   30.9825   13.7966 H   0  0  0  0  0
   -0.5768   31.8106   14.6254 H   0  0  0  0  0
    0.3857   29.0091   15.5984 H   0  0  0  0  0
    0.4790   29.4620   17.3180 H   0  0  0  0  0
   -0.8912   30.0156   16.3245 H   0  0  0  0  0
    4.4275   31.2571   14.2645 H   0  0  0  0  0
    4.7037   34.1120   15.2621 H   0  0  0  0  0
    7.0934   33.9466   15.1434 H   0  0  0  0  0
    6.9596   32.2605   14.4423 H   0  0  0  0  0
    5.9175   31.5938   16.4533 H   0  0  0  0  0
    8.3494   31.1710   16.2479 H   0  0  0  0  0
    8.7021   32.7871   16.9074 H   0  0  0  0  0
    7.9597   31.5446   17.9449 H   0  0  0  0  0
    7.0032   34.3797   17.5954 H   0  0  0  0  0
    5.2771   33.9503   17.5109 H   0  0  0  0  0
    6.3489   33.1087   18.6572 H   0  0  0  0  0
    5.7878   34.6799   13.2000 H   0  0  0  0  0
    5.6186   33.0519   11.4538 H   0  0  0  0  0
    2.9994   33.5111   13.1544 H   0  0  0  0  0
    3.7103   34.0817   11.6226 H   0  0  0  0  0
    4.3552   36.5292   11.6124 H   0  0  0  0  0
    3.5229   38.2477   13.8107 H   0  0  0  0  0
    5.2806   38.7958   12.0834 H   0  0  0  0  0
    4.0285   38.7374   10.8185 H   0  0  0  0  0
    3.9750   40.0066   12.0664 H   0  0  0  0  0
    1.2554   37.2533   13.8471 H   0  0  0  0  0
   -0.7177   38.4759   12.0987 H   0  0  0  0  0
   -2.1838   36.8398   12.5826 H   0  0  0  0  0
   -1.3013   36.3825   14.1239 H   0  0  0  0  0
    0.5121   35.5338   12.7036 H   0  0  0  0  0
   -1.1358   34.0080   13.6633 H   0  0  0  0  0
   -2.2022   34.2582   12.2593 H   0  0  0  0  0
   -0.6283   33.4522   12.0495 H   0  0  0  0  0
   -1.5955   35.8976   10.4428 H   0  0  0  0  0
   -0.0604   36.7924   10.5611 H   0  0  0  0  0
   -0.0474   35.0397   10.2464 H   0  0  0  0  0
   -2.1127   39.0500   14.0103 H   0  0  0  0  0
   -1.1394   38.9404   16.1234 H   0  0  0  0  0
   -0.6814   40.7379   13.1296 H   0  0  0  0  0
    0.6620   40.1800   14.2309 H   0  0  0  0  0
   -1.5604   42.3031   13.7612 H   0  0  0  0  0
  8  7  1  0  0  0
  8 11  1  0  0  0
  9  8  1  0  0  0
  9 10  2  0  0  0
 11 13  1  0  0  0
 11 12  1  0  0  0
 15 14  1  0  0  0
 15 18  1  0  0  0
 16 15  1  0  0  0
 16 17  2  0  0  0
 18 20  1  0  0  0
 18 19  1  0  0  0
 14  9  1  0  0  0
 32 33  1  0  0  0
 33 36  1  0  0  0
 33 34  1  0  0  0
 34 35  2  0  0  0
  1  2  1  0  0  0
  5  1  1  0  0  0
  2  3  1  0  0  0
  2  4  1  0  0  0
  5  6  2  0  0  0
  7  5  1  0  0  0
 21 16  1  0  0  0
 22 21  1  0  0  0
 22 23  1  0  0  0
 27 22  1  0  0  0
 23 24  1  0  0  0
 24 25  1  0  0  0
 24 26  1  0  0  0
 27 28  1  0  0  0
 29 27  1  0  0  0
 30 29  1  0  0  0
 30 31  2  0  0  0
 32 30  1  0  0  0
 34 37  1  0  0  0
 37 38  1  0  0  0
 38 39  1  0  0  0
 38 43  1  0  0  0
 39 40  1  0  0  0
 40 41  1  0  0  0
 40 42  1  0  0  0
 43 44  1  0  0  0
 43 45  1  0  0  0
 45 46  1  0  0  0
 46 47  2  0  0  0
 46 48  1  0  0  0
  1 49  1  0  0  0
  1 50  1  0  0  0
  2 51  1  0  0  0
  3 52  1  0  0  0
  3 53  1  0  0  0
  3 54  1  0  0  0
  4 55  1  0  0  0
  4 56  1  0  0  0
  4 57  1  0  0  0
  7 58  1  0  0  0
  8 59  1  0  0  0
 11 60  1  0  0  0
 12 61  1  0  0  0
 12 62  1  0  0  0
 12 63  1  0  0  0
 13 64  1  0  0  0
 13 65  1  0  0  0
 13 66  1  0  0  0
 14 67  1  0  0  0
 15 68  1  0  0  0
 18 69  1  0  0  0
 19 70  1  0  0  0
 19 71  1  0  0  0
 19 72  1  0  0  0
 20 73  1  0  0  0
 20 74  1  0  0  0
 20 75  1  0  0  0
 21 76  1  0  0  0
 22 77  1  0  0  0
 23 78  1  0  0  0
 23 79  1  0  0  0
 24 80  1  0  0  0
 25 81  1  0  0  0
 25 82  1  0  0  0
 25 83  1  0  0  0
 26 84  1  0  0  0
 26 85  1  0  0  0
 26 86  1  0  0  0
 27 87  1  0  0  0
 28 88  1  0  0  0
 29 89  1  0  0  0
 29 90  1  0  0  0
 32 91  1  0  0  0
 33 92  1  0  0  0
 36 93  1  0  0  0
 36 94  1  0  0  0
 36 95  1  0  0  0
 37 96  1  0  0  0
 38 97  1  0  0  0
 39 98  1  0  0  0
 39 99  1  0  0  0
 40100  1  0  0  0
 41101  1  0  0  0
 41102  1  0  0  0
 41103  1  0  0  0
 42104  1  0  0  0
 42105  1  0  0  0
 42106  1  0  0  0
 43107  1  0  0  0
 44108  1  0  0  0
 45109  1  0  0  0
 45110  1  0  0  0
 48111  1  0  0  0
M  END
$$$$
