3fas_ligand
  -I-interpret- 

 20 19  0  0  0  0  0  0  0  0999 V2000
   19.1270   16.3160   33.8520 N   0  3  0  0  0
   19.3750   15.6470   32.5330 C   0  0  0  0  0
   20.8570   15.4350   32.3140 C   0  0  0  0  0
   21.2360   14.8960   31.2680 O   0  0  0  0  0
   18.7890   16.4530   31.3700 C   0  0  0  0  0
   17.2920   16.2760   31.1750 C   0  0  0  0  0
   16.8550   14.9080   30.6570 C   0  0  0  0  0
   15.6330   14.6240   30.7910 O   0  0  0  0  0
   17.6820   14.1160   30.1170 O   0  0  0  0  0
   21.6510   15.8040   33.1890 O   0  0  0  0  0
   19.5305   15.7513   34.5995 H   0  0  0  0  0
   19.5601   17.2395   33.8502 H   0  0  0  0  0
   18.1223   16.4106   34.0003 H   0  0  0  0  0
   18.8735   14.6797   32.5615 H   0  0  0  0  0
   19.2741   16.1003   30.4598 H   0  0  0  0  0
   18.9604   17.5062   31.5923 H   0  0  0  0  0
   16.9883   17.0045   30.4232 H   0  0  0  0  0
   16.8342   16.3973   32.1568 H   0  0  0  0  0
   18.5534   14.5189   30.1129 H   0  0  0  0  0
   21.1635   16.1958   33.9173 H   0  0  0  0  0
  1  2  1  0  0  0
  2  3  1  0  0  0
  2  5  1  0  0  0
  3  4  2  0  0  0
  3 10  1  0  0  0
  5  6  1  0  0  0
  6  7  1  0  0  0
  7  8  2  0  0  0
  7  9  1  0  0  0
  1 11  1  0  0  0
  1 12  1  0  0  0
  1 13  1  0  0  0
  2 14  1  0  0  0
  5 15  1  0  0  0
  5 16  1  0  0  0
  6 17  1  0  0  0
  6 18  1  0  0  0
  9 19  1  0  0  0
 10 20  1  0  0  0
M  END
$$$$
