1ppl_ligand
  -I-interpret- 

 92 92  0  0  0  0  0  0  0  0999 V2000
   15.9420    4.1260   17.4870 C   0  0  0  0  0
   14.6430    3.6540   18.1870 C   0  0  0  0  0
   14.3150    4.8410   19.0870 C   0  0  0  0  0
   13.4600    3.5320   17.2680 C   0  0  0  0  0
   17.0680    4.4480   18.4850 C   0  0  0  0  0
   17.1950    3.6450   19.4790 O   0  0  0  0  0
   17.8820    5.4490   18.3940 N   0  0  0  0  0
   19.0160    5.6420   19.2870 C   0  0  0  0  0
   18.9210    6.9900   19.9870 C   0  0  0  0  0
   18.1180    7.8830   19.5600 O   0  0  0  0  0
   20.2910    5.6330   18.3540 C   0  0  0  0  0
   20.4610    4.2100   17.8010 C   0  0  0  0  0
   20.2290    6.5910   17.1820 C   0  0  0  0  0
   19.6870    7.0590   21.0610 N   0  0  0  0  0
   19.6540    8.3980   21.7970 C   0  0  0  0  0
   21.1900    8.6890   21.9870 C   0  0  0  0  0
   21.7700    8.0720   22.8770 O   0  0  0  0  0
   18.9620    8.2550   23.1180 C   0  0  0  0  0
   18.8480    9.6640   23.8070 C   0  0  0  0  0
   17.5350    7.7840   22.8850 C   0  0  0  0  0
   23.1040    9.9030   21.1450 C   0  0  0  0  0
   23.8890    9.3340   19.9240 C   0  0  0  0  0
   23.7360    7.8390   19.5170 C   0  0  0  0  0
   24.1350    7.6160   18.0600 C   0  0  0  0  0
   24.1760    6.8870   20.5840 C   0  0  0  0  0
   21.7090    9.5240   21.1100 N   0  0  0  0  0
   23.3210   11.6840   21.2810 P   0  0  0  0  0
   22.4510   12.2770   20.2720 O   0  0  0  0  0
   24.7520   12.0150   21.1000 O   0  0  0  0  0
   23.5860   13.0410   23.4660 C   0  0  0  0  0
   22.5800   14.0210   24.1290 C   0  0  0  0  0
   21.6400   13.4480   25.1720 C   0  0  0  0  0
   21.9520   13.5400   26.5200 C   0  0  0  0  0
   20.4620   12.7950   24.7960 C   0  0  0  0  0
   21.0920   12.9630   27.4590 C   0  0  0  0  0
   19.6880   12.1630   25.7410 C   0  0  0  0  0
   19.9430   12.2840   27.0690 C   0  0  0  0  0
   24.3990   12.3760   24.6000 C   0  0  0  0  0
   25.9890   12.6670   26.3900 C   0  0  0  0  0
   22.9280   11.9630   22.7000 O   0  0  0  0  0
   25.1990   13.2320   25.3720 O   0  0  0  0  0
   24.3280   11.1650   24.8400 O   0  0  0  0  0
   15.7132    5.0369   16.9339 H   0  0  0  0  0
   16.2871    3.3190   16.8406 H   0  0  0  0  0
   14.8023    2.6790   18.6476 H   0  0  0  0  0
   14.1836    5.7336   18.4754 H   0  0  0  0  0
   13.3956    4.6363   19.6355 H   0  0  0  0  0
   15.1322    4.9983   19.7909 H   0  0  0  0  0
   12.5601    3.3566   17.8575 H   0  0  0  0  0
   13.3482    4.4540   16.6974 H   0  0  0  0  0
   13.6168    2.6972   16.5849 H   0  0  0  0  0
   17.7215    6.1382   17.6594 H   0  0  0  0  0
   19.0513    4.8697   20.0554 H   0  0  0  0  0
   21.1281    5.9604   18.9706 H   0  0  0  0  0
   20.5934    3.5133   18.6288 H   0  0  0  0  0
   19.5736    3.9346   17.2311 H   0  0  0  0  0
   21.3362    4.1759   17.1522 H   0  0  0  0  0
   19.3766    6.3374   16.5518 H   0  0  0  0  0
   20.1180    7.6100   17.5528 H   0  0  0  0  0
   21.1480    6.5124   16.6012 H   0  0  0  0  0
   20.2590    6.2755   21.3762 H   0  0  0  0  0
   19.1164    9.1886   21.2736 H   0  0  0  0  0
   19.5268    7.5536   23.7321 H   0  0  0  0  0
   19.8464   10.0730   23.9621 H   0  0  0  0  0
   18.2746   10.3346   23.1670 H   0  0  0  0  0
   18.3443    9.5575   24.7678 H   0  0  0  0  0
   17.0080    8.5151   22.2720 H   0  0  0  0  0
   17.5503    6.8220   22.3728 H   0  0  0  0  0
   17.0274    7.6785   23.8438 H   0  0  0  0  0
   23.5236    9.4562   22.0463 H   0  0  0  0  0
   24.9367    9.4298   20.2090 H   0  0  0  0  0
   23.4972    9.8871   19.0704 H   0  0  0  0  0
   22.6847    7.5529   19.4841 H   0  0  0  0  0
   23.4970    8.2187   17.4136 H   0  0  0  0  0
   25.1757    7.9088   17.9207 H   0  0  0  0  0
   24.0162    6.5619   17.8093 H   0  0  0  0  0
   25.2278    7.0598   20.8121 H   0  0  0  0  0
   23.5774    7.0466   21.4809 H   0  0  0  0  0
   24.0422    5.8635   20.2337 H   0  0  0  0  0
   21.1085    9.9151   20.3842 H   0  0  0  0  0
   25.2665   11.5956   21.7935 H   0  0  0  0  0
   24.2001   13.6137   22.7710 H   0  0  0  0  0
   21.9423   14.3817   23.3219 H   0  0  0  0  0
   23.1873   14.7600   24.6517 H   0  0  0  0  0
   22.8563   14.0556   26.8433 H   0  0  0  0  0
   20.1560   12.7869   23.7499 H   0  0  0  0  0
   21.3273   13.0472   28.5200 H   0  0  0  0  0
   18.8482   11.5492   25.4154 H   0  0  0  0  0
   19.2650   11.8601   27.8098 H   0  0  0  0  0
   25.3452   12.1594   27.1083 H   0  0  0  0  0
   26.6841   11.9500   25.9531 H   0  0  0  0  0
   26.5476   13.4554   26.8945 H   0  0  0  0  0
  8  7  1  0  0  0
  8 11  1  0  0  0
  9  8  1  0  0  0
  9 10  2  0  0  0
 11 13  1  0  0  0
 11 12  1  0  0  0
 15 14  1  0  0  0
 15 18  1  0  0  0
 16 15  1  0  0  0
 16 17  2  0  0  0
 18 20  1  0  0  0
 18 19  1  0  0  0
 14  9  1  0  0  0
  1  2  1  0  0  0
  5  1  1  0  0  0
  2  3  1  0  0  0
  2  4  1  0  0  0
  5  6  2  0  0  0
  7  5  1  0  0  0
 21 22  1  0  0  0
 21 26  1  0  0  0
 27 21  1  0  0  0
 22 23  1  0  0  0
 23 24  1  0  0  0
 23 25  1  0  0  0
 26 16  1  0  0  0
 27 28  2  0  0  0
 27 29  1  0  0  0
 30 31  1  0  0  0
 30 38  1  0  0  0
 40 30  1  0  0  0
 31 32  1  0  0  0
 32 33  4  0  0  0
 32 34  4  0  0  0
 33 35  4  0  0  0
 34 36  4  0  0  0
 35 37  4  0  0  0
 36 37  4  0  0  0
 38 41  1  0  0  0
 38 42  2  0  0  0
 40 27  1  0  0  0
 41 39  1  0  0  0
  1 43  1  0  0  0
  1 44  1  0  0  0
  2 45  1  0  0  0
  3 46  1  0  0  0
  3 47  1  0  0  0
  3 48  1  0  0  0
  4 49  1  0  0  0
  4 50  1  0  0  0
  4 51  1  0  0  0
  7 52  1  0  0  0
  8 53  1  0  0  0
 11 54  1  0  0  0
 12 55  1  0  0  0
 12 56  1  0  0  0
 12 57  1  0  0  0
 13 58  1  0  0  0
 13 59  1  0  0  0
 13 60  1  0  0  0
 14 61  1  0  0  0
 15 62  1  0  0  0
 18 63  1  0  0  0
 19 64  1  0  0  0
 19 65  1  0  0  0
 19 66  1  0  0  0
 20 67  1  0  0  0
 20 68  1  0  0  0
 20 69  1  0  0  0
 21 70  1  0  0  0
 22 71  1  0  0  0
 22 72  1  0  0  0
 23 73  1  0  0  0
 24 74  1  0  0  0
 24 75  1  0  0  0
 24 76  1  0  0  0
 25 77  1  0  0  0
 25 78  1  0  0  0
 25 79  1  0  0  0
 26 80  1  0  0  0
 29 81  1  0  0  0
 30 82  1  0  0  0
 31 83  1  0  0  0
 31 84  1  0  0  0
 33 85  1  0  0  0
 34 86  1  0  0  0
 35 87  1  0  0  0
 36 88  1  0  0  0
 37 89  1  0  0  0
 39 90  1  0  0  0
 39 91  1  0  0  0
 39 92  1  0  0  0
M  END
$$$$
