1fgi_ligand
  -I-interpret- 

 37 39  0  0  0  0  0  0  0  0999 V2000
    5.7320    2.1500   20.4400 N   0  0  0  0  0
    6.5130    2.4730   21.5170 C   0  0  0  0  0
    6.4480    1.8200   22.5560 O   0  0  0  0  0
    7.3090    3.5360   21.2270 C   0  0  0  0  0
    7.4410    4.9330   19.0220 C   0  0  0  0  0
    6.8970    5.0140   17.7340 C   0  0  0  0  0
    5.9110    4.0990   17.3010 C   0  0  0  0  0
    5.4480    3.1030   18.1220 C   0  0  0  0  0
    5.9940    3.0250   19.4180 C   0  0  0  0  0
    6.9850    3.9220   19.8820 C   0  0  0  0  0
    8.3610    4.1930   22.1030 C   0  0  0  0  0
    8.4470    2.6740   24.1080 N   0  0  0  0  0
    8.9240    3.7030   23.4050 C   0  0  0  0  0
    9.9880    4.2570   24.0490 C   0  0  0  0  0
   10.1990    3.5000   25.1750 C   0  0  0  0  0
    9.2110    2.5460   25.1870 C   0  0  0  0  0
   11.2890    3.7210   26.2330 C   0  0  0  0  0
   10.8120    5.4240   23.5350 C   0  0  0  0  0
   11.7120    4.9870   22.4300 C   0  0  0  0  0
   12.4730    6.1130   21.7160 C   0  0  0  0  0
   11.9370    7.2490   21.5710 O   0  0  0  0  0
   13.6100    5.8150   21.2600 O   0  0  0  0  0
    5.0624    1.3814   20.4039 H   0  0  0  0  0
    8.2027    5.6405   19.3497 H   0  0  0  0  0
    7.2395    5.7949   17.0550 H   0  0  0  0  0
    5.5094    4.1869   16.2915 H   0  0  0  0  0
    4.6871    2.3991   17.7848 H   0  0  0  0  0
    8.7577    5.1411   21.7400 H   0  0  0  0  0
    9.0743    1.7958   25.9658 H   0  0  0  0  0
   12.2697    3.6528   25.7622 H   0  0  0  0  0
   11.1663    4.7082   26.6785 H   0  0  0  0  0
   11.2023    2.9584   27.0069 H   0  0  0  0  0
   11.4200    5.8130   24.3518 H   0  0  0  0  0
   10.1375    6.1924   23.1572 H   0  0  0  0  0
   11.0772    4.5159   21.6795 H   0  0  0  0  0
   12.4646    4.3391   22.8794 H   0  0  0  0  0
   11.0765    7.2522   21.9965 H   0  0  0  0  0
  9  1  1  0  0  0
  2  1  1  0  0  0
  4  2  1  0  0  0
  2  3  2  0  0  0
 11  4  2  0  0  0
  4 10  1  0  0  0
 10  9  4  0  0  0
 10  5  4  0  0  0
  5  6  4  0  0  0
  6  7  4  0  0  0
  8  7  4  0  0  0
  9  8  4  0  0  0
 13 11  1  0  0  0
 13 12  4  0  0  0
 14 13  4  0  0  0
 18 14  1  0  0  0
 14 15  4  0  0  0
 15 17  1  0  0  0
 15 16  4  0  0  0
 16 12  4  0  0  0
 18 19  1  0  0  0
 19 20  1  0  0  0
 20 22  2  0  0  0
 20 21  1  0  0  0
  1 23  1  0  0  0
  5 24  1  0  0  0
  6 25  1  0  0  0
  7 26  1  0  0  0
  8 27  1  0  0  0
 11 28  1  0  0  0
 16 29  1  0  0  0
 17 30  1  0  0  0
 17 31  1  0  0  0
 17 32  1  0  0  0
 18 33  1  0  0  0
 18 34  1  0  0  0
 19 35  1  0  0  0
 19 36  1  0  0  0
 21 37  1  0  0  0
M  END
$$$$
