3at1_ligand
  -I-interpret- 

 14 13  0  0  0  0  0  0  0  0999 V2000
   46.1560   30.0400   16.5110 P   0  0  0  0  0
   46.0560   30.4960   18.0210 O   0  0  0  0  0
   47.3050   28.9990   16.2310 O   0  0  0  0  0
   46.3110   31.2930   15.5680 O   0  0  0  0  0
   44.6090   29.1120   16.1580 C   0  0  0  0  0
   43.3160   29.8900   16.1500 C   0  0  0  0  0
   43.2440   31.1230   16.1660 O   0  0  0  0  0
   42.2620   29.0600   16.1120 N   0  0  0  0  0
   45.3385   31.1266   18.1168 H   0  0  0  0  0
   45.6052   31.9179   15.7495 H   0  0  0  0  0
   44.5105   28.3877   16.9666 H   0  0  0  0  0
   44.7241   28.7241   15.1459 H   0  0  0  0  0
   41.3151   29.4387   16.0941 H   0  0  0  0  0
   42.4079   28.0505   16.1010 H   0  0  0  0  0
  1  2  1  0  0  0
  1  3  2  0  0  0
  1  4  1  0  0  0
  1  5  1  0  0  0
  5  6  1  0  0  0
  6  7  2  0  0  0
  6  8  1  0  0  0
  2  9  1  0  0  0
  4 10  1  0  0  0
  5 11  1  0  0  0
  5 12  1  0  0  0
  8 13  1  0  0  0
  8 14  1  0  0  0
M  END
$$$$
