### 
### Created by X-TOOL on Mon Sep 10 21:12:44 2018
### 

@<TRIPOS>MOLECULE
3at1_ligand
   12    11     1     0     0
SMALL
GAST_HUCK


@<TRIPOS>ATOM
      1 P          46.1560   30.0400   16.5110 P.3       1 PCT         0.0776
      2 O1P        46.0560   30.4960   18.0210 O.co2     1 PCT        -0.5606
      3 O2P        47.3050   28.9990   16.2310 O.co2     1 PCT        -0.5606
      4 O3P        46.3110   31.2930   15.5680 O.co2     1 PCT        -0.5606
      5 C1P        44.6090   29.1120   16.1580 C.3       1 PCT         0.1082
      6 C1         43.3160   29.8900   16.1500 C.2       1 PCT         0.1900
      7 O1         43.2440   31.1230   16.1660 O.2       1 PCT        -0.3957
      8 N1         42.2620   29.0600   16.1120 N.am      1 PCT        -0.2997
      9 H1         44.5153   28.3253   16.9211 H         1 PCT         0.0692
     10 H2         44.7213   28.6495   15.1663 H         1 PCT         0.0692
     11 H3         41.3335   29.4311   16.1022 H         1 PCT         0.1815
     12 H4         42.4052   28.0705   16.0935 H         1 PCT         0.1815
@<TRIPOS>BOND
     1    1    2 ar 
     2    1    3 ar 
     3    1    4 ar 
     4    1    5 1  
     5    5    6 1  
     6    6    7 2  
     7    6    8 am 
     8    5    9 1  
     9    5   10 1  
    10    8   11 1  
    11    8   12 1  
@<TRIPOS>SUBSTRUCTURE
     1 PCT         1

