5i23_ligand
  -I-interpret- 

 54 54  0  0  0  0  0  0  0  0999 V2000
   15.8580  157.1660  137.6860 C   0  0  0  0  0
   16.0370  155.6270  137.6510 C   0  0  0  0  0
   15.5100  154.9110  138.8770 C   0  0  0  0  0
   15.8070  155.7560  140.0790 C   0  0  0  0  0
   14.8910  156.9880  140.0550 C   0  0  0  0  0
   14.8380  157.7100  138.6890 C   0  0  0  0  0
   15.1780  157.9420  141.2130 C   0  0  0  0  0
   13.4800  157.6540  138.0510 N   0  3  0  0  0
   12.5050  158.4260  138.8580 C   0  0  0  0  0
   11.0330  158.3120  138.4120 C   0  0  0  0  0
   10.2240  159.0950  139.4490 C   0  0  0  0  0
    8.7230  159.1150  139.2350 C   0  0  0  0  0
    7.9610  159.0870  140.5660 C   0  0  0  0  0
    6.4500  159.0820  140.3110 C   0  0  0  0  0
    5.6250  158.7880  141.5690 C   0  0  0  0  0
    4.3380  158.0420  141.2220 C   0  0  0  0  0
    3.4870  158.7610  140.2910 N   0  0  0  0  0
    2.6230  158.0680  139.4670 N   0  0  0  0  0
    1.8900  157.4970  138.7680 N   0  0  0  0  0
   15.4750  155.0680  136.4520 O   0  0  0  0  0
   16.1250  153.6050  138.9980 O   0  0  0  0  0
   15.5520  155.0050  141.2630 O   0  0  0  0  0
   16.5260  158.4440  141.1750 O   0  0  0  0  0
   15.4934  157.4508  136.6990 H   0  0  0  0  0
   16.8231  157.5762  137.9832 H   0  0  0  0  0
   17.1143  155.4614  137.6536 H   0  0  0  0  0
   14.4336  154.7614  138.7929 H   0  0  0  0  0
   16.8521  156.0654  140.0647 H   0  0  0  0  0
   13.8833  156.5996  140.2026 H   0  0  0  0  0
   15.0833  158.7453  138.9259 H   0  0  0  0  0
   15.0435  157.3957  142.1466 H   0  0  0  0  0
   14.4962  158.7888  141.1345 H   0  0  0  0  0
   13.1752  156.6821  137.9980 H   0  0  0  0  0
   13.5331  158.0567  137.1154 H   0  0  0  0  0
   12.7796  159.4758  138.7544 H   0  0  0  0  0
   12.5539  158.0244  139.8701 H   0  0  0  0  0
   10.7126  157.2714  138.3611 H   0  0  0  0  0
   10.8892  158.7144  137.4093 H   0  0  0  0  0
   10.5586  160.1303  139.3834 H   0  0  0  0  0
   10.3923  158.6029  140.4069 H   0  0  0  0  0
    8.4456  158.2307  138.6613 H   0  0  0  0  0
    8.4628  160.0336  138.7091 H   0  0  0  0  0
    8.2221  159.9727  141.1452 H   0  0  0  0  0
    8.2333  158.1850  141.1140 H   0  0  0  0  0
    6.2402  158.2943  139.5874 H   0  0  0  0  0
    6.1717  160.0752  139.9587 H   0  0  0  0  0
    5.3625  159.7340  142.0425 H   0  0  0  0  0
    6.2192  158.1652  142.2377 H   0  0  0  0  0
    3.7755  157.9103  142.1463 H   0  0  0  0  0
    4.6210  157.1016  140.7490 H   0  0  0  0  0
   15.8220  155.5359  135.6889 H   0  0  0  0  0
   15.9213  153.0832  138.2184 H   0  0  0  0  0
   16.1235  154.2338  141.2807 H   0  0  0  0  0
   16.6662  159.0376  141.9163 H   0  0  0  0  0
  1  2  1  0  0  0
  1  6  1  0  0  0
  2  3  1  0  0  0
  2 20  1  0  0  0
  3  4  1  0  0  0
  3 21  1  0  0  0
  4  5  1  0  0  0
  4 22  1  0  0  0
  5  6  1  0  0  0
  5  7  1  0  0  0
  6  8  1  0  0  0
  7 23  1  0  0  0
  8  9  1  0  0  0
  9 10  1  0  0  0
 10 11  1  0  0  0
 11 12  1  0  0  0
 12 13  1  0  0  0
 13 14  1  0  0  0
 14 15  1  0  0  0
 15 16  1  0  0  0
 16 17  1  0  0  0
 17 18  2  0  0  0
 18 19  3  0  0  0
  1 24  1  0  0  0
  1 25  1  0  0  0
  2 26  1  0  0  0
  3 27  1  0  0  0
  4 28  1  0  0  0
  5 29  1  0  0  0
  6 30  1  0  0  0
  7 31  1  0  0  0
  7 32  1  0  0  0
  8 33  1  0  0  0
  8 34  1  0  0  0
  9 35  1  0  0  0
  9 36  1  0  0  0
 10 37  1  0  0  0
 10 38  1  0  0  0
 11 39  1  0  0  0
 11 40  1  0  0  0
 12 41  1  0  0  0
 12 42  1  0  0  0
 13 43  1  0  0  0
 13 44  1  0  0  0
 14 45  1  0  0  0
 14 46  1  0  0  0
 15 47  1  0  0  0
 15 48  1  0  0  0
 16 49  1  0  0  0
 16 50  1  0  0  0
 20 51  1  0  0  0
 21 52  1  0  0  0
 22 53  1  0  0  0
 23 54  1  0  0  0
M  END
$$$$
