4u03_ligand
  -I-interpret- 

 77 79  0  0  0  0  0  0  0  0999 V2000
   68.2840    9.9160  168.9450 O   0  0  0  0  0
   67.0870   10.2850  169.0550 C   0  0  0  0  0
   66.2630    9.5980  169.7160 O   0  0  0  0  0
   66.6290   11.5580  168.4070 C   0  0  0  0  0
   65.5570   11.3080  167.3490 C   0  0  0  0  0
   65.2030   12.6520  166.6560 C   0  0  0  0  0
   64.0690   12.4290  165.6280 C   0  0  0  0  0
   63.3250   11.4840  165.7280 O   0  0  0  0  0
   67.7210   12.1890  167.7430 N   0  0  0  0  0
   68.4910   13.2070  168.4200 C   0  0  0  0  0
   68.2340   13.5330  169.5630 O   0  0  0  0  0
   69.6290   13.8880  167.6570 C   0  0  0  0  0
   70.1640   13.2590  166.3800 C   0  0  0  0  0
   71.1640   13.8860  165.7040 C   0  0  0  0  0
   71.7030   15.2040  166.2290 C   0  0  0  0  0
   71.2210   15.7710  167.3670 C   0  0  0  0  0
   70.1140   15.0680  168.1170 C   0  0  0  0  0
   72.7440   15.8600  165.5110 N   0  0  0  0  0
   72.8070   15.7390  164.0730 C   0  0  0  0  0
   71.5400   16.2650  163.4020 C   0  0  0  0  0
   71.6300   16.1960  161.9750 N   0  3  0  0  0
   71.3380   17.7250  163.6600 C   0  0  0  0  0
   72.3040   18.5690  163.0340 N   0  0  0  0  0
   72.9350   18.1530  161.8400 C   0  0  0  0  0
   72.6300   16.9890  161.3260 C   0  0  0  0  0
   73.8600   18.8990  161.1900 N   0  0  0  0  0
   74.5630   18.6570  160.0450 C   0  0  0  0  0
   75.5070   19.5960  159.5290 N   0  0  0  0  0
   74.3470   17.4990  159.4290 N   0  0  0  0  0
   73.3390   16.5550  160.0150 C   0  0  0  0  0
   73.0460   15.3210  159.4480 O   0  0  0  0  0
   63.9000   13.3210  164.5150 N   0  0  0  0  0
   62.8460   13.0940  163.5760 C   0  0  0  0  0
   63.3030   12.3100  162.3530 C   0  0  0  0  0
   62.6470   12.4050  161.2730 O   0  0  0  0  0
   64.3160   11.5440  162.3720 O   0  0  0  0  0
   62.2840   14.4730  163.2060 C   0  0  0  0  0
   61.1990   14.8450  164.2450 C   0  0  0  0  0
   59.9510   13.9620  164.0450 C   0  0  0  0  0
   59.1420   13.8080  164.9980 O   0  0  0  0  0
   59.7370   13.3760  162.9380 O   0  0  0  0  0
   70.6760   15.5010  161.1770 C   0  0  0  0  0
   65.4030   10.0242  169.6948 H   0  0  0  0  0
   66.2242   12.1823  169.2036 H   0  0  0  0  0
   64.6662   10.8931  167.8207 H   0  0  0  0  0
   65.9309   10.6011  166.6083 H   0  0  0  0  0
   66.0845   13.0357  166.1424 H   0  0  0  0  0
   64.8721   13.3687  167.4076 H   0  0  0  0  0
   67.9593   11.9214  166.7880 H   0  0  0  0  0
   69.7521   12.3194  166.0118 H   0  0  0  0  0
   71.5740   13.4464  164.7947 H   0  0  0  0  0
   71.6258   16.7152  167.7313 H   0  0  0  0  0
   69.7057   15.5085  169.0266 H   0  0  0  0  0
   73.4414   16.4124  166.0099 H   0  0  0  0  0
   72.9135   14.6834  163.8229 H   0  0  0  0  0
   73.6523   16.3278  163.7169 H   0  0  0  0  0
   70.7388   15.6483  163.8093 H   0  0  0  0  0
   71.9185   15.2277  162.1149 H   0  0  0  0  0
   71.4273   17.8768  164.7357 H   0  0  0  0  0
   70.3639   17.9922  163.2503 H   0  0  0  0  0
   72.5385   19.4712  163.4480 H   0  0  0  0  0
   72.7949   15.9120  161.2960 H   0  0  0  0  0
   75.6710   20.4757  160.0185 H   0  0  0  0  0
   74.8547   17.2579  158.5778 H   0  0  0  0  0
   73.2464   16.1095  159.0245 H   0  0  0  0  0
   73.5645   15.2063  158.6483 H   0  0  0  0  0
   64.5301   14.1141  164.3948 H   0  0  0  0  0
   62.0728   12.4687  164.0224 H   0  0  0  0  0
   64.7162   11.5662  163.2443 H   0  0  0  0  0
   61.8524   14.4465  162.2054 H   0  0  0  0  0
   63.0805   15.2171  163.2120 H   0  0  0  0  0
   60.9222   15.8912  164.1149 H   0  0  0  0  0
   61.5939   14.6850  165.2483 H   0  0  0  0  0
   60.4393   13.5940  162.3208 H   0  0  0  0  0
   70.6602   14.4498  161.4649 H   0  0  0  0  0
   69.6887   15.9363  161.3318 H   0  0  0  0  0
   70.9517   15.5871  160.1260 H   0  0  0  0  0
  1  2  2  0  0  0
  2  3  1  0  0  0
  2  4  1  0  0  0
  4  5  1  0  0  0
  4  9  1  0  0  0
  5  6  1  0  0  0
  6  7  1  0  0  0
  7  8  2  0  0  0
  7 32  1  0  0  0
  9 10  1  0  0  0
 10 11  2  0  0  0
 10 12  1  0  0  0
 12 13  4  0  0  0
 12 17  4  0  0  0
 13 14  4  0  0  0
 14 15  4  0  0  0
 15 16  4  0  0  0
 15 18  1  0  0  0
 16 17  4  0  0  0
 18 19  1  0  0  0
 19 20  1  0  0  0
 20 21  1  0  0  0
 20 22  1  0  0  0
 21 25  1  0  0  0
 21 42  1  0  0  0
 22 23  1  0  0  0
 23 24  1  0  0  0
 24 25  1  0  0  0
 24 26  2  0  0  0
 25 30  1  0  0  0
 26 27  4  0  0  0
 27 28  2  0  0  0
 27 29  1  0  0  0
 29 30  1  0  0  0
 30 31  1  0  0  0
 32 33  1  0  0  0
 33 34  1  0  0  0
 33 37  1  0  0  0
 34 35  2  0  0  0
 34 36  1  0  0  0
 37 38  1  0  0  0
 38 39  1  0  0  0
 39 40  2  0  0  0
 39 41  1  0  0  0
  3 43  1  0  0  0
  4 44  1  0  0  0
  5 45  1  0  0  0
  5 46  1  0  0  0
  6 47  1  0  0  0
  6 48  1  0  0  0
  9 49  1  0  0  0
 13 50  1  0  0  0
 14 51  1  0  0  0
 16 52  1  0  0  0
 17 53  1  0  0  0
 18 54  1  0  0  0
 19 55  1  0  0  0
 19 56  1  0  0  0
 20 57  1  0  0  0
 21 58  1  0  0  0
 22 59  1  0  0  0
 22 60  1  0  0  0
 23 61  1  0  0  0
 25 62  1  0  0  0
 28 63  1  0  0  0
 29 64  1  0  0  0
 30 65  1  0  0  0
 31 66  1  0  0  0
 32 67  1  0  0  0
 33 68  1  0  0  0
 36 69  1  0  0  0
 37 70  1  0  0  0
 37 71  1  0  0  0
 38 72  1  0  0  0
 38 73  1  0  0  0
 41 74  1  0  0  0
 42 75  1  0  0  0
 42 76  1  0  0  0
 42 77  1  0  0  0
M  END
$$$$
