6oxt_ligand
  -I-interpret- 

 89 92  0  0  0  0  0  0  0  0999 V2000
   71.2510   57.6540   14.9320 C   0  0  0  0  0
   70.8580   57.9580   16.3780 C   0  0  0  0  0
   72.8080   58.5720   17.9430 C   0  0  0  0  0
   74.4800   59.5630   19.4450 C   0  0  0  0  0
   75.9450   60.1900   19.0330 C   0  0  0  0  0
   74.6330   61.8160   19.9580 C   0  0  0  0  0
   72.3040   61.6660   19.6550 C   0  0  0  0  0
   69.4860   58.6280   16.4450 C   0  0  0  0  0
   66.8490   51.5950   13.4450 C   0  0  0  0  0
   67.9740   51.0200   14.3050 C   0  0  0  0  0
   68.7990   51.9550   15.1610 C   0  0  0  0  0
   68.4880   53.4730   15.1330 C   0  0  0  0  0
   67.3790   54.0590   14.2650 C   0  0  0  0  0
   66.5520   53.1140   13.4090 C   0  0  0  0  0
   71.5220   54.1570   14.3900 C   0  0  0  0  0
   70.3680   56.5350   14.3580 C   0  0  0  0  0
   74.0420   60.4020   20.3720 C   0  0  0  0  0
   72.5560   60.6100   20.3970 C   0  0  0  0  0
   69.2700   59.1020   17.9010 C   0  0  0  0  0
   68.9730   58.0630   18.9870 C   0  0  0  0  0
   68.7620   58.5140   20.4370 C   0  0  0  0  0
   68.8490   59.9820   20.7880 C   0  0  0  0  0
   69.1500   61.0140   19.7020 C   0  0  0  0  0
   69.3630   60.5600   18.2470 C   0  0  0  0  0
   66.3770   49.2080   12.8030 C   0  0  0  0  0
   73.4350   52.1700   13.6580 C   0  0  0  0  0
   72.9870   54.5630   14.3830 C   0  0  0  0  0
   73.7610   53.6350   13.3990 C   0  0  0  0  0
   73.5640   54.4810   15.7780 C   0  0  0  0  0
   66.0240   50.6790   12.5650 C   0  0  0  0  0
   70.6980   55.2070   15.0920 N   0  0  0  0  0
   71.8200   58.9220   16.9040 N   0  0  0  0  0
   70.0710   53.8680   17.2670 O   0  0  0  0  0
   68.6550   55.6370   16.7440 O   0  0  0  0  0
   71.1010   58.7980   14.1760 O   0  0  0  0  0
   72.8350   57.5170   18.4830 O   0  0  0  0  0
   73.7110   59.6140   18.2380 O   0  0  0  0  0
   75.6900   61.4900   18.8630 O   0  0  0  0  0
   73.6940   62.5010   19.4870 O   0  0  0  0  0
   66.3790   51.0290   11.2730 O   0  0  0  0  0
   69.4850   54.5740   16.1450 S   0  0  0  0  0
   72.2891   57.3229   14.9054 H   0  0  0  0  0
   70.8391   57.0242   16.9400 H   0  0  0  0  0
   74.4582   58.5425   19.8274 H   0  0  0  0  0
   76.3624   59.7254   18.1397 H   0  0  0  0  0
   76.7059   60.0089   19.7922 H   0  0  0  0  0
   75.0780   62.3738   20.7820 H   0  0  0  0  0
   71.5440   62.2879   20.1280 H   0  0  0  0  0
   71.9257   61.3611   18.6793 H   0  0  0  0  0
   68.7047   57.9263   16.1530 H   0  0  0  0  0
   69.4410   59.4735   15.7585 H   0  0  0  0  0
   66.8605   51.5909   14.5349 H   0  0  0  0  0
   68.6816   50.5961   13.5924 H   0  0  0  0  0
   67.4742   50.3600   15.0140 H   0  0  0  0  0
   69.8135   51.8696   14.7717 H   0  0  0  0  0
   68.5978   51.6466   16.1869 H   0  0  0  0  0
   67.6132   52.9402   14.7602 H   0  0  0  0  0
   67.8872   54.7137   13.5570 H   0  0  0  0  0
   66.6715   54.5008   14.9666 H   0  0  0  0  0
   65.5373   53.2066   13.7961 H   0  0  0  0  0
   66.7645   53.4131   12.3826 H   0  0  0  0  0
   71.4158   53.2079   14.9154 H   0  0  0  0  0
   71.1733   54.0561   13.3622 H   0  0  0  0  0
   70.5612   56.4240   13.2910 H   0  0  0  0  0
   69.3168   56.7844   14.5026 H   0  0  0  0  0
   74.3366   59.9960   21.3397 H   0  0  0  0  0
   72.0369   59.7333   20.0097 H   0  0  0  0  0
   72.2047   60.7625   21.4175 H   0  0  0  0  0
   68.9119   57.0057   18.7294 H   0  0  0  0  0
   68.5498   57.7783   21.2128 H   0  0  0  0  0
   68.6967   60.3049   21.8179 H   0  0  0  0  0
   69.2138   62.0716   19.9578 H   0  0  0  0  0
   69.5805   61.2939   17.4710 H   0  0  0  0  0
   67.4313   49.0476   12.5777 H   0  0  0  0  0
   66.1840   48.9534   13.8451 H   0  0  0  0  0
   65.7660   48.5796   12.1550 H   0  0  0  0  0
   73.7177   51.9111   14.6784 H   0  0  0  0  0
   72.3655   52.0078   13.5236 H   0  0  0  0  0
   73.9893   51.5463   12.9567 H   0  0  0  0  0
   73.0832   55.5963   14.0495 H   0  0  0  0  0
   73.4661   53.8835   12.3795 H   0  0  0  0  0
   74.8306   53.7859   13.5449 H   0  0  0  0  0
   73.0127   55.1510   16.4378 H   0  0  0  0  0
   73.4805   53.4580   16.1448 H   0  0  0  0  0
   74.6133   54.7751   15.7537 H   0  0  0  0  0
   64.9584   50.7855   12.7680 H   0  0  0  0  0
   71.8088   59.8745   16.5392 H   0  0  0  0  0
   71.6541   59.4942   14.5379 H   0  0  0  0  0
   65.8916   50.4851   10.6499 H   0  0  0  0  0
  1  2  1  0  0  0
 16  1  1  0  0  0
  1 35  1  0  0  0
  2  8  1  0  0  0
  2 32  1  0  0  0
 32  3  1  0  0  0
  3 36  2  0  0  0
  3 37  1  0  0  0
  4  5  1  0  0  0
  4 17  1  0  0  0
 37  4  1  0  0  0
  5 38  1  0  0  0
 17  6  1  0  0  0
  6 38  1  0  0  0
  6 39  1  0  0  0
 18  7  1  0  0  0
  7 39  1  0  0  0
  8 19  1  0  0  0
 10  9  1  0  0  0
 14  9  1  0  0  0
  9 30  1  0  0  0
 11 10  1  0  0  0
 12 11  1  0  0  0
 12 13  1  0  0  0
 41 12  1  0  0  0
 13 14  1  0  0  0
 15 27  1  0  0  0
 31 15  1  0  0  0
 31 16  1  0  0  0
 17 18  1  0  0  0
 19 20  4  0  0  0
 19 24  4  0  0  0
 20 21  4  0  0  0
 21 22  4  0  0  0
 23 22  4  0  0  0
 24 23  4  0  0  0
 30 25  1  0  0  0
 28 26  1  0  0  0
 27 28  1  0  0  0
 27 29  1  0  0  0
 30 40  1  0  0  0
 31 41  1  0  0  0
 41 33  2  0  0  0
 41 34  2  0  0  0
  1 42  1  0  0  0
  2 43  1  0  0  0
  4 44  1  0  0  0
  5 45  1  0  0  0
  5 46  1  0  0  0
  6 47  1  0  0  0
  7 48  1  0  0  0
  7 49  1  0  0  0
  8 50  1  0  0  0
  8 51  1  0  0  0
  9 52  1  0  0  0
 10 53  1  0  0  0
 10 54  1  0  0  0
 11 55  1  0  0  0
 11 56  1  0  0  0
 12 57  1  0  0  0
 13 58  1  0  0  0
 13 59  1  0  0  0
 14 60  1  0  0  0
 14 61  1  0  0  0
 15 62  1  0  0  0
 15 63  1  0  0  0
 16 64  1  0  0  0
 16 65  1  0  0  0
 17 66  1  0  0  0
 18 67  1  0  0  0
 18 68  1  0  0  0
 20 69  1  0  0  0
 21 70  1  0  0  0
 22 71  1  0  0  0
 23 72  1  0  0  0
 24 73  1  0  0  0
 25 74  1  0  0  0
 25 75  1  0  0  0
 25 76  1  0  0  0
 26 77  1  0  0  0
 26 78  1  0  0  0
 26 79  1  0  0  0
 27 80  1  0  0  0
 28 81  1  0  0  0
 28 82  1  0  0  0
 29 83  1  0  0  0
 29 84  1  0  0  0
 29 85  1  0  0  0
 30 86  1  0  0  0
 32 87  1  0  0  0
 35 88  1  0  0  0
 40 89  1  0  0  0
M  END
$$$$
