4kov_ligand
  -I-interpret- 

 45 47  0  0  0  0  0  0  0  0999 V2000
   16.5460    2.4860    8.9150 S   0  0  0  0  0
   10.6310   -1.4960   10.6520 C   0  0  0  0  0
   12.5720   -1.8100    9.4160 N   0  0  0  0  0
   12.0740   -1.4080   10.6770 O   0  0  0  0  0
   13.6110   -1.1340    9.0810 C   0  0  0  0  0
   13.7060    1.1620    9.5630 N   0  0  0  0  0
   13.6640   -2.4800    7.1190 O   0  0  0  0  0
   14.2170   -1.4230    7.8260 C   0  0  0  0  0
   14.5060    4.1620    9.3780 N   0  0  0  0  0
   15.0170   -0.2130   10.7620 O   0  0  0  0  0
   15.2460   -0.8950    7.1230 C   0  0  0  0  0
   19.7260    8.1720    9.0470 N   0  0  0  0  0
   12.1670    3.9350    9.5330 O   0  0  0  0  0
   15.3570   -1.6780    5.9330 C   0  0  0  0  0
   18.0250    6.9120    8.5810 O   0  0  0  0  0
   14.4130   -2.5730    5.9590 C   0  0  0  0  0
   18.1750    8.8730    7.4640 O   0  0  0  0  0
   14.2000   -0.0220    9.8790 C   0  0  0  0  0
   14.0540    7.3870    8.4670 O   0  0  0  0  0
   14.0200    2.3780   10.2910 C   0  0  0  0  0
   13.1060    5.7590    7.3380 O   0  0  0  0  0
   15.3260    3.1350   10.0550 C   0  0  0  0  0
   13.3420    3.6430    9.6840 C   0  0  0  0  0
   15.0470    5.2380    8.6100 C   0  0  0  0  0
   16.3190    5.2170    8.3390 C   0  0  0  0  0
   17.3150    4.1240    8.6080 C   0  0  0  0  0
   16.9800    6.3990    7.6370 C   0  0  0  0  0
   18.6190    8.0610    8.2860 C   0  0  0  0  0
   14.0120    6.1790    8.0810 C   0  0  0  0  0
   10.2418   -0.8410    9.8725 H   0  0  0  0  0
   10.3345   -2.5244   10.4458 H   0  0  0  0  0
   10.2327   -1.1886   11.6190 H   0  0  0  0  0
   13.0716    1.2248    8.7668 H   0  0  0  0  0
   15.8651   -0.0441    7.4073 H   0  0  0  0  0
   20.3094    9.0060    8.9801 H   0  0  0  0  0
   19.9803    7.4220    9.6898 H   0  0  0  0  0
   16.0991   -1.5488    5.1451 H   0  0  0  0  0
   14.2350   -3.3023    5.1687 H   0  0  0  0  0
   14.8215    7.5156    9.0292 H   0  0  0  0  0
   13.8295    1.9383   11.2700 H   0  0  0  0  0
   15.9875    3.2831   10.9085 H   0  0  0  0  0
   17.9424    4.0290    7.7218 H   0  0  0  0  0
   17.8666    4.3992    9.5070 H   0  0  0  0  0
   17.4216    6.0963    6.6875 H   0  0  0  0  0
   16.2508    7.1732    7.3983 H   0  0  0  0  0
  1 22  1  0  0  0
 26  1  1  0  0  0
  4  2  1  0  0  0
  3  4  1  0  0  0
  5  3  2  0  0  0
  5  8  1  0  0  0
 18  5  1  0  0  0
  6 18  1  0  0  0
 20  6  1  0  0  0
  8  7  4  0  0  0
  7 16  4  0  0  0
  8 11  4  0  0  0
  9 22  1  0  0  0
  9 23  1  0  0  0
 24  9  1  0  0  0
 18 10  2  0  0  0
 11 14  4  0  0  0
 28 12  1  0  0  0
 23 13  2  0  0  0
 14 16  4  0  0  0
 27 15  1  0  0  0
 15 28  1  0  0  0
 28 17  2  0  0  0
 29 19  1  0  0  0
 22 20  1  0  0  0
 23 20  1  0  0  0
 29 21  2  0  0  0
 25 24  2  0  0  0
 24 29  1  0  0  0
 25 26  1  0  0  0
 25 27  1  0  0  0
  2 30  1  0  0  0
  2 31  1  0  0  0
  2 32  1  0  0  0
  6 33  1  0  0  0
 11 34  1  0  0  0
 12 35  1  0  0  0
 12 36  1  0  0  0
 14 37  1  0  0  0
 16 38  1  0  0  0
 19 39  1  0  0  0
 20 40  1  0  0  0
 22 41  1  0  0  0
 26 42  1  0  0  0
 26 43  1  0  0  0
 27 44  1  0  0  0
 27 45  1  0  0  0
M  END
$$$$
