6e7w_ligand
  -I-interpret- 

 59 60  0  0  0  0  0  0  0  0999 V2000
  187.5570  -60.3370  290.8990 C   0  0  0  0  0
  188.0300  -58.9010  291.0820 C   0  0  0  0  0
  189.6770  -61.3570  291.1800 C   0  0  0  0  0
  190.7060  -61.4600  292.3000 C   0  0  0  0  0
  193.6980  -59.4890  292.9040 C   0  0  0  0  0
  194.5800  -59.6000  293.9660 C   0  0  0  0  0
  195.7130  -58.8050  294.0130 C   0  0  0  0  0
  193.9490  -58.5790  291.8890 C   0  0  0  0  0
  197.1960  -57.1230  293.0000 N   0  0  0  0  0
  185.7630  -66.0500  293.0370 C   0  0  0  0  0
  186.4700  -67.1650  293.4480 C   0  0  0  0  0
  187.8330  -67.0790  293.6700 C   0  0  0  0  0
  188.4990  -65.8770  293.4690 C   0  0  0  0  0
  187.7960  -64.7650  293.0350 C   0  0  0  0  0
  186.4290  -64.8500  292.8230 C   0  0  0  0  0
  188.5340  -63.4610  292.7300 C   0  0  0  0  0
  187.7210  -62.5290  291.8260 C   0  0  0  0  0
  188.3500  -61.2200  291.7420 N   0  3  0  0  0
  186.0700  -60.4910  291.2330 C   0  0  0  0  0
  191.9790  -60.7310  291.9010 C   0  0  0  0  0
  192.4260  -60.0410  293.0250 O   0  0  0  0  0
  195.9510  -57.8790  293.0100 C   0  0  0  0  0
  195.0750  -57.7730  291.9440 C   0  0  0  0  0
  198.3910  -57.4700  291.8240 S   0  0  0  0  0
  197.6440  -57.5800  290.1700 C   0  0  0  0  0
  199.1170  -58.6980  292.1580 O   0  0  0  0  0
  199.4690  -56.4780  291.8590 O   0  0  0  0  0
  190.1860  -60.8690  293.4610 O   0  0  0  0  0
  188.7130  -68.5240  294.2310 Cl  0  0  0  0  0
  185.6440  -68.7350  293.6480 Cl  0  0  0  0  0
  187.6889  -60.6064  289.8511 H   0  0  0  0  0
  187.9114  -58.6110  292.1260 H   0  0  0  0  0
  189.0803  -58.8271  290.8001 H   0  0  0  0  0
  187.4356  -58.2408  290.4504 H   0  0  0  0  0
  189.7179  -62.2593  290.5698 H   0  0  0  0  0
  189.8996  -60.4842  290.5662 H   0  0  0  0  0
  190.9320  -62.5104  292.4838 H   0  0  0  0  0
  194.3822  -60.3138  294.7657 H   0  0  0  0  0
  196.4172  -58.9076  294.8386 H   0  0  0  0  0
  193.2608  -58.4974  291.0477 H   0  0  0  0  0
  197.3553  -56.3897  293.6909 H   0  0  0  0  0
  184.6860  -66.1126  292.8814 H   0  0  0  0  0
  189.5713  -65.8088  293.6521 H   0  0  0  0  0
  185.8752  -63.9731  292.4876 H   0  0  0  0  0
  189.4602  -63.7103  292.2122 H   0  0  0  0  0
  188.7123  -62.9453  293.6736 H   0  0  0  0  0
  186.7213  -62.4142  292.2450 H   0  0  0  0  0
  187.6709  -62.9615  290.8267 H   0  0  0  0  0
  188.4122  -60.8206  292.6785 H   0  0  0  0  0
  185.7650  -61.5230  291.0597 H   0  0  0  0  0
  185.9053  -60.2329  292.2791 H   0  0  0  0  0
  185.4853  -59.8263  290.5970 H   0  0  0  0  0
  191.7859  -60.0422  291.0786 H   0  0  0  0  0
  192.7349  -61.4372  291.5576 H   0  0  0  0  0
  195.2707  -57.0553  291.1473 H   0  0  0  0  0
  198.4276  -57.7349  289.4284 H   0  0  0  0  0
  196.9458  -58.4166  290.1430 H   0  0  0  0  0
  197.1123  -56.6541  289.9506 H   0  0  0  0  0
  189.3815  -61.3253  293.7182 H   0  0  0  0  0
  1  2  1  0  0  0
 18  1  1  0  0  0
  1 19  1  0  0  0
  4  3  1  0  0  0
  3 18  1  0  0  0
 20  4  1  0  0  0
  4 28  1  0  0  0
  5  6  4  0  0  0
  5  8  4  0  0  0
 21  5  1  0  0  0
  6  7  4  0  0  0
  7 22  4  0  0  0
  8 23  4  0  0  0
 22  9  1  0  0  0
  9 24  1  0  0  0
 10 11  4  0  0  0
 15 10  4  0  0  0
 12 11  4  0  0  0
 11 30  1  0  0  0
 13 12  4  0  0  0
 12 29  1  0  0  0
 14 13  4  0  0  0
 14 15  4  0  0  0
 16 14  1  0  0  0
 17 16  1  0  0  0
 18 17  1  0  0  0
 20 21  1  0  0  0
 22 23  4  0  0  0
 24 25  1  0  0  0
 24 26  2  0  0  0
 24 27  2  0  0  0
  1 31  1  0  0  0
  2 32  1  0  0  0
  2 33  1  0  0  0
  2 34  1  0  0  0
  3 35  1  0  0  0
  3 36  1  0  0  0
  4 37  1  0  0  0
  6 38  1  0  0  0
  7 39  1  0  0  0
  8 40  1  0  0  0
  9 41  1  0  0  0
 10 42  1  0  0  0
 13 43  1  0  0  0
 15 44  1  0  0  0
 16 45  1  0  0  0
 16 46  1  0  0  0
 17 47  1  0  0  0
 17 48  1  0  0  0
 18 49  1  0  0  0
 19 50  1  0  0  0
 19 51  1  0  0  0
 19 52  1  0  0  0
 20 53  1  0  0  0
 20 54  1  0  0  0
 23 55  1  0  0  0
 25 56  1  0  0  0
 25 57  1  0  0  0
 25 58  1  0  0  0
 28 59  1  0  0  0
M  END
$$$$
