1g9a_ligand
  -I-interpret- 

 39 42  0  0  0  0  0  0  0  0999 V2000
   25.0410   -2.7530   29.3910 C   0  0  0  0  0
   25.6400   -3.8640   28.7560 C   0  0  0  0  0
   26.5940   -3.6620   27.7320 C   0  0  0  0  0
   26.9040   -2.3560   27.3920 C   0  0  0  0  0
   26.3290   -1.2940   28.0100 C   0  0  0  0  0
   25.4000   -1.4490   29.0090 C   0  0  0  0  0
   24.0000   -2.9640   30.4710 C   0  0  0  0  0
   27.8070   -0.4010   26.3910 C   0  0  0  0  0
   28.5880    0.5380   25.4950 C   0  0  0  0  0
   24.0280   -2.1620   31.7450 N   0  0  0  0  0
   22.8860   -3.9480   30.2370 N   0  0  0  0  0
   27.8510   -1.8870   26.3510 N   0  0  0  0  0
   26.8440   -0.0180   27.4460 N   0  0  0  0  0
   28.6900   -1.6570   19.7250 C   0  0  0  0  0
   27.3120   -1.9590   19.9400 C   0  0  0  0  0
   26.7250   -1.6280   21.1780 C   0  0  0  0  0
   27.5350   -1.0170   22.1250 C   0  0  0  0  0
   28.8420   -0.7410   21.8900 C   0  0  0  0  0
   29.4440   -1.0360   20.7150 C   0  0  0  0  0
   29.3680   -1.9990   18.4710 C   0  0  0  0  0
   28.4210   -0.0180   24.0840 C   0  0  0  0  0
   30.2510   -1.0180   17.8170 N   0  0  0  0  0
   29.2900   -3.3730   17.9260 N   0  0  0  0  0
   27.1790   -0.5960   23.4960 N   0  0  0  0  0
   29.4630   -0.1050   23.0610 N   0  0  0  0  0
   25.3669   -4.8759   29.0552 H   0  0  0  0  0
   27.0684   -4.5042   27.2283 H   0  0  0  0  0
   24.9518   -0.5818   29.4940 H   0  0  0  0  0
   29.6377    0.5877   25.7845 H   0  0  0  0  0
   28.2196    1.5612   25.5687 H   0  0  0  0  0
   23.2948   -2.2875   32.4429 H   0  0  0  0  0
   24.7802   -1.4932   31.9102 H   0  0  0  0  0
   22.1560   -4.0684   30.9392 H   0  0  0  0  0
   26.7223   -2.4384   19.1587 H   0  0  0  0  0
   25.6764   -1.8434   21.3835 H   0  0  0  0  0
   30.4935   -0.7931   20.5484 H   0  0  0  0  0
   30.3915   -0.0990   18.2366 H   0  0  0  0  0
   29.8432   -3.6295   17.1084 H   0  0  0  0  0
   28.6830   -4.0633   18.3681 H   0  0  0  0  0
  1  2  4  0  0  0
  6  1  4  0  0  0
  1  7  1  0  0  0
  3  2  4  0  0  0
  4  3  4  0  0  0
  5  4  4  0  0  0
 12  4  4  0  0  0
  5  6  4  0  0  0
 13  5  4  0  0  0
  7 10  1  0  0  0
  7 11  2  0  0  0
  9  8  1  0  0  0
  8 12  4  0  0  0
  8 13  4  0  0  0
 21  9  1  0  0  0
 15 14  4  0  0  0
 19 14  4  0  0  0
 14 20  1  0  0  0
 16 15  4  0  0  0
 17 16  4  0  0  0
 17 18  4  0  0  0
 24 17  4  0  0  0
 18 19  4  0  0  0
 18 25  4  0  0  0
 20 22  2  0  0  0
 20 23  1  0  0  0
 21 24  4  0  0  0
 21 25  4  0  0  0
  2 26  1  0  0  0
  3 27  1  0  0  0
  6 28  1  0  0  0
  9 29  1  0  0  0
  9 30  1  0  0  0
 10 31  1  0  0  0
 10 32  1  0  0  0
 11 33  1  0  0  0
 15 34  1  0  0  0
 16 35  1  0  0  0
 19 36  1  0  0  0
 22 37  1  0  0  0
 23 38  1  0  0  0
 23 39  1  0  0  0
M  END
$$$$
