### 
### Created by X-TOOL on Mon Aug  2 16:10:28 2021
### 

@<TRIPOS>MOLECULE
5o0e_ligand
  274   275     1     0     0
SMALL
GAST_HUCK


@<TRIPOS>ATOM
      1 N          18.2270  -35.7260   24.7980 N.4       1 THR         0.2398
      2 CA         17.5730  -35.2640   23.5780 C.3       1 THR         0.0910
      3 C          16.6370  -34.1350   23.9220 C.2       1 THR         0.2293
      4 O          16.3030  -33.9370   25.0770 O.2       1 THR        -0.3906
      5 CB         16.7480  -36.3760   22.9300 C.3       1 THR         0.1120
      6 OG1        15.6720  -36.7240   23.8050 O.3       1 THR        -0.3840
      7 CG2        17.5980  -37.6110   22.6720 C.3       1 THR        -0.0314
      8 N          16.2010  -33.3910   22.9100 N.am      1 THR        -0.2585
      9 CA         15.2850  -32.2860   23.1680 C.3       1 THR         0.1566
     10 C          13.9840  -32.7840   23.7820 C.2       1 THR         0.2066
     11 O          13.4590  -32.1750   24.7200 O.2       1 THR        -0.3943
     12 CB         15.0490  -31.5390   21.8730 C.3       1 THR         0.0924
     13 OG1        16.3360  -31.2100   21.3070 O.3       1 THR        -0.3874
     14 CG2        14.2420  -30.2930   22.1430 C.3       1 THR        -0.0346
     15 N          13.4470  -33.8870   23.2640 N.am      1 THR        -0.2621
     16 CA         12.2310  -34.4480   23.8280 C.3       1 THR         0.1390
     17 C          12.4270  -34.7880   25.2910 C.2       1 THR         0.2057
     18 O          11.5600  -34.5040   26.1300 O.2       1 THR        -0.3942
     19 CB         11.8170  -35.6820   23.0390 C.3       1 THR         0.0163
     20 CG         10.5760  -36.3340   23.5760 C.ar      1 THR        -0.0493
     21 CD1        10.6310  -37.5710   24.1720 C.ar      1 THR        -0.0685
     22 CD2         9.3480  -35.6930   23.5010 C.ar      1 THR        -0.0685
     23 CE1         9.4890  -38.1590   24.6790 C.ar      1 THR        -0.0398
     24 CE2         8.2000  -36.2690   24.0040 C.ar      1 THR        -0.0398
     25 CZ          8.2730  -37.5010   24.5970 C.ar      1 THR         0.0805
     26 OH          7.1190  -38.0870   25.0870 O.3       1 THR        -0.3376
     27 N          13.5400  -35.4370   25.6150 N.am      1 THR        -0.2639
     28 CA         13.8040  -35.7650   27.0110 C.3       1 THR         0.1282
     29 C          13.9040  -34.4970   27.8420 C.2       1 THR         0.2037
     30 O          13.4160  -34.4450   28.9740 O.2       1 THR        -0.3944
     31 CB         15.0770  -36.5910   27.1290 C.3       1 THR        -0.0244
     32 N          14.5150  -33.4550   27.2870 N.am      1 THR        -0.2622
     33 CA         14.5730  -32.1830   27.9990 C.3       1 THR         0.1423
     34 C          13.1750  -31.6210   28.2400 C.2       1 THR         0.2057
     35 O          12.9050  -31.0170   29.2870 O.2       1 THR        -0.3943
     36 CB         15.4030  -31.1640   27.2200 C.3       1 THR         0.0406
     37 CG         16.8550  -31.5330   27.1400 C.2       1 THR         0.0393
     38 OD1        17.3040  -32.4140   27.9090 O.co2     1 THR        -0.5688
     39 OD2        17.5330  -30.9430   26.2690 O.co2     1 THR        -0.5688
     40 N          12.2850  -31.7720   27.2650 N.am      1 THR        -0.2618
     41 CA         10.9120  -31.3090   27.4410 C.3       1 THR         0.1404
     42 C          10.2450  -32.0520   28.5880 C.2       1 THR         0.2060
     43 O           9.5840  -31.4450   29.4430 O.2       1 THR        -0.3942
     44 CB         10.1750  -31.4730   26.1200 C.3       1 THR         0.0214
     45 CG          8.7010  -31.1180   26.1490 C.ar      1 THR        -0.0386
     46 CD1         7.7510  -32.0340   25.7450 C.ar      1 THR        -0.0601
     47 CD2         8.2890  -29.8680   26.5350 C.ar      1 THR        -0.0601
     48 CE1         6.4030  -31.6980   25.7040 C.ar      1 THR        -0.0686
     49 CE2         6.9350  -29.5350   26.5390 C.ar      1 THR        -0.0686
     50 CZ          6.0030  -30.4450   26.1210 C.ar      1 THR        -0.0687
     51 N          10.3640  -33.3740   28.5930 N.am      1 THR        -0.2633
     52 CA          9.8020  -34.1560   29.6910 C.3       1 THR         0.1335
     53 C          10.3720  -33.6790   31.0280 C.2       1 THR         0.2041
     54 O           9.6390  -33.5000   32.0130 O.2       1 THR        -0.3944
     55 CB         10.0540  -35.6580   29.4350 C.3       1 THR        -0.0037
     56 CG1         9.4010  -36.1190   28.1230 C.3       1 THR        -0.0491
     57 CG2         9.5900  -36.4920   30.6280 C.3       1 THR        -0.0582
     58 CD1         7.9480  -35.6590   27.8700 C.3       1 THR        -0.0648
     59 N          11.6740  -33.4320   31.0700 N.am      1 THR        -0.2640
     60 CA         12.3360  -33.0350   32.3140 C.3       1 THR         0.1282
     61 C          11.8860  -31.6630   32.8070 C.2       1 THR         0.2037
     62 O          11.9660  -31.3900   34.0110 O.2       1 THR        -0.3944
     63 CB         13.8500  -33.0330   32.1080 C.3       1 THR        -0.0244
     64 N          11.4230  -30.7910   31.9040 N.am      1 THR        -0.2616
     65 CA         10.9880  -29.4440   32.2830 C.3       1 THR         0.1539
     66 C           9.8110  -29.4510   33.2430 C.2       1 THR         0.2060
     67 O           9.5850  -28.4540   33.9400 O.2       1 THR        -0.3943
     68 CB         10.5610  -28.6370   31.0540 C.3       1 THR         0.0843
     69 OG          9.2860  -29.0220   30.5790 O.3       1 THR        -0.3903
     70 N           9.0340  -30.5230   33.2580 N.am      1 THR        -0.2663
     71 CA          7.8230  -30.5370   34.0420 C.3       1 THR         0.1201
     72 C           6.7010  -29.7110   33.4740 C.2       1 THR         0.2007
     73 O           5.6780  -29.5360   34.1360 O.2       1 THR        -0.3947
     74 N           6.8470  -29.2000   32.2660 N.am      1 THR        -0.2640
     75 CA          5.8370  -28.3560   31.6430 C.3       1 THR         0.1311
     76 C           5.2320  -29.0380   30.4230 C.2       1 THR         0.2040
     77 O           5.0310  -28.4020   29.3880 O.2       1 THR        -0.3944
     78 CB          6.4570  -27.0010   31.2960 C.3       1 THR        -0.0092
     79 CG          6.8750  -26.2480   32.5750 C.3       1 THR        -0.0156
     80 CD          7.4190  -24.8780   32.3190 C.3       1 THR         0.0627
     81 NE          6.3970  -24.0010   31.7490 N.pl3     1 THR        -0.2723
     82 CZ          5.5370  -23.2550   32.4420 C.cat     1 THR         0.2882
     83 NH1         5.5230  -23.2850   33.7730 N.pl3     1 THR        -0.2849
     84 NH2         4.6720  -22.4930   31.7760 N.pl3     1 THR        -0.2849
     85 N           4.9200  -30.3370   30.5510 N.am      1 THR        -0.2613
     86 CA          4.2630  -31.0840   29.4910 C.3       1 THR         0.1565
     87 C           2.7460  -31.0510   29.5940 C.2       1 THR         0.2063
     88 O           2.0760  -31.4580   28.6480 O.2       1 THR        -0.3943
     89 CB          4.7040  -32.5510   29.4450 C.3       1 THR         0.0924
     90 OG1         4.2380  -33.2520   30.6010 O.3       1 THR        -0.3874
     91 CG2         6.2220  -32.6690   29.3450 C.3       1 THR        -0.0346
     92 N           2.1940  -30.5830   30.7110 N.am      1 THR        -0.2663
     93 CA          0.7650  -30.5340   30.8900 C.3       1 THR         0.1201
     94 C           0.2280  -29.1790   30.5010 C.2       1 THR         0.2007
     95 O           0.9240  -28.3250   29.9560 O.2       1 THR        -0.3947
     96 N          -1.0520  -28.9970   30.7640 N.am      1 THR        -0.2640
     97 CA         -1.6880  -27.7410   30.4270 C.3       1 THR         0.1311
     98 C          -0.9890  -26.6060   31.1520 C.2       1 THR         0.2039
     99 O          -0.6050  -26.7290   32.3220 O.2       1 THR        -0.3944
    100 CB         -3.1700  -27.7860   30.7720 C.3       1 THR        -0.0092
    101 CG         -3.9010  -28.7580   29.8920 C.3       1 THR        -0.0156
    102 CD         -5.3860  -28.7590   30.0930 C.3       1 THR         0.0627
    103 NE         -5.9790  -29.2740   28.8740 N.pl3     1 THR        -0.2723
    104 CZ         -6.1070  -30.5640   28.5710 C.cat     1 THR         0.2882
    105 NH1        -5.7080  -31.5150   29.4280 N.pl3     1 THR        -0.2849
    106 NH2        -6.6290  -30.9020   27.3850 N.pl3     1 THR        -0.2849
    107 N          -0.7780  -25.5160   30.4310 N.am      1 THR        -0.2637
    108 CA         -0.0270  -24.3880   30.9450 C.3       1 THR         0.1311
    109 C          -0.9800  -23.2430   31.2290 C.2       1 THR         0.2040
    110 O          -1.7820  -22.8650   30.3730 O.2       1 THR        -0.3944
    111 CB          1.0140  -23.9700   29.9100 C.3       1 THR        -0.0092
    112 CG          2.0490  -25.0560   29.6630 C.3       1 THR        -0.0156
    113 CD          2.7440  -24.9260   28.3260 C.3       1 THR         0.0627
    114 NE          1.8120  -25.2080   27.2390 N.pl3     1 THR        -0.2723
    115 CZ          2.1630  -25.5660   26.0210 C.cat     1 THR         0.2882
    116 NH1         3.4480  -25.7370   25.6930 N.pl3     1 THR        -0.2849
    117 NH2         1.2210  -25.7480   25.1060 N.pl3     1 THR        -0.2849
    118 N          -0.8660  -22.6660   32.4120 N.am      1 THR        -0.2616
    119 CA         -1.7350  -21.5730   32.8030 C.3       1 THR         0.1539
    120 C          -1.1070  -20.2390   32.4250 C.2       1 THR         0.2062
    121 O           0.1160  -20.1070   32.3410 O.2       1 THR        -0.3943
    122 CB         -1.9400  -21.6080   34.3090 C.3       1 THR         0.0843
    123 OG         -0.6940  -21.4340   34.9440 O.3       1 THR        -0.3903
    124 N          -1.9620  -19.2440   32.2080 N.am      1 THR        -0.2639
    125 CA         -1.4940  -17.8970   31.9660 C.3       1 THR         0.1282
    126 C          -0.7620  -17.3610   33.1870 C.2       1 THR         0.2031
    127 O          -0.9940  -17.7870   34.3210 O.2       1 THR        -0.3944
    128 CB         -2.6760  -16.9930   31.6690 C.3       1 THR        -0.0244
    129 N           0.1100  -16.3920   32.9420 N.am      1 THR        -0.2692
    130 CA          0.8710  -15.7230   34.0020 C.3       1 THR         0.0969
    131 C          -0.0350  -14.7980   34.7930 C.2       1 THR         0.0604
    132 O           0.2870  -14.4390   35.9390 O.co2     1 THR        -0.5666
    133 CB          2.0990  -14.9510   33.4290 C.3       1 THR        -0.0092
    134 CG1         1.6540  -13.8290   32.4950 C.3       1 THR        -0.0497
    135 CG2         3.0080  -15.9070   32.6960 C.3       1 THR        -0.0588
    136 CD1         2.8040  -13.0150   31.8780 C.3       1 THR        -0.0649
    137 OXT        -1.0880  -14.3980   34.3020 O.co2     1 THR        -0.5666
    138 H1         18.7612  -34.9713   25.1993 H         1 THR         0.2016
    139 H2         18.8423  -36.4939   24.5793 H         1 THR         0.2016
    140 H3         17.5293  -36.0319   25.4581 H         1 THR         0.2016
    141 H4         18.3370  -34.9144   22.8680 H         1 THR         0.1125
    142 H5         16.3421  -36.0130   21.9743 H         1 THR         0.0674
    143 H6         15.1250  -35.9612   23.9514 H         1 THR         0.2102
    144 H7         16.9785  -38.3917   22.2065 H         1 THR         0.0258
    145 H8         18.0024  -37.9834   23.6248 H         1 THR         0.0258
    146 H9         18.4276  -37.3509   21.9981 H         1 THR         0.0258
    147 H10        16.4998  -33.5882   21.9763 H         1 THR         0.1885
    148 H11        15.7574  -31.5986   23.8851 H         1 THR         0.0826
    149 H12        14.4949  -32.1804   21.1718 H         1 THR         0.0639
    150 H13        16.2110  -30.7394   20.4912 H         1 THR         0.2101
    151 H14        14.0732  -29.7538   21.1992 H         1 THR         0.0257
    152 H15        14.7908  -29.6451   22.8423 H         1 THR         0.0257
    153 H16        13.2737  -30.5717   22.5843 H         1 THR         0.0257
    154 H17        13.8833  -34.3320   22.4820 H         1 THR         0.1885
    155 H18        11.4303  -33.6978   23.7502 H         1 THR         0.0821
    156 H19        12.6391  -36.4120   23.0735 H         1 THR         0.0453
    157 H20        11.6335  -35.3855   21.9958 H         1 THR         0.0453
    158 H21        11.5798  -38.0901   24.2448 H         1 THR         0.0530
    159 H22         9.2892  -34.7157   23.0358 H         1 THR         0.0530
    160 H23         9.5444  -39.1375   25.1421 H         1 THR         0.0525
    161 H24         7.2502  -35.7518   23.9306 H         1 THR         0.0525
    162 H25         7.3305  -38.9322   25.4656 H         1 THR         0.2458
    163 H26        14.1935  -35.6993   24.9050 H         1 THR         0.1883
    164 H27        12.9647  -36.3648   27.3929 H         1 THR         0.0797
    165 H28        15.2622  -36.8301   28.1866 H         1 THR         0.0277
    166 H29        15.9254  -36.0164   26.7290 H         1 THR         0.0277
    167 H30        14.9634  -37.5235   26.5568 H         1 THR         0.0277
    168 H31        14.9340  -33.5429   26.3833 H         1 THR         0.1884
    169 H32        15.0531  -32.3552   28.9736 H         1 THR         0.0819
    170 H33        15.3161  -30.1867   27.7173 H         1 THR         0.0478
    171 H34        15.0022  -31.0924   26.1981 H         1 THR         0.0478
    172 H35        12.5574  -32.2053   26.4059 H         1 THR         0.1885
    173 H36        10.9289  -30.2391   27.6958 H         1 THR         0.0823
    174 H37        10.2647  -32.5245   25.8096 H         1 THR         0.0474
    175 H38        10.6648  -30.8279   25.3758 H         1 THR         0.0474
    176 H39         8.0611  -33.0314   25.4550 H         1 THR         0.0557
    177 H40         9.0235  -29.1315   26.8401 H         1 THR         0.0557
    178 H41         5.6719  -32.4144   25.3473 H         1 THR         0.0599
    179 H42         6.6203  -28.5532   26.8739 H         1 THR         0.0599
    180 H43         4.9514  -30.1820   26.1174 H         1 THR         0.0559
    181 H44        10.8392  -33.8353   27.8437 H         1 THR         0.1883
    182 H45         8.7142  -33.9939   29.7126 H         1 THR         0.0803
    183 H46        11.1396  -35.8020   29.3312 H         1 THR         0.0345
    184 H47         9.4079  -37.2189   28.1161 H         1 THR         0.0267
    185 H48        10.0183  -35.7432   27.2938 H         1 THR         0.0267
    186 H49        10.0810  -36.1283   31.5427 H         1 THR         0.0235
    187 H50         9.8559  -37.5467   30.4637 H         1 THR         0.0235
    188 H51         8.4991  -36.4015   30.7366 H         1 THR         0.0235
    189 H52         7.6013  -36.0541   26.9037 H         1 THR         0.0230
    190 H53         7.9092  -34.5598   27.8519 H         1 THR         0.0230
    191 H54         7.2988  -36.0356   28.6742 H         1 THR         0.0230
    192 H55        12.2156  -33.5188   30.2338 H         1 THR         0.1883
    193 H56        12.0851  -33.7760   33.0873 H         1 THR         0.0797
    194 H57        14.3468  -32.7347   33.0430 H         1 THR         0.0277
    195 H58        14.1107  -32.3211   31.3110 H         1 THR         0.0277
    196 H59        14.1825  -34.0417   31.8219 H         1 THR         0.0277
    197 H60        11.3724  -31.0661   30.9439 H         1 THR         0.1884
    198 H61        11.8359  -28.9384   32.7682 H         1 THR         0.0823
    199 H62        11.2992  -28.7932   30.2536 H         1 THR         0.0606
    200 H63        10.5317  -27.5708   31.3229 H         1 THR         0.0606
    201 H64         9.3032  -29.9407   30.3381 H         1 THR         0.2097
    202 H65         9.2883  -31.3283   32.7224 H         1 THR         0.1881
    203 H66         8.0589  -30.1521   35.0451 H         1 THR         0.0763
    204 H67         7.4770  -31.5782   34.1208 H         1 THR         0.0763
    205 H68         7.6848  -29.4004   31.7581 H         1 THR         0.1883
    206 H69         5.0289  -28.1875   32.3700 H         1 THR         0.0800
    207 H70         5.7201  -26.3971   30.7463 H         1 THR         0.0313
    208 H71         7.3439  -27.1608   30.6652 H         1 THR         0.0313
    209 H72         7.6489  -26.8381   33.0876 H         1 THR         0.0301
    210 H73         5.9935  -26.1549   33.2263 H         1 THR         0.0301
    211 H74         8.2612  -24.9521   31.6153 H         1 THR         0.0689
    212 H75         7.7712  -24.4486   33.2685 H         1 THR         0.0689
    213 H76         6.3365  -23.9558   30.7218 H         1 THR         0.2642
    214 H77         4.8522  -22.7025   34.2942 H         1 THR         0.2615
    215 H78         6.1829  -23.8907   34.2815 H         1 THR         0.2615
    216 H79         4.6884  -22.4746   30.7463 H         1 THR         0.2615
    217 H80         3.9864  -21.9219   32.2904 H         1 THR         0.2615
    218 H81         5.1471  -30.8068   31.4041 H         1 THR         0.1884
    219 H82         4.5485  -30.6126   28.5390 H         1 THR         0.0826
    220 H83         4.2605  -33.0159   28.5522 H         1 THR         0.0639
    221 H84         4.5962  -32.8463   31.3817 H         1 THR         0.2101
    222 H85         6.5059  -33.7313   29.3140 H         1 THR         0.0257
    223 H86         6.6854  -32.1911   30.2207 H         1 THR         0.0257
    224 H87         6.5690  -32.1699   28.4283 H         1 THR         0.0257
    225 H88         2.7875  -30.2563   31.4465 H         1 THR         0.1881
    226 H89         0.5259  -30.7281   31.9460 H         1 THR         0.0763
    227 H90         0.2950  -31.3036   30.2601 H         1 THR         0.0763
    228 H91        -1.5826  -29.7263   31.1959 H         1 THR         0.1883
    229 H92        -1.5898  -27.5762   29.3439 H         1 THR         0.0800
    230 H93        -3.6012  -26.7833   30.6353 H         1 THR         0.0313
    231 H94        -3.2853  -28.0948   31.8214 H         1 THR         0.0313
    232 H95        -3.5221  -29.7690   30.1026 H         1 THR         0.0301
    233 H96        -3.6935  -28.4998   28.8431 H         1 THR         0.0301
    234 H97        -5.7421  -27.7358   30.2831 H         1 THR         0.0689
    235 H98        -5.6515  -29.4037   30.9438 H         1 THR         0.0689
    236 H99        -6.3284  -28.5884   28.1893 H         1 THR         0.2642
    237 H100       -5.8134  -32.5091   29.1798 H         1 THR         0.2615
    238 H101       -5.2961  -31.2514   30.3345 H         1 THR         0.2615
    239 H102       -6.9345  -30.1690   26.7291 H         1 THR         0.2615
    240 H103       -6.7250  -31.8950   27.1287 H         1 THR         0.2615
    241 H104       -1.1482  -25.4695   29.5032 H         1 THR         0.1883
    242 H105        0.4815  -24.6774   31.8765 H         1 THR         0.0800
    243 H106        1.5280  -23.0665   30.2699 H         1 THR         0.0313
    244 H107        0.5015  -23.7475   28.9625 H         1 THR         0.0313
    245 H108        1.5458  -26.0334   29.7014 H         1 THR         0.0301
    246 H109        2.8077  -25.0027   30.4577 H         1 THR         0.0301
    247 H110        3.5799  -25.6396   28.2810 H         1 THR         0.0689
    248 H111        3.1299  -23.9018   28.2161 H         1 THR         0.0689
    249 H112        0.8054  -25.1206   27.4390 H         1 THR         0.2642
    250 H113        3.7021  -26.0172   24.7350 H         1 THR         0.2615
    251 H114        4.1837  -25.5885   26.3984 H         1 THR         0.2615
    252 H115        0.2299  -25.6174   25.3542 H         1 THR         0.2615
    253 H116        1.4803  -26.0200   24.1470 H         1 THR         0.2615
    254 H117       -0.1671  -22.9892   33.0500 H         1 THR         0.1884
    255 H118       -2.7049  -21.6786   32.2950 H         1 THR         0.0823
    256 H119       -2.3707  -22.5773   34.6005 H         1 THR         0.0606
    257 H120       -2.6226  -20.7988   34.6076 H         1 THR         0.0606
    258 H121       -0.1065  -22.1335   34.6832 H         1 THR         0.2097
    259 H122       -2.9445  -19.4300   32.2122 H         1 THR         0.1883
    260 H123       -0.8100  -17.9017   31.1046 H         1 THR         0.0797
    261 H124       -2.3176  -15.9694   31.4853 H         1 THR         0.0277
    262 H125       -3.3623  -16.9925   32.5286 H         1 THR         0.0277
    263 H126       -3.2048  -17.3617   30.7777 H         1 THR         0.0277
    264 H127        0.2545  -16.1057   31.9948 H         1 THR         0.1875
    265 H128        1.2502  -16.4961   34.6865 H         1 THR         0.0729
    266 H129        2.6556  -14.5069   34.2674 H         1 THR         0.0338
    267 H130        1.0144  -13.1403   33.0665 H         1 THR         0.0267
    268 H131        1.0717  -14.2755   31.6755 H         1 THR         0.0267
    269 H132        3.3220  -16.7105   33.3785 H         1 THR         0.0234
    270 H133        3.8947  -15.3656   32.3346 H         1 THR         0.0234
    271 H134        2.4699  -16.3418   31.8408 H         1 THR         0.0234
    272 H135        2.3902  -12.2338   31.2234 H         1 THR         0.0230
    273 H136        3.4507  -13.6821   31.2892 H         1 THR         0.0230
    274 H137        3.3935  -12.5469   32.6801 H         1 THR         0.0230
@<TRIPOS>BOND
     1    1    2 1  
     2    2    3 1  
     3    2    5 1  
     4    3    4 2  
     5    3    8 am 
     6    5    6 1  
     7    5    7 1  
     8    8    9 1  
     9    9   10 1  
    10    9   12 1  
    11   10   11 2  
    12   10   15 am 
    13   12   13 1  
    14   12   14 1  
    15   15   16 1  
    16   16   17 1  
    17   16   19 1  
    18   17   18 2  
    19   17   27 am 
    20   19   20 1  
    21   20   21 ar 
    22   20   22 ar 
    23   21   23 ar 
    24   22   24 ar 
    25   23   25 ar 
    26   24   25 ar 
    27   25   26 1  
    28   27   28 1  
    29   28   29 1  
    30   28   31 1  
    31   29   30 2  
    32   29   32 am 
    33   32   33 1  
    34   33   34 1  
    35   33   36 1  
    36   34   35 2  
    37   34   40 am 
    38   36   37 1  
    39   37   38 ar 
    40   37   39 ar 
    41   40   41 1  
    42   41   42 1  
    43   41   44 1  
    44   42   43 2  
    45   42   51 am 
    46   44   45 1  
    47   45   46 ar 
    48   45   47 ar 
    49   46   48 ar 
    50   47   49 ar 
    51   48   50 ar 
    52   49   50 ar 
    53   51   52 1  
    54   52   53 1  
    55   52   55 1  
    56   53   54 2  
    57   53   59 am 
    58   55   56 1  
    59   55   57 1  
    60   56   58 1  
    61   59   60 1  
    62   60   61 1  
    63   60   63 1  
    64   61   62 2  
    65   61   64 am 
    66   64   65 1  
    67   65   66 1  
    68   65   68 1  
    69   66   67 2  
    70   66   70 am 
    71   68   69 1  
    72   70   71 1  
    73   71   72 1  
    74   72   73 2  
    75   72   74 am 
    76   74   75 1  
    77   75   76 1  
    78   75   78 1  
    79   76   77 2  
    80   76   85 am 
    81   78   79 1  
    82   79   80 1  
    83   80   81 1  
    84   81   82 ar 
    85   82   83 ar 
    86   82   84 ar 
    87   85   86 1  
    88   86   87 1  
    89   86   89 1  
    90   87   88 2  
    91   87   92 am 
    92   89   90 1  
    93   89   91 1  
    94   92   93 1  
    95   93   94 1  
    96   94   95 2  
    97   94   96 am 
    98   96   97 1  
    99   97   98 1  
   100   97  100 1  
   101   98   99 2  
   102   98  107 am 
   103  100  101 1  
   104  101  102 1  
   105  102  103 1  
   106  103  104 ar 
   107  104  105 ar 
   108  104  106 ar 
   109  107  108 1  
   110  108  109 1  
   111  108  111 1  
   112  109  110 2  
   113  109  118 am 
   114  111  112 1  
   115  112  113 1  
   116  113  114 1  
   117  114  115 ar 
   118  115  116 ar 
   119  115  117 ar 
   120  118  119 1  
   121  119  120 1  
   122  119  122 1  
   123  120  121 2  
   124  120  124 am 
   125  122  123 1  
   126  124  125 1  
   127  125  126 1  
   128  125  128 1  
   129  126  127 2  
   130  126  129 am 
   131  129  130 1  
   132  130  131 1  
   133  130  133 1  
   134  131  132 ar 
   135  131  137 ar 
   136  133  134 1  
   137  133  135 1  
   138  134  136 1  
   139    1  138 1  
   140    1  139 1  
   141    1  140 1  
   142    2  141 1  
   143    5  142 1  
   144    6  143 1  
   145    7  144 1  
   146    7  145 1  
   147    7  146 1  
   148    8  147 1  
   149    9  148 1  
   150   12  149 1  
   151   13  150 1  
   152   14  151 1  
   153   14  152 1  
   154   14  153 1  
   155   15  154 1  
   156   16  155 1  
   157   19  156 1  
   158   19  157 1  
   159   21  158 1  
   160   22  159 1  
   161   23  160 1  
   162   24  161 1  
   163   26  162 1  
   164   27  163 1  
   165   28  164 1  
   166   31  165 1  
   167   31  166 1  
   168   31  167 1  
   169   32  168 1  
   170   33  169 1  
   171   36  170 1  
   172   36  171 1  
   173   40  172 1  
   174   41  173 1  
   175   44  174 1  
   176   44  175 1  
   177   46  176 1  
   178   47  177 1  
   179   48  178 1  
   180   49  179 1  
   181   50  180 1  
   182   51  181 1  
   183   52  182 1  
   184   55  183 1  
   185   56  184 1  
   186   56  185 1  
   187   57  186 1  
   188   57  187 1  
   189   57  188 1  
   190   58  189 1  
   191   58  190 1  
   192   58  191 1  
   193   59  192 1  
   194   60  193 1  
   195   63  194 1  
   196   63  195 1  
   197   63  196 1  
   198   64  197 1  
   199   65  198 1  
   200   68  199 1  
   201   68  200 1  
   202   69  201 1  
   203   70  202 1  
   204   71  203 1  
   205   71  204 1  
   206   74  205 1  
   207   75  206 1  
   208   78  207 1  
   209   78  208 1  
   210   79  209 1  
   211   79  210 1  
   212   80  211 1  
   213   80  212 1  
   214   81  213 1  
   215   83  214 1  
   216   83  215 1  
   217   84  216 1  
   218   84  217 1  
   219   85  218 1  
   220   86  219 1  
   221   89  220 1  
   222   90  221 1  
   223   91  222 1  
   224   91  223 1  
   225   91  224 1  
   226   92  225 1  
   227   93  226 1  
   228   93  227 1  
   229   96  228 1  
   230   97  229 1  
   231  100  230 1  
   232  100  231 1  
   233  101  232 1  
   234  101  233 1  
   235  102  234 1  
   236  102  235 1  
   237  103  236 1  
   238  105  237 1  
   239  105  238 1  
   240  106  239 1  
   241  106  240 1  
   242  107  241 1  
   243  108  242 1  
   244  111  243 1  
   245  111  244 1  
   246  112  245 1  
   247  112  246 1  
   248  113  247 1  
   249  113  248 1  
   250  114  249 1  
   251  116  250 1  
   252  116  251 1  
   253  117  252 1  
   254  117  253 1  
   255  118  254 1  
   256  119  255 1  
   257  122  256 1  
   258  122  257 1  
   259  123  258 1  
   260  124  259 1  
   261  125  260 1  
   262  128  261 1  
   263  128  262 1  
   264  128  263 1  
   265  129  264 1  
   266  130  265 1  
   267  133  266 1  
   268  134  267 1  
   269  134  268 1  
   270  135  269 1  
   271  135  270 1  
   272  135  271 1  
   273  136  272 1  
   274  136  273 1  
   275  136  274 1  
@<TRIPOS>SUBSTRUCTURE
     1 THR         1

