5o0e_ligand
  -I-interpret- 

273274  0  0  0  0  0  0  0  0999 V2000
   18.2270  -35.7260   24.7980 N   0  3  0  0  0
   17.5730  -35.2640   23.5780 C   0  0  0  0  0
   16.6370  -34.1350   23.9220 C   0  0  0  0  0
   16.3030  -33.9370   25.0770 O   0  0  0  0  0
   16.7480  -36.3760   22.9300 C   0  0  0  0  0
   15.6720  -36.7240   23.8050 O   0  0  0  0  0
   17.5980  -37.6110   22.6720 C   0  0  0  0  0
   16.2010  -33.3910   22.9100 N   0  0  0  0  0
   15.2850  -32.2860   23.1680 C   0  0  0  0  0
   13.9840  -32.7840   23.7820 C   0  0  0  0  0
   13.4590  -32.1750   24.7200 O   0  0  0  0  0
   15.0490  -31.5390   21.8730 C   0  0  0  0  0
   16.3360  -31.2100   21.3070 O   0  0  0  0  0
   14.2420  -30.2930   22.1430 C   0  0  0  0  0
   13.4470  -33.8870   23.2640 N   0  0  0  0  0
   12.2310  -34.4480   23.8280 C   0  0  0  0  0
   12.4270  -34.7880   25.2910 C   0  0  0  0  0
   11.5600  -34.5040   26.1300 O   0  0  0  0  0
   11.8170  -35.6820   23.0390 C   0  0  0  0  0
   10.5760  -36.3340   23.5760 C   0  0  0  0  0
   10.6310  -37.5710   24.1720 C   0  0  0  0  0
    9.3480  -35.6930   23.5010 C   0  0  0  0  0
    9.4890  -38.1590   24.6790 C   0  0  0  0  0
    8.2000  -36.2690   24.0040 C   0  0  0  0  0
    8.2730  -37.5010   24.5970 C   0  0  0  0  0
    7.1190  -38.0870   25.0870 O   0  0  0  0  0
   13.5400  -35.4370   25.6150 N   0  0  0  0  0
   13.8040  -35.7650   27.0110 C   0  0  0  0  0
   13.9040  -34.4970   27.8420 C   0  0  0  0  0
   13.4160  -34.4450   28.9740 O   0  0  0  0  0
   15.0770  -36.5910   27.1290 C   0  0  0  0  0
   14.5150  -33.4550   27.2870 N   0  0  0  0  0
   14.5730  -32.1830   27.9990 C   0  0  0  0  0
   13.1750  -31.6210   28.2400 C   0  0  0  0  0
   12.9050  -31.0170   29.2870 O   0  0  0  0  0
   15.4030  -31.1640   27.2200 C   0  0  0  0  0
   16.8550  -31.5330   27.1400 C   0  0  0  0  0
   17.3040  -32.4140   27.9090 O   0  0  0  0  0
   17.5330  -30.9430   26.2690 O   0  0  0  0  0
   12.2850  -31.7720   27.2650 N   0  0  0  0  0
   10.9120  -31.3090   27.4410 C   0  0  0  0  0
   10.2450  -32.0520   28.5880 C   0  0  0  0  0
    9.5840  -31.4450   29.4430 O   0  0  0  0  0
   10.1750  -31.4730   26.1200 C   0  0  0  0  0
    8.7010  -31.1180   26.1490 C   0  0  0  0  0
    7.7510  -32.0340   25.7450 C   0  0  0  0  0
    8.2890  -29.8680   26.5350 C   0  0  0  0  0
    6.4030  -31.6980   25.7040 C   0  0  0  0  0
    6.9350  -29.5350   26.5390 C   0  0  0  0  0
    6.0030  -30.4450   26.1210 C   0  0  0  0  0
   10.3640  -33.3740   28.5930 N   0  0  0  0  0
    9.8020  -34.1560   29.6910 C   0  0  0  0  0
   10.3720  -33.6790   31.0280 C   0  0  0  0  0
    9.6390  -33.5000   32.0130 O   0  0  0  0  0
   10.0540  -35.6580   29.4350 C   0  0  0  0  0
    9.4010  -36.1190   28.1230 C   0  0  0  0  0
    9.5900  -36.4920   30.6280 C   0  0  0  0  0
    7.9480  -35.6590   27.8700 C   0  0  0  0  0
   11.6740  -33.4320   31.0700 N   0  0  0  0  0
   12.3360  -33.0350   32.3140 C   0  0  0  0  0
   11.8860  -31.6630   32.8070 C   0  0  0  0  0
   11.9660  -31.3900   34.0110 O   0  0  0  0  0
   13.8500  -33.0330   32.1080 C   0  0  0  0  0
   11.4230  -30.7910   31.9040 N   0  0  0  0  0
   10.9880  -29.4440   32.2830 C   0  0  0  0  0
    9.8110  -29.4510   33.2430 C   0  0  0  0  0
    9.5850  -28.4540   33.9400 O   0  0  0  0  0
   10.5610  -28.6370   31.0540 C   0  0  0  0  0
    9.2860  -29.0220   30.5790 O   0  0  0  0  0
    9.0340  -30.5230   33.2580 N   0  0  0  0  0
    7.8230  -30.5370   34.0420 C   0  0  0  0  0
    6.7010  -29.7110   33.4740 C   0  0  0  0  0
    5.6780  -29.5360   34.1360 O   0  0  0  0  0
    6.8470  -29.2000   32.2660 N   0  0  0  0  0
    5.8370  -28.3560   31.6430 C   0  0  0  0  0
    5.2320  -29.0380   30.4230 C   0  0  0  0  0
    5.0310  -28.4020   29.3880 O   0  0  0  0  0
    6.4570  -27.0010   31.2960 C   0  0  0  0  0
    6.8750  -26.2480   32.5750 C   0  0  0  0  0
    7.4190  -24.8780   32.3190 C   0  0  0  0  0
    6.3970  -24.0010   31.7490 N   0  0  0  0  0
    5.5370  -23.2550   32.4420 C   0  0  0  0  0
    5.5230  -23.2850   33.7730 N   0  0  0  0  0
    4.6720  -22.4930   31.7760 N   0  0  0  0  0
    4.9200  -30.3370   30.5510 N   0  0  0  0  0
    4.2630  -31.0840   29.4910 C   0  0  0  0  0
    2.7460  -31.0510   29.5940 C   0  0  0  0  0
    2.0760  -31.4580   28.6480 O   0  0  0  0  0
    4.7040  -32.5510   29.4450 C   0  0  0  0  0
    4.2380  -33.2520   30.6010 O   0  0  0  0  0
    6.2220  -32.6690   29.3450 C   0  0  0  0  0
    2.1940  -30.5830   30.7110 N   0  0  0  0  0
    0.7650  -30.5340   30.8900 C   0  0  0  0  0
    0.2280  -29.1790   30.5010 C   0  0  0  0  0
    0.9240  -28.3250   29.9560 O   0  0  0  0  0
   -1.0520  -28.9970   30.7640 N   0  0  0  0  0
   -1.6880  -27.7410   30.4270 C   0  0  0  0  0
   -0.9890  -26.6060   31.1520 C   0  0  0  0  0
   -0.6050  -26.7290   32.3220 O   0  0  0  0  0
   -3.1700  -27.7860   30.7720 C   0  0  0  0  0
   -3.9010  -28.7580   29.8920 C   0  0  0  0  0
   -5.3860  -28.7590   30.0930 C   0  0  0  0  0
   -5.9790  -29.2740   28.8740 N   0  0  0  0  0
   -6.1070  -30.5640   28.5710 C   0  0  0  0  0
   -5.7080  -31.5150   29.4280 N   0  0  0  0  0
   -6.6290  -30.9020   27.3850 N   0  0  0  0  0
   -0.7780  -25.5160   30.4310 N   0  0  0  0  0
   -0.0270  -24.3880   30.9450 C   0  0  0  0  0
   -0.9800  -23.2430   31.2290 C   0  0  0  0  0
   -1.7820  -22.8650   30.3730 O   0  0  0  0  0
    1.0140  -23.9700   29.9100 C   0  0  0  0  0
    2.0490  -25.0560   29.6630 C   0  0  0  0  0
    2.7440  -24.9260   28.3260 C   0  0  0  0  0
    1.8120  -25.2080   27.2390 N   0  0  0  0  0
    2.1630  -25.5660   26.0210 C   0  0  0  0  0
    3.4480  -25.7370   25.6930 N   0  0  0  0  0
    1.2210  -25.7480   25.1060 N   0  0  0  0  0
   -0.8660  -22.6660   32.4120 N   0  0  0  0  0
   -1.7350  -21.5730   32.8030 C   0  0  0  0  0
   -1.1070  -20.2390   32.4250 C   0  0  0  0  0
    0.1160  -20.1070   32.3410 O   0  0  0  0  0
   -1.9400  -21.6080   34.3090 C   0  0  0  0  0
   -0.6940  -21.4340   34.9440 O   0  0  0  0  0
   -1.9620  -19.2440   32.2080 N   0  0  0  0  0
   -1.4940  -17.8970   31.9660 C   0  0  0  0  0
   -0.7620  -17.3610   33.1870 C   0  0  0  0  0
   -0.9940  -17.7870   34.3210 O   0  0  0  0  0
   -2.6760  -16.9930   31.6690 C   0  0  0  0  0
    0.1100  -16.3920   32.9420 N   0  0  0  0  0
    0.8710  -15.7230   34.0020 C   0  0  0  0  0
   -0.0350  -14.7980   34.7930 C   0  0  0  0  0
    0.2870  -14.4390   35.9390 O   0  0  0  0  0
    2.0990  -14.9510   33.4290 C   0  0  0  0  0
    1.6540  -13.8290   32.4950 C   0  0  0  0  0
    3.0080  -15.9070   32.6960 C   0  0  0  0  0
    2.8040  -13.0150   31.8780 C   0  0  0  0  0
   -1.0880  -14.3980   34.3020 O   0  0  0  0  0
   18.7672  -34.9615   25.2032 H   0  0  0  0  0
   17.5201  -36.0353   25.4651 H   0  0  0  0  0
   18.8492  -36.5030   24.5755 H   0  0  0  0  0
   18.3480  -34.9438   22.8816 H   0  0  0  0  0
   16.3667  -36.0146   21.9750 H   0  0  0  0  0
   15.1322  -35.9477   23.9711 H   0  0  0  0  0
   17.9972  -37.9797   23.6169 H   0  0  0  0  0
   16.9834  -38.3834   22.2097 H   0  0  0  0  0
   18.4203  -37.3517   22.0052 H   0  0  0  0  0
   16.5058  -33.5922   21.9576 H   0  0  0  0  0
   15.7264  -31.6035   23.8943 H   0  0  0  0  0
   14.4874  -32.1528   21.1688 H   0  0  0  0  0
   16.2097  -30.7345   20.4827 H   0  0  0  0  0
   13.2829  -30.5705   22.5802 H   0  0  0  0  0
   14.7868  -29.6519   22.8360 H   0  0  0  0  0
   14.0754  -29.7597   21.2071 H   0  0  0  0  0
   13.8920  -34.3409   22.4663 H   0  0  0  0  0
   11.4364  -33.7050   23.7601 H   0  0  0  0  0
   12.6283  -36.4067   23.1070 H   0  0  0  0  0
   11.6103  -35.3676   22.0160 H   0  0  0  0  0
   11.5851  -38.0930   24.2452 H   0  0  0  0  0
    9.2889  -34.7103   23.0332 H   0  0  0  0  0
    9.5447  -39.1430   25.1447 H   0  0  0  0  0
    7.2449  -35.7490   23.9302 H   0  0  0  0  0
    6.3766  -37.4946   24.9475 H   0  0  0  0  0
   14.2066  -35.7045   24.8908 H   0  0  0  0  0
   12.9745  -36.3595   27.3939 H   0  0  0  0  0
   14.9632  -37.5147   26.5616 H   0  0  0  0  0
   15.9168  -36.0205   26.7323 H   0  0  0  0  0
   15.2594  -36.8272   28.1773 H   0  0  0  0  0
   14.9424  -33.5446   26.3652 H   0  0  0  0  0
   15.0465  -32.3705   28.9627 H   0  0  0  0  0
   15.3303  -30.2085   27.7394 H   0  0  0  0  0
   15.0129  -31.1244   26.2030 H   0  0  0  0  0
   16.6020  -32.7198   28.4880 H   0  0  0  0  0
   12.5628  -32.2139   26.3887 H   0  0  0  0  0
   10.8916  -30.2534   27.7120 H   0  0  0  0  0
   10.2356  -32.5295   25.8589 H   0  0  0  0  0
   10.6460  -30.7891   25.4139 H   0  0  0  0  0
    8.0629  -33.0369   25.4534 H   0  0  0  0  0
    9.0276  -29.1274   26.8418 H   0  0  0  0  0
    5.6678  -32.4184   25.3454 H   0  0  0  0  0
    6.6186  -28.5478   26.8758 H   0  0  0  0  0
    4.9456  -30.1805   26.1174 H   0  0  0  0  0
   10.8487  -33.8445   27.8288 H   0  0  0  0  0
    8.7231  -34.0092   29.7420 H   0  0  0  0  0
   11.1275  -35.8104   29.3235 H   0  0  0  0  0
    9.3665  -37.2074   28.1717 H   0  0  0  0  0
    9.9973  -35.6823   27.3219 H   0  0  0  0  0
   10.1402  -36.1877   31.5184 H   0  0  0  0  0
    8.5232  -36.3343   30.7870 H   0  0  0  0  0
    9.7767  -37.5469   30.4268 H   0  0  0  0  0
    7.3058  -36.0328   28.6675 H   0  0  0  0  0
    7.9110  -34.5698   27.8523 H   0  0  0  0  0
    7.6057  -36.0511   26.9123 H   0  0  0  0  0
   12.2264  -33.5205   30.2171 H   0  0  0  0  0
   12.0548  -33.7610   33.0769 H   0  0  0  0  0
   14.1781  -34.0330   31.8245 H   0  0  0  0  0
   14.1070  -32.3273   31.3180 H   0  0  0  0  0
   14.3411  -32.7372   33.0350 H   0  0  0  0  0
   11.3714  -31.0716   30.9247 H   0  0  0  0  0
   11.8507  -28.9918   32.7723 H   0  0  0  0  0
   11.2869  -28.8170   30.2611 H   0  0  0  0  0
   10.5139  -27.5857   31.3381 H   0  0  0  0  0
    9.0587  -28.4928   29.8109 H   0  0  0  0  0
    9.2933  -31.3444   32.7116 H   0  0  0  0  0
    8.0690  -30.1135   35.0158 H   0  0  0  0  0
    7.4749  -31.5695   34.0721 H   0  0  0  0  0
    7.7015  -29.4044   31.7480 H   0  0  0  0  0
    5.0182  -28.1906   32.3433 H   0  0  0  0  0
    5.7193  -26.4031   30.7608 H   0  0  0  0  0
    7.3409  -27.1658   30.6799 H   0  0  0  0  0
    7.6662  -26.8283   33.0498 H   0  0  0  0  0
    5.9830  -26.1335   33.1909 H   0  0  0  0  0
    8.2434  -24.9579   31.6104 H   0  0  0  0  0
    7.7527  -24.4537   33.2659 H   0  0  0  0  0
    6.3371  -23.9563   30.7317 H   0  0  0  0  0
    4.8467  -22.7219   34.2887 H   0  0  0  0  0
    6.1886  -23.8710   34.2769 H   0  0  0  0  0
    4.6766  -22.4883   30.7560 H   0  0  0  0  0
    5.1516  -30.8162   31.4211 H   0  0  0  0  0
    4.5710  -30.5802   28.5748 H   0  0  0  0  0
    4.2647  -33.0001   28.5543 H   0  0  0  0  0
    4.5231  -34.1676   30.5552 H   0  0  0  0  0
    6.5645  -32.1740   28.4363 H   0  0  0  0  0
    6.6800  -32.1950   30.2132 H   0  0  0  0  0
    6.5021  -33.7220   29.3144 H   0  0  0  0  0
    2.7993  -30.2497   31.4613 H   0  0  0  0  0
    0.5337  -30.7179   31.9392 H   0  0  0  0  0
    0.3034  -31.2921   30.2573 H   0  0  0  0  0
   -1.5932  -29.7409   31.2046 H   0  0  0  0  0
   -1.6038  -27.5702   29.3538 H   0  0  0  0  0
   -3.5933  -26.7929   30.6214 H   0  0  0  0  0
   -3.2771  -28.1056   31.8086 H   0  0  0  0  0
   -3.5392  -29.7559   30.1399 H   0  0  0  0  0
   -3.7134  -28.4652   28.8590 H   0  0  0  0  0
   -5.7474  -27.7521   30.3020 H   0  0  0  0  0
   -5.6590  -29.3795   30.9465 H   0  0  0  0  0
   -6.3250  -28.5950   28.1960 H   0  0  0  0  0
   -5.8017  -32.4993   29.1773 H   0  0  0  0  0
   -5.3108  -31.2541   30.3305 H   0  0  0  0  0
   -6.9210  -30.1760   26.7308 H   0  0  0  0  0
   -1.1556  -25.4685   29.4846 H   0  0  0  0  0
    0.4810  -24.6620   31.8696 H   0  0  0  0  0
    1.5319  -23.0884   30.2877 H   0  0  0  0  0
    0.4975  -23.7745   28.9702 H   0  0  0  0  0
    1.5300  -26.0145   29.6730 H   0  0  0  0  0
    2.8091  -24.9698   30.4395 H   0  0  0  0  0
    3.5667  -25.6397   28.2825 H   0  0  0  0  0
    3.1183  -23.9080   28.2178 H   0  0  0  0  0
    0.8152  -25.1215   27.4371 H   0  0  0  0  0
    3.7001  -26.0064   24.7421 H   0  0  0  0  0
    4.1761  -25.5981   26.3937 H   0  0  0  0  0
    0.2401  -25.6107   25.3496 H   0  0  0  0  0
   -0.1531  -22.9957   33.0628 H   0  0  0  0  0
   -2.6898  -21.6815   32.2885 H   0  0  0  0  0
   -2.3709  -22.5660   34.5998 H   0  0  0  0  0
   -2.6198  -20.8097   34.6068 H   0  0  0  0  0
   -0.8156  -21.4550   35.8960 H   0  0  0  0  0
   -2.9642  -19.4338   32.2123 H   0  0  0  0  0
   -0.8119  -17.9155   31.1160 H   0  0  0  0  0
   -3.1991  -17.3595   30.7858 H   0  0  0  0  0
   -3.3553  -16.9934   32.5215 H   0  0  0  0  0
   -2.3197  -15.9791   31.4872 H   0  0  0  0  0
    0.2574  -16.1000   31.9759 H   0  0  0  0  0
    1.2591  -16.4886   34.6738 H   0  0  0  0  0
    1.1293  -14.8359   36.1726 H   0  0  0  0  0
    2.6421  -14.5029   34.2611 H   0  0  0  0  0
    1.0584  -13.1370   33.0904 H   0  0  0  0  0
    1.1168  -14.2965   31.6698 H   0  0  0  0  0
    3.3553  -16.6768   33.3852 H   0  0  0  0  0
    2.4596  -16.3717   31.8766 H   0  0  0  0  0
    3.8634  -15.3606   32.2986 H   0  0  0  0  0
    3.3873  -12.5518   32.6738 H   0  0  0  0  0
    3.4440  -13.6771   31.2949 H   0  0  0  0  0
    2.3927  -12.2413   31.2296 H   0  0  0  0  0
  1  2  1  0  0  0
  2  3  1  0  0  0
  2  5  1  0  0  0
  3  4  2  0  0  0
  3  8  1  0  0  0
  5  6  1  0  0  0
  5  7  1  0  0  0
  8  9  1  0  0  0
  9 10  1  0  0  0
  9 12  1  0  0  0
 10 11  2  0  0  0
 10 15  1  0  0  0
 12 13  1  0  0  0
 12 14  1  0  0  0
 15 16  1  0  0  0
 16 17  1  0  0  0
 16 19  1  0  0  0
 17 18  2  0  0  0
 17 27  1  0  0  0
 19 20  1  0  0  0
 20 21  4  0  0  0
 20 22  4  0  0  0
 21 23  4  0  0  0
 22 24  4  0  0  0
 23 25  4  0  0  0
 24 25  4  0  0  0
 25 26  1  0  0  0
 27 28  1  0  0  0
 28 29  1  0  0  0
 28 31  1  0  0  0
 29 30  2  0  0  0
 29 32  1  0  0  0
 32 33  1  0  0  0
 33 34  1  0  0  0
 33 36  1  0  0  0
 34 35  2  0  0  0
 34 40  1  0  0  0
 36 37  1  0  0  0
 37 38  1  0  0  0
 37 39  2  0  0  0
 40 41  1  0  0  0
 41 42  1  0  0  0
 41 44  1  0  0  0
 42 43  2  0  0  0
 42 51  1  0  0  0
 44 45  1  0  0  0
 45 46  4  0  0  0
 45 47  4  0  0  0
 46 48  4  0  0  0
 47 49  4  0  0  0
 48 50  4  0  0  0
 49 50  4  0  0  0
 51 52  1  0  0  0
 52 53  1  0  0  0
 52 55  1  0  0  0
 53 54  2  0  0  0
 53 59  1  0  0  0
 55 56  1  0  0  0
 55 57  1  0  0  0
 56 58  1  0  0  0
 59 60  1  0  0  0
 60 61  1  0  0  0
 60 63  1  0  0  0
 61 62  2  0  0  0
 61 64  1  0  0  0
 64 65  1  0  0  0
 65 66  1  0  0  0
 65 68  1  0  0  0
 66 67  2  0  0  0
 66 70  1  0  0  0
 68 69  1  0  0  0
 70 71  1  0  0  0
 71 72  1  0  0  0
 72 73  2  0  0  0
 72 74  1  0  0  0
 74 75  1  0  0  0
 75 76  1  0  0  0
 75 78  1  0  0  0
 76 77  2  0  0  0
 76 85  1  0  0  0
 78 79  1  0  0  0
 79 80  1  0  0  0
 80 81  1  0  0  0
 81 82  1  0  0  0
 82 83  1  0  0  0
 82 84  2  0  0  0
 85 86  1  0  0  0
 86 87  1  0  0  0
 86 89  1  0  0  0
 87 88  2  0  0  0
 87 92  1  0  0  0
 89 90  1  0  0  0
 89 91  1  0  0  0
 92 93  1  0  0  0
 93 94  1  0  0  0
 94 95  2  0  0  0
 94 96  1  0  0  0
 96 97  1  0  0  0
 97 98  1  0  0  0
 97100  1  0  0  0
 98 99  2  0  0  0
 98107  1  0  0  0
100101  1  0  0  0
101102  1  0  0  0
102103  1  0  0  0
103104  1  0  0  0
104105  1  0  0  0
104106  2  0  0  0
107108  1  0  0  0
108109  1  0  0  0
108111  1  0  0  0
109110  2  0  0  0
109118  1  0  0  0
111112  1  0  0  0
112113  1  0  0  0
113114  1  0  0  0
114115  1  0  0  0
115116  1  0  0  0
115117  2  0  0  0
118119  1  0  0  0
119120  1  0  0  0
119122  1  0  0  0
120121  2  0  0  0
120124  1  0  0  0
122123  1  0  0  0
124125  1  0  0  0
125126  1  0  0  0
125128  1  0  0  0
126127  2  0  0  0
126129  1  0  0  0
129130  1  0  0  0
130131  1  0  0  0
130133  1  0  0  0
131132  1  0  0  0
131137  2  0  0  0
133134  1  0  0  0
133135  1  0  0  0
134136  1  0  0  0
  1138  1  0  0  0
  1139  1  0  0  0
  1140  1  0  0  0
  2141  1  0  0  0
  5142  1  0  0  0
  6143  1  0  0  0
  7144  1  0  0  0
  7145  1  0  0  0
  7146  1  0  0  0
  8147  1  0  0  0
  9148  1  0  0  0
 12149  1  0  0  0
 13150  1  0  0  0
 14151  1  0  0  0
 14152  1  0  0  0
 14153  1  0  0  0
 15154  1  0  0  0
 16155  1  0  0  0
 19156  1  0  0  0
 19157  1  0  0  0
 21158  1  0  0  0
 22159  1  0  0  0
 23160  1  0  0  0
 24161  1  0  0  0
 26162  1  0  0  0
 27163  1  0  0  0
 28164  1  0  0  0
 31165  1  0  0  0
 31166  1  0  0  0
 31167  1  0  0  0
 32168  1  0  0  0
 33169  1  0  0  0
 36170  1  0  0  0
 36171  1  0  0  0
 38172  1  0  0  0
 40173  1  0  0  0
 41174  1  0  0  0
 44175  1  0  0  0
 44176  1  0  0  0
 46177  1  0  0  0
 47178  1  0  0  0
 48179  1  0  0  0
 49180  1  0  0  0
 50181  1  0  0  0
 51182  1  0  0  0
 52183  1  0  0  0
 55184  1  0  0  0
 56185  1  0  0  0
 56186  1  0  0  0
 57187  1  0  0  0
 57188  1  0  0  0
 57189  1  0  0  0
 58190  1  0  0  0
 58191  1  0  0  0
 58192  1  0  0  0
 59193  1  0  0  0
 60194  1  0  0  0
 63195  1  0  0  0
 63196  1  0  0  0
 63197  1  0  0  0
 64198  1  0  0  0
 65199  1  0  0  0
 68200  1  0  0  0
 68201  1  0  0  0
 69202  1  0  0  0
 70203  1  0  0  0
 71204  1  0  0  0
 71205  1  0  0  0
 74206  1  0  0  0
 75207  1  0  0  0
 78208  1  0  0  0
 78209  1  0  0  0
 79210  1  0  0  0
 79211  1  0  0  0
 80212  1  0  0  0
 80213  1  0  0  0
 81214  1  0  0  0
 83215  1  0  0  0
 83216  1  0  0  0
 84217  1  0  0  0
 85218  1  0  0  0
 86219  1  0  0  0
 89220  1  0  0  0
 90221  1  0  0  0
 91222  1  0  0  0
 91223  1  0  0  0
 91224  1  0  0  0
 92225  1  0  0  0
 93226  1  0  0  0
 93227  1  0  0  0
 96228  1  0  0  0
 97229  1  0  0  0
100230  1  0  0  0
100231  1  0  0  0
101232  1  0  0  0
101233  1  0  0  0
102234  1  0  0  0
102235  1  0  0  0
103236  1  0  0  0
105237  1  0  0  0
105238  1  0  0  0
106239  1  0  0  0
107240  1  0  0  0
108241  1  0  0  0
111242  1  0  0  0
111243  1  0  0  0
112244  1  0  0  0
112245  1  0  0  0
113246  1  0  0  0
113247  1  0  0  0
114248  1  0  0  0
116249  1  0  0  0
116250  1  0  0  0
117251  1  0  0  0
118252  1  0  0  0
119253  1  0  0  0
122254  1  0  0  0
122255  1  0  0  0
123256  1  0  0  0
124257  1  0  0  0
125258  1  0  0  0
128259  1  0  0  0
128260  1  0  0  0
128261  1  0  0  0
129262  1  0  0  0
130263  1  0  0  0
132264  1  0  0  0
133265  1  0  0  0
134266  1  0  0  0
134267  1  0  0  0
135268  1  0  0  0
135269  1  0  0  0
135270  1  0  0  0
136271  1  0  0  0
136272  1  0  0  0
136273  1  0  0  0
M  END
$$$$
