5nve_ligand
  -I-interpret- 

 34 36  0  0  0  0  0  0  0  0999 V2000
    6.1810   38.1730    4.3100 C   0  0  0  0  0
    6.2340   37.6910    5.7620 C   0  0  0  0  0
    6.1890   38.8210    6.6320 O   0  0  0  0  0
    6.2970   38.4790    7.9500 C   0  0  0  0  0
    6.8780   39.3620    8.8470 C   0  0  0  0  0
    6.9950   39.0260   10.2010 C   0  0  0  0  0
    5.8120   37.2680    8.4090 C   0  0  0  0  0
    5.9290   36.9270    9.7560 C   0  0  0  0  0
    6.5340   37.7940   10.6640 C   0  0  0  0  0
    6.5940   37.4340   12.0250 C   0  0  0  0  0
    5.8050   36.4490   12.4690 N   0  0  0  0  0
    5.8170   36.0860   13.7680 C   0  0  0  0  0
    4.9720   35.0580   14.1640 C   0  0  0  0  0
    4.9320   34.6550   15.4830 C   0  0  0  0  0
    5.7350   35.2890   16.4190 C   0  0  0  0  0
    6.5920   36.3160   16.0250 C   0  0  0  0  0
    6.6330   36.7240   14.6990 C   0  0  0  0  0
    7.4930   37.7440   14.2590 C   0  0  0  0  0
    8.2640   38.3500   15.0110 O   0  0  0  0  0
    7.4510   38.0890   12.9150 N   0  0  0  0  0
    5.2562   38.7260    4.1456 H   0  0  0  0  0
    7.0340   38.8222    4.1127 H   0  0  0  0  0
    6.2151   37.3128    3.6415 H   0  0  0  0  0
    7.1568   37.1357    5.9302 H   0  0  0  0  0
    5.3833   37.0398    5.9631 H   0  0  0  0  0
    7.2467   40.3256    8.4953 H   0  0  0  0  0
    7.4489   39.7313   10.8972 H   0  0  0  0  0
    5.3357   36.5763    7.7141 H   0  0  0  0  0
    5.5419   35.9691   10.1035 H   0  0  0  0  0
    4.3360   34.5661   13.4281 H   0  0  0  0  0
    4.2725   33.8424   15.7877 H   0  0  0  0  0
    5.6962   34.9840   17.4647 H   0  0  0  0  0
    7.2327   36.8006   16.7618 H   0  0  0  0  0
    8.0564   38.8340   12.5703 H   0  0  0  0  0
  1  2  1  0  0  0
  2  3  1  0  0  0
  3  4  1  0  0  0
  4  5  4  0  0  0
  4  7  4  0  0  0
  5  6  4  0  0  0
  6  9  4  0  0  0
  7  8  4  0  0  0
  8  9  4  0  0  0
  9 10  1  0  0  0
 10 11  2  0  0  0
 10 20  1  0  0  0
 11 12  1  0  0  0
 12 13  4  0  0  0
 12 17  4  0  0  0
 13 14  4  0  0  0
 14 15  4  0  0  0
 15 16  4  0  0  0
 16 17  4  0  0  0
 17 18  1  0  0  0
 18 19  2  0  0  0
 18 20  1  0  0  0
  1 21  1  0  0  0
  1 22  1  0  0  0
  1 23  1  0  0  0
  2 24  1  0  0  0
  2 25  1  0  0  0
  5 26  1  0  0  0
  6 27  1  0  0  0
  7 28  1  0  0  0
  8 29  1  0  0  0
 13 30  1  0  0  0
 14 31  1  0  0  0
 15 32  1  0  0  0
 16 33  1  0  0  0
 20 34  1  0  0  0
M  END
$$$$
