2o0u_ligand
  -I-interpret- 

 63 67  0  0  0  0  0  0  0  0999 V2000
   23.1320    5.8960   31.0130 C   0  0  0  0  0
   22.7290    7.2980   31.3720 C   0  0  0  0  0
   26.9170    7.6100   28.7840 O   0  0  0  0  0
   26.2720    6.7640   29.4180 C   0  0  0  0  0
   26.9050    5.4460   29.9010 C   0  0  0  0  0
   27.9020    4.7870   28.9260 C   0  0  0  0  0
   29.0540    5.6690   28.6640 N   0  3  0  0  0
   30.0040    5.6230   29.7790 C   0  0  0  0  0
   31.0200    6.7470   29.5550 C   0  0  0  0  0
   31.7720    6.5450   28.2390 C   0  0  0  0  0
   30.8060    6.2910   27.0860 C   0  0  0  0  0
   29.7560    5.2330   27.4470 C   0  0  0  0  0
   24.9730    7.0110   29.7470 N   0  0  0  0  0
   23.9830    5.9310   29.7560 C   0  0  0  0  0
   24.5080    8.4170   29.8190 C   0  0  0  0  0
   23.4280    8.4700   30.8530 C   0  0  0  0  0
   22.8060    9.9570   31.4690 S   0  0  0  0  0
   21.6010    9.2120   32.4550 C   0  0  0  0  0
   21.7170    7.7510   32.3210 C   0  0  0  0  0
   21.0360    6.7750   32.9210 C   0  0  0  0  0
   20.4350    5.9530   33.4280 N   0  0  0  0  0
   20.7650    9.8310   33.2420 N   0  0  0  0  0
   20.7620   11.1620   33.4910 C   0  0  0  0  0
   21.3590   11.9900   32.8530 O   0  0  0  0  0
   19.8590   11.5170   34.6210 C   0  0  0  0  0
   19.8730   10.7560   35.8050 C   0  0  0  0  0
   18.9850   11.0330   36.8340 C   0  0  0  0  0
   18.0390   12.0350   36.7230 C   0  0  0  0  0
   18.8550   12.5920   34.4440 C   0  0  0  0  0
   18.7720   13.3800   33.2940 C   0  0  0  0  0
   17.8200   14.3740   33.2360 C   0  0  0  0  0
   16.9190   14.5980   34.3000 C   0  0  0  0  0
   16.9890   13.8410   35.4610 C   0  0  0  0  0
   17.9300   12.8170   35.5700 C   0  0  0  0  0
   22.2419    5.2920   30.8368 H   0  0  0  0  0
   23.7036    5.4576   31.8310 H   0  0  0  0  0
   26.0856    4.7388   30.0299 H   0  0  0  0  0
   27.4678    5.6860   30.8031 H   0  0  0  0  0
   27.3903    4.5938   27.9831 H   0  0  0  0  0
   28.2666    3.8624   29.3735 H   0  0  0  0  0
   28.7010    6.6191   28.5499 H   0  0  0  0  0
   30.5043    4.6554   29.8173 H   0  0  0  0  0
   29.4872    5.7565   30.7294 H   0  0  0  0  0
   31.7383    6.7400   30.3749 H   0  0  0  0  0
   30.4888    7.6979   29.5138 H   0  0  0  0  0
   32.4270    5.6798   28.3415 H   0  0  0  0  0
   32.3432    7.4477   28.0223 H   0  0  0  0  0
   31.3786    5.9287   26.2322 H   0  0  0  0  0
   30.2894    7.2237   26.8594 H   0  0  0  0  0
   29.0457    5.1190   26.6282 H   0  0  0  0  0
   30.2403    4.2720   27.6207 H   0  0  0  0  0
   23.3127    6.0954   28.9123 H   0  0  0  0  0
   24.5277    4.9883   29.7040 H   0  0  0  0  0
   24.1311    8.7479   28.8513 H   0  0  0  0  0
   25.3299    9.0811   30.0864 H   0  0  0  0  0
   20.0552    9.2660   33.7082 H   0  0  0  0  0
   20.5886    9.9411   35.9144 H   0  0  0  0  0
   19.0342   10.4469   37.7517 H   0  0  0  0  0
   17.3608   12.2198   37.5561 H   0  0  0  0  0
   19.4490   13.2114   32.4565 H   0  0  0  0  0
   17.7608   15.0027   32.3475 H   0  0  0  0  0
   16.1596   15.3746   34.2083 H   0  0  0  0  0
   16.3088   14.0465   36.2876 H   0  0  0  0  0
  1  2  1  0  0  0
 14  1  1  0  0  0
  2 16  4  0  0  0
  2 19  4  0  0  0
  4  3  2  0  0  0
  4  5  1  0  0  0
 13  4  1  0  0  0
  5  6  1  0  0  0
  6  7  1  0  0  0
  7  8  1  0  0  0
  7 12  1  0  0  0
  8  9  1  0  0  0
  9 10  1  0  0  0
 11 10  1  0  0  0
 12 11  1  0  0  0
 13 14  1  0  0  0
 13 15  1  0  0  0
 15 16  1  0  0  0
 16 17  4  0  0  0
 17 18  4  0  0  0
 18 19  4  0  0  0
 18 22  1  0  0  0
 19 20  1  0  0  0
 20 21  3  0  0  0
 22 23  1  0  0  0
 23 24  2  0  0  0
 23 25  1  0  0  0
 25 26  4  0  0  0
 25 29  4  0  0  0
 26 27  4  0  0  0
 27 28  4  0  0  0
 28 34  4  0  0  0
 29 30  4  0  0  0
 29 34  4  0  0  0
 30 31  4  0  0  0
 31 32  4  0  0  0
 32 33  4  0  0  0
 33 34  4  0  0  0
  1 35  1  0  0  0
  1 36  1  0  0  0
  5 37  1  0  0  0
  5 38  1  0  0  0
  6 39  1  0  0  0
  6 40  1  0  0  0
  7 41  1  0  0  0
  8 42  1  0  0  0
  8 43  1  0  0  0
  9 44  1  0  0  0
  9 45  1  0  0  0
 10 46  1  0  0  0
 10 47  1  0  0  0
 11 48  1  0  0  0
 11 49  1  0  0  0
 12 50  1  0  0  0
 12 51  1  0  0  0
 14 52  1  0  0  0
 14 53  1  0  0  0
 15 54  1  0  0  0
 15 55  1  0  0  0
 22 56  1  0  0  0
 26 57  1  0  0  0
 27 58  1  0  0  0
 28 59  1  0  0  0
 30 60  1  0  0  0
 31 61  1  0  0  0
 32 62  1  0  0  0
 33 63  1  0  0  0
M  END
$$$$
