4lsj_ligand
  -I-interpret- 

 56 59  0  0  0  0  0  0  0  0999 V2000
   -9.1740   14.2250  -16.5000 C   0  0  0  0  0
   -7.9120   14.8410  -16.4530 O   0  0  0  0  0
   -6.8020   14.0170  -16.4910 C   0  0  0  0  0
   -6.7850   12.6650  -16.7010 C   0  0  0  0  0
   -5.5940   12.0100  -16.7190 C   0  0  0  0  0
   -4.4030   12.6380  -16.5080 C   0  0  0  0  0
   -4.4110   13.9790  -16.2880 C   0  0  0  0  0
   -5.6050   14.6400  -16.2820 C   0  0  0  0  0
   -7.9600   11.9160  -16.9820 C   0  0  0  0  0
   -8.3130   10.8130  -16.3060 C   0  0  0  0  0
   -9.4730   10.0280  -16.6560 C   0  0  0  0  0
  -10.7540   10.4690  -16.8060 C   0  0  0  0  0
  -11.7690    9.6150  -17.1540 C   0  0  0  0  0
  -11.5550    8.2830  -17.3560 C   0  0  0  0  0
  -10.2680    7.8450  -17.2070 C   0  0  0  0  0
   -9.2700    8.7030  -16.8690 C   0  0  0  0  0
   -9.8420    6.5160  -17.3460 N   0  0  0  0  0
  -10.3490    5.4460  -18.5130 S   0  0  0  0  0
   -9.7070    4.2270  -18.3310 O   0  0  0  0  0
  -11.7420    5.4420  -18.6400 O   0  0  0  0  0
   -9.6480    6.2070  -19.8930 C   0  0  0  0  0
   -7.5180   10.2320  -15.2140 C   0  0  0  0  0
   -8.3450    9.7840  -14.0500 C   0  0  0  0  0
   -8.7940   12.3780  -18.0620 C   0  0  0  0  0
   -9.4230   13.5670  -17.8130 C   0  0  0  0  0
  -10.2500   14.0790  -18.7730 C   0  0  0  0  0
  -10.4430   13.4270  -19.9600 C   0  0  0  0  0
   -9.8020   12.2530  -20.1960 C   0  0  0  0  0
   -8.9740   11.7180  -19.2510 C   0  0  0  0  0
   -8.3090   10.5560  -19.4850 O   0  0  0  0  0
   -8.9570    9.8360  -20.4640 C   0  0  0  0  0
   -9.9342   14.9921  -16.3528 H   0  0  0  0  0
   -9.2106   13.4615  -15.7229 H   0  0  0  0  0
   -5.5914   10.9369  -16.9103 H   0  0  0  0  0
   -3.4675   12.0787  -16.5155 H   0  0  0  0  0
   -3.4788   14.5180  -16.1190 H   0  0  0  0  0
   -5.6030   15.7150  -16.1020 H   0  0  0  0  0
  -10.9766   11.5239  -16.6458 H   0  0  0  0  0
  -12.7770   10.0125  -17.2728 H   0  0  0  0  0
  -12.3657    7.6046  -17.6217 H   0  0  0  0  0
   -8.2592    8.3088  -16.7640 H   0  0  0  0  0
   -9.1590    6.1749  -16.6696 H   0  0  0  0  0
   -8.5830    6.3610  -19.7196 H   0  0  0  0  0
   -9.7868    5.5706  -20.7670 H   0  0  0  0  0
  -10.1328    7.1686  -20.0615 H   0  0  0  0  0
   -6.8378   11.0047  -14.8557 H   0  0  0  0  0
   -7.0065    9.3549  -15.6106 H   0  0  0  0  0
   -8.8884   10.6365  -13.6425 H   0  0  0  0  0
   -9.0533    9.0242  -14.3802 H   0  0  0  0  0
   -7.6935    9.3662  -13.2825 H   0  0  0  0  0
  -10.7643   15.0224  -18.5899 H   0  0  0  0  0
  -11.1086   13.8480  -20.7135 H   0  0  0  0  0
   -9.9492   11.7355  -21.1440 H   0  0  0  0  0
   -9.9719    9.6112  -20.1362 H   0  0  0  0  0
   -8.9919   10.4229  -21.3819 H   0  0  0  0  0
   -8.4182    8.9061  -20.6461 H   0  0  0  0  0
  1  2  1  0  0  0
  1 25  1  0  0  0
  2  3  1  0  0  0
  3  4  4  0  0  0
  3  8  4  0  0  0
  4  5  4  0  0  0
  4  9  1  0  0  0
  5  6  4  0  0  0
  6  7  4  0  0  0
  7  8  4  0  0  0
  9 10  2  0  0  0
  9 24  1  0  0  0
 10 11  1  0  0  0
 10 22  1  0  0  0
 11 12  4  0  0  0
 11 16  4  0  0  0
 12 13  4  0  0  0
 13 14  4  0  0  0
 14 15  4  0  0  0
 15 16  4  0  0  0
 15 17  1  0  0  0
 17 18  1  0  0  0
 18 19  2  0  0  0
 18 20  2  0  0  0
 18 21  1  0  0  0
 22 23  1  0  0  0
 24 25  4  0  0  0
 24 29  4  0  0  0
 25 26  4  0  0  0
 26 27  4  0  0  0
 27 28  4  0  0  0
 28 29  4  0  0  0
 29 30  1  0  0  0
 30 31  1  0  0  0
  1 32  1  0  0  0
  1 33  1  0  0  0
  5 34  1  0  0  0
  6 35  1  0  0  0
  7 36  1  0  0  0
  8 37  1  0  0  0
 12 38  1  0  0  0
 13 39  1  0  0  0
 14 40  1  0  0  0
 16 41  1  0  0  0
 17 42  1  0  0  0
 21 43  1  0  0  0
 21 44  1  0  0  0
 21 45  1  0  0  0
 22 46  1  0  0  0
 22 47  1  0  0  0
 23 48  1  0  0  0
 23 49  1  0  0  0
 23 50  1  0  0  0
 26 51  1  0  0  0
 27 52  1  0  0  0
 28 53  1  0  0  0
 31 54  1  0  0  0
 31 55  1  0  0  0
 31 56  1  0  0  0
M  END
$$$$
