### 
### Created by X-TOOL on Mon Sep 10 21:12:48 2018
### 

@<TRIPOS>MOLECULE
1kf0_ligand
   45    47     1     0     0
SMALL
GAST_HUCK


@<TRIPOS>ATOM
      1 PG          9.5650   -0.7210   24.4990 P.3       1 ACP         0.0781
      2 O1G         9.5580   -1.9430   25.3310 O.co2     1 ACP        -0.5611
      3 O2G         8.2190   -0.1530   24.2760 O.co2     1 ACP        -0.5611
      4 O3G        10.5680    0.2770   24.9220 O.co2     1 ACP        -0.5611
      5 PB          9.7390   -0.1940   21.4120 P.3       1 ACP         0.1787
      6 O1B         8.6580   -0.8620   20.6200 O.co2     1 ACP        -0.6143
      7 O2B        11.0430    0.1630   20.7530 O.co2     1 ACP        -0.6143
      8 C3B        10.1320   -1.2880   22.8410 C.3       1 ACP         0.1130
      9 PA          9.4590    2.6690   21.9500 P.3       1 ACP         0.2952
     10 O1A        10.7040    2.9020   22.6890 O.co2     1 ACP        -0.6125
     11 O2A         9.3130    3.1580   20.5720 O.co2     1 ACP        -0.6125
     12 O3A         9.1310    1.1160   21.9790 O.3       1 ACP        -0.1584
     13 O5          8.2720    3.2090   22.8060 O.3       1 ACP        -0.2475
     14 C5          6.8950    3.1420   22.3850 C.3       1 ACP         0.1128
     15 C4          6.0380    2.8650   23.5820 C.3       1 ACP         0.1189
     16 O4          6.1960    3.9950   24.4600 O.3       1 ACP        -0.3364
     17 C3          4.5590    2.7680   23.2980 C.3       1 ACP         0.1149
     18 O3          4.1120    1.4180   23.5260 O.3       1 ACP        -0.3864
     19 C2          3.9210    3.7810   24.2320 C.3       1 ACP         0.1385
     20 O2          2.8200    3.2690   24.9720 O.3       1 ACP        -0.3836
     21 C1          5.0270    4.1220   25.2540 C.3       1 ACP         0.2010
     22 N9          4.9600    5.5180   25.7800 N.pl3     1 ACP        -0.1919
     23 C8          4.8440    6.7060   25.0930 C.2       1 ACP         0.1123
     24 N7          4.8110    7.7710   25.8340 N.2       1 ACP        -0.2958
     25 C5          4.9120    7.2540   27.1120 C.ar      1 ACP         0.1045
     26 C6          4.9370    7.8660   28.4010 C.ar      1 ACP         0.1298
     27 N6          4.8530    9.1810   28.5340 N.pl3     1 ACP        -0.3152
     28 N1          5.0480    7.0740   29.5010 N.ar      1 ACP        -0.2698
     29 C2          5.1320    5.7460   29.3510 C.ar      1 ACP         0.0533
     30 N3          5.1200    5.0430   28.2000 N.ar      1 ACP        -0.2714
     31 C4          5.0060    5.8800   27.0980 C.ar      1 ACP         0.1613
     32 H1          9.6697   -2.2672   22.6478 H         1 ACP         0.0680
     33 H2         11.2254   -1.4006   22.8834 H         1 ACP         0.0680
     34 H3          6.7725    2.3349   21.6477 H         1 ACP         0.0648
     35 H4          6.5996    4.1000   21.9324 H         1 ACP         0.0648
     36 H5          6.3778    1.9369   24.0648 H         1 ACP         0.0651
     37 H6          4.3473    3.0402   22.2535 H         1 ACP         0.0648
     38 H7          3.1809    1.3593   23.3466 H         1 ACP         0.2100
     39 H8          3.6055    4.6701   23.6664 H         1 ACP         0.0676
     40 H9          2.1451    2.9756   24.3712 H         1 ACP         0.2101
     41 H10         5.0182    3.4114   26.0936 H         1 ACP         0.0996
     42 H11         4.7843    6.7487   24.0065 H         1 ACP         0.1349
     43 H12         4.8726    9.6061   29.4720 H         1 ACP         0.1820
     44 H13         4.7681    9.7787   27.6994 H         1 ACP         0.1820
     45 H14         5.2201    5.1671   30.2632 H         1 ACP         0.0996
@<TRIPOS>BOND
     1    1    2 ar 
     2    1    3 ar 
     3    1    4 ar 
     4    8    1 1  
     5    5    6 ar 
     6    5    7 ar 
     7    5    8 1  
     8   12    5 1  
     9    9   10 ar 
    10    9   11 ar 
    11    9   12 1  
    12    9   13 1  
    13   13   14 1  
    14   14   15 1  
    15   15   16 1  
    16   15   17 1  
    17   16   21 1  
    18   17   18 1  
    19   17   19 1  
    20   19   20 1  
    21   19   21 1  
    22   21   22 1  
    23   22   23 1  
    24   22   31 1  
    25   23   24 2  
    26   24   25 1  
    27   25   26 ar 
    28   25   31 ar 
    29   26   27 1  
    30   26   28 ar 
    31   28   29 ar 
    32   29   30 ar 
    33   30   31 ar 
    34    8   32 1  
    35    8   33 1  
    36   14   34 1  
    37   14   35 1  
    38   15   36 1  
    39   17   37 1  
    40   18   38 1  
    41   19   39 1  
    42   20   40 1  
    43   21   41 1  
    44   23   42 1  
    45   27   43 1  
    46   27   44 1  
    47   29   45 1  
@<TRIPOS>SUBSTRUCTURE
     1 ACP         1

