1kf0_ligand
  -I-interpret- 

 49 51  0  0  0  0  0  0  0  0999 V2000
    9.5650   -0.7210   24.4990 P   0  0  0  0  0
    9.5580   -1.9430   25.3310 O   0  0  0  0  0
    8.2190   -0.1530   24.2760 O   0  0  0  0  0
   10.5680    0.2770   24.9220 O   0  0  0  0  0
    9.7390   -0.1940   21.4120 P   0  0  0  0  0
    8.6580   -0.8620   20.6200 O   0  0  0  0  0
   11.0430    0.1630   20.7530 O   0  0  0  0  0
   10.1320   -1.2880   22.8410 C   0  0  0  0  0
    9.4590    2.6690   21.9500 P   0  0  0  0  0
   10.7040    2.9020   22.6890 O   0  0  0  0  0
    9.3130    3.1580   20.5720 O   0  0  0  0  0
    9.1310    1.1160   21.9790 O   0  0  0  0  0
    8.2720    3.2090   22.8060 O   0  0  0  0  0
    6.8950    3.1420   22.3850 C   0  0  0  0  0
    6.0380    2.8650   23.5820 C   0  0  0  0  0
    6.1960    3.9950   24.4600 O   0  0  0  0  0
    4.5590    2.7680   23.2980 C   0  0  0  0  0
    4.1120    1.4180   23.5260 O   0  0  0  0  0
    3.9210    3.7810   24.2320 C   0  0  0  0  0
    2.8200    3.2690   24.9720 O   0  0  0  0  0
    5.0270    4.1220   25.2540 C   0  0  0  0  0
    4.9600    5.5180   25.7800 N   0  0  0  0  0
    4.8440    6.7060   25.0930 C   0  0  0  0  0
    4.8110    7.7710   25.8340 N   0  0  0  0  0
    4.9120    7.2540   27.1120 C   0  0  0  0  0
    4.9370    7.8660   28.4010 C   0  0  0  0  0
    4.8530    9.1810   28.5340 N   0  0  0  0  0
    5.0480    7.0740   29.5010 N   0  0  0  0  0
    5.1320    5.7460   29.3510 C   0  0  0  0  0
    5.1200    5.0430   28.2000 N   0  0  0  0  0
    5.0060    5.8800   27.0980 C   0  0  0  0  0
    8.8872   -2.5472   25.0046 H   0  0  0  0  0
    7.6191   -0.8516   24.0046 H   0  0  0  0  0
   11.6210    0.5811   21.3954 H   0  0  0  0  0
    9.6123   -2.2272   22.6514 H   0  0  0  0  0
   11.2198   -1.3317   22.8949 H   0  0  0  0  0
    8.4437    2.9217   20.2402 H   0  0  0  0  0
    6.7715    2.3467   21.6499 H   0  0  0  0  0
    6.6009    4.0882   21.9308 H   0  0  0  0  0
    6.3550    1.9024   23.9832 H   0  0  0  0  0
    4.2910    2.9892   22.2649 H   0  0  0  0  0
    3.1711    1.3587   23.3448 H   0  0  0  0  0
    3.5451    4.6178   23.6434 H   0  0  0  0  0
    2.4677    3.9595   25.5383 H   0  0  0  0  0
    4.9632    3.4871   26.1377 H   0  0  0  0  0
    4.7842    6.7487   24.0055 H   0  0  0  0  0
    4.7689    9.7729   27.7075 H   0  0  0  0  0
    4.8724    9.6019   29.4629 H   0  0  0  0  0
    5.2206    5.1639   30.2683 H   0  0  0  0  0
  1  2  1  0  0  0
  1  3  1  0  0  0
  1  4  2  0  0  0
  8  1  1  0  0  0
  5  6  2  0  0  0
  5  7  1  0  0  0
  5  8  1  0  0  0
 12  5  1  0  0  0
  9 10  2  0  0  0
  9 11  1  0  0  0
  9 12  1  0  0  0
  9 13  1  0  0  0
 13 14  1  0  0  0
 14 15  1  0  0  0
 15 16  1  0  0  0
 15 17  1  0  0  0
 16 21  1  0  0  0
 17 18  1  0  0  0
 17 19  1  0  0  0
 19 20  1  0  0  0
 19 21  1  0  0  0
 21 22  1  0  0  0
 22 23  4  0  0  0
 22 31  4  0  0  0
 23 24  4  0  0  0
 24 25  4  0  0  0
 25 26  4  0  0  0
 25 31  4  0  0  0
 26 27  1  0  0  0
 26 28  4  0  0  0
 28 29  4  0  0  0
 29 30  4  0  0  0
 30 31  4  0  0  0
  2 32  1  0  0  0
  3 33  1  0  0  0
  7 34  1  0  0  0
  8 35  1  0  0  0
  8 36  1  0  0  0
 11 37  1  0  0  0
 14 38  1  0  0  0
 14 39  1  0  0  0
 15 40  1  0  0  0
 17 41  1  0  0  0
 18 42  1  0  0  0
 19 43  1  0  0  0
 20 44  1  0  0  0
 21 45  1  0  0  0
 23 46  1  0  0  0
 27 47  1  0  0  0
 27 48  1  0  0  0
 29 49  1  0  0  0
M  END
$$$$
