### 
### Created by X-TOOL on Mon Sep 10 21:13:10 2018
### 

@<TRIPOS>MOLECULE
3u4h_ligand
   56    60     1     0     0
SMALL
GAST_HUCK


@<TRIPOS>ATOM
      1 N1         -1.2180    0.8440   -0.8780 N.pl3     1 C8R        -0.0838
      2 C2         -2.4800    0.8380   -1.3420 C.2       1 C8R         0.1851
      3 N3         -2.9570   -0.0600   -2.2220 N.2       1 C8R        -0.2192
      4 C4         -2.1630   -1.0480   -2.7150 C.2       1 C8R         0.1319
      5 C5         -0.7630   -1.1460   -2.2750 C.2       1 C8R         0.2248
      6 C6         -0.3030   -0.1290   -1.3210 C.2       1 C8R         0.3631
      7 O6          0.9580   -0.1910   -0.8750 O.3       1 C8R        -0.2183
      8 N7         -0.1870   -2.1970   -2.8920 N.2       1 C8R        -0.1996
      9 C8         -1.1740   -2.6920   -3.6460 C.2       1 C8R         0.2042
     10 N8         -0.9730   -3.7690   -4.4360 N.pl3     1 C8R        -0.2728
     11 N9         -2.3490   -2.0590   -3.5590 N.2       1 C8R        -0.2863
     12 PA         -4.3270    2.9980   -6.2170 P.3       1 C8R         0.2972
     13 PB         -4.1400    4.1400   -3.5330 P.3       1 C8R         0.2972
     14 C1'        -3.5810   -2.3360   -4.3020 C.3       1 C8R         0.1293
     15 O1A        -5.7680    3.3900   -6.4200 O.co2     1 C8R        -0.6127
     16 O1B        -5.5650    3.6300   -3.3390 O.co2     1 C8R        -0.6127
     17 C1D        -0.7980    1.9120    0.0490 C.3       1 C8R         0.2277
     18 C2'        -4.8210   -1.9440   -3.5250 C.3       1 C8R         0.1149
     19 O2'        -5.7460   -3.0130   -3.7070 O.3       1 C8R        -0.3862
     20 O2A        -3.4120    3.1060   -7.4010 O.co2     1 C8R        -0.6127
     21 O2B        -3.7730    5.5780   -3.2300 O.co2     1 C8R        -0.6127
     22 C2D         0.5540    2.4120   -0.4530 C.3       1 C8R         0.1423
     23 O2D         1.4310    2.7130    0.6390 O.3       1 C8R        -0.3833
     24 C3'        -5.3610   -0.7080   -4.2190 C.3       1 C8R         0.1124
     25 O3'        -6.7860   -0.7160   -4.2600 O.3       1 C8R        -0.3865
     26 O3A        -3.6340    3.9150   -5.0590 O.3       1 C8R        -0.1319
     27 C3D         0.3050    3.6680   -1.2800 C.3       1 C8R         0.1152
     28 O3D         0.9000    4.8340   -0.6890 O.3       1 C8R        -0.3864
     29 C4'        -4.7890   -0.8470   -5.6140 C.3       1 C8R         0.1162
     30 O4'        -3.4970   -1.4260   -5.4060 O.3       1 C8R        -0.3595
     31 C4D        -1.2060    3.8300   -1.2980 C.3       1 C8R         0.1191
     32 O4D        -1.6870    3.0050   -0.2210 O.3       1 C8R        -0.3335
     33 C5'        -4.7400    0.4620   -6.3920 C.3       1 C8R         0.1127
     34 O5'        -4.2320    1.5290   -5.6000 O.3       1 C8R        -0.2476
     35 C5D        -1.7310    3.4330   -2.6830 C.3       1 C8R         0.1128
     36 O5D        -3.1430    3.1670   -2.7150 O.3       1 C8R        -0.2476
     37 H1         -3.1591    1.6096   -0.9822 H         1 C8R         0.1786
     38 H2          1.4064   -0.9149   -1.2962 H         1 C8R         0.3033
     39 H3         -0.0474   -4.2199   -4.4663 H         1 C8R         0.2206
     40 H4         -1.7453   -4.1394   -5.0081 H         1 C8R         0.2206
     41 H5         -3.6335   -3.3879   -4.6192 H         1 C8R         0.0686
     42 H6         -0.7871    1.5959    1.1025 H         1 C8R         0.1041
     43 H7         -4.6116   -1.7595   -2.4610 H         1 C8R         0.0650
     44 H8         -6.5487   -2.8191   -3.2375 H         1 C8R         0.2100
     45 H9          1.0189    1.6396   -1.0832 H         1 C8R         0.0679
     46 H10         1.0395    3.3875    1.1815 H         1 C8R         0.2101
     47 H11        -5.0093    0.2118   -3.7289 H         1 C8R         0.0647
     48 H12        -7.0837   -1.4833   -4.7344 H         1 C8R         0.2100
     49 H13         0.6963    3.5358   -2.2995 H         1 C8R         0.0648
     50 H14         0.5322    4.9720    0.1759 H         1 C8R         0.2100
     51 H15        -5.4115   -1.5476   -6.1899 H         1 C8R         0.0650
     52 H16        -1.4824    4.8771   -1.1052 H         1 C8R         0.0651
     53 H17        -5.7573    0.7176   -6.7232 H         1 C8R         0.0648
     54 H18        -4.0908    0.3301   -7.2701 H         1 C8R         0.0648
     55 H19        -1.2001    2.5261   -3.0080 H         1 C8R         0.0648
     56 H20        -1.5171    4.2540   -3.3832 H         1 C8R         0.0648
@<TRIPOS>BOND
     1    2    1 1  
     2    6    1 1  
     3    1   17 1  
     4    3    2 2  
     5    4    3 1  
     6    4    5 1  
     7   11    4 2  
     8    5    6 2  
     9    8    5 1  
    10    6    7 1  
    11    9    8 2  
    12    9   10 1  
    13   11    9 1  
    14   14   11 1  
    15   12   15 ar 
    16   12   20 ar 
    17   12   26 1  
    18   34   12 1  
    19   13   16 ar 
    20   13   21 ar 
    21   26   13 1  
    22   13   36 1  
    23   14   18 1  
    24   30   14 1  
    25   17   22 1  
    26   17   32 1  
    27   18   19 1  
    28   24   18 1  
    29   22   23 1  
    30   22   27 1  
    31   24   25 1  
    32   29   24 1  
    33   27   28 1  
    34   31   27 1  
    35   29   30 1  
    36   33   29 1  
    37   32   31 1  
    38   31   35 1  
    39   33   34 1  
    40   35   36 1  
    41    2   37 1  
    42    7   38 1  
    43   10   39 1  
    44   10   40 1  
    45   14   41 1  
    46   17   42 1  
    47   18   43 1  
    48   19   44 1  
    49   22   45 1  
    50   23   46 1  
    51   24   47 1  
    52   25   48 1  
    53   27   49 1  
    54   28   50 1  
    55   29   51 1  
    56   31   52 1  
    57   33   53 1  
    58   33   54 1  
    59   35   55 1  
    60   35   56 1  
@<TRIPOS>SUBSTRUCTURE
     1 C8R         1

