3u4h_ligand
  -I-interpret- 

 58 62  0  0  0  0  0  0  0  0999 V2000
   -1.2180    0.8440   -0.8780 N   0  0  0  0  0
   -2.4800    0.8380   -1.3420 C   0  0  0  0  0
   -2.9570   -0.0600   -2.2220 N   0  0  0  0  0
   -2.1630   -1.0480   -2.7150 C   0  0  0  0  0
   -0.7630   -1.1460   -2.2750 C   0  0  0  0  0
   -0.3030   -0.1290   -1.3210 C   0  0  0  0  0
    0.9580   -0.1910   -0.8750 O   0  0  0  0  0
   -0.1870   -2.1970   -2.8920 N   0  0  0  0  0
   -1.1740   -2.6920   -3.6460 C   0  0  0  0  0
   -0.9730   -3.7690   -4.4360 N   0  0  0  0  0
   -2.3490   -2.0590   -3.5590 N   0  3  0  0  0
   -4.3270    2.9980   -6.2170 P   0  0  0  0  0
   -4.1400    4.1400   -3.5330 P   0  0  0  0  0
   -3.5810   -2.3360   -4.3020 C   0  0  0  0  0
   -5.7680    3.3900   -6.4200 O   0  0  0  0  0
   -5.5650    3.6300   -3.3390 O   0  0  0  0  0
   -0.7980    1.9120    0.0490 C   0  0  0  0  0
   -4.8210   -1.9440   -3.5250 C   0  0  0  0  0
   -5.7460   -3.0130   -3.7070 O   0  0  0  0  0
   -3.4120    3.1060   -7.4010 O   0  0  0  0  0
   -3.7730    5.5780   -3.2300 O   0  0  0  0  0
    0.5540    2.4120   -0.4530 C   0  0  0  0  0
    1.4310    2.7130    0.6390 O   0  0  0  0  0
   -5.3610   -0.7080   -4.2190 C   0  0  0  0  0
   -6.7860   -0.7160   -4.2600 O   0  0  0  0  0
   -3.6340    3.9150   -5.0590 O   0  0  0  0  0
    0.3050    3.6680   -1.2800 C   0  0  0  0  0
    0.9000    4.8340   -0.6890 O   0  0  0  0  0
   -4.7890   -0.8470   -5.6140 C   0  0  0  0  0
   -3.4970   -1.4260   -5.4060 O   0  0  0  0  0
   -1.2060    3.8300   -1.2980 C   0  0  0  0  0
   -1.6870    3.0050   -0.2210 O   0  0  0  0  0
   -4.7400    0.4620   -6.3920 C   0  0  0  0  0
   -4.2320    1.5290   -5.6000 O   0  0  0  0  0
   -1.7310    3.4330   -2.6830 C   0  0  0  0  0
   -3.1430    3.1670   -2.7150 O   0  0  0  0  0
   -3.1597    1.6103   -0.9819 H   0  0  0  0  0
    1.4112   -0.9225   -1.3006 H   0  0  0  0  0
   -0.0573   -4.2175   -4.4636 H   0  0  0  0  0
   -1.7369   -4.1339   -5.0049 H   0  0  0  0  0
   -3.6602   -3.3953   -4.5463 H   0  0  0  0  0
   -6.2480    3.2782   -5.5961 H   0  0  0  0  0
   -5.6070    2.7017   -3.5800 H   0  0  0  0  0
   -0.7811    1.5807    1.0873 H   0  0  0  0  0
   -4.6412   -1.7570   -2.4663 H   0  0  0  0  0
   -6.5572   -2.8170   -3.2325 H   0  0  0  0  0
    1.0324    1.6384   -1.0537 H   0  0  0  0  0
    2.2719    3.0245    0.2962 H   0  0  0  0  0
   -5.0903    0.2211   -3.7173 H   0  0  0  0  0
   -7.0967    0.0765   -4.7039 H   0  0  0  0  0
    0.7440    3.5685   -2.2727 H   0  0  0  0  0
    0.7192    5.5986   -1.2406 H   0  0  0  0  0
   -5.4229   -1.4685   -6.2465 H   0  0  0  0  0
   -1.5519    4.8519   -1.1422 H   0  0  0  0  0
   -5.7546    0.7162   -6.6989 H   0  0  0  0  0
   -4.0796    0.3268   -7.2486 H   0  0  0  0  0
   -1.2210    2.5142   -2.9724 H   0  0  0  0  0
   -1.5433    4.2714   -3.3538 H   0  0  0  0  0
  2  1  4  0  0  0
  6  1  4  0  0  0
  1 17  1  0  0  0
  3  2  4  0  0  0
  4  3  4  0  0  0
  4  5  1  0  0  0
 11  4  4  0  0  0
  5  6  4  0  0  0
  8  5  4  0  0  0
  6  7  1  0  0  0
  9  8  4  0  0  0
  9 10  1  0  0  0
 11  9  4  0  0  0
 14 11  1  0  0  0
 12 15  1  0  0  0
 12 20  2  0  0  0
 12 26  1  0  0  0
 34 12  1  0  0  0
 13 16  1  0  0  0
 13 21  2  0  0  0
 26 13  1  0  0  0
 13 36  1  0  0  0
 14 18  1  0  0  0
 30 14  1  0  0  0
 17 22  1  0  0  0
 17 32  1  0  0  0
 18 19  1  0  0  0
 24 18  1  0  0  0
 22 23  1  0  0  0
 22 27  1  0  0  0
 24 25  1  0  0  0
 29 24  1  0  0  0
 27 28  1  0  0  0
 31 27  1  0  0  0
 29 30  1  0  0  0
 33 29  1  0  0  0
 32 31  1  0  0  0
 31 35  1  0  0  0
 33 34  1  0  0  0
 35 36  1  0  0  0
  2 37  1  0  0  0
  7 38  1  0  0  0
 10 39  1  0  0  0
 10 40  1  0  0  0
 14 41  1  0  0  0
 15 42  1  0  0  0
 16 43  1  0  0  0
 17 44  1  0  0  0
 18 45  1  0  0  0
 19 46  1  0  0  0
 22 47  1  0  0  0
 23 48  1  0  0  0
 24 49  1  0  0  0
 25 50  1  0  0  0
 27 51  1  0  0  0
 28 52  1  0  0  0
 29 53  1  0  0  0
 31 54  1  0  0  0
 33 55  1  0  0  0
 33 56  1  0  0  0
 35 57  1  0  0  0
 35 58  1  0  0  0
M  END
$$$$
