6cyd_ligand
  -I-interpret- 

 40 42  0  0  0  0  0  0  0  0999 V2000
   33.4630   -7.1900   14.0940 C   0  0  0  0  0
   30.3490   -5.5350   13.5910 C   0  0  0  0  0
   30.9670   -3.1560   13.0390 C   0  0  0  0  0
   31.0090   -1.3980   14.6880 C   0  0  0  0  0
   30.3720   -3.6440   15.2980 C   0  0  0  0  0
   31.3040    0.0150   15.0640 C   0  0  0  0  0
   29.4010   -6.3630   14.4590 C   0  0  0  0  0
   34.5690   -7.7430   14.9270 C   0  0  0  0  0
   34.0240   -8.1780   11.6410 C   0  0  0  0  0
   31.7170   -7.4740    8.7900 C   0  0  0  0  0
   35.0540   -8.8290   11.7610 O   0  0  0  0  0
   33.3590   -7.4530   12.6940 C   0  0  0  0  0
   33.4020   -8.1070   10.4080 N   0  0  0  0  0
   32.2650   -7.4220   10.1730 C   0  0  0  0  0
   31.6000   -6.7230   11.0990 N   0  0  0  0  0
   32.1710   -6.7810   12.3220 C   0  0  0  0  0
   31.6610   -6.2190   13.4460 N   0  0  0  0  0
   32.4590   -6.4560   14.5380 N   0  0  0  0  0
   35.6860   -6.8720   14.9790 O   0  0  0  0  0
   30.5670   -4.0840   13.9920 C   0  0  0  0  0
   30.5850   -2.3170   15.6410 C   0  0  0  0  0
   30.3550    0.8390   14.7090 F   0  0  0  0  0
   31.5000    0.1920   16.3630 F   0  0  0  0  0
   32.3660    0.4640   14.4870 F   0  0  0  0  0
   31.1850   -1.8310   13.3800 C   0  0  0  0  0
   29.8224   -5.4731   12.6387 H   0  0  0  0  0
   31.1116   -3.4752   12.0069 H   0  0  0  0  0
   30.0477   -4.3514   16.0612 H   0  0  0  0  0
   29.2422   -7.3363   13.9948 H   0  0  0  0  0
   29.8399   -6.4978   15.4476 H   0  0  0  0  0
   28.4474   -5.8431   14.5512 H   0  0  0  0  0
   34.8924   -8.6835   14.4809 H   0  0  0  0  0
   34.1952   -7.8766   15.9421 H   0  0  0  0  0
   30.7215   -7.9174    8.8114 H   0  0  0  0  0
   31.6574   -6.4634    8.3860 H   0  0  0  0  0
   32.3723   -8.0791    8.1634 H   0  0  0  0  0
   33.8305   -8.6042    9.6272 H   0  0  0  0  0
   36.3720   -7.2653   15.5234 H   0  0  0  0  0
   30.4183   -1.9916   16.6678 H   0  0  0  0  0
   31.4978   -1.1212   12.6142 H   0  0  0  0  0
  1  8  1  0  0  0
 12  1  4  0  0  0
  1 18  4  0  0  0
  2  7  1  0  0  0
 17  2  1  0  0  0
  2 20  1  0  0  0
 20  3  4  0  0  0
  3 25  4  0  0  0
  4  6  1  0  0  0
 21  4  4  0  0  0
 25  4  4  0  0  0
 20  5  4  0  0  0
  5 21  4  0  0  0
  6 22  1  0  0  0
  6 23  1  0  0  0
  6 24  1  0  0  0
  8 19  1  0  0  0
  9 11  2  0  0  0
 12  9  1  0  0  0
  9 13  1  0  0  0
 14 10  1  0  0  0
 16 12  4  0  0  0
 14 13  1  0  0  0
 15 14  2  0  0  0
 16 15  1  0  0  0
 16 17  4  0  0  0
 17 18  4  0  0  0
  2 26  1  0  0  0
  3 27  1  0  0  0
  5 28  1  0  0  0
  7 29  1  0  0  0
  7 30  1  0  0  0
  7 31  1  0  0  0
  8 32  1  0  0  0
  8 33  1  0  0  0
 10 34  1  0  0  0
 10 35  1  0  0  0
 10 36  1  0  0  0
 13 37  1  0  0  0
 19 38  1  0  0  0
 21 39  1  0  0  0
 25 40  1  0  0  0
M  END
$$$$
