6bky_ligand
  -I-interpret- 

 16 17  0  0  0  0  0  0  0  0999 V2000
   19.7600   18.1760   26.4550 Br  0  0  0  0  0
   19.4940   16.9850   28.0180 C   0  0  0  0  0
   18.3200   16.5250   28.6350 C   0  0  0  0  0
   16.6920   17.1150   27.7780 Br  0  0  0  0  0
   20.6200   16.5220   28.6550 C   0  0  0  0  0
   21.9380   16.7520   28.3210 N   0  0  0  0  0
   22.7600   16.0980   29.1930 C   0  0  0  0  0
   23.9870   16.1090   29.1970 O   0  0  0  0  0
   21.9360   15.4380   30.0640 N   0  0  0  0  0
   20.6160   15.6830   29.7520 C   0  0  0  0  0
   19.4890   15.2240   30.3960 C   0  0  0  0  0
   19.7550   14.0430   31.9660 Br  0  0  0  0  0
   18.3080   15.6760   29.7880 C   0  0  0  0  0
   16.6600   15.1010   30.6450 Br  0  0  0  0  0
   22.2522   17.3258   27.5384 H   0  0  0  0  0
   22.2534   14.8490   30.8339 H   0  0  0  0  0
  1  2  1  0  0  0
  2  3  4  0  0  0
  2  5  4  0  0  0
  3  4  1  0  0  0
  3 13  4  0  0  0
  5  6  1  0  0  0
  5 10  4  0  0  0
  6  7  1  0  0  0
  7  8  2  0  0  0
  7  9  1  0  0  0
  9 10  1  0  0  0
 10 11  4  0  0  0
 11 12  1  0  0  0
 11 13  4  0  0  0
 13 14  1  0  0  0
  6 15  1  0  0  0
  9 16  1  0  0  0
M  END
$$$$
