3a2c_ligand
  -I-interpret- 

 54 57  0  0  0  0  0  0  0  0999 V2000
   95.5350  107.9660   96.2340 C   0  0  0  0  0
   94.1760  107.2690   96.1970 C   0  0  0  0  0
   93.8840  106.7100   97.5920 C   0  0  0  0  0
   93.8390  107.7970   98.5850 N   0  3  0  0  0
   95.1190  108.5270   98.6420 C   0  0  0  0  0
   95.5290  109.0870   97.2730 C   0  0  0  0  0
   96.9100  109.6020   97.2730 N   0  0  0  0  0
   97.1620  110.8930   97.4520 C   0  0  0  0  0
   98.4800  111.3080   97.6290 C   0  0  0  0  0
   99.6050  110.2790   97.4730 C   0  0  0  0  0
   96.1320  111.7330   97.6510 N   0  0  0  0  0
   96.3240  112.9990   98.0390 C   0  0  0  0  0
   95.4570  113.9990   98.1960 C   0  0  0  0  0
   96.2930  115.2500   98.4600 C   0  0  0  0  0
   97.6480  114.6880   98.3640 N   0  0  0  0  0
   97.6340  113.4620   98.2450 N   0  0  0  0  0
   98.7280  112.5970   98.0830 C   0  0  0  0  0
   99.9160  113.2020   98.0940 N   0  0  0  0  0
  101.0390  112.9950   97.4200 C   0  0  0  0  0
  102.2430  113.2850   98.0500 C   0  0  0  0  0
  103.4420  112.8970   97.4630 C   0  0  0  0  0
  101.0280  112.2960   96.2220 C   0  0  0  0  0
  102.2240  111.9500   95.6090 C   0  0  0  0  0
  103.4240  112.2440   96.2380 C   0  0  0  0  0
  104.5670  111.9090   95.5870 O   0  0  0  0  0
  105.5580  112.9410   95.5380 C   0  0  0  0  0
  106.6030  112.3460   94.5920 C   0  0  0  0  0
   95.7430  108.3920   95.2525 H   0  0  0  0  0
   96.3009  107.2378   96.5010 H   0  0  0  0  0
   94.1903  106.4607   95.4659 H   0  0  0  0  0
   93.4000  107.9780   95.9085 H   0  0  0  0  0
   94.6753  106.0125   97.8665 H   0  0  0  0  0
   92.9181  106.2052   97.5759 H   0  0  0  0  0
   93.6569  107.3902   99.5025 H   0  0  0  0  0
   93.1045  108.4515   98.3157 H   0  0  0  0  0
   95.8918  107.8313   98.9689 H   0  0  0  0  0
   95.0012  109.3647   99.3294 H   0  0  0  0  0
   94.8156  109.8799   97.0484 H   0  0  0  0  0
   97.6859  108.9549   97.1330 H   0  0  0  0  0
   99.4673  109.4790   98.2004 H   0  0  0  0  0
   99.5790  109.8641   96.4654 H   0  0  0  0  0
  100.5660  110.7646   97.6427 H   0  0  0  0  0
   94.3699  113.9367   98.1461 H   0  0  0  0  0
   95.9743  116.2725   98.6627 H   0  0  0  0  0
   99.9723  113.9792   98.7522 H   0  0  0  0  0
  102.2474  113.8155   99.0022 H   0  0  0  0  0
  104.3893  113.1040   97.9609 H   0  0  0  0  0
  100.0797  112.0184   95.7619 H   0  0  0  0  0
  102.2200  111.4507   94.6401 H   0  0  0  0  0
  105.9620  113.1941   96.5182 H   0  0  0  0  0
  105.1641  113.8975   95.1944 H   0  0  0  0  0
  106.9812  111.4134   95.0107 H   0  0  0  0  0
  106.1445  112.1509   93.6226 H   0  0  0  0  0
  107.4252  113.0513   94.4711 H   0  0  0  0  0
  1  2  1  0  0  0
  1  6  1  0  0  0
  2  3  1  0  0  0
  3  4  1  0  0  0
  4  5  1  0  0  0
  5  6  1  0  0  0
  6  7  1  0  0  0
  7  8  1  0  0  0
  8  9  4  0  0  0
  8 11  4  0  0  0
  9 10  1  0  0  0
  9 17  4  0  0  0
 11 12  4  0  0  0
 12 13  4  0  0  0
 12 16  4  0  0  0
 13 14  4  0  0  0
 14 15  4  0  0  0
 15 16  4  0  0  0
 16 17  4  0  0  0
 17 18  1  0  0  0
 18 19  1  0  0  0
 19 20  4  0  0  0
 19 22  4  0  0  0
 20 21  4  0  0  0
 21 24  4  0  0  0
 22 23  4  0  0  0
 23 24  4  0  0  0
 24 25  1  0  0  0
 25 26  1  0  0  0
 26 27  1  0  0  0
  1 28  1  0  0  0
  1 29  1  0  0  0
  2 30  1  0  0  0
  2 31  1  0  0  0
  3 32  1  0  0  0
  3 33  1  0  0  0
  4 34  1  0  0  0
  4 35  1  0  0  0
  5 36  1  0  0  0
  5 37  1  0  0  0
  6 38  1  0  0  0
  7 39  1  0  0  0
 10 40  1  0  0  0
 10 41  1  0  0  0
 10 42  1  0  0  0
 13 43  1  0  0  0
 14 44  1  0  0  0
 18 45  1  0  0  0
 20 46  1  0  0  0
 21 47  1  0  0  0
 22 48  1  0  0  0
 23 49  1  0  0  0
 26 50  1  0  0  0
 26 51  1  0  0  0
 27 52  1  0  0  0
 27 53  1  0  0  0
 27 54  1  0  0  0
M  END
$$$$
