3i7b_ligand
  -I-interpret- 

 43 46  0  0  0  0  0  0  0  0999 V2000
   21.8880   12.4890   63.5140 N   0  0  0  0  0
   23.0590   13.1110   63.4270 C   0  0  0  0  0
   23.1440   14.4290   63.3120 N   0  0  0  0  0
   22.0270   15.1760   63.2720 C   0  0  0  0  0
   20.7860   14.5740   63.3540 C   0  0  0  0  0
   20.7330   13.1780   63.4830 C   0  0  0  0  0
   22.5170   18.8080   63.6770 C   0  0  0  0  0
   23.2560   17.6370   61.5630 C   0  0  0  0  0
   19.5870   12.5050   63.5730 N   0  0  0  0  0
   13.5470   15.7260   65.2410 C   0  0  0  0  0
   14.1250   16.0490   64.0170 C   0  0  0  0  0
   17.8730   14.4990   66.9560 C   0  0  0  0  0
   18.4550   14.8200   65.7290 C   0  0  0  0  0
   14.3470   15.2550   66.2780 C   0  0  0  0  0
   16.5060   14.6380   67.1410 C   0  0  0  0  0
   15.4970   15.9070   63.8290 C   0  0  0  0  0
   18.3500   15.6310   63.3220 C   0  0  0  0  0
   20.6110   16.7540   63.1760 N   0  0  0  0  0
   17.6840   15.2950   64.6640 C   0  0  0  0  0
   19.8850   15.6390   63.2970 C   0  0  0  0  0
   15.7200   15.1090   66.0910 C   0  0  0  0  0
   16.3060   15.4340   64.8640 C   0  0  0  0  0
   22.9030   17.4670   63.0450 C   0  0  0  0  0
   21.8140   16.4800   63.1660 N   0  0  0  0  0
   23.9753   12.5211   63.4509 H   0  0  0  0  0
   23.3540   19.5014   63.5945 H   0  0  0  0  0
   21.6514   19.2178   63.1565 H   0  0  0  0  0
   22.2719   18.6557   64.7281 H   0  0  0  0  0
   23.5790   16.6790   61.1555 H   0  0  0  0  0
   22.3783   17.9871   61.0196 H   0  0  0  0  0
   24.0608   18.3654   61.4638 H   0  0  0  0  0
   19.5979   11.4890   63.6631 H   0  0  0  0  0
   18.6986   13.0056   63.5518 H   0  0  0  0  0
   12.4730   15.8413   65.3869 H   0  0  0  0  0
   13.5007   16.4148   63.2018 H   0  0  0  0  0
   18.4965   14.1370   67.7735 H   0  0  0  0  0
   19.5303   14.6982   65.5986 H   0  0  0  0  0
   13.8986   14.9999   67.2382 H   0  0  0  0  0
   16.0508   14.3816   68.0976 H   0  0  0  0  0
   15.9422   16.1665   62.8685 H   0  0  0  0  0
   18.0405   16.6476   63.0794 H   0  0  0  0  0
   18.0425   14.8473   62.6297 H   0  0  0  0  0
   23.7758   17.1030   63.5871 H   0  0  0  0  0
  2  1  4  0  0  0
  6  1  4  0  0  0
  3  2  4  0  0  0
  4  3  4  0  0  0
  4  5  4  0  0  0
 24  4  4  0  0  0
  5  6  4  0  0  0
 20  5  4  0  0  0
  6  9  1  0  0  0
 23  7  1  0  0  0
 23  8  1  0  0  0
 11 10  4  0  0  0
 14 10  4  0  0  0
 16 11  4  0  0  0
 13 12  4  0  0  0
 12 15  4  0  0  0
 19 13  4  0  0  0
 21 14  4  0  0  0
 21 15  4  0  0  0
 22 16  4  0  0  0
 17 19  1  0  0  0
 20 17  1  0  0  0
 18 20  4  0  0  0
 24 18  4  0  0  0
 19 22  4  0  0  0
 22 21  4  0  0  0
 23 24  1  0  0  0
  2 25  1  0  0  0
  7 26  1  0  0  0
  7 27  1  0  0  0
  7 28  1  0  0  0
  8 29  1  0  0  0
  8 30  1  0  0  0
  8 31  1  0  0  0
  9 32  1  0  0  0
  9 33  1  0  0  0
 10 34  1  0  0  0
 11 35  1  0  0  0
 12 36  1  0  0  0
 13 37  1  0  0  0
 14 38  1  0  0  0
 15 39  1  0  0  0
 16 40  1  0  0  0
 17 41  1  0  0  0
 17 42  1  0  0  0
 23 43  1  0  0  0
M  END
$$$$
