2ofu_ligand
  -I-interpret- 

 98102  0  0  0  0  0  0  0  0999 V2000
   25.7160   35.8400   82.7480 C   0  0  0  0  0
   25.2120   36.6900   83.6600 N   0  0  0  0  0
   23.9300   36.6070   84.0410 C   0  0  0  0  0
   23.0440   35.6180   83.4800 C   0  0  0  0  0
   23.6170   34.7700   82.5330 C   0  0  0  0  0
   24.9150   34.9180   82.2070 N   0  0  0  0  0
   27.0310   35.8420   82.3570 N   0  0  0  0  0
   28.0490   36.6660   82.7980 C   0  0  0  0  0
   23.5510   37.5640   85.0020 N   0  0  0  0  0
   24.4230   38.4760   85.6320 C   0  0  0  0  0
   24.1910   39.8960   85.4080 C   0  0  0  0  0
   22.2100   37.5920   85.3050 C   0  0  0  0  0
   25.4920   37.9750   86.5020 C   0  0  0  0  0
   26.3320   38.9130   87.1600 C   0  0  0  0  0
   26.0960   40.3120   86.9320 C   0  0  0  0  0
   25.0420   40.8400   86.0750 C   0  0  0  0  0
   27.9010   38.0190   83.3090 C   0  0  0  0  0
   29.0340   38.7810   83.6960 C   0  0  0  0  0
   30.3210   38.1580   83.5530 C   0  0  0  0  0
   30.4780   36.8190   83.0550 C   0  0  0  0  0
   29.3180   36.0680   82.6740 C   0  0  0  0  0
   22.0250   37.9480   86.7470 O   0  0  0  0  0
   20.5850   37.8270   87.2100 C   0  0  0  0  0
   20.0870   36.5390   87.5210 C   0  0  0  0  0
   18.7110   36.4440   87.9640 C   0  0  0  0  0
   17.9670   37.6600   88.0410 C   0  0  0  0  0
   18.5010   38.9510   87.7120 C   0  0  0  0  0
   19.8790   39.0370   87.2720 C   0  0  0  0  0
   20.5330   40.3200   86.8850 C   0  0  0  0  0
   20.9280   35.3250   87.3600 C   0  0  0  0  0
   31.7910   36.3210   82.9910 O   0  0  0  0  0
   32.0590   35.0050   82.4880 C   0  0  0  0  0
   21.2780   37.4040   84.6490 O   0  0  0  0  0
   27.0280   41.1480   87.5650 O   0  0  0  0  0
   23.1300   40.2520   84.5170 O   0  0  0  0  0
   22.6970   41.6340   84.4480 C   0  0  0  0  0
   26.5830   42.3600   88.1680 C   0  0  0  0  0
   31.4390   38.9290   83.8970 O   0  0  0  0  0
   31.6960   38.8700   85.2980 C   0  0  0  0  0
   33.0160   39.5090   85.5580 C   0  0  0  0  0
   33.0630   40.9280   84.9840 C   0  0  0  0  0
   28.9330   40.0920   84.2320 O   0  0  0  0  0
   27.8930   41.0230   83.8580 C   0  0  0  0  0
   36.2520   41.9690   86.9110 C   0  0  0  0  0
   36.5290   43.1780   86.0540 N   0  3  0  0  0
   35.2920   43.9500   85.6730 C   0  0  0  0  0
   34.2800   43.0040   84.9190 C   0  0  0  0  0
   33.9770   41.7970   85.7540 N   0  3  0  0  0
   35.2490   41.0780   86.1080 C   0  0  0  0  0
   37.2360   42.7970   84.7960 C   0  0  0  0  0
   21.9979   35.5385   83.7758 H   0  0  0  0  0
   23.0179   33.9921   82.0596 H   0  0  0  0  0
   27.2893   35.1497   81.6538 H   0  0  0  0  0
   25.6392   36.9040   86.6411 H   0  0  0  0  0
   27.1335   38.5806   87.8197 H   0  0  0  0  0
   24.9049   41.9135   85.9452 H   0  0  0  0  0
   26.9055   38.4544   83.3961 H   0  0  0  0  0
   29.4165   35.0509   82.2946 H   0  0  0  0  0
   18.2632   35.4857   88.2271 H   0  0  0  0  0
   16.9293   37.6046   88.3700 H   0  0  0  0  0
   17.8842   39.8462   87.7913 H   0  0  0  0  0
   21.3976   40.4933   87.5257 H   0  0  0  0  0
   20.8552   40.2629   85.8453 H   0  0  0  0  0
   19.8225   41.1383   87.0021 H   0  0  0  0  0
   21.2322   35.2309   86.3175 H   0  0  0  0  0
   21.8123   35.4108   87.9915 H   0  0  0  0  0
   20.3544   34.4457   87.6533 H   0  0  0  0  0
   31.5384   34.2699   83.1017 H   0  0  0  0  0
   31.7098   34.9330   81.4580 H   0  0  0  0  0
   33.1318   34.8154   82.5234 H   0  0  0  0  0
   22.3462   41.9529   85.4295 H   0  0  0  0  0
   23.5335   42.2605   84.1385 H   0  0  0  0  0
   21.8869   41.7239   83.7243 H   0  0  0  0  0
   26.1222   42.9936   87.4101 H   0  0  0  0  0
   25.8534   42.1313   88.9448 H   0  0  0  0  0
   27.4342   42.8789   88.6087 H   0  0  0  0  0
   31.7102   37.8327   85.6324 H   0  0  0  0  0
   30.9123   39.3946   85.8445 H   0  0  0  0  0
   33.7929   38.9128   85.0793 H   0  0  0  0  0
   33.1717   39.5629   86.6355 H   0  0  0  0  0
   32.0605   41.3529   85.0341 H   0  0  0  0  0
   33.4248   40.8721   83.9573 H   0  0  0  0  0
   27.9469   41.2147   82.7863 H   0  0  0  0  0
   26.9202   40.5970   84.1037 H   0  0  0  0  0
   28.0301   41.9570   84.4028 H   0  0  0  0  0
   35.8318   42.2603   87.8736 H   0  0  0  0  0
   37.1712   41.4247   87.1278 H   0  0  0  0  0
   37.1140   43.7785   86.6350 H   0  0  0  0  0
   35.5706   44.7745   85.0167 H   0  0  0  0  0
   34.8181   44.3376   86.5748 H   0  0  0  0  0
   34.7262   42.6831   83.9777 H   0  0  0  0  0
   33.3548   43.5491   84.7319 H   0  0  0  0  0
   33.5304   42.0682   86.6300 H   0  0  0  0  0
   34.9854   40.2268   86.7357 H   0  0  0  0  0
   35.7356   40.7868   85.1772 H   0  0  0  0  0
   38.1847   42.3208   85.0438 H   0  0  0  0  0
   36.6166   42.1023   84.2287 H   0  0  0  0  0
   37.4213   43.6906   84.2000 H   0  0  0  0  0
  1  2  4  0  0  0
  1  6  4  0  0  0
  7  1  1  0  0  0
  2  3  4  0  0  0
  3  4  4  0  0  0
  3  9  1  0  0  0
  5  4  4  0  0  0
  6  5  4  0  0  0
  8  7  1  0  0  0
 17  8  4  0  0  0
 21  8  4  0  0  0
  9 10  1  0  0  0
  9 12  1  0  0  0
 10 11  4  0  0  0
 10 13  4  0  0  0
 11 16  4  0  0  0
 11 35  1  0  0  0
 12 22  1  0  0  0
 12 33  2  0  0  0
 13 14  4  0  0  0
 14 15  4  0  0  0
 16 15  4  0  0  0
 15 34  1  0  0  0
 18 17  4  0  0  0
 19 18  4  0  0  0
 18 42  1  0  0  0
 19 20  4  0  0  0
 38 19  1  0  0  0
 20 21  4  0  0  0
 20 31  1  0  0  0
 22 23  1  0  0  0
 23 24  4  0  0  0
 23 28  4  0  0  0
 24 25  4  0  0  0
 24 30  1  0  0  0
 25 26  4  0  0  0
 27 26  4  0  0  0
 28 27  4  0  0  0
 28 29  1  0  0  0
 31 32  1  0  0  0
 34 37  1  0  0  0
 35 36  1  0  0  0
 39 38  1  0  0  0
 40 39  1  0  0  0
 41 40  1  0  0  0
 48 41  1  0  0  0
 42 43  1  0  0  0
 45 44  1  0  0  0
 44 49  1  0  0  0
 46 45  1  0  0  0
 45 50  1  0  0  0
 47 46  1  0  0  0
 47 48  1  0  0  0
 48 49  1  0  0  0
  4 51  1  0  0  0
  5 52  1  0  0  0
  7 53  1  0  0  0
 13 54  1  0  0  0
 14 55  1  0  0  0
 16 56  1  0  0  0
 17 57  1  0  0  0
 21 58  1  0  0  0
 25 59  1  0  0  0
 26 60  1  0  0  0
 27 61  1  0  0  0
 29 62  1  0  0  0
 29 63  1  0  0  0
 29 64  1  0  0  0
 30 65  1  0  0  0
 30 66  1  0  0  0
 30 67  1  0  0  0
 32 68  1  0  0  0
 32 69  1  0  0  0
 32 70  1  0  0  0
 36 71  1  0  0  0
 36 72  1  0  0  0
 36 73  1  0  0  0
 37 74  1  0  0  0
 37 75  1  0  0  0
 37 76  1  0  0  0
 39 77  1  0  0  0
 39 78  1  0  0  0
 40 79  1  0  0  0
 40 80  1  0  0  0
 41 81  1  0  0  0
 41 82  1  0  0  0
 43 83  1  0  0  0
 43 84  1  0  0  0
 43 85  1  0  0  0
 44 86  1  0  0  0
 44 87  1  0  0  0
 45 88  1  0  0  0
 46 89  1  0  0  0
 46 90  1  0  0  0
 47 91  1  0  0  0
 47 92  1  0  0  0
 48 93  1  0  0  0
 49 94  1  0  0  0
 49 95  1  0  0  0
 50 96  1  0  0  0
 50 97  1  0  0  0
 50 98  1  0  0  0
M  END
$$$$
