5mrd_ligand
  -I-interpret- 

 34 37  0  0  0  0  0  0  0  0999 V2000
  -14.8070   39.4740  -13.0940 C   0  0  0  0  0
   -9.1340   39.1710   -7.1540 C   0  0  0  0  0
  -13.6460   40.0250  -13.6270 C   0  0  0  0  0
  -12.4790   40.1150  -12.8770 C   0  0  0  0  0
  -11.8610   39.0710   -9.4430 C   0  0  0  0  0
  -10.2910   39.0010   -6.2590 C   0  0  0  0  0
   -7.7040   39.2880   -6.7430 C   0  0  0  0  0
  -10.3070   38.9080   -4.7810 O   0  0  0  0  0
  -11.4370   38.9360   -7.1880 C   0  0  0  0  0
  -12.6480   38.7890   -6.8090 O   0  0  0  0  0
   -9.4740   39.2120   -8.5930 C   0  0  0  0  0
   -8.9280   38.0310   -9.3090 C   0  0  0  0  0
   -7.7900   38.0640  -10.1110 C   0  0  0  0  0
   -7.5220   36.7960  -10.6560 C   0  0  0  0  0
   -8.4290   35.7730  -10.3400 C   0  0  0  0  0
   -9.6480   36.4520   -9.2900 S   0  0  0  0  0
  -10.9580   39.0510   -8.4480 N   0  0  0  0  0
  -13.5400   38.5830   -9.4120 S   0  0  0  0  0
  -13.7050   39.0880  -11.0070 C   0  0  0  0  0
  -11.4570   39.6360  -10.6140 N   0  0  0  0  0
  -12.4510   39.6640  -11.5640 C   0  0  0  0  0
  -16.2610   39.3900  -14.1400 Cl  0  0  0  0  0
  -14.8570   39.0030  -11.7830 C   0  0  0  0  0
  -13.6515   40.3934  -14.6529 H   0  0  0  0  0
  -11.5805   40.5422  -13.3223 H   0  0  0  0  0
   -7.5832   40.1567   -6.0958 H   0  0  0  0  0
   -7.4073   38.3880   -6.2044 H   0  0  0  0  0
   -7.0808   39.4044   -7.6297 H   0  0  0  0  0
  -11.2115   38.7996   -4.4781 H   0  0  0  0  0
   -9.1082   40.0802   -9.1412 H   0  0  0  0  0
   -7.1875   38.9541  -10.2920 H   0  0  0  0  0
   -6.6545   36.6168  -11.2912 H   0  0  0  0  0
   -8.3813   34.7409  -10.6872 H   0  0  0  0  0
  -15.7750   38.5790  -11.3761 H   0  0  0  0  0
  3  1  4  0  0  0
  1 22  1  0  0  0
  1 23  4  0  0  0
  2  6  2  0  0  0
  2  7  1  0  0  0
 11  2  1  0  0  0
  4  3  4  0  0  0
 21  4  4  0  0  0
  5 17  1  0  0  0
 18  5  4  0  0  0
  5 20  4  0  0  0
  6  8  1  0  0  0
  9  6  1  0  0  0
  9 10  2  0  0  0
 17  9  1  0  0  0
 11 12  1  0  0  0
 17 11  1  0  0  0
 12 13  4  0  0  0
 12 16  4  0  0  0
 13 14  4  0  0  0
 15 14  4  0  0  0
 16 15  4  0  0  0
 19 18  4  0  0  0
 19 21  4  0  0  0
 19 23  4  0  0  0
 20 21  4  0  0  0
  3 24  1  0  0  0
  4 25  1  0  0  0
  7 26  1  0  0  0
  7 27  1  0  0  0
  7 28  1  0  0  0
  8 29  1  0  0  0
 11 30  1  0  0  0
 13 31  1  0  0  0
 14 32  1  0  0  0
 15 33  1  0  0  0
 23 34  1  0  0  0
M  END
$$$$
