### 
### Created by X-TOOL on Mon Aug  2 16:16:11 2021
### 

@<TRIPOS>MOLECULE
6pvu_ligand
   24    24     1     0     0
SMALL
GAST_HUCK


@<TRIPOS>ATOM
      1 O12        -7.2350  -13.3420   10.6100 O.co2     1 P0S        -0.6078
      2 O13       -10.0200  -11.3250   14.6240 O.co2     1 P0S        -0.6078
      3 O14        -7.8690  -17.0960   13.0710 O.co2     1 P0S        -0.6078
      4 O15       -10.0520  -15.7510   12.7220 O.3       1 P0S        -0.1210
      5 O01       -12.2450  -14.5560   13.2370 O.3       1 P0S        -0.1210
      6 O02        -9.0730  -12.4230   12.0370 O.3       1 P0S        -0.1210
      7 O03       -10.9670  -15.9430   15.0600 O.co2     1 P0S        -0.6078
      8 O04       -10.3760  -11.8590    9.9780 O.co2     1 P0S        -0.6078
      9 O05       -10.1250  -13.6230   14.2100 O.co2     1 P0S        -0.6078
     10 O06        -9.0970   -9.9480   11.1890 O.co2     1 P0S        -0.6078
     11 O07       -12.4330  -12.1500   14.1620 O.3       1 P0S        -0.1210
     12 O08        -7.8550  -14.5760   12.6910 O.3       1 P0S        -0.1210
     13 O09       -13.2940  -12.6340   11.8280 O.co2     1 P0S        -0.6078
     14 O10        -6.6090  -12.2930   12.9090 O.co2     1 P0S        -0.6078
     15 O11       -14.5290  -13.6630   13.8740 O.co2     1 P0S        -0.6078
     16 O16       -11.1540  -11.0680   12.3050 O.3       1 P0S        -0.1210
     17 O17       -12.0060   -9.6760   14.3030 O.co2     1 P0S        -0.6078
     18 O18        -8.5290  -16.1210   10.7310 O.co2     1 P0S        -0.6078
     19 P01       -10.7910  -14.9450   13.9470 P.3       1 P0S         0.3367
     20 P02        -9.8970  -11.2200   11.2540 P.3       1 P0S         0.3367
     21 P03       -13.2450  -13.2260   13.2140 P.3       1 P0S         0.3367
     22 P04        -7.5550  -13.0930   12.0610 P.3       1 P0S         0.3367
     23 P05       -11.3110  -10.9600   13.9380 P.3       1 P0S         0.3367
     24 P06        -8.5080  -16.0170   12.2300 P.3       1 P0S         0.3367
@<TRIPOS>BOND
     1   22    1 ar 
     2   23    2 ar 
     3   24    3 ar 
     4    4   19 1  
     5   24    4 1  
     6   19    5 1  
     7    5   21 1  
     8    6   20 1  
     9   22    6 1  
    10   19    7 ar 
    11   20    8 ar 
    12   19    9 ar 
    13   20   10 ar 
    14   21   11 1  
    15   11   23 1  
    16   12   22 1  
    17   12   24 1  
    18   21   13 ar 
    19   22   14 ar 
    20   21   15 ar 
    21   20   16 1  
    22   16   23 1  
    23   23   17 ar 
    24   24   18 ar 
@<TRIPOS>SUBSTRUCTURE
     1 P0S         1

