6pvu_ligand
  -I-interpret- 

 30 30  0  0  0  0  0  0  0  0999 V2000
   -7.2350  -13.3420   10.6100 O   0  0  0  0  0
  -10.0200  -11.3250   14.6240 O   0  0  0  0  0
   -7.8690  -17.0960   13.0710 O   0  0  0  0  0
  -10.0520  -15.7510   12.7220 O   0  0  0  0  0
  -12.2450  -14.5560   13.2370 O   0  0  0  0  0
   -9.0730  -12.4230   12.0370 O   0  0  0  0  0
  -10.9670  -15.9430   15.0600 O   0  0  0  0  0
  -10.3760  -11.8590    9.9780 O   0  0  0  0  0
  -10.1250  -13.6230   14.2100 O   0  0  0  0  0
   -9.0970   -9.9480   11.1890 O   0  0  0  0  0
  -12.4330  -12.1500   14.1620 O   0  0  0  0  0
   -7.8550  -14.5760   12.6910 O   0  0  0  0  0
  -13.2940  -12.6340   11.8280 O   0  0  0  0  0
   -6.6090  -12.2930   12.9090 O   0  0  0  0  0
  -14.5290  -13.6630   13.8740 O   0  0  0  0  0
  -11.1540  -11.0680   12.3050 O   0  0  0  0  0
  -12.0060   -9.6760   14.3030 O   0  0  0  0  0
   -8.5290  -16.1210   10.7310 O   0  0  0  0  0
  -10.7910  -14.9450   13.9470 P   0  0  0  0  0
   -9.8970  -11.2200   11.2540 P   0  0  0  0  0
  -13.2450  -13.2260   13.2140 P   0  0  0  0  0
   -7.5550  -13.0930   12.0610 P   0  0  0  0  0
  -11.3110  -10.9600   13.9380 P   0  0  0  0  0
   -8.5080  -16.0170   12.2300 P   0  0  0  0  0
   -7.9358  -13.8652   10.2141 H   0  0  0  0  0
   -9.7048  -12.1656   14.2840 H   0  0  0  0  0
   -7.9478  -16.8652   13.9995 H   0  0  0  0  0
  -11.4071  -16.7255   14.7200 H   0  0  0  0  0
  -10.8679  -12.6568   10.1860 H   0  0  0  0  0
  -14.3355  -14.0160   14.7455 H   0  0  0  0  0
 22  1  1  0  0  0
 23  2  1  0  0  0
 24  3  1  0  0  0
  4 19  1  0  0  0
 24  4  1  0  0  0
 19  5  1  0  0  0
  5 21  1  0  0  0
  6 20  1  0  0  0
 22  6  1  0  0  0
 19  7  1  0  0  0
 20  8  1  0  0  0
 19  9  2  0  0  0
 20 10  2  0  0  0
 21 11  1  0  0  0
 11 23  1  0  0  0
 12 22  1  0  0  0
 12 24  1  0  0  0
 21 13  2  0  0  0
 22 14  2  0  0  0
 21 15  1  0  0  0
 20 16  1  0  0  0
 16 23  1  0  0  0
 23 17  2  0  0  0
 24 18  2  0  0  0
  1 25  1  0  0  0
  2 26  1  0  0  0
  3 27  1  0  0  0
  7 28  1  0  0  0
  8 29  1  0  0  0
 15 30  1  0  0  0
M  END
$$$$
