1zzz_ligand
  -I-interpret- 

 56 57  0  0  0  0  0  0  0  0999 V2000
   25.1570    4.6820   29.2140 N   0  3  0  0  0
   25.5970    3.3910   29.6250 C   0  0  0  0  0
   26.1840    3.4820   31.0050 C   0  0  0  0  0
   26.4320    2.1540   31.6720 C   0  0  0  0  0
   24.5370    2.2410   29.4950 C   0  0  0  0  0
   25.2710    1.1810   31.6400 C   0  0  0  0  0
   23.7760    2.3820   28.5310 O   0  0  0  0  0
   24.6040    1.1740   30.3100 N   0  0  0  0  0
   23.7020    0.0530   29.9470 C   0  0  0  0  0
   22.4180    0.8670   30.2860 C   0  0  0  0  0
   22.1470    1.3320   31.4330 O   0  0  0  0  0
   19.3380    2.1580   28.1910 C   0  0  0  0  0
   20.1240    2.0850   26.8650 C   0  0  0  0  0
   21.2880    0.3550   29.5550 N   0  0  0  0  0
   19.9550    0.5250   29.9580 C   0  0  0  0  0
   19.4520   -0.5070   31.0730 C   0  0  0  0  0
   18.0560   -0.6290   31.1720 O   0  0  0  0  0
   19.1950    0.8040   28.7650 C   0  0  0  0  0
   19.9900    3.7540   25.0540 C   0  0  0  0  0
   20.2770    3.4130   26.3750 N   0  0  0  0  0
   20.9790    4.3780   27.3200 C   0  0  0  0  0
   20.1910    4.5320   28.6190 C   0  0  0  0  0
   20.0500    3.1780   29.1560 C   0  0  0  0  0
   19.5410    2.8750   24.2120 N   0  0  0  0  0
   20.1300    4.9700   24.7200 N   0  0  0  0  0
   25.9149    5.3534   29.3374 H   0  0  0  0  0
   24.8857    4.6505   28.2312 H   0  0  0  0  0
   24.3565    4.9632   29.7801 H   0  0  0  0  0
   26.3667    3.0874   28.9155 H   0  0  0  0  0
   25.4625    4.0174   31.6222 H   0  0  0  0  0
   27.1519    3.9734   30.9065 H   0  0  0  0  0
   26.6299    2.3665   32.7226 H   0  0  0  0  0
   27.2487    1.6807   31.1270 H   0  0  0  0  0
   24.5424    1.4871   32.3907 H   0  0  0  0  0
   25.6530    0.1800   31.8406 H   0  0  0  0  0
   23.8490   -0.9080   30.4399 H   0  0  0  0  0
   23.7910   -0.3790   28.9502 H   0  0  0  0  0
   18.3261    2.5275   28.0247 H   0  0  0  0  0
   19.5863    1.4741   26.1399 H   0  0  0  0  0
   21.0998    1.6276   27.0286 H   0  0  0  0  0
   21.4672   -0.1615   28.6939 H   0  0  0  0  0
   19.7897    1.3951   30.5933 H   0  0  0  0  0
   19.8071   -0.1344   32.0338 H   0  0  0  0  0
   19.8375   -1.4879   30.7948 H   0  0  0  0  0
   17.8393   -1.2631   31.8594 H   0  0  0  0  0
   19.5634    0.1146   28.0053 H   0  0  0  0  0
   18.1465    0.7055   29.0462 H   0  0  0  0  0
   21.0545    5.3520   26.8364 H   0  0  0  0  0
   21.9687    3.9851   27.5531 H   0  0  0  0  0
   19.2197    4.9944   28.4436 H   0  0  0  0  0
   20.7049    5.1880   29.3216 H   0  0  0  0  0
   21.0572    2.7995   29.3303 H   0  0  0  0  0
   19.4307    3.2542   30.0498 H   0  0  0  0  0
   19.2939    3.1571   23.2635 H   0  0  0  0  0
   19.4351    1.9018   24.4986 H   0  0  0  0  0
   20.4419    5.6553   25.4082 H   0  0  0  0  0
  2  1  1  0  0  0
  2  3  1  0  0  0
  5  2  1  0  0  0
  4  3  1  0  0  0
  6  4  1  0  0  0
  5  7  2  0  0  0
  8  5  1  0  0  0
  8  6  1  0  0  0
  9  8  1  0  0  0
 10  9  1  0  0  0
 10 11  2  0  0  0
 14 10  1  0  0  0
 12 13  1  0  0  0
 18 12  1  0  0  0
 12 23  1  0  0  0
 13 20  1  0  0  0
 15 14  1  0  0  0
 15 16  1  0  0  0
 15 18  1  0  0  0
 16 17  1  0  0  0
 20 19  1  0  0  0
 19 24  1  0  0  0
 19 25  2  0  0  0
 20 21  1  0  0  0
 21 22  1  0  0  0
 22 23  1  0  0  0
  1 26  1  0  0  0
  1 27  1  0  0  0
  1 28  1  0  0  0
  2 29  1  0  0  0
  3 30  1  0  0  0
  3 31  1  0  0  0
  4 32  1  0  0  0
  4 33  1  0  0  0
  6 34  1  0  0  0
  6 35  1  0  0  0
  9 36  1  0  0  0
  9 37  1  0  0  0
 12 38  1  0  0  0
 13 39  1  0  0  0
 13 40  1  0  0  0
 14 41  1  0  0  0
 15 42  1  0  0  0
 16 43  1  0  0  0
 16 44  1  0  0  0
 17 45  1  0  0  0
 18 46  1  0  0  0
 18 47  1  0  0  0
 21 48  1  0  0  0
 21 49  1  0  0  0
 22 50  1  0  0  0
 22 51  1  0  0  0
 23 52  1  0  0  0
 23 53  1  0  0  0
 24 54  1  0  0  0
 24 55  1  0  0  0
 25 56  1  0  0  0
M  END
$$$$
