5z4h_ligand
  -I-interpret- 

 25 26  0  0  0  0  0  0  0  0999 V2000
  -26.7480   21.6590  -20.4870 C   0  0  0  0  0
  -25.5220   21.3110  -19.9490 C   0  0  0  0  0
  -21.3810   19.4350  -19.8060 C   0  0  0  0  0
  -20.5530   18.9080  -20.7750 C   0  0  0  0  0
  -21.0920   18.3560  -21.9210 C   0  0  0  0  0
  -22.7510   19.4430  -19.9810 C   0  0  0  0  0
  -23.2950   18.8790  -21.1300 C   0  0  0  0  0
  -22.4670   18.3280  -22.0930 C   0  0  0  0  0
  -25.3710   20.1050  -19.2710 C   0  0  0  0  0
  -26.4430   19.2420  -19.1620 C   0  0  0  0  0
  -27.6700   19.5850  -19.6980 C   0  0  0  0  0
  -20.2290   17.8690  -22.8420 O   0  0  0  0  0
  -23.7520   19.8980  -18.5890 S   0  0  0  0  0
  -27.8270   20.7990  -20.3610 C   0  0  0  0  0
  -29.0290   21.1560  -20.8800 O   0  0  0  0  0
  -26.8650   22.6085  -21.0093 H   0  0  0  0  0
  -24.6712   21.9838  -20.0565 H   0  0  0  0  0
  -20.9504   19.8488  -18.8941 H   0  0  0  0  0
  -19.4720   18.9271  -20.6364 H   0  0  0  0  0
  -24.3756   18.8708  -21.2726 H   0  0  0  0  0
  -22.8960   17.8726  -22.9856 H   0  0  0  0  0
  -26.3214   18.2867  -18.6514 H   0  0  0  0  0
  -28.5157   18.9041  -19.6015 H   0  0  0  0  0
  -20.7224   17.5155  -23.5858 H   0  0  0  0  0
  -29.6684   20.4599  -20.7118 H   0  0  0  0  0
  2  1  4  0  0  0
  1 14  4  0  0  0
  9  2  4  0  0  0
  3  4  4  0  0  0
  6  3  4  0  0  0
  4  5  4  0  0  0
  8  5  4  0  0  0
  5 12  1  0  0  0
  6  7  4  0  0  0
 13  6  1  0  0  0
  7  8  4  0  0  0
  9 10  4  0  0  0
  9 13  1  0  0  0
 10 11  4  0  0  0
 11 14  4  0  0  0
 14 15  1  0  0  0
  1 16  1  0  0  0
  2 17  1  0  0  0
  3 18  1  0  0  0
  4 19  1  0  0  0
  7 20  1  0  0  0
  8 21  1  0  0  0
 10 22  1  0  0  0
 11 23  1  0  0  0
 12 24  1  0  0  0
 15 25  1  0  0  0
M  END
$$$$
