5xig_ligand
  -I-interpret- 

 41 43  0  0  0  0  0  0  0  0999 V2000
    3.3920   -2.1910  -33.8520 C   0  0  0  0  0
    4.2620   -1.6810  -34.7820 C   0  0  0  0  0
    5.5590   -1.4350  -34.4290 C   0  0  0  0  0
    3.3470   -3.1820  -30.4410 C   0  0  0  0  0
    3.8160   -2.4260  -32.5660 C   0  0  0  0  0
    3.7390   -2.3440  -24.7650 O   0  0  0  0  0
    5.9870   -1.6810  -33.1500 C   0  0  0  0  0
    5.1200   -2.1820  -32.2140 C   0  0  0  0  0
    6.7000   -2.2200  -30.6080 O   0  0  0  0  0
    5.5560   -2.4220  -30.9380 C   0  0  0  0  0
    2.9410   -2.9460  -31.6560 N   0  0  0  0  0
    4.6310   -2.9370  -30.0590 N   0  0  0  0  0
    5.0250   -3.1820  -28.6680 C   0  0  0  0  0
    4.8610   -1.9100  -27.8030 C   0  0  0  0  0
    5.8240   -1.9420  -26.6150 C   0  0  0  0  0
    5.4610   -0.9300  -25.5080 C   0  0  0  0  0
    5.4290    0.4330  -25.9970 N   0  3  0  0  0
    5.2200    1.3740  -24.9040 C   0  0  0  0  0
    4.1680   -1.2330  -24.8370 C   0  0  0  0  0
    3.4770   -0.1530  -24.1990 C   0  0  0  0  0
    4.4360    0.8440  -23.7620 C   0  0  0  0  0
    2.3621   -2.4103  -34.1336 H   0  0  0  0  0
    3.9208   -1.4733  -35.7962 H   0  0  0  0  0
    6.2568   -1.0412  -35.1680 H   0  0  0  0  0
    2.6427   -3.5849  -29.7132 H   0  0  0  0  0
    7.0221   -1.4771  -32.8760 H   0  0  0  0  0
    6.0737   -3.4787  -28.6522 H   0  0  0  0  0
    4.3847   -3.9637  -28.2592 H   0  0  0  0  0
    3.8383   -1.8658  -27.4286 H   0  0  0  0  0
    5.0820   -1.0351  -28.4144 H   0  0  0  0  0
    6.8150   -1.6821  -26.9870 H   0  0  0  0  0
    5.7756   -2.9395  -26.1783 H   0  0  0  0  0
    6.2595   -1.0293  -24.7727 H   0  0  0  0  0
    4.6596    0.5251  -26.6603 H   0  0  0  0  0
    6.3221    0.6421  -26.4431 H   0  0  0  0  0
    4.6538    2.2108  -25.3131 H   0  0  0  0  0
    6.2060    1.6305  -24.5167 H   0  0  0  0  0
    2.9283   -0.5318  -23.3367 H   0  0  0  0  0
    2.7792    0.2987  -24.9041 H   0  0  0  0  0
    3.8932    1.6691  -23.3009 H   0  0  0  0  0
    5.1232    0.3785  -23.0555 H   0  0  0  0  0
  1  2  4  0  0  0
  5  1  4  0  0  0
  3  2  4  0  0  0
  7  3  4  0  0  0
  4 11  2  0  0  0
 12  4  1  0  0  0
  8  5  4  0  0  0
 11  5  1  0  0  0
 19  6  2  0  0  0
  8  7  4  0  0  0
 10  8  1  0  0  0
 10  9  2  0  0  0
 12 10  1  0  0  0
 13 12  1  0  0  0
 14 13  1  0  0  0
 15 14  1  0  0  0
 16 15  1  0  0  0
 16 17  1  0  0  0
 16 19  1  0  0  0
 17 18  1  0  0  0
 18 21  1  0  0  0
 19 20  1  0  0  0
 20 21  1  0  0  0
  1 22  1  0  0  0
  2 23  1  0  0  0
  3 24  1  0  0  0
  4 25  1  0  0  0
  7 26  1  0  0  0
 13 27  1  0  0  0
 13 28  1  0  0  0
 14 29  1  0  0  0
 14 30  1  0  0  0
 15 31  1  0  0  0
 15 32  1  0  0  0
 16 33  1  0  0  0
 17 34  1  0  0  0
 17 35  1  0  0  0
 18 36  1  0  0  0
 18 37  1  0  0  0
 20 38  1  0  0  0
 20 39  1  0  0  0
 21 40  1  0  0  0
 21 41  1  0  0  0
M  END
$$$$
