2vey_ligand
  -I-interpret- 

 69 73  0  0  0  0  0  0  0  0999 V2000
   19.2350   16.5500   81.9160 C   0  0  0  0  0
   20.5300   17.1030   81.3930 C   0  0  0  0  0
   21.6510   16.3950   82.0470 C   0  0  0  0  0
   21.3110   15.2340   82.6110 N   0  0  0  0  0
   19.5700   14.8270   82.2380 S   0  0  0  0  0
   18.7340   14.2620   83.5700 O   0  0  0  0  0
   19.3330   14.0460   80.7340 O   0  0  0  0  0
   22.8030   16.8010   82.0830 O   0  0  0  0  0
   18.0080   16.7670   81.0460 C   0  0  0  0  0
   18.1310   16.7450   79.5810 C   0  0  0  0  0
   16.9410   16.9860   78.7500 C   0  0  0  0  0
   15.6470   17.2350   79.3970 C   0  0  0  0  0
   15.5240   17.2560   80.8560 C   0  0  0  0  0
   16.7050   17.0240   81.6790 C   0  0  0  0  0
   14.4030   17.4610   78.5760 C   0  0  0  0  0
   13.8710   18.8860   78.7280 C   0  0  0  0  0
   12.5530   18.9410   78.1120 N   0  0  0  0  0
   11.5960   20.3590   78.3320 S   0  0  0  0  0
   10.0510   19.6560   77.9470 O   0  0  0  0  0
   11.8490   20.8170   79.9400 O   0  0  0  0  0
   15.8710   20.8140   76.2950 C   0  0  0  0  0
   16.3340   21.4530   77.5030 C   0  0  0  0  0
   14.9170   19.8300   76.6230 N   0  0  0  0  0
   14.7940   19.8620   78.0270 C   0  0  0  0  0
   15.6420   20.8420   78.5750 N   0  0  0  0  0
   13.3160   23.4660   76.1530 C   0  0  0  0  0
   12.6720   23.2980   74.8440 C   0  0  0  0  0
   12.9670   22.5530   77.2500 C   0  0  0  0  0
   11.9900   21.4890   77.0280 C   0  0  0  0  0
   11.3460   21.3230   75.7290 C   0  0  0  0  0
   11.6930   22.2290   74.6390 C   0  0  0  0  0
   16.3100   21.1220   74.8780 C   0  0  0  0  0
   16.6210   15.2970   73.2150 C   0  0  0  0  0
   17.6250   15.2020   72.1460 C   0  0  0  0  0
   18.5730   16.3030   71.8950 C   0  0  0  0  0
   18.5110   17.5100   72.7200 C   0  0  0  0  0
   17.5020   17.6050   73.7860 C   0  0  0  0  0
   16.5590   16.5040   74.0410 C   0  0  0  0  0
   11.0750   22.0470   73.3370 F   0  0  0  0  0
   16.4210   19.8630   74.0140 C   0  0  0  0  0
   17.4120   18.8570   74.6060 C   0  0  0  0  0
   18.9420   17.0994   82.8106 H   0  0  0  0  0
   20.5902   18.1694   81.6106 H   0  0  0  0  0
   20.5830   16.9599   80.3137 H   0  0  0  0  0
   21.9360   14.6551   83.1719 H   0  0  0  0  0
   19.0967   16.5516   79.1140 H   0  0  0  0  0
   17.0196   16.9797   77.6629 H   0  0  0  0  0
   14.5572   17.4436   81.3231 H   0  0  0  0  0
   16.6223   17.0410   82.7657 H   0  0  0  0  0
   13.6344   16.7703   78.9229 H   0  0  0  0  0
   14.6515   17.2990   77.5272 H   0  0  0  0  0
   13.8154   19.1540   79.7831 H   0  0  0  0  0
   12.2027   18.1570   77.5616 H   0  0  0  0  0
   17.0730   22.2510   77.5755 H   0  0  0  0  0
   14.0459   24.2603   76.3093 H   0  0  0  0  0
   12.9233   23.9703   74.0237 H   0  0  0  0  0
   13.4357   22.6690   78.2272 H   0  0  0  0  0
   10.6136   20.5307   75.5746 H   0  0  0  0  0
   17.2947   21.5872   74.9238 H   0  0  0  0  0
   15.5621   21.7748   74.4279 H   0  0  0  0  0
   15.9276   14.4747   73.3915 H   0  0  0  0  0
   17.6695   14.3042   71.5295 H   0  0  0  0  0
   19.3146   16.2185   71.1007 H   0  0  0  0  0
   19.2063   18.3313   72.5461 H   0  0  0  0  0
   15.8205   16.5867   74.8384 H   0  0  0  0  0
   16.7760   20.1545   73.0255 H   0  0  0  0  0
   15.4395   19.3913   73.9659 H   0  0  0  0  0
   18.3976   19.3220   74.6259 H   0  0  0  0  0
   17.0664   18.5860   75.6036 H   0  0  0  0  0
  1  2  1  0  0  0
  1  5  1  0  0  0
  9  1  1  0  0  0
  2  3  1  0  0  0
  4  3  1  0  0  0
  3  8  2  0  0  0
  5  4  1  0  0  0
  5  6  2  0  0  0
  5  7  2  0  0  0
 10  9  4  0  0  0
 14  9  4  0  0  0
 11 10  4  0  0  0
 12 11  4  0  0  0
 12 13  4  0  0  0
 15 12  1  0  0  0
 13 14  4  0  0  0
 16 15  1  0  0  0
 16 17  1  0  0  0
 24 16  1  0  0  0
 17 18  1  0  0  0
 18 19  2  0  0  0
 18 20  2  0  0  0
 18 29  1  0  0  0
 21 22  4  0  0  0
 21 23  4  0  0  0
 32 21  1  0  0  0
 22 25  4  0  0  0
 23 24  4  0  0  0
 24 25  4  0  0  0
 26 27  4  0  0  0
 28 26  4  0  0  0
 31 27  4  0  0  0
 29 28  4  0  0  0
 29 30  4  0  0  0
 30 31  4  0  0  0
 31 39  1  0  0  0
 40 32  1  0  0  0
 33 34  4  0  0  0
 38 33  4  0  0  0
 35 34  4  0  0  0
 36 35  4  0  0  0
 37 36  4  0  0  0
 37 38  4  0  0  0
 41 37  1  0  0  0
 40 41  1  0  0  0
  1 42  1  0  0  0
  2 43  1  0  0  0
  2 44  1  0  0  0
  4 45  1  0  0  0
 10 46  1  0  0  0
 11 47  1  0  0  0
 13 48  1  0  0  0
 14 49  1  0  0  0
 15 50  1  0  0  0
 15 51  1  0  0  0
 16 52  1  0  0  0
 17 53  1  0  0  0
 22 54  1  0  0  0
 26 55  1  0  0  0
 27 56  1  0  0  0
 28 57  1  0  0  0
 30 58  1  0  0  0
 32 59  1  0  0  0
 32 60  1  0  0  0
 33 61  1  0  0  0
 34 62  1  0  0  0
 35 63  1  0  0  0
 36 64  1  0  0  0
 38 65  1  0  0  0
 40 66  1  0  0  0
 40 67  1  0  0  0
 41 68  1  0  0  0
 41 69  1  0  0  0
M  END
$$$$
