3hcm_ligand
  -I-interpret- 

 33 35  0  0  0  0  0  0  0  0999 V2000
   -5.4980    4.8170   29.1040 Cl  0  0  0  0  0
   -4.6500    6.2830   29.7060 C   0  0  0  0  0
   -5.3580    7.2790   30.3880 C   0  0  0  0  0
   -4.6970    8.4240   30.8420 C   0  0  0  0  0
   -3.3320    8.5960   30.6210 C   0  0  0  0  0
   -2.6210    7.6110   29.9400 C   0  0  0  0  0
   -3.2780    6.4570   29.4920 C   0  0  0  0  0
   -2.6600    9.8470   31.1040 C   0  0  0  0  0
   -3.1520   11.0900   30.8260 N   0  0  0  0  0
   -2.3610   12.0300   31.3670 C   0  0  0  0  0
   -1.3420   11.3910   32.0090 O   0  0  0  0  0
   -1.5220    9.9690   31.8510 N   0  0  0  0  0
   -2.4320   13.5170   31.3760 C   0  0  0  0  0
   -3.5210   13.9570   30.3780 C   0  0  0  0  0
   -3.0550   14.0310   28.9110 C   0  0  0  0  0
   -1.8230   14.9340   28.7670 C   0  0  0  0  0
   -1.2350   15.2340   30.0710 N   0  3  0  0  0
   -1.0810   14.1680   31.0550 C   0  0  0  0  0
   -6.4270    7.1617   30.5656 H   0  0  0  0  0
   -5.2566    9.1922   31.3758 H   0  0  0  0  0
   -1.5542    7.7375   29.7556 H   0  0  0  0  0
   -2.7129    5.6848   28.9700 H   0  0  0  0  0
   -2.6904   13.8532   32.3801 H   0  0  0  0  0
   -3.8281   14.9626   30.6653 H   0  0  0  0  0
   -4.3137   13.2102   30.4226 H   0  0  0  0  0
   -3.8635   14.4458   28.3090 H   0  0  0  0  0
   -2.7922   13.0270   28.5777 H   0  0  0  0  0
   -2.1291   15.8696   28.2989 H   0  0  0  0  0
   -1.0801   14.4162   28.1603 H   0  0  0  0  0
   -1.8853   15.8910   30.5021 H   0  0  0  0  0
   -0.2821   15.5316   29.8619 H   0  0  0  0  0
   -0.4150   13.4081   30.6461 H   0  0  0  0  0
   -0.6717   14.5941   31.9710 H   0  0  0  0  0
  1  2  1  0  0  0
  2  3  4  0  0  0
  2  7  4  0  0  0
  3  4  4  0  0  0
  4  5  4  0  0  0
  5  6  4  0  0  0
  5  8  1  0  0  0
  6  7  4  0  0  0
  8  9  4  0  0  0
  8 12  4  0  0  0
  9 10  4  0  0  0
 10 11  4  0  0  0
 10 13  1  0  0  0
 11 12  4  0  0  0
 13 14  1  0  0  0
 13 18  1  0  0  0
 14 15  1  0  0  0
 15 16  1  0  0  0
 16 17  1  0  0  0
 17 18  1  0  0  0
  3 19  1  0  0  0
  4 20  1  0  0  0
  6 21  1  0  0  0
  7 22  1  0  0  0
 13 23  1  0  0  0
 14 24  1  0  0  0
 14 25  1  0  0  0
 15 26  1  0  0  0
 15 27  1  0  0  0
 16 28  1  0  0  0
 16 29  1  0  0  0
 17 30  1  0  0  0
 17 31  1  0  0  0
 18 32  1  0  0  0
 18 33  1  0  0  0
M  END
$$$$
