2x3t_ligand
  -I-interpret- 

 34 34  0  0  0  0  0  0  0  0999 V2000
   20.6050  -18.0310   -2.2170 N   0  0  0  0  0
   20.8390  -17.1430   -1.2260 C   0  0  0  0  0
   21.5300  -17.4170   -0.2530 O   0  0  0  0  0
   20.2590  -15.7970   -1.2860 O   0  0  0  0  0
   20.5870  -14.9470   -0.1630 C   0  0  0  0  0
   21.8460  -14.2870   -0.3540 O   0  0  0  0  0
   21.9240  -13.3660   -1.4510 C   0  0  0  0  0
   23.2370  -12.6110   -1.2960 C   0  0  0  0  0
   24.2450  -13.2540   -2.0860 O   0  0  0  0  0
   20.7530  -12.3750   -1.5470 C   0  0  0  0  0
   20.6410  -11.9530   -2.9100 O   0  0  0  0  0
   19.3970  -12.9250   -1.0930 C   0  0  0  0  0
   18.5560  -11.8340   -0.7160 O   0  0  0  0  0
   19.5510  -13.8470    0.1110 C   0  0  0  0  0
   18.2930  -14.5450    0.3520 N   0  0  0  0  0
   17.6800  -14.5110    1.5370 C   0  0  0  0  0
   18.1270  -13.8980    2.4920 O   0  0  0  0  0
   16.3960  -15.2760    1.6340 C   0  0  0  0  0
   21.0096  -18.9662   -2.1699 H   0  0  0  0  0
   20.0238  -17.7663   -3.0123 H   0  0  0  0  0
   20.6144  -15.6303    0.6858 H   0  0  0  0  0
   21.8709  -13.9397   -2.3763 H   0  0  0  0  0
   23.5377  -12.6105   -0.2483 H   0  0  0  0  0
   23.1096  -11.5819   -1.6318 H   0  0  0  0  0
   25.0748  -12.7807   -1.9909 H   0  0  0  0  0
   20.9851  -11.5584   -0.8633 H   0  0  0  0  0
   19.9137  -11.3319   -2.9928 H   0  0  0  0  0
   18.9640  -13.4896   -1.9187 H   0  0  0  0  0
   17.7041  -12.1720   -0.4303 H   0  0  0  0  0
   19.8544  -13.2272    0.9547 H   0  0  0  0  0
   17.8687  -15.0756   -0.4088 H   0  0  0  0  0
   16.4887  -16.0429    2.4030 H   0  0  0  0  0
   15.5869  -14.5938    1.8950 H   0  0  0  0  0
   16.1813  -15.7461    0.6743 H   0  0  0  0  0
  1  2  1  0  0  0
  2  3  2  0  0  0
  2  4  1  0  0  0
  4  5  1  0  0  0
  5  6  1  0  0  0
  5 14  1  0  0  0
  6  7  1  0  0  0
  7  8  1  0  0  0
  7 10  1  0  0  0
  8  9  1  0  0  0
 10 11  1  0  0  0
 10 12  1  0  0  0
 12 13  1  0  0  0
 12 14  1  0  0  0
 14 15  1  0  0  0
 15 16  1  0  0  0
 16 17  2  0  0  0
 16 18  1  0  0  0
  1 19  1  0  0  0
  1 20  1  0  0  0
  5 21  1  0  0  0
  7 22  1  0  0  0
  8 23  1  0  0  0
  8 24  1  0  0  0
  9 25  1  0  0  0
 10 26  1  0  0  0
 11 27  1  0  0  0
 12 28  1  0  0  0
 13 29  1  0  0  0
 14 30  1  0  0  0
 15 31  1  0  0  0
 18 32  1  0  0  0
 18 33  1  0  0  0
 18 34  1  0  0  0
M  END
$$$$
