3kdc_ligand
  -I-interpret- 

 80 84  0  0  0  0  0  0  0  0999 V2000
   19.0900   22.1470   20.4520 S   0  0  0  0  0
   12.3610   17.6690   21.3570 Cl  0  0  0  0  0
   14.1570   21.2080   17.7710 N   0  0  0  0  0
   12.5220   19.2220   18.6710 O   0  0  0  0  0
   10.9940   18.8880   16.0050 Cl  0  0  0  0  0
   17.3870   23.6120   19.1520 N   0  0  0  0  0
   16.3310   25.1970   17.9420 O   0  0  0  0  0
   19.9230   25.5870   17.5570 N   0  0  0  0  0
   19.3530   23.4370   17.1670 O   0  0  0  0  0
   13.9170   24.2070   18.6240 O   0  0  0  0  0
   21.6270   27.5140   17.8270 O   0  0  0  0  0
   15.9660   19.9430   18.2290 O   0  0  0  0  0
   14.7570   20.0670   18.1290 C   0  0  0  0  0
   14.9220   22.3780   17.3640 C   0  0  0  0  0
   15.0390   23.3230   18.5620 C   0  0  0  0  0
   14.3410   23.0380   16.1090 C   0  0  0  0  0
   16.3170   24.1220   18.5250 C   0  0  0  0  0
   18.6460   24.3770   19.2200 C   0  0  0  0  0
   19.5500   23.8300   20.3260 C   0  0  0  0  0
   17.4670   22.3010   19.8110 C   0  0  0  0  0
   19.3450   24.4260   17.8850 C   0  0  0  0  0
   13.8830   18.8690   18.4160 C   0  0  0  0  0
   13.9620   21.9860   15.0950 C   0  0  0  0  0
   14.9490   21.2490   14.4360 C   0  0  0  0  0
   14.5820   20.2760   13.5060 C   0  0  0  0  0
   13.2340   20.0370   13.2390 C   0  0  0  0  0
   12.2490   20.7750   13.8970 C   0  0  0  0  0
   12.6140   21.7490   14.8250 C   0  0  0  0  0
   21.0490   23.9300   20.0560 C   0  0  0  0  0
   19.2370   24.5230   21.6310 C   0  0  0  0  0
   20.7920   25.7330   16.4030 C   0  0  0  0  0
   20.0660   26.2750   15.2420 C   0  0  0  0  0
   18.8850   25.8130   14.6750 C   0  0  0  0  0
   18.3920   26.5040   13.5630 C   0  0  0  0  0
   21.9070   26.7660   16.6410 C   0  0  0  0  0
   20.7590   27.4370   14.6840 C   0  0  0  0  0
   20.2490   28.1080   13.5820 C   0  0  0  0  0
   19.0570   27.6210   13.0310 C   0  0  0  0  0
   22.0080   27.7460   15.4610 C   0  0  0  0  0
    9.7250   16.0700   18.6660 C   0  0  0  0  0
   10.4720   16.3220   19.8200 C   0  0  0  0  0
   11.4100   17.3510   19.8710 C   0  0  0  0  0
   11.6040   18.2030   18.6760 C   0  0  0  0  0
   10.7920   17.8950   17.4760 C   0  0  0  0  0
    9.8770   16.8430   17.5100 C   0  0  0  0  0
   13.1384   21.2595   17.7835 H   0  0  0  0  0
   19.7459   26.4036   18.1419 H   0  0  0  0  0
   14.0113   24.7893   19.3814 H   0  0  0  0  0
   22.3253   28.1568   17.9709 H   0  0  0  0  0
   15.9281   22.0808   17.0683 H   0  0  0  0  0
   15.0549   22.7012   19.4571 H   0  0  0  0  0
   15.0904   23.6993   15.6741 H   0  0  0  0  0
   13.4520   23.6058   16.3834 H   0  0  0  0  0
   18.4005   25.4080   19.4747 H   0  0  0  0  0
   16.7286   22.2253   20.6092 H   0  0  0  0  0
   17.2548   21.5001   19.1027 H   0  0  0  0  0
   13.9009   18.2255   17.5364 H   0  0  0  0  0
   14.2726   18.3787   19.3082 H   0  0  0  0  0
   16.0022   21.4335   14.6477 H   0  0  0  0  0
   15.3497   19.7018   12.9873 H   0  0  0  0  0
   12.9495   19.2729   12.5156 H   0  0  0  0  0
   11.1958   20.5900   13.6856 H   0  0  0  0  0
   11.8457   22.3258   15.3400 H   0  0  0  0  0
   21.2924   23.3702   19.1529 H   0  0  0  0  0
   21.3237   24.9762   19.9216 H   0  0  0  0  0
   21.5976   23.5147   20.9013 H   0  0  0  0  0
   19.4071   25.5941   21.5220 H   0  0  0  0  0
   18.1946   24.3443   21.8949 H   0  0  0  0  0
   19.8842   24.1289   22.4145 H   0  0  0  0  0
   21.1836   24.7304   16.2310 H   0  0  0  0  0
   18.3630   24.9463   15.0805 H   0  0  0  0  0
   17.4665   26.1663   13.0966 H   0  0  0  0  0
   22.8489   26.2270   16.7433 H   0  0  0  0  0
   20.7548   28.9777   13.1626 H   0  0  0  0  0
   18.6322   28.1244   12.1625 H   0  0  0  0  0
   22.9196   27.6225   14.8764 H   0  0  0  0  0
   22.0737   28.7885   15.7724 H   0  0  0  0  0
    9.0060   15.2507   18.6667 H   0  0  0  0  0
   10.3171   15.6989   20.7008 H   0  0  0  0  0
    9.2753   16.6213   16.6286 H   0  0  0  0  0
  1 19  1  0  0  0
 20  1  1  0  0  0
 42  2  1  0  0  0
 13  3  1  0  0  0
  3 14  1  0  0  0
  4 22  1  0  0  0
 43  4  1  0  0  0
 44  5  1  0  0  0
 17  6  1  0  0  0
  6 18  1  0  0  0
  6 20  1  0  0  0
 17  7  2  0  0  0
 21  8  1  0  0  0
  8 31  1  0  0  0
 21  9  2  0  0  0
 15 10  1  0  0  0
 35 11  1  0  0  0
 13 12  2  0  0  0
 22 13  1  0  0  0
 14 15  1  0  0  0
 14 16  1  0  0  0
 15 17  1  0  0  0
 16 23  1  0  0  0
 18 19  1  0  0  0
 18 21  1  0  0  0
 19 29  1  0  0  0
 19 30  1  0  0  0
 23 24  4  0  0  0
 23 28  4  0  0  0
 24 25  4  0  0  0
 25 26  4  0  0  0
 27 26  4  0  0  0
 28 27  4  0  0  0
 31 32  1  0  0  0
 31 35  1  0  0  0
 32 33  4  0  0  0
 32 36  4  0  0  0
 33 34  4  0  0  0
 34 38  4  0  0  0
 35 39  1  0  0  0
 36 37  4  0  0  0
 39 36  1  0  0  0
 37 38  4  0  0  0
 41 40  4  0  0  0
 40 45  4  0  0  0
 42 41  4  0  0  0
 43 42  4  0  0  0
 43 44  4  0  0  0
 44 45  4  0  0  0
  3 46  1  0  0  0
  8 47  1  0  0  0
 10 48  1  0  0  0
 11 49  1  0  0  0
 14 50  1  0  0  0
 15 51  1  0  0  0
 16 52  1  0  0  0
 16 53  1  0  0  0
 18 54  1  0  0  0
 20 55  1  0  0  0
 20 56  1  0  0  0
 22 57  1  0  0  0
 22 58  1  0  0  0
 24 59  1  0  0  0
 25 60  1  0  0  0
 26 61  1  0  0  0
 27 62  1  0  0  0
 28 63  1  0  0  0
 29 64  1  0  0  0
 29 65  1  0  0  0
 29 66  1  0  0  0
 30 67  1  0  0  0
 30 68  1  0  0  0
 30 69  1  0  0  0
 31 70  1  0  0  0
 33 71  1  0  0  0
 34 72  1  0  0  0
 35 73  1  0  0  0
 37 74  1  0  0  0
 38 75  1  0  0  0
 39 76  1  0  0  0
 39 77  1  0  0  0
 40 78  1  0  0  0
 41 79  1  0  0  0
 45 80  1  0  0  0
M  END
$$$$
