6q4e_ligand
  -I-interpret- 

 14 15  0  0  0  0  0  0  0  0999 V2000
   -1.0950   -2.3680  -26.0480 C   0  0  0  0  0
    0.3620   -3.4170  -27.2800 C   0  0  0  0  0
    2.4850   -5.5070  -29.0350 N   0  0  0  0  0
    1.0370   -6.0190  -27.2870 N   0  0  0  0  0
   -0.2470   -4.2980  -26.3710 C   0  0  0  0  0
   -1.1780   -3.6100  -25.6010 N   0  0  0  0  0
    1.5960   -5.0830  -28.1180 C   0  0  0  0  0
    0.1270   -5.6130  -26.4050 C   0  0  0  0  0
   -0.6130   -6.9780  -25.0090 I   0  0  0  0  0
   -0.1610   -2.1830  -27.0370 N   0  0  0  0  0
    1.3330   -3.7550  -28.1570 N   0  0  0  0  0
   -1.7161   -1.5591  -25.6634 H   0  0  0  0  0
    2.7229   -6.4970  -29.0950 H   0  0  0  0  0
    2.9209   -4.8383  -29.6700 H   0  0  0  0  0
  6  1  4  0  0  0
  1 10  4  0  0  0
  5  2  4  0  0  0
  2 10  4  0  0  0
  2 11  4  0  0  0
  7  3  1  0  0  0
  4  7  4  0  0  0
  8  4  4  0  0  0
  5  6  4  0  0  0
  5  8  4  0  0  0
  7 11  4  0  0  0
  8  9  1  0  0  0
  1 12  1  0  0  0
  3 13  1  0  0  0
  3 14  1  0  0  0
M  END
$$$$
