5j7f_ligand
  -I-interpret- 

 79 83  0  0  0  0  0  0  0  0999 V2000
   52.3700   14.5220   37.6990 O   0  0  0  0  0
   52.7950   13.5490   38.2720 C   0  0  0  0  0
   54.0640   13.5090   38.6510 O   0  0  0  0  0
   51.8840   12.3710   38.5300 C   0  0  0  0  0
   50.5780   12.5490   37.7750 C   0  0  0  0  0
   50.0810   11.2360   37.2320 C   0  0  0  0  0
   50.8610   10.3630   36.8680 O   0  0  0  0  0
   48.7650   11.1420   37.1800 N   0  0  0  0  0
   48.1370    9.9950   36.5900 C   0  0  0  0  0
   46.7810    9.7750   37.2340 C   0  0  0  0  0
   46.1840    8.6160   36.4690 C   0  0  0  0  0
   44.7510    8.3950   36.8710 C   0  0  0  0  0
   44.2600    7.3110   35.9260 C   0  0  0  0  0
   42.9720    6.7180   36.4190 C   0  0  0  0  0
   43.2310    6.1350   37.6690 O   0  0  0  0  0
   42.2130    5.3450   38.2970 C   0  0  0  0  0
   41.1890    5.0640   37.7120 O   0  0  0  0  0
   42.3750    4.9880   39.6780 C   0  0  0  0  0
   41.5480    4.2650   40.4340 N   0  0  0  0  0
   41.9440    4.1940   41.7110 C   0  0  0  0  0
   41.4560    3.6020   42.8390 C   0  0  0  0  0
   42.0970    3.6640   44.0230 C   0  0  0  0  0
   41.4890    2.8290   45.4780 Cl  0  0  0  0  0
   43.4450    5.5000   40.5270 C   0  0  0  0  0
   43.2030    4.9570   41.8500 C   0  0  0  0  0
   43.8310    5.0110   43.0580 C   0  0  0  0  0
   43.2910    4.3990   44.1560 C   0  0  0  0  0
   44.6840    6.3120   40.2790 C   0  0  0  0  0
   45.7340    5.8440   39.6420 N   0  0  0  0  0
   45.8740    4.5550   38.9300 C   0  0  0  0  0
   45.7880    3.3300   39.8310 C   0  0  0  0  0
   45.2470    2.1400   39.3140 C   0  0  0  0  0
   45.1500    1.0260   40.1360 C   0  0  0  0  0
   45.5910    1.1010   41.4090 C   0  0  0  0  0
   45.5290   -0.2850   42.4770 Cl  0  0  0  0  0
   46.1150    2.2610   41.9730 C   0  0  0  0  0
   46.2360    3.3920   41.1500 C   0  0  0  0  0
   46.6880    6.8040   39.7290 C   0  0  0  0  0
   46.2830    7.8640   40.4660 N   0  0  0  0  0
   45.0090    7.6270   40.8770 C   0  0  0  0  0
   44.1980    8.6050   41.5900 C   0  0  0  0  0
   42.8580    8.6830   41.3370 C   0  0  0  0  0
   42.0940    9.6830   41.9370 C   0  0  0  0  0
   42.7170   10.6070   42.7770 C   0  0  0  0  0
   41.9820   11.5460   43.3970 F   0  0  0  0  0
   44.0730   10.5360   43.0350 C   0  0  0  0  0
   44.8080    9.5710   42.3730 C   0  0  0  0  0
   54.2397   12.6732   39.0894 H   0  0  0  0  0
   51.6750   12.3065   39.5978 H   0  0  0  0  0
   52.3732   11.4582   38.1900 H   0  0  0  0  0
   50.7481   13.2291   36.9403 H   0  0  0  0  0
   49.8306   12.9474   38.4611 H   0  0  0  0  0
   48.1894   11.8920   37.5629 H   0  0  0  0  0
   48.7620    9.1162   36.7488 H   0  0  0  0  0
   48.0091   10.1604   35.5202 H   0  0  0  0  0
   46.1543   10.6654   37.1825 H   0  0  0  0  0
   46.8640    9.5623   38.2998 H   0  0  0  0  0
   46.7554    7.7150   36.6920 H   0  0  0  0  0
   46.2202    8.8414   35.4032 H   0  0  0  0  0
   44.1577    9.3062   36.7945 H   0  0  0  0  0
   44.6583    8.1012   37.9166 H   0  0  0  0  0
   45.0120    6.5237   35.8729 H   0  0  0  0  0
   44.0910    7.7513   34.9433 H   0  0  0  0  0
   42.6020    5.9702   35.7175 H   0  0  0  0  0
   42.2056    7.4880   36.5076 H   0  0  0  0  0
   40.5128    3.0588   42.7806 H   0  0  0  0  0
   44.7749    5.5482   43.1507 H   0  0  0  0  0
   43.7811    4.4796   45.1263 H   0  0  0  0  0
   46.8627    4.5473   38.4711 H   0  0  0  0  0
   45.0500    4.4895   38.2194 H   0  0  0  0  0
   44.9075    2.0927   38.2793 H   0  0  0  0  0
   44.7213    0.0985   39.7565 H   0  0  0  0  0
   46.4211    2.2901   43.0187 H   0  0  0  0  0
   46.6762    4.3103   41.5386 H   0  0  0  0  0
   47.6687    6.7301   39.2590 H   0  0  0  0  0
   42.3865    7.9642   40.6668 H   0  0  0  0  0
   41.0215    9.7425   41.7520 H   0  0  0  0  0
   44.5478   11.2198   43.7386 H   0  0  0  0  0
   45.8937    9.5700   42.4693 H   0  0  0  0  0
  1  2  2  0  0  0
  2  3  1  0  0  0
  2  4  1  0  0  0
  4  5  1  0  0  0
  5  6  1  0  0  0
  6  7  2  0  0  0
  6  8  1  0  0  0
  8  9  1  0  0  0
  9 10  1  0  0  0
 10 11  1  0  0  0
 11 12  1  0  0  0
 12 13  1  0  0  0
 13 14  1  0  0  0
 14 15  1  0  0  0
 15 16  1  0  0  0
 16 17  2  0  0  0
 16 18  1  0  0  0
 18 19  4  0  0  0
 18 24  4  0  0  0
 19 20  4  0  0  0
 20 21  4  0  0  0
 20 25  4  0  0  0
 21 22  4  0  0  0
 22 23  1  0  0  0
 22 27  4  0  0  0
 24 25  4  0  0  0
 24 28  1  0  0  0
 25 26  4  0  0  0
 26 27  4  0  0  0
 28 29  4  0  0  0
 28 40  4  0  0  0
 29 30  1  0  0  0
 29 38  4  0  0  0
 30 31  1  0  0  0
 31 32  4  0  0  0
 31 37  4  0  0  0
 32 33  4  0  0  0
 33 34  4  0  0  0
 34 35  1  0  0  0
 34 36  4  0  0  0
 36 37  4  0  0  0
 38 39  4  0  0  0
 39 40  4  0  0  0
 40 41  1  0  0  0
 41 42  4  0  0  0
 41 47  4  0  0  0
 42 43  4  0  0  0
 43 44  4  0  0  0
 44 45  1  0  0  0
 44 46  4  0  0  0
 46 47  4  0  0  0
  3 48  1  0  0  0
  4 49  1  0  0  0
  4 50  1  0  0  0
  5 51  1  0  0  0
  5 52  1  0  0  0
  8 53  1  0  0  0
  9 54  1  0  0  0
  9 55  1  0  0  0
 10 56  1  0  0  0
 10 57  1  0  0  0
 11 58  1  0  0  0
 11 59  1  0  0  0
 12 60  1  0  0  0
 12 61  1  0  0  0
 13 62  1  0  0  0
 13 63  1  0  0  0
 14 64  1  0  0  0
 14 65  1  0  0  0
 21 66  1  0  0  0
 26 67  1  0  0  0
 27 68  1  0  0  0
 30 69  1  0  0  0
 30 70  1  0  0  0
 32 71  1  0  0  0
 33 72  1  0  0  0
 36 73  1  0  0  0
 37 74  1  0  0  0
 38 75  1  0  0  0
 42 76  1  0  0  0
 43 77  1  0  0  0
 46 78  1  0  0  0
 47 79  1  0  0  0
M  END
$$$$
