6mzq_ligand
  -I-interpret- 

 53 56  0  0  0  0  0  0  0  0999 V2000
  -11.7630  -10.7360    7.5680 C   0  0  0  0  0
  -12.9560  -11.5140    7.7050 O   0  0  0  0  0
  -12.9760  -12.3800    8.7440 C   0  0  0  0  0
  -14.1480  -12.3560    9.4430 C   0  0  0  0  0
  -11.9130  -13.1780    9.0980 C   0  0  0  0  0
  -12.0420  -13.9980   10.2150 C   0  0  0  0  0
  -11.0250  -14.7970   10.6460 O   0  0  0  0  0
   -9.8090  -14.7770    9.8640 C   0  0  0  0  0
  -13.2430  -14.0270   10.9390 C   0  0  0  0  0
  -14.2990  -13.1770   10.5460 C   0  0  0  0  0
  -15.4820  -13.2160   11.1920 C   0  0  0  0  0
  -16.3830  -13.1830   11.6840 C   0  0  0  0  0
  -17.5930  -13.1480   12.3450 C   0  0  0  0  0
  -18.6220  -13.9980   12.2710 N   0  0  0  0  0
  -17.8140  -12.1070   13.2600 C   0  0  0  0  0
  -17.1040  -10.9720   13.7540 C   0  0  0  0  0
  -15.8590  -10.6450   13.2700 N   0  0  0  0  0
  -17.7150  -10.2090   14.6560 N   0  0  0  0  0
  -18.9880  -10.5900   15.0340 C   0  0  0  0  0
  -19.7710  -11.6300   14.6740 N   0  0  0  0  0
  -19.0920  -12.3540   13.7630 C   0  0  0  0  0
  -19.5490  -13.4800   13.1420 N   0  0  0  0  0
  -20.8480  -14.1620   13.2950 C   0  0  0  0  0
  -20.9760  -15.2210   12.2440 C   0  0  0  0  0
  -22.0720  -13.2400   13.1560 C   0  0  0  0  0
  -22.5600  -13.2940   11.7630 C   0  0  0  0  0
  -21.8060  -14.4880   11.2230 N   0  0  0  0  0
  -21.8050  -15.0220    9.9630 C   0  0  0  0  0
  -21.1290  -16.0530    9.7050 O   0  0  0  0  0
  -22.6100  -14.3430    8.9100 C   0  0  0  0  0
  -22.6510  -14.7670    7.6320 C   0  0  0  0  0
  -11.6153  -10.1383    8.4674 H   0  0  0  0  0
  -10.9110  -11.4013    7.4283 H   0  0  0  0  0
  -11.8572  -10.0778    6.7042 H   0  0  0  0  0
  -14.9583  -11.6954    9.1347 H   0  0  0  0  0
  -10.9908  -13.1683    8.5170 H   0  0  0  0  0
  -10.0281  -15.0981    8.8457 H   0  0  0  0  0
   -9.4053  -13.7646    9.8482 H   0  0  0  0  0
   -9.0801  -15.4532   10.3107 H   0  0  0  0  0
  -13.3590  -14.6957   11.7920 H   0  0  0  0  0
  -15.4271  -11.2178   12.5450 H   0  0  0  0  0
  -15.3675   -9.8296   13.6361 H   0  0  0  0  0
  -19.4490   -9.9233   15.7627 H   0  0  0  0  0
  -20.8476  -14.5629   14.3086 H   0  0  0  0  0
  -21.4204  -16.1513   12.5977 H   0  0  0  0  0
  -20.0241  -15.5920   11.8641 H   0  0  0  0  0
  -21.7918  -12.2171   13.4076 H   0  0  0  0  0
  -22.8592  -13.5699   13.8340 H   0  0  0  0  0
  -22.3809  -12.3762   11.2029 H   0  0  0  0  0
  -23.6428  -13.3908   11.6844 H   0  0  0  0  0
  -23.1921  -13.4636    9.1857 H   0  0  0  0  0
  -22.0782  -15.6438    7.3301 H   0  0  0  0  0
  -23.2570  -14.2332    6.8999 H   0  0  0  0  0
  1  2  1  0  0  0
  2  3  1  0  0  0
  3  4  4  0  0  0
  3  5  4  0  0  0
  4 10  4  0  0  0
  5  6  4  0  0  0
  6  7  1  0  0  0
  6  9  4  0  0  0
  7  8  1  0  0  0
  9 10  4  0  0  0
 10 11  1  0  0  0
 11 12  3  0  0  0
 12 13  1  0  0  0
 13 14  4  0  0  0
 13 15  4  0  0  0
 14 22  4  0  0  0
 15 16  4  0  0  0
 15 21  4  0  0  0
 16 17  1  0  0  0
 16 18  4  0  0  0
 18 19  4  0  0  0
 19 20  4  0  0  0
 20 21  4  0  0  0
 21 22  4  0  0  0
 22 23  1  0  0  0
 23 24  1  0  0  0
 23 25  1  0  0  0
 24 27  1  0  0  0
 25 26  1  0  0  0
 26 27  1  0  0  0
 27 28  1  0  0  0
 28 29  2  0  0  0
 28 30  1  0  0  0
 30 31  2  0  0  0
  1 32  1  0  0  0
  1 33  1  0  0  0
  1 34  1  0  0  0
  4 35  1  0  0  0
  5 36  1  0  0  0
  8 37  1  0  0  0
  8 38  1  0  0  0
  8 39  1  0  0  0
  9 40  1  0  0  0
 17 41  1  0  0  0
 17 42  1  0  0  0
 19 43  1  0  0  0
 23 44  1  0  0  0
 24 45  1  0  0  0
 24 46  1  0  0  0
 25 47  1  0  0  0
 25 48  1  0  0  0
 26 49  1  0  0  0
 26 50  1  0  0  0
 30 51  1  0  0  0
 31 52  1  0  0  0
 31 53  1  0  0  0
M  END
$$$$
