6aah_ligand
  -I-interpret- 

 45 49  0  0  0  0  0  0  0  0999 V2000
  -14.4830    0.3810  -14.9860 C   0  0  0  0  0
  -17.2180   -1.4590  -12.5370 C   0  0  0  0  0
  -13.6500    0.7390  -14.0100 C   0  0  0  0  0
  -15.5710   -0.3080  -14.4030 C   0  0  0  0  0
  -17.6150   -1.5420  -13.8510 C   0  0  0  0  0
  -16.7700   -0.9360  -14.8370 C   0  0  0  0  0
  -15.2570   -0.2800  -13.0480 C   0  0  0  0  0
  -18.8760   -2.2470  -14.1710 C   0  0  0  0  0
  -18.4720    1.3430  -17.2920 C   0  0  0  0  0
  -18.5250   -0.6260  -18.8110 C   0  0  0  0  0
  -18.1540    1.6170  -19.7800 C   0  0  0  0  0
  -16.2540    2.0600  -18.2080 C   0  0  0  0  0
  -16.2490    0.0350  -19.6860 C   0  0  0  0  0
  -18.9020    0.8540  -18.6820 C   0  0  0  0  0
  -16.9600    1.2310  -17.1310 C   0  0  0  0  0
  -16.9970   -0.7740  -18.6060 C   0  0  0  0  0
  -16.5370   -0.2490  -17.2530 C   0  0  0  0  0
  -16.6440    1.5190  -19.5910 C   0  0  0  0  0
  -16.0900   -0.8730  -12.1710 N   0  0  0  0  0
  -14.1280    0.3340  -12.8550 N   0  0  0  0  0
  -19.6440   -2.8770  -13.2400 N   0  0  0  0  0
  -17.1200   -1.0200  -16.1550 N   0  0  0  0  0
  -19.2690   -2.2890  -15.3220 O   0  0  0  0  0
  -16.0090    2.2780  -20.6120 O   0  0  0  0  0
  -14.3491    0.5839  -16.0485 H   0  0  0  0  0
  -17.8571   -1.8926  -11.7678 H   0  0  0  0  0
  -12.7161    1.2838  -14.1482 H   0  0  0  0  0
  -18.9556    0.7264  -16.5343 H   0  0  0  0  0
  -18.7640    2.3869  -17.1777 H   0  0  0  0  0
  -18.8013   -0.9918  -19.7999 H   0  0  0  0  0
  -19.0560   -1.2085  -18.0581 H   0  0  0  0  0
  -18.4427    2.6670  -19.7318 H   0  0  0  0  0
  -18.4125    1.1799  -20.7445 H   0  0  0  0  0
  -15.1742    1.9897  -18.0769 H   0  0  0  0  0
  -16.5545    3.1044  -18.1238 H   0  0  0  0  0
  -16.5151   -0.3468  -20.6717 H   0  0  0  0  0
  -15.1746   -0.0630  -19.5306 H   0  0  0  0  0
  -19.9748    1.0116  -18.7928 H   0  0  0  0  0
  -16.6762    1.6110  -16.1496 H   0  0  0  0  0
  -16.7765   -1.8396  -18.6682 H   0  0  0  0  0
  -15.4533   -0.3453  -17.1873 H   0  0  0  0  0
  -20.5010   -3.3523  -13.5228 H   0  0  0  0  0
  -19.3624   -2.8737  -12.2597 H   0  0  0  0  0
  -17.8571   -1.6826  -16.3960 H   0  0  0  0  0
  -15.0566    2.2242  -20.5038 H   0  0  0  0  0
  1  3  4  0  0  0
  4  1  4  0  0  0
  5  2  4  0  0  0
  2 19  4  0  0  0
 20  3  4  0  0  0
  6  4  4  0  0  0
  4  7  4  0  0  0
  6  5  4  0  0  0
  5  8  1  0  0  0
 22  6  1  0  0  0
  7 19  4  0  0  0
  7 20  4  0  0  0
  8 21  1  0  0  0
  8 23  2  0  0  0
  9 14  1  0  0  0
 15  9  1  0  0  0
 10 14  1  0  0  0
 16 10  1  0  0  0
 14 11  1  0  0  0
 18 11  1  0  0  0
 15 12  1  0  0  0
 12 18  1  0  0  0
 16 13  1  0  0  0
 13 18  1  0  0  0
 17 15  1  0  0  0
 17 16  1  0  0  0
 17 22  1  0  0  0
 18 24  1  0  0  0
  1 25  1  0  0  0
  2 26  1  0  0  0
  3 27  1  0  0  0
  9 28  1  0  0  0
  9 29  1  0  0  0
 10 30  1  0  0  0
 10 31  1  0  0  0
 11 32  1  0  0  0
 11 33  1  0  0  0
 12 34  1  0  0  0
 12 35  1  0  0  0
 13 36  1  0  0  0
 13 37  1  0  0  0
 14 38  1  0  0  0
 15 39  1  0  0  0
 16 40  1  0  0  0
 17 41  1  0  0  0
 21 42  1  0  0  0
 21 43  1  0  0  0
 22 44  1  0  0  0
 24 45  1  0  0  0
M  END
$$$$
