### 
### Created by X-TOOL on Mon Sep 10 21:13:03 2018
### 

@<TRIPOS>MOLECULE
3hs8_ligand
  185   191     1     0     0
SMALL
GAST_HUCK


@<TRIPOS>ATOM
      1 N          61.1150    6.7510  -15.0060 N.4       1 PRO         0.2461
      2 CA         60.1430    6.5030  -13.9440 C.3       1 PRO         0.0670
      3 C          60.8100    6.4840  -12.5710 C.2       1 PRO         0.2269
      4 O          61.9790    6.0810  -12.4670 O.2       1 PRO        -0.3907
      5 CB         59.6010    5.1140  -14.2920 C.3       1 PRO         0.0127
      6 CG         60.7420    4.4250  -14.9960 C.3       1 PRO        -0.0053
      7 CD         61.6000    5.5010  -15.6290 C.3       1 PRO        -0.0313
      8 N          60.0830    6.9170  -11.5330 N.am      1 ASN        -0.2589
      9 CA         60.5900    6.8490  -10.1510 C.3       1 ASN         0.1477
     10 C          59.7610    7.6040   -9.1060 C.2       1 ASN         0.2064
     11 O          59.3630    7.0260   -8.0920 O.2       1 ASN        -0.3942
     12 CB         62.0520    7.3390  -10.0770 C.3       1 ASN         0.0773
     13 CG         62.9120    6.5150   -9.1220 C.2       1 ASN         0.1780
     14 OD1        62.4250    5.9710   -8.1230 O.2       1 ASN        -0.3970
     15 ND2        64.2060    6.4280   -9.4290 N.am      1 ASN        -0.3007
     16 N          59.4940    8.8850   -9.3670 N.am      1 ASN        -0.2615
     17 CA         59.1670    9.8410   -8.2960 C.3       1 ASN         0.1476
     18 C          57.7140    9.9590   -7.7820 C.2       1 ASN         0.2063
     19 O          56.7390    9.6330   -8.4750 O.2       1 ASN        -0.3942
     20 CB         59.7440   11.2320   -8.6220 C.3       1 ASN         0.0773
     21 CG         59.2050   11.8060   -9.9220 C.2       1 ASN         0.1780
     22 OD1        58.4100   11.1680  -10.6220 O.2       1 ASN        -0.3970
     23 ND2        59.6410   13.0210  -10.2530 N.am      1 ASN        -0.3007
     24 N          57.6190   10.4780   -6.5590 N.am      1 TRP        -0.2625
     25 CA         56.4390   10.4080   -5.7170 C.3       1 TRP         0.1352
     26 C          55.7920   11.7740   -5.5350 C.2       1 TRP         0.2052
     27 O          56.4710   12.7970   -5.6360 O.2       1 TRP        -0.3942
     28 CB         56.8830    9.9350   -4.3280 C.3       1 TRP         0.0042
     29 CG         57.3150    8.4990   -4.2340 C.2       1 TRP        -0.0418
     30 CD1        57.3890    7.5840   -5.2490 C.2       1 TRP         0.0167
     31 CD2        57.7640    7.8220   -3.0510 C.ar      1 TRP        -0.0214
     32 NE1        57.8350    6.3790   -4.7670 N.pl3     1 TRP        -0.2890
     33 CE2        58.0780    6.4980   -3.4220 C.ar      1 TRP         0.0603
     34 CE3        57.9270    8.2070   -1.7090 C.ar      1 TRP        -0.0747
     35 CZ2        58.5450    5.5540   -2.5000 C.ar      1 TRP        -0.0443
     36 CZ3        58.3900    7.2660   -0.7900 C.ar      1 TRP        -0.0792
     37 CH2        58.6930    5.9560   -1.1930 C.ar      1 TRP        -0.0768
     38 N          54.4840   11.7900   -5.2560 N.am      1 ALA        -0.2639
     39 CA         53.8920   12.9120   -4.5360 C.3       1 ALA         0.1282
     40 C          54.7870   12.9840   -3.3170 C.2       1 ALA         0.2037
     41 O          54.8420   12.0290   -2.5180 O.2       1 ALA        -0.3944
     42 CB         52.4670   12.6080   -4.1260 C.3       1 ALA        -0.0244
     43 N          55.5550   14.0600   -3.1920 N.am      1 ASP        -0.2622
     44 CA         56.5720   14.0370   -2.1440 C.3       1 ASP         0.1423
     45 C          56.1210   14.7020   -0.8470 C.2       1 ASP         0.2057
     46 O          55.5400   15.8030   -0.8520 O.2       1 ASP        -0.3943
     47 CB         57.9920   14.4130   -2.6550 C.3       1 ASP         0.0406
     48 CG         58.4290   15.8340   -2.2970 C.2       1 ASP         0.0393
     49 OD1        59.0320   16.4870   -3.1720 O.co2     1 ASP        -0.5688
     50 OD2        58.2250   16.2910   -1.1490 O.co2     1 ASP        -0.5688
     51 N          56.3420   13.9730    0.2430 N.am      1 PHE        -0.2618
     52 CA         56.1040   14.4550    1.5910 C.3       1 PHE         0.1404
     53 C          57.4340   14.2740    2.3070 C.2       1 PHE         0.2060
     54 O          58.3110   13.5600    1.8060 O.2       1 PHE        -0.3942
     55 CB         55.0030   13.6330    2.2870 C.3       1 PHE         0.0214
     56 CG         53.7050   13.5780    1.5380 C.ar      1 PHE        -0.0386
     57 CD1        52.7110   14.5180    1.7750 C.ar      1 PHE        -0.0601
     58 CD2        53.4780   12.5830    0.5870 C.ar      1 PHE        -0.0601
     59 CE1        51.5210   14.4830    1.0730 C.ar      1 PHE        -0.0686
     60 CE2        52.2760   12.5420   -0.1270 C.ar      1 PHE        -0.0686
     61 CZ         51.2990   13.4880    0.1230 C.ar      1 PHE        -0.0687
     62 N          57.6000   14.9250    3.4580 N.am      1 SER        -0.2614
     63 CA         58.8690   14.8630    4.2020 C.3       1 SER         0.1539
     64 C          58.6420   14.9580    5.7120 C.2       1 SER         0.2062
     65 O          57.9200   15.8460    6.1760 O.2       1 SER        -0.3943
     66 CB         59.8070   15.9790    3.7370 C.3       1 SER         0.0843
     67 OG         61.0650   15.9140    4.3990 O.3       1 SER        -0.3903
     68 N          59.2470   14.0350    6.4610 N.am      1 SER        -0.2615
     69 CA         59.1910   14.0340    7.9310 C.3       1 SER         0.1539
     70 C          60.1630   15.0410    8.5580 C.2       1 SER         0.2063
     71 O          60.0900   15.3440    9.7560 O.2       1 SER        -0.3943
     72 CB         59.4780   12.6350    8.4710 C.3       1 SER         0.0843
     73 OG         58.2950   11.8660    8.4940 O.3       1 SER        -0.3903
     74 N          61.0780   15.5510    7.7440 N.am      1 THR        -0.2613
     75 CA         62.0370   16.5420    8.2080 C.3       1 THR         0.1565
     76 C          61.8960   17.8390    7.3890 C.2       1 THR         0.2066
     77 O          60.8640   18.5060    7.4710 O.2       1 THR        -0.3943
     78 CB         63.4830   15.9630    8.2590 C.3       1 THR         0.0924
     79 OG1        63.7470   15.2300    7.0600 O.3       1 THR        -0.3874
     80 CG2        63.6520   15.0150    9.4580 C.3       1 THR        -0.0346
     81 N          62.9140   18.2200    6.6150 N.am      1 TRP        -0.2626
     82 CA         62.9020   19.4930    5.8860 C.3       1 TRP         0.1353
     83 C          62.0490   19.3950    4.6690 C.2       1 TRP         0.2071
     84 O          61.8600   18.2960    4.1830 O.2       1 TRP        -0.3941
     85 CB         64.3090   19.8830    5.4470 C.3       1 TRP         0.0042
     86 CG         65.2220   19.8920    6.5720 C.2       1 TRP        -0.0418
     87 CD1        66.0780   18.9260    6.9330 C.2       1 TRP         0.0167
     88 CD2        65.3210   20.9070    7.5370 C.ar      1 TRP        -0.0214
     89 NE1        66.7230   19.2790    8.0710 N.pl3     1 TRP        -0.2890
     90 CE2        66.2770   20.5120    8.4520 C.ar      1 TRP         0.0603
     91 CE3        64.6910   22.1220    7.7110 C.ar      1 TRP        -0.0747
     92 CZ2        66.6040   21.2760    9.5290 C.ar      1 TRP        -0.0443
     93 CZ3        65.0320   22.8710    8.7500 C.ar      1 TRP        -0.0792
     94 CH2        65.9840   22.4570    9.6520 C.ar      1 TRP        -0.0768
     95 N          61.5220   20.5120    4.1460 N.am      1 PRO        -0.2555
     96 CA         61.7730   21.9040    4.5710 C.3       1 PRO         0.0972
     97 C          63.1760   22.5480    4.8560 C.2       1 PRO         0.0603
     98 O          63.3100   23.7710    4.6780 O.co2     1 PRO        -0.5666
     99 CB         60.7770   22.0510    5.6860 C.3       1 PRO        -0.0159
    100 CG         59.5620   21.4440    5.0240 C.3       1 PRO        -0.0288
    101 CD         60.0610   20.3520    4.0640 C.3       1 PRO         0.0362
    102 OXT        64.0950   21.8080    5.2480 O.co2     1 PRO        -0.5666
    103 H1         61.9023    7.2447  -14.6155 H         1 PRO         0.2035
    104 H2         60.6806    7.3193  -15.7162 H         1 PRO         0.2035
    105 H3         59.3433    7.2582  -13.9556 H         1 PRO         0.1099
    106 H4         58.7270    5.1933  -14.9552 H         1 PRO         0.0347
    107 H5         59.3207    4.5669  -13.3798 H         1 PRO         0.0347
    108 H6         60.3522    3.7500  -15.7722 H         1 PRO         0.0320
    109 H7         61.3363    3.8475  -14.2726 H         1 PRO         0.0320
    110 H8         62.6639    5.3374  -15.4025 H         1 PRO         0.0814
    111 H9         61.4567    5.5254  -16.7193 H         1 PRO         0.0814
    112 H10        59.1729    7.2962  -11.7000 H         1 ASN         0.1886
    113 H11        60.5757    5.7871   -9.8644 H         1 ASN         0.0826
    114 H12        62.0539    8.3848   -9.7360 H         1 ASN         0.0551
    115 H13        62.4922    7.2806  -11.0834 H         1 ASN         0.0551
    116 H14        64.8244    5.9029   -8.8443 H         1 ASN         0.1814
    117 H15        64.5585    6.8878  -10.2441 H         1 ASN         0.1814
    118 H16        59.5166    9.2040  -10.3145 H         1 ASN         0.1885
    119 H17        59.7310    9.4744   -7.4257 H         1 ASN         0.0826
    120 H18        60.8379   11.1483   -8.7022 H         1 ASN         0.0551
    121 H19        59.4879   11.9192   -7.8021 H         1 ASN         0.0551
    122 H20        59.3233   13.4535  -11.0968 H         1 ASN         0.1814
    123 H21        60.2859   13.5002   -9.6576 H         1 ASN         0.1814
    124 H22        58.4206   10.9512   -6.1937 H         1 TRP         0.1884
    125 H23        55.7133    9.7058   -6.1531 H         1 TRP         0.0815
    126 H24        56.0399   10.0798   -3.6365 H         1 TRP         0.0397
    127 H25        57.7287   10.5633   -4.0117 H         1 TRP         0.0397
    128 H26        57.1314    7.7832   -6.2882 H         1 TRP         0.0795
    129 H27        57.9662    5.5232   -5.3250 H         1 TRP         0.2216
    130 H28        57.6967    9.2183   -1.3938 H         1 TRP         0.0540
    131 H29        58.7818    4.5412   -2.8055 H         1 TRP         0.0541
    132 H30        58.5175    7.5496    0.2484 H         1 TRP         0.0510
    133 H31        59.0518    5.2451   -0.4575 H         1 TRP         0.0530
    134 H32        53.9067   11.0258   -5.5436 H         1 ALA         0.1883
    135 H33        53.9242   13.8396   -5.1263 H         1 ALA         0.0797
    136 H34        52.0488   13.4706   -3.5865 H         1 ALA         0.0277
    137 H35        52.4545   11.7246   -3.4707 H         1 ALA         0.0277
    138 H36        51.8621   12.4080   -5.0227 H         1 ALA         0.0277
    139 H37        55.4418   14.8531   -3.7905 H         1 ASP         0.1884
    140 H38        56.6630   12.9742   -1.8755 H         1 ASP         0.0819
    141 H39        58.0022   14.3143   -3.7505 H         1 ASP         0.0478
    142 H40        58.7145   13.7088   -2.2166 H         1 ASP         0.0478
    143 H41        56.6908   13.0429    0.1276 H         1 PHE         0.1885
    144 H42        55.8130   15.5157    1.5754 H         1 PHE         0.0823
    145 H43        54.8121   14.0795    3.2740 H         1 PHE         0.0474
    146 H44        55.3704   12.6041    2.4148 H         1 PHE         0.0474
    147 H45        52.8703   15.2891    2.5201 H         1 PHE         0.0557
    148 H46        54.2399   11.8350    0.3997 H         1 PHE         0.0557
    149 H47        50.7592   15.2307    1.2617 H         1 PHE         0.0599
    150 H48        52.1112   11.7725   -0.8725 H         1 PHE         0.0599
    151 H49        50.3611   13.4556   -0.4196 H         1 PHE         0.0559
    152 H50        56.8449   15.4683    3.8249 H         1 SER         0.1884
    153 H51        59.3459   13.8953    3.9872 H         1 SER         0.0823
    154 H52        59.3398   16.9513    3.9524 H         1 SER         0.0606
    155 H53        59.9682   15.8818    2.6532 H         1 SER         0.0606
    156 H54        61.6217   16.6183    4.0885 H         1 SER         0.2097
    157 H55        59.7620   13.3108    6.0025 H         1 SER         0.1884
    158 H56        58.1709   14.3179    8.2289 H         1 SER         0.0823
    159 H57        59.8782   12.7155    9.4924 H         1 SER         0.0606
    160 H58        60.2188   12.1416    7.8247 H         1 SER         0.0606
    161 H59        57.6543   12.2893    9.0533 H         1 SER         0.2097
    162 H60        61.1093   15.2480    6.7915 H         1 THR         0.1884
    163 H61        61.7684   16.7938    9.2445 H         1 THR         0.0826
    164 H62        64.1995   16.7928    8.3484 H         1 THR         0.0639
    165 H63        64.6287   14.8780    7.0930 H         1 THR         0.2101
    166 H64        64.6787   14.6205    9.4716 H         1 THR         0.0257
    167 H65        62.9401   14.1812    9.3694 H         1 THR         0.0257
    168 H66        63.4582   15.5651   10.3906 H         1 THR         0.0257
    169 H67        63.7091   17.6196    6.5293 H         1 TRP         0.1884
    170 H68        62.5004   20.2742    6.5482 H         1 TRP         0.0815
    171 H69        64.2804   20.8874    4.9994 H         1 TRP         0.0397
    172 H70        64.6662   19.1587    4.7001 H         1 TRP         0.0397
    173 H71        66.2325   17.9941    6.3911 H         1 TRP         0.0795
    174 H72        67.4289   18.7140    8.5643 H         1 TRP         0.2216
    175 H73        63.9328   22.4571    7.0125 H         1 TRP         0.0540
    176 H74        67.3352   20.9432   10.2567 H         1 TRP         0.0541
    177 H75        64.5497   23.8314    8.8919 H         1 TRP         0.0510
    178 H76        66.2393   23.1032   10.4841 H         1 TRP         0.0530
    179 H77        61.4065   22.5162    3.7339 H         1 PRO         0.0728
    180 H78        60.6138   23.1056    5.9529 H         1 PRO         0.0306
    181 H79        61.0791   21.4885    6.5817 H         1 PRO         0.0306
    182 H80        59.0138   22.2157    4.4637 H         1 PRO         0.0286
    183 H81        58.9002   21.0031    5.7840 H         1 PRO         0.0286
    184 H82        59.7495   19.3521    4.4004 H         1 PRO         0.0524
    185 H83        59.6975   20.5242    3.0402 H         1 PRO         0.0524
@<TRIPOS>BOND
     1    1    2 1  
     2    1    7 1  
     3    2    3 1  
     4    2    5 1  
     5    3    4 2  
     6    3    8 am 
     7    5    6 1  
     8    6    7 1  
     9    8    9 1  
    10    9   10 1  
    11    9   12 1  
    12   10   11 2  
    13   10   16 am 
    14   12   13 1  
    15   13   14 2  
    16   13   15 am 
    17   16   17 1  
    18   17   18 1  
    19   17   20 1  
    20   18   19 2  
    21   18   24 am 
    22   20   21 1  
    23   21   22 2  
    24   21   23 am 
    25   24   25 1  
    26   25   26 1  
    27   25   28 1  
    28   26   27 2  
    29   26   38 am 
    30   28   29 1  
    31   29   30 2  
    32   29   31 1  
    33   30   32 1  
    34   31   33 ar 
    35   31   34 ar 
    36   32   33 1  
    37   33   35 ar 
    38   34   36 ar 
    39   35   37 ar 
    40   36   37 ar 
    41   38   39 1  
    42   39   40 1  
    43   39   42 1  
    44   40   41 2  
    45   40   43 am 
    46   43   44 1  
    47   44   45 1  
    48   44   47 1  
    49   45   46 2  
    50   45   51 am 
    51   47   48 1  
    52   48   49 ar 
    53   48   50 ar 
    54   51   52 1  
    55   52   53 1  
    56   52   55 1  
    57   53   54 2  
    58   53   62 am 
    59   55   56 1  
    60   56   57 ar 
    61   56   58 ar 
    62   57   59 ar 
    63   58   60 ar 
    64   59   61 ar 
    65   60   61 ar 
    66   62   63 1  
    67   63   64 1  
    68   63   66 1  
    69   64   65 2  
    70   64   68 am 
    71   66   67 1  
    72   68   69 1  
    73   69   70 1  
    74   69   72 1  
    75   70   71 2  
    76   70   74 am 
    77   72   73 1  
    78   74   75 1  
    79   75   76 1  
    80   75   78 1  
    81   76   77 2  
    82   76   81 am 
    83   78   79 1  
    84   78   80 1  
    85   81   82 1  
    86   82   83 1  
    87   82   85 1  
    88   83   84 2  
    89   83   95 am 
    90   85   86 1  
    91   86   87 2  
    92   86   88 1  
    93   87   89 1  
    94   88   90 ar 
    95   88   91 ar 
    96   89   90 1  
    97   90   92 ar 
    98   91   93 ar 
    99   92   94 ar 
   100   93   94 ar 
   101   95   96 1  
   102   95  101 1  
   103   96   97 1  
   104   96   99 1  
   105   97   98 ar 
   106   97  102 ar 
   107   99  100 1  
   108  100  101 1  
   109    1  103 1  
   110    1  104 1  
   111    2  105 1  
   112    5  106 1  
   113    5  107 1  
   114    6  108 1  
   115    6  109 1  
   116    7  110 1  
   117    7  111 1  
   118    8  112 1  
   119    9  113 1  
   120   12  114 1  
   121   12  115 1  
   122   15  116 1  
   123   15  117 1  
   124   16  118 1  
   125   17  119 1  
   126   20  120 1  
   127   20  121 1  
   128   23  122 1  
   129   23  123 1  
   130   24  124 1  
   131   25  125 1  
   132   28  126 1  
   133   28  127 1  
   134   30  128 1  
   135   32  129 1  
   136   34  130 1  
   137   35  131 1  
   138   36  132 1  
   139   37  133 1  
   140   38  134 1  
   141   39  135 1  
   142   42  136 1  
   143   42  137 1  
   144   42  138 1  
   145   43  139 1  
   146   44  140 1  
   147   47  141 1  
   148   47  142 1  
   149   51  143 1  
   150   52  144 1  
   151   55  145 1  
   152   55  146 1  
   153   57  147 1  
   154   58  148 1  
   155   59  149 1  
   156   60  150 1  
   157   61  151 1  
   158   62  152 1  
   159   63  153 1  
   160   66  154 1  
   161   66  155 1  
   162   67  156 1  
   163   68  157 1  
   164   69  158 1  
   165   72  159 1  
   166   72  160 1  
   167   73  161 1  
   168   74  162 1  
   169   75  163 1  
   170   78  164 1  
   171   79  165 1  
   172   80  166 1  
   173   80  167 1  
   174   80  168 1  
   175   81  169 1  
   176   82  170 1  
   177   85  171 1  
   178   85  172 1  
   179   87  173 1  
   180   89  174 1  
   181   91  175 1  
   182   92  176 1  
   183   93  177 1  
   184   94  178 1  
   185   96  179 1  
   186   99  180 1  
   187   99  181 1  
   188  100  182 1  
   189  100  183 1  
   190  101  184 1  
   191  101  185 1  
@<TRIPOS>SUBSTRUCTURE
     1 PRO         1

