3hs8_ligand
  -I-interpret- 

185191  0  0  0  0  0  0  0  0999 V2000
   61.1150    6.7510  -15.0060 N   0  3  0  0  0
   60.1430    6.5030  -13.9440 C   0  0  0  0  0
   60.8100    6.4840  -12.5710 C   0  0  0  0  0
   61.9790    6.0810  -12.4670 O   0  0  0  0  0
   59.6010    5.1140  -14.2920 C   0  0  0  0  0
   60.7420    4.4250  -14.9960 C   0  0  0  0  0
   61.6000    5.5010  -15.6290 C   0  0  0  0  0
   60.0830    6.9170  -11.5330 N   0  0  0  0  0
   60.5900    6.8490  -10.1510 C   0  0  0  0  0
   59.7610    7.6040   -9.1060 C   0  0  0  0  0
   59.3630    7.0260   -8.0920 O   0  0  0  0  0
   62.0520    7.3390  -10.0770 C   0  0  0  0  0
   62.9120    6.5150   -9.1220 C   0  0  0  0  0
   62.4250    5.9710   -8.1230 O   0  0  0  0  0
   64.2060    6.4280   -9.4290 N   0  0  0  0  0
   59.4940    8.8850   -9.3670 N   0  0  0  0  0
   59.1670    9.8410   -8.2960 C   0  0  0  0  0
   57.7140    9.9590   -7.7820 C   0  0  0  0  0
   56.7390    9.6330   -8.4750 O   0  0  0  0  0
   59.7440   11.2320   -8.6220 C   0  0  0  0  0
   59.2050   11.8060   -9.9220 C   0  0  0  0  0
   58.4100   11.1680  -10.6220 O   0  0  0  0  0
   59.6410   13.0210  -10.2530 N   0  0  0  0  0
   57.6190   10.4780   -6.5590 N   0  0  0  0  0
   56.4390   10.4080   -5.7170 C   0  0  0  0  0
   55.7920   11.7740   -5.5350 C   0  0  0  0  0
   56.4710   12.7970   -5.6360 O   0  0  0  0  0
   56.8830    9.9350   -4.3280 C   0  0  0  0  0
   57.3150    8.4990   -4.2340 C   0  0  0  0  0
   57.3890    7.5840   -5.2490 C   0  0  0  0  0
   57.7640    7.8220   -3.0510 C   0  0  0  0  0
   57.8350    6.3790   -4.7670 N   0  0  0  0  0
   58.0780    6.4980   -3.4220 C   0  0  0  0  0
   57.9270    8.2070   -1.7090 C   0  0  0  0  0
   58.5450    5.5540   -2.5000 C   0  0  0  0  0
   58.3900    7.2660   -0.7900 C   0  0  0  0  0
   58.6930    5.9560   -1.1930 C   0  0  0  0  0
   54.4840   11.7900   -5.2560 N   0  0  0  0  0
   53.8920   12.9120   -4.5360 C   0  0  0  0  0
   54.7870   12.9840   -3.3170 C   0  0  0  0  0
   54.8420   12.0290   -2.5180 O   0  0  0  0  0
   52.4670   12.6080   -4.1260 C   0  0  0  0  0
   55.5550   14.0600   -3.1920 N   0  0  0  0  0
   56.5720   14.0370   -2.1440 C   0  0  0  0  0
   56.1210   14.7020   -0.8470 C   0  0  0  0  0
   55.5400   15.8030   -0.8520 O   0  0  0  0  0
   57.9920   14.4130   -2.6550 C   0  0  0  0  0
   58.4290   15.8340   -2.2970 C   0  0  0  0  0
   59.0320   16.4870   -3.1720 O   0  0  0  0  0
   58.2250   16.2910   -1.1490 O   0  0  0  0  0
   56.3420   13.9730    0.2430 N   0  0  0  0  0
   56.1040   14.4550    1.5910 C   0  0  0  0  0
   57.4340   14.2740    2.3070 C   0  0  0  0  0
   58.3110   13.5600    1.8060 O   0  0  0  0  0
   55.0030   13.6330    2.2870 C   0  0  0  0  0
   53.7050   13.5780    1.5380 C   0  0  0  0  0
   52.7110   14.5180    1.7750 C   0  0  0  0  0
   53.4780   12.5830    0.5870 C   0  0  0  0  0
   51.5210   14.4830    1.0730 C   0  0  0  0  0
   52.2760   12.5420   -0.1270 C   0  0  0  0  0
   51.2990   13.4880    0.1230 C   0  0  0  0  0
   57.6000   14.9250    3.4580 N   0  0  0  0  0
   58.8690   14.8630    4.2020 C   0  0  0  0  0
   58.6420   14.9580    5.7120 C   0  0  0  0  0
   57.9200   15.8460    6.1760 O   0  0  0  0  0
   59.8070   15.9790    3.7370 C   0  0  0  0  0
   61.0650   15.9140    4.3990 O   0  0  0  0  0
   59.2470   14.0350    6.4610 N   0  0  0  0  0
   59.1910   14.0340    7.9310 C   0  0  0  0  0
   60.1630   15.0410    8.5580 C   0  0  0  0  0
   60.0900   15.3440    9.7560 O   0  0  0  0  0
   59.4780   12.6350    8.4710 C   0  0  0  0  0
   58.2950   11.8660    8.4940 O   0  0  0  0  0
   61.0780   15.5510    7.7440 N   0  0  0  0  0
   62.0370   16.5420    8.2080 C   0  0  0  0  0
   61.8960   17.8390    7.3890 C   0  0  0  0  0
   60.8640   18.5060    7.4710 O   0  0  0  0  0
   63.4830   15.9630    8.2590 C   0  0  0  0  0
   63.7470   15.2300    7.0600 O   0  0  0  0  0
   63.6520   15.0150    9.4580 C   0  0  0  0  0
   62.9140   18.2200    6.6150 N   0  0  0  0  0
   62.9020   19.4930    5.8860 C   0  0  0  0  0
   62.0490   19.3950    4.6690 C   0  0  0  0  0
   61.8600   18.2960    4.1830 O   0  0  0  0  0
   64.3090   19.8830    5.4470 C   0  0  0  0  0
   65.2220   19.8920    6.5720 C   0  0  0  0  0
   66.0780   18.9260    6.9330 C   0  0  0  0  0
   65.3210   20.9070    7.5370 C   0  0  0  0  0
   66.7230   19.2790    8.0710 N   0  0  0  0  0
   66.2770   20.5120    8.4520 C   0  0  0  0  0
   64.6910   22.1220    7.7110 C   0  0  0  0  0
   66.6040   21.2760    9.5290 C   0  0  0  0  0
   65.0320   22.8710    8.7500 C   0  0  0  0  0
   65.9840   22.4570    9.6520 C   0  0  0  0  0
   61.5220   20.5120    4.1460 N   0  0  0  0  0
   61.7730   21.9040    4.5710 C   0  0  0  0  0
   63.1760   22.5480    4.8560 C   0  0  0  0  0
   63.3100   23.7710    4.6780 O   0  0  0  0  0
   60.7770   22.0510    5.6860 C   0  0  0  0  0
   59.5620   21.4440    5.0240 C   0  0  0  0  0
   60.0610   20.3520    4.0640 C   0  0  0  0  0
   64.0950   21.8080    5.2480 O   0  0  0  0  0
   61.9161    7.2304  -14.5951 H   0  0  0  0  0
   60.6580    7.3072  -15.7286 H   0  0  0  0  0
   59.3741    7.2735  -13.8876 H   0  0  0  0  0
   58.7104    5.1695  -14.9179 H   0  0  0  0  0
   59.2807    4.5678  -13.4047 H   0  0  0  0  0
   60.3645    3.7411  -15.7562 H   0  0  0  0  0
   61.3271    3.8364  -14.2894 H   0  0  0  0  0
   62.6640    5.3376  -15.4576 H   0  0  0  0  0
   61.5110    5.5171  -16.7152 H   0  0  0  0  0
   59.1547    7.3037  -11.7033 H   0  0  0  0  0
   60.5133    5.7925   -9.8942 H   0  0  0  0  0
   62.0393    8.3652   -9.7097 H   0  0  0  0  0
   62.4830    7.2472  -11.0739 H   0  0  0  0  0
   64.8377    5.8966   -8.8299 H   0  0  0  0  0
   64.5646    6.8928  -10.2631 H   0  0  0  0  0
   59.5170    9.2104  -10.3334 H   0  0  0  0  0
   59.6525    9.3747   -7.4387 H   0  0  0  0  0
   60.8240   11.1283   -8.7263 H   0  0  0  0  0
   59.4587   11.9080   -7.8160 H   0  0  0  0  0
   59.3185   13.4613  -11.1147 H   0  0  0  0  0
   60.2972   13.5106   -9.6447 H   0  0  0  0  0
   58.4367   10.9607   -6.1864 H   0  0  0  0  0
   55.7227    9.7347   -6.1878 H   0  0  0  0  0
   56.0161   10.0392   -3.6755 H   0  0  0  0  0
   57.7521   10.5362   -4.0611 H   0  0  0  0  0
   57.1312    7.7834   -6.2891 H   0  0  0  0  0
   57.6954    9.2239   -1.3921 H   0  0  0  0  0
   58.7831    4.5356   -2.8072 H   0  0  0  0  0
   58.5182    7.5512    0.2542 H   0  0  0  0  0
   59.0537    5.2412   -0.4534 H   0  0  0  0  0
   53.8951   11.0105   -5.5494 H   0  0  0  0  0
   53.8366   13.8325   -5.1172 H   0  0  0  0  0
   51.8688   12.4100   -5.0154 H   0  0  0  0  0
   52.4560   11.7325   -3.4768 H   0  0  0  0  0
   52.0537   13.4634   -3.5916 H   0  0  0  0  0
   55.4395   14.8689   -3.8025 H   0  0  0  0  0
   56.6907   12.9943   -1.8492 H   0  0  0  0  0
   57.9711   14.3467   -3.7428 H   0  0  0  0  0
   58.6966   13.7300   -2.1805 H   0  0  0  0  0
   57.7489   15.6410   -0.6270 H   0  0  0  0  0
   56.6978   13.0243    0.1253 H   0  0  0  0  0
   55.7639   15.4906    1.5977 H   0  0  0  0  0
   54.8004   14.1145    3.2437 H   0  0  0  0  0
   55.3699   12.6097    2.3673 H   0  0  0  0  0
   52.8712   15.2934    2.5242 H   0  0  0  0  0
   54.2441   11.8309    0.3987 H   0  0  0  0  0
   50.7550   15.2348    1.2627 H   0  0  0  0  0
   52.1103   11.7683   -0.8767 H   0  0  0  0  0
   50.3559   13.4555   -0.4226 H   0  0  0  0  0
   56.8298   15.4792    3.8323 H   0  0  0  0  0
   59.3295   13.8968    3.9959 H   0  0  0  0  0
   59.3440   16.9380    3.9697 H   0  0  0  0  0
   59.9746   15.8648    2.6660 H   0  0  0  0  0
   61.6276   16.6258    4.0852 H   0  0  0  0  0
   59.7723   13.2963    5.9933 H   0  0  0  0  0
   58.1818   14.3380    8.2089 H   0  0  0  0  0
   59.8677   12.7184    9.4855 H   0  0  0  0  0
   60.2070   12.1468    7.8242 H   0  0  0  0  0
   58.4905   10.9903    8.8353 H   0  0  0  0  0
   61.1099   15.2419    6.7725 H   0  0  0  0  0
   61.8132   16.8081    9.2411 H   0  0  0  0  0
   64.1791   16.7957    8.3597 H   0  0  0  0  0
   64.6380   14.8742    7.0934 H   0  0  0  0  0
   63.4597   15.5613   10.3814 H   0  0  0  0  0
   62.9460   14.1893    9.3690 H   0  0  0  0  0
   64.6697   14.6248    9.4704 H   0  0  0  0  0
   63.7250   17.6076    6.5276 H   0  0  0  0  0
   62.5029   20.2479    6.5634 H   0  0  0  0  0
   64.2755   20.8839    5.0166 H   0  0  0  0  0
   64.6615   19.1542    4.7172 H   0  0  0  0  0
   66.2326   17.9932    6.3907 H   0  0  0  0  0
   63.9286   22.4590    7.0086 H   0  0  0  0  0
   67.3393   20.9414   10.2608 H   0  0  0  0  0
   64.5470   23.8367    8.8927 H   0  0  0  0  0
   66.2407   23.1067   10.4887 H   0  0  0  0  0
   61.6872   22.5169    3.6737 H   0  0  0  0  0
   60.6381   23.0733    6.0376 H   0  0  0  0  0
   61.0697   21.5732    6.6209 H   0  0  0  0  0
   59.0024   22.2050    4.4801 H   0  0  0  0  0
   58.8913   21.0194    5.7710 H   0  0  0  0  0
   59.7215   19.3524    4.3353 H   0  0  0  0  0
   59.6724   20.4588    3.0512 H   0  0  0  0  0
   63.7718   20.9066    5.3154 H   0  0  0  0  0
  1  2  1  0  0  0
  1  7  1  0  0  0
  2  3  1  0  0  0
  2  5  1  0  0  0
  3  4  2  0  0  0
  3  8  1  0  0  0
  5  6  1  0  0  0
  6  7  1  0  0  0
  8  9  1  0  0  0
  9 10  1  0  0  0
  9 12  1  0  0  0
 10 11  2  0  0  0
 10 16  1  0  0  0
 12 13  1  0  0  0
 13 14  2  0  0  0
 13 15  1  0  0  0
 16 17  1  0  0  0
 17 18  1  0  0  0
 17 20  1  0  0  0
 18 19  2  0  0  0
 18 24  1  0  0  0
 20 21  1  0  0  0
 21 22  2  0  0  0
 21 23  1  0  0  0
 24 25  1  0  0  0
 25 26  1  0  0  0
 25 28  1  0  0  0
 26 27  2  0  0  0
 26 38  1  0  0  0
 28 29  1  0  0  0
 29 30  4  0  0  0
 29 31  4  0  0  0
 30 32  4  0  0  0
 31 33  4  0  0  0
 31 34  4  0  0  0
 32 33  4  0  0  0
 33 35  4  0  0  0
 34 36  4  0  0  0
 35 37  4  0  0  0
 36 37  4  0  0  0
 38 39  1  0  0  0
 39 40  1  0  0  0
 39 42  1  0  0  0
 40 41  2  0  0  0
 40 43  1  0  0  0
 43 44  1  0  0  0
 44 45  1  0  0  0
 44 47  1  0  0  0
 45 46  2  0  0  0
 45 51  1  0  0  0
 47 48  1  0  0  0
 48 49  2  0  0  0
 48 50  1  0  0  0
 51 52  1  0  0  0
 52 53  1  0  0  0
 52 55  1  0  0  0
 53 54  2  0  0  0
 53 62  1  0  0  0
 55 56  1  0  0  0
 56 57  4  0  0  0
 56 58  4  0  0  0
 57 59  4  0  0  0
 58 60  4  0  0  0
 59 61  4  0  0  0
 60 61  4  0  0  0
 62 63  1  0  0  0
 63 64  1  0  0  0
 63 66  1  0  0  0
 64 65  2  0  0  0
 64 68  1  0  0  0
 66 67  1  0  0  0
 68 69  1  0  0  0
 69 70  1  0  0  0
 69 72  1  0  0  0
 70 71  2  0  0  0
 70 74  1  0  0  0
 72 73  1  0  0  0
 74 75  1  0  0  0
 75 76  1  0  0  0
 75 78  1  0  0  0
 76 77  2  0  0  0
 76 81  1  0  0  0
 78 79  1  0  0  0
 78 80  1  0  0  0
 81 82  1  0  0  0
 82 83  1  0  0  0
 82 85  1  0  0  0
 83 84  2  0  0  0
 83 95  1  0  0  0
 85 86  1  0  0  0
 86 87  4  0  0  0
 86 88  4  0  0  0
 87 89  4  0  0  0
 88 90  4  0  0  0
 88 91  4  0  0  0
 89 90  4  0  0  0
 90 92  4  0  0  0
 91 93  4  0  0  0
 92 94  4  0  0  0
 93 94  4  0  0  0
 95 96  1  0  0  0
 95101  1  0  0  0
 96 97  1  0  0  0
 96 99  1  0  0  0
 97 98  2  0  0  0
 97102  1  0  0  0
 99100  1  0  0  0
100101  1  0  0  0
  1103  1  0  0  0
  1104  1  0  0  0
  2105  1  0  0  0
  5106  1  0  0  0
  5107  1  0  0  0
  6108  1  0  0  0
  6109  1  0  0  0
  7110  1  0  0  0
  7111  1  0  0  0
  8112  1  0  0  0
  9113  1  0  0  0
 12114  1  0  0  0
 12115  1  0  0  0
 15116  1  0  0  0
 15117  1  0  0  0
 16118  1  0  0  0
 17119  1  0  0  0
 20120  1  0  0  0
 20121  1  0  0  0
 23122  1  0  0  0
 23123  1  0  0  0
 24124  1  0  0  0
 25125  1  0  0  0
 28126  1  0  0  0
 28127  1  0  0  0
 30128  1  0  0  0
 34129  1  0  0  0
 35130  1  0  0  0
 36131  1  0  0  0
 37132  1  0  0  0
 38133  1  0  0  0
 39134  1  0  0  0
 42135  1  0  0  0
 42136  1  0  0  0
 42137  1  0  0  0
 43138  1  0  0  0
 44139  1  0  0  0
 47140  1  0  0  0
 47141  1  0  0  0
 50142  1  0  0  0
 51143  1  0  0  0
 52144  1  0  0  0
 55145  1  0  0  0
 55146  1  0  0  0
 57147  1  0  0  0
 58148  1  0  0  0
 59149  1  0  0  0
 60150  1  0  0  0
 61151  1  0  0  0
 62152  1  0  0  0
 63153  1  0  0  0
 66154  1  0  0  0
 66155  1  0  0  0
 67156  1  0  0  0
 68157  1  0  0  0
 69158  1  0  0  0
 72159  1  0  0  0
 72160  1  0  0  0
 73161  1  0  0  0
 74162  1  0  0  0
 75163  1  0  0  0
 78164  1  0  0  0
 79165  1  0  0  0
 80166  1  0  0  0
 80167  1  0  0  0
 80168  1  0  0  0
 81169  1  0  0  0
 82170  1  0  0  0
 85171  1  0  0  0
 85172  1  0  0  0
 87173  1  0  0  0
 91174  1  0  0  0
 92175  1  0  0  0
 93176  1  0  0  0
 94177  1  0  0  0
 96178  1  0  0  0
 99179  1  0  0  0
 99180  1  0  0  0
100181  1  0  0  0
100182  1  0  0  0
101183  1  0  0  0
101184  1  0  0  0
102185  1  0  0  0
M  END
$$$$
