5oae_ligand
  -I-interpret- 

 35 36  0  0  0  0  0  0  0  0999 V2000
  -19.1360   -7.4730   -4.5380 C   0  0  0  0  0
  -18.1430   -6.9440   -3.7310 C   0  0  0  0  0
  -18.8140   -7.9910   -5.7830 C   0  0  0  0  0
  -16.8490   -6.9500   -4.1850 C   0  0  0  0  0
  -17.4990   -7.9750   -6.2220 C   0  0  0  0  0
  -16.5070   -7.4470   -5.4140 C   0  0  0  0  0
  -19.8440   -8.5030   -6.6960 C   0  0  0  0  0
  -19.4830   -8.4400   -8.1200 C   0  0  0  0  0
  -20.7120   -8.1900   -8.9690 C   0  0  0  0  0
  -18.8080   -9.7150   -8.5760 C   0  0  0  0  0
  -20.3140   -8.0800  -10.4260 C   0  0  0  0  0
  -18.4180   -9.5990  -10.0310 C   0  0  0  0  0
  -19.6160   -9.3050  -10.8310 N   0  0  0  0  0
  -19.8080   -9.8420  -12.0570 C   0  0  0  0  0
  -20.4020   -9.2310  -12.9270 O   0  0  0  0  0
  -18.9890  -11.0360  -12.4550 C   0  0  0  0  0
  -15.8680   -6.4170   -3.3870 F   0  0  0  0  0
  -20.1704   -7.4822   -4.1946 H   0  0  0  0  0
  -18.3855   -6.5301   -2.7522 H   0  0  0  0  0
  -17.2465   -8.3780   -7.2028 H   0  0  0  0  0
  -15.4705   -7.4272   -5.7506 H   0  0  0  0  0
  -20.7271   -7.8781   -6.5630 H   0  0  0  0  0
  -19.9930   -9.5546   -6.4511 H   0  0  0  0  0
  -18.7825   -7.6138   -8.2421 H   0  0  0  0  0
  -21.1856   -7.2604   -8.6532 H   0  0  0  0  0
  -21.4094   -9.0188   -8.8471 H   0  0  0  0  0
  -19.4979  -10.5501   -8.4544 H   0  0  0  0  0
  -17.9132   -9.8821   -7.9764 H   0  0  0  0  0
  -19.6547   -7.2225  -10.5607 H   0  0  0  0  0
  -21.2055   -7.9480  -11.0391 H   0  0  0  0  0
  -17.9751  -10.5367  -10.3668 H   0  0  0  0  0
  -17.6913   -8.7956  -10.1519 H   0  0  0  0  0
  -19.6346  -11.7770  -12.9265 H   0  0  0  0  0
  -18.2154  -10.7264  -13.1577 H   0  0  0  0  0
  -18.5246  -11.4683  -11.5686 H   0  0  0  0  0
  1  2  4  0  0  0
  1  3  4  0  0  0
  2  4  4  0  0  0
  3  5  4  0  0  0
  3  7  1  0  0  0
  4  6  4  0  0  0
  4 17  1  0  0  0
  5  6  4  0  0  0
  7  8  1  0  0  0
  8  9  1  0  0  0
  8 10  1  0  0  0
  9 11  1  0  0  0
 10 12  1  0  0  0
 11 13  1  0  0  0
 12 13  1  0  0  0
 13 14  1  0  0  0
 14 15  2  0  0  0
 14 16  1  0  0  0
  1 18  1  0  0  0
  2 19  1  0  0  0
  5 20  1  0  0  0
  6 21  1  0  0  0
  7 22  1  0  0  0
  7 23  1  0  0  0
  8 24  1  0  0  0
  9 25  1  0  0  0
  9 26  1  0  0  0
 10 27  1  0  0  0
 10 28  1  0  0  0
 11 29  1  0  0  0
 11 30  1  0  0  0
 12 31  1  0  0  0
 12 32  1  0  0  0
 16 33  1  0  0  0
 16 34  1  0  0  0
 16 35  1  0  0  0
M  END
$$$$
