### 
### Created by X-TOOL on Mon Sep 10 21:13:05 2018
### 

@<TRIPOS>MOLECULE
2xqq_ligand
  109   108     1     0     0
SMALL
GAST_HUCK


@<TRIPOS>ATOM
      1 C1A        41.4480   31.0370   20.2110 C.2       1 SAC         0.1752
      2 C2A        42.3370   29.8280   20.3030 C.3       1 SAC         0.0258
      3 OAC        40.7770   31.3210   21.2490 O.2       1 SAC        -0.3972
      4 N          41.1490   31.5340   18.9330 N.am      1 SAC        -0.2637
      5 CA         40.0630   32.5400   18.7770 C.3       1 SAC         0.1538
      6 C          38.7520   31.9370   18.4650 C.2       1 SAC         0.2062
      7 O          38.6050   31.0980   17.5600 O.2       1 SAC        -0.3943
      8 CB         40.4040   33.6980   17.8440 C.3       1 SAC         0.0843
      9 OG         41.6340   34.2800   18.2130 O.3       1 SAC        -0.3903
     10 N          37.7420   32.3960   19.2220 N.am      1 ARG        -0.2637
     11 CA         36.3790   31.9040   19.0010 C.3       1 ARG         0.1311
     12 C          35.3860   32.8450   19.6280 C.2       1 ARG         0.2037
     13 O          35.7400   33.7220   20.4150 O.2       1 ARG        -0.3944
     14 CB         36.2080   30.5310   19.5750 C.3       1 ARG        -0.0092
     15 CG         36.3070   30.4660   21.0500 C.3       1 ARG        -0.0156
     16 CD         36.5150   29.0470   21.6550 C.3       1 ARG         0.0627
     17 NE         35.3630   28.2270   21.3800 N.pl3     1 ARG        -0.2723
     18 CZ         35.2590   26.8960   21.4760 C.cat     1 ARG         0.2882
     19 NH1        36.2610   26.1080   21.8290 N.pl3     1 ARG        -0.2849
     20 NH2        34.1150   26.3620   21.1590 N.pl3     1 ARG        -0.2849
     21 N          34.1520   32.6760   19.1880 N.am      1 GLY        -0.2664
     22 CA         33.0910   33.5680   19.5070 C.3       1 GLY         0.1201
     23 C          31.8930   32.8580   20.1140 C.2       1 GLY         0.2008
     24 O          31.7350   31.6440   19.9550 O.2       1 GLY        -0.3947
     25 N          31.0630   33.6490   20.7550 N.am      1 THR        -0.2616
     26 CA         29.8060   33.1800   21.3290 C.3       1 THR         0.1565
     27 C          28.7190   34.1670   21.0300 C.2       1 THR         0.2065
     28 O          29.0060   35.3530   20.8130 O.2       1 THR        -0.3943
     29 CB         29.9150   32.9600   22.8870 C.3       1 THR         0.0924
     30 OG1        30.0430   34.2550   23.5470 O.3       1 THR        -0.3874
     31 CG2        31.0960   32.0800   23.2600 C.3       1 THR        -0.0346
     32 N          27.4720   33.7070   21.0160 N.am      1 GLN        -0.2635
     33 CA         26.3010   34.5330   20.8490 C.3       1 GLN         0.1330
     34 C          25.1720   33.9990   21.7220 C.2       1 GLN         0.2041
     35 O          24.7590   32.8660   21.5500 O.2       1 GLN        -0.3944
     36 CB         25.8990   34.5690   19.3800 C.3       1 GLN         0.0045
     37 CG         24.6620   35.4140   19.1180 C.3       1 GLN         0.0412
     38 CD         24.8310   36.8470   19.5280 C.2       1 GLN         0.1737
     39 OE1        25.7490   37.5200   19.0470 O.2       1 GLN        -0.3973
     40 NE2        24.0010   37.3430   20.4710 N.am      1 GLN        -0.3009
     41 N          24.5710   34.8480   22.5840 N.am      1 THR        -0.2613
     42 CA         23.4340   34.4400   23.3880 C.3       1 THR         0.1564
     43 C          22.2690   34.1940   22.4870 C.2       1 THR         0.2059
     44 O          22.1500   34.8140   21.4040 O.2       1 THR        -0.3943
     45 CB         23.0810   35.5430   24.4170 C.3       1 THR         0.0924
     46 OG1        22.9530   36.7880   23.7680 O.3       1 THR        -0.3874
     47 CG2        24.0560   35.6180   25.5170 C.3       1 THR        -0.0346
     48 N          21.4170   33.2830   22.9440 N.am      1 GLU        -0.2693
     49 CA         20.1410   32.9820   22.3240 C.3       1 GLU         0.0959
     50 C          19.1070   34.1260   22.4380 C.2       1 GLU         0.0602
     51 O          18.3210   34.3840   21.5110 O.co2     1 GLU        -0.5666
     52 CB         19.6140   31.6510   22.9960 C.3       1 GLU        -0.0064
     53 CG         20.5620   30.5220   22.6320 C.3       1 GLU         0.0038
     54 CD         20.3640   29.1560   23.3000 C.2       1 GLU         0.0350
     55 OE1        19.5190   28.9530   24.2460 O.co2     1 GLU        -0.5690
     56 OE2        21.1410   28.2400   22.8350 O.co2     1 GLU        -0.5690
     57 OXT        19.1270   34.8400   23.4780 O.co2     1 GLU        -0.5666
     58 H          43.0651   29.9738   21.1010 H         1 SAC         0.0467
     59 H          41.7307   28.9483   20.5189 H         1 SAC         0.0467
     60 H          42.8575   29.6884   19.3555 H         1 SAC         0.0467
     61 H          41.6708   31.2090   18.1190 H         1 SAC         0.1883
     62 H          39.9733   32.9882   19.7665 H         1 SAC         0.0823
     63 H          39.6197   34.4519   17.9122 H         1 SAC         0.0606
     64 H          40.4810   33.3215   16.8240 H         1 SAC         0.0606
     65 H          41.5736   34.6097   19.1126 H         1 SAC         0.2097
     66 H          37.9233   33.0866   19.9504 H         1 ARG         0.1883
     67 H          36.2029   31.8539   17.9265 H         1 ARG         0.0800
     68 H          37.0127   29.9149   19.1738 H         1 ARG         0.0313
     69 H          35.2059   30.1959   19.3074 H         1 ARG         0.0313
     70 H          35.3552   30.8288   21.4380 H         1 ARG         0.0301
     71 H          37.1861   31.0490   21.3248 H         1 ARG         0.0301
     72 H          36.6493   29.1306   22.7335 H         1 ARG         0.0689
     73 H          37.3981   28.5901   21.2083 H         1 ARG         0.0689
     74 H          34.5243   28.7209   21.0749 H         1 ARG         0.2642
     75 H          37.1735   26.5092   22.0454 H         1 ARG         0.2615
     76 H          36.1212   25.0992   21.8848 H         1 ARG         0.2615
     77 H          33.3432   26.9542   20.8524 H         1 ARG         0.2615
     78 H          33.9904   25.3513   21.2172 H         1 ARG         0.2615
     79 H          33.9514   31.8714   18.5941 H         1 GLY         0.1881
     80 H          32.7650   34.0454   18.5829 H         1 GLY         0.0763
     81 H          33.4635   34.2836   20.2400 H         1 GLY         0.0763
     82 H          31.3078   34.6340   20.8559 H         1 THR         0.1884
     83 H          29.5710   32.2166   20.8764 H         1 THR         0.0826
     84 H          29.0096   32.4506   23.2169 H         1 THR         0.0639
     85 H          30.8321   34.6989   23.2279 H         1 THR         0.2101
     86 H          30.9846   31.1047   22.7863 H         1 THR         0.0257
     87 H          32.0188   32.5483   22.9178 H         1 THR         0.0257
     88 H          31.1288   31.9579   24.3426 H         1 THR         0.0257
     89 H          27.3338   32.7030   21.1310 H         1 GLN         0.1883
     90 H          26.5202   35.5539   21.1618 H         1 GLN         0.0801
     91 H          25.6721   33.5476   19.0745 H         1 GLN         0.0337
     92 H          26.7249   35.0105   18.8222 H         1 GLN         0.0337
     93 H          23.8445   34.9956   19.7051 H         1 GLN         0.0504
     94 H          24.4701   35.3968   18.0452 H         1 GLN         0.0504
     95 H          24.1227   38.2987   20.8059 H         1 GLN         0.1814
     96 H          23.2525   36.7618   20.8483 H         1 GLN         0.1814
     97 H          24.9256   35.8003   22.6719 H         1 THR         0.1884
     98 H          23.6812   33.5279   23.9311 H         1 THR         0.0826
     99 H          22.1249   35.2774   24.8680 H         1 THR         0.0639
    100 H          22.2554   36.7347   23.1106 H         1 THR         0.2101
    101 H          24.0832   34.6634   26.0424 H         1 THR         0.0257
    102 H          25.0432   35.8392   25.1113 H         1 THR         0.0257
    103 H          23.7611   36.4068   26.2091 H         1 THR         0.0257
    104 H          21.6762   32.7633   23.7825 H         1 GLU         0.1875
    105 H          20.2826   32.8594   21.2502 H         1 GLU         0.0727
    106 H          18.6097   31.4247   22.6377 H         1 GLU         0.0323
    107 H          19.5745   31.7703   24.0787 H         1 GLU         0.0323
    108 H          21.5455   30.8592   22.9592 H         1 GLU         0.0432
    109 H          20.3997   30.3454   21.5687 H         1 GLU         0.0432
@<TRIPOS>BOND
     1    1    2 1  
     2    1    3 2  
     3    1    4 am 
     4    4    5 1  
     5    5    6 1  
     6    5    8 1  
     7    6    7 2  
     8    6   10 am 
     9    8    9 1  
    10   10   11 1  
    11   11   12 1  
    12   11   14 1  
    13   12   13 2  
    14   12   21 am 
    15   14   15 1  
    16   15   16 1  
    17   16   17 1  
    18   17   18 ar 
    19   18   19 ar 
    20   18   20 ar 
    21   21   22 1  
    22   22   23 1  
    23   23   24 2  
    24   23   25 am 
    25   25   26 1  
    26   26   27 1  
    27   26   29 1  
    28   27   28 2  
    29   27   32 am 
    30   29   30 1  
    31   29   31 1  
    32   32   33 1  
    33   33   34 1  
    34   33   36 1  
    35   34   35 2  
    36   34   41 am 
    37   36   37 1  
    38   37   38 1  
    39   38   39 2  
    40   38   40 am 
    41   41   42 1  
    42   42   43 1  
    43   42   45 1  
    44   43   44 2  
    45   43   48 am 
    46   45   46 1  
    47   45   47 1  
    48   48   49 1  
    49   49   50 1  
    50   49   52 1  
    51   50   51 ar 
    52   50   57 ar 
    53   52   53 1  
    54   53   54 1  
    55   54   55 ar 
    56   54   56 ar 
    57    2   58 1  
    58    2   59 1  
    59    2   60 1  
    60    4   61 1  
    61    5   62 1  
    62    8   63 1  
    63    8   64 1  
    64    9   65 1  
    65   10   66 1  
    66   11   67 1  
    67   14   68 1  
    68   14   69 1  
    69   15   70 1  
    70   15   71 1  
    71   16   72 1  
    72   16   73 1  
    73   17   74 1  
    74   19   75 1  
    75   19   76 1  
    76   20   77 1  
    77   20   78 1  
    78   21   79 1  
    79   22   80 1  
    80   22   81 1  
    81   25   82 1  
    82   26   83 1  
    83   29   84 1  
    84   30   85 1  
    85   31   86 1  
    86   31   87 1  
    87   31   88 1  
    88   32   89 1  
    89   33   90 1  
    90   36   91 1  
    91   36   92 1  
    92   37   93 1  
    93   37   94 1  
    94   40   95 1  
    95   40   96 1  
    96   41   97 1  
    97   42   98 1  
    98   45   99 1  
    99   46  100 1  
   100   47  101 1  
   101   47  102 1  
   102   47  103 1  
   103   48  104 1  
   104   49  105 1  
   105   52  106 1  
   106   52  107 1  
   107   53  108 1  
   108   53  109 1  
@<TRIPOS>SUBSTRUCTURE
     1 SAC         1

