2xqq_ligand
  -I-interpret- 

110109  0  0  0  0  0  0  0  0999 V2000
   41.4480   31.0370   20.2110 C   0  0  0  0  0
   42.3370   29.8280   20.3030 C   0  0  0  0  0
   40.7770   31.3210   21.2490 O   0  0  0  0  0
   41.1490   31.5340   18.9330 N   0  0  0  0  0
   40.0630   32.5400   18.7770 C   0  0  0  0  0
   38.7520   31.9370   18.4650 C   0  0  0  0  0
   38.6050   31.0980   17.5600 O   0  0  0  0  0
   40.4040   33.6980   17.8440 C   0  0  0  0  0
   41.6340   34.2800   18.2130 O   0  0  0  0  0
   37.7420   32.3960   19.2220 N   0  0  0  0  0
   36.3790   31.9040   19.0010 C   0  0  0  0  0
   35.3860   32.8450   19.6280 C   0  0  0  0  0
   35.7400   33.7220   20.4150 O   0  0  0  0  0
   36.2080   30.5310   19.5750 C   0  0  0  0  0
   36.3070   30.4660   21.0500 C   0  0  0  0  0
   36.5150   29.0470   21.6550 C   0  0  0  0  0
   35.3630   28.2270   21.3800 N   0  0  0  0  0
   35.2590   26.8960   21.4760 C   0  0  0  0  0
   36.2610   26.1080   21.8290 N   0  0  0  0  0
   34.1150   26.3620   21.1590 N   0  0  0  0  0
   34.1520   32.6760   19.1880 N   0  0  0  0  0
   33.0910   33.5680   19.5070 C   0  0  0  0  0
   31.8930   32.8580   20.1140 C   0  0  0  0  0
   31.7350   31.6440   19.9550 O   0  0  0  0  0
   31.0630   33.6490   20.7550 N   0  0  0  0  0
   29.8060   33.1800   21.3290 C   0  0  0  0  0
   28.7190   34.1670   21.0300 C   0  0  0  0  0
   29.0060   35.3530   20.8130 O   0  0  0  0  0
   29.9150   32.9600   22.8870 C   0  0  0  0  0
   30.0430   34.2550   23.5470 O   0  0  0  0  0
   31.0960   32.0800   23.2600 C   0  0  0  0  0
   27.4720   33.7070   21.0160 N   0  0  0  0  0
   26.3010   34.5330   20.8490 C   0  0  0  0  0
   25.1720   33.9990   21.7220 C   0  0  0  0  0
   24.7590   32.8660   21.5500 O   0  0  0  0  0
   25.8990   34.5690   19.3800 C   0  0  0  0  0
   24.6620   35.4140   19.1180 C   0  0  0  0  0
   24.8310   36.8470   19.5280 C   0  0  0  0  0
   25.7490   37.5200   19.0470 O   0  0  0  0  0
   24.0010   37.3430   20.4710 N   0  0  0  0  0
   24.5710   34.8480   22.5840 N   0  0  0  0  0
   23.4340   34.4400   23.3880 C   0  0  0  0  0
   22.2690   34.1940   22.4870 C   0  0  0  0  0
   22.1500   34.8140   21.4040 O   0  0  0  0  0
   23.0810   35.5430   24.4170 C   0  0  0  0  0
   22.9530   36.7880   23.7680 O   0  0  0  0  0
   24.0560   35.6180   25.5170 C   0  0  0  0  0
   21.4170   33.2830   22.9440 N   0  0  0  0  0
   20.1410   32.9820   22.3240 C   0  0  0  0  0
   19.1070   34.1260   22.4380 C   0  0  0  0  0
   18.3210   34.3840   21.5110 O   0  0  0  0  0
   19.6140   31.6510   22.9960 C   0  0  0  0  0
   20.5620   30.5220   22.6320 C   0  0  0  0  0
   20.3640   29.1560   23.3000 C   0  0  0  0  0
   19.5190   28.9530   24.2460 O   0  0  0  0  0
   21.1410   28.2400   22.8350 O   0  0  0  0  0
   19.1270   34.8400   23.4780 O   0  0  0  0  0
   43.0651   29.9738   21.1010 H   0  0  0  0  0
   41.7307   28.9483   20.5189 H   0  0  0  0  0
   42.8575   29.6884   19.3555 H   0  0  0  0  0
   41.6708   31.2090   18.1190 H   0  0  0  0  0
   39.9733   32.9882   19.7665 H   0  0  0  0  0
   39.6197   34.4519   17.9122 H   0  0  0  0  0
   40.4810   33.3215   16.8240 H   0  0  0  0  0
   41.8346   35.0059   17.6177 H   0  0  0  0  0
   37.9233   33.0866   19.9504 H   0  0  0  0  0
   36.2029   31.8539   17.9265 H   0  0  0  0  0
   37.0127   29.9149   19.1738 H   0  0  0  0  0
   35.2059   30.1959   19.3074 H   0  0  0  0  0
   35.3552   30.8288   21.4380 H   0  0  0  0  0
   37.1861   31.0490   21.3248 H   0  0  0  0  0
   36.6493   29.1306   22.7335 H   0  0  0  0  0
   37.3981   28.5901   21.2083 H   0  0  0  0  0
   34.5243   28.7209   21.0749 H   0  0  0  0  0
   36.1313   25.0965   21.8501 H   0  0  0  0  0
   37.1634   26.5118   22.0801 H   0  0  0  0  0
   33.3432   26.9542   20.8524 H   0  0  0  0  0
   33.9514   31.8714   18.5941 H   0  0  0  0  0
   32.7650   34.0454   18.5829 H   0  0  0  0  0
   33.4635   34.2836   20.2400 H   0  0  0  0  0
   31.3078   34.6340   20.8559 H   0  0  0  0  0
   29.5710   32.2166   20.8764 H   0  0  0  0  0
   29.0096   32.4506   23.2169 H   0  0  0  0  0
   30.1096   34.1242   24.4957 H   0  0  0  0  0
   30.9846   31.1047   22.7863 H   0  0  0  0  0
   32.0188   32.5483   22.9178 H   0  0  0  0  0
   31.1288   31.9579   24.3426 H   0  0  0  0  0
   27.3338   32.7030   21.1310 H   0  0  0  0  0
   26.5202   35.5539   21.1618 H   0  0  0  0  0
   25.6721   33.5476   19.0745 H   0  0  0  0  0
   26.7249   35.0105   18.8222 H   0  0  0  0  0
   23.8445   34.9956   19.7051 H   0  0  0  0  0
   24.4701   35.3968   18.0452 H   0  0  0  0  0
   24.1227   38.2987   20.8059 H   0  0  0  0  0
   23.2525   36.7618   20.8483 H   0  0  0  0  0
   24.9256   35.8003   22.6719 H   0  0  0  0  0
   23.6812   33.5279   23.9311 H   0  0  0  0  0
   22.1249   35.2774   24.8680 H   0  0  0  0  0
   22.7344   37.4635   24.4142 H   0  0  0  0  0
   24.0832   34.6634   26.0424 H   0  0  0  0  0
   25.0432   35.8392   25.1113 H   0  0  0  0  0
   23.7611   36.4068   26.2091 H   0  0  0  0  0
   21.6762   32.7633   23.7825 H   0  0  0  0  0
   20.2826   32.8594   21.2502 H   0  0  0  0  0
   18.6097   31.4247   22.6377 H   0  0  0  0  0
   19.5745   31.7703   24.0787 H   0  0  0  0  0
   21.5455   30.8592   22.9592 H   0  0  0  0  0
   20.3997   30.3454   21.5687 H   0  0  0  0  0
   21.6867   28.6090   22.1367 H   0  0  0  0  0
   19.7884   34.5004   24.0853 H   0  0  0  0  0
  1  2  1  0  0  0
  1  3  2  0  0  0
  1  4  1  0  0  0
  4  5  1  0  0  0
  5  6  1  0  0  0
  5  8  1  0  0  0
  6  7  2  0  0  0
  6 10  1  0  0  0
  8  9  1  0  0  0
 10 11  1  0  0  0
 11 12  1  0  0  0
 11 14  1  0  0  0
 12 13  2  0  0  0
 12 21  1  0  0  0
 14 15  1  0  0  0
 15 16  1  0  0  0
 16 17  1  0  0  0
 17 18  1  0  0  0
 18 19  1  0  0  0
 18 20  2  0  0  0
 21 22  1  0  0  0
 22 23  1  0  0  0
 23 24  2  0  0  0
 23 25  1  0  0  0
 25 26  1  0  0  0
 26 27  1  0  0  0
 26 29  1  0  0  0
 27 28  2  0  0  0
 27 32  1  0  0  0
 29 30  1  0  0  0
 29 31  1  0  0  0
 32 33  1  0  0  0
 33 34  1  0  0  0
 33 36  1  0  0  0
 34 35  2  0  0  0
 34 41  1  0  0  0
 36 37  1  0  0  0
 37 38  1  0  0  0
 38 39  2  0  0  0
 38 40  1  0  0  0
 41 42  1  0  0  0
 42 43  1  0  0  0
 42 45  1  0  0  0
 43 44  2  0  0  0
 43 48  1  0  0  0
 45 46  1  0  0  0
 45 47  1  0  0  0
 48 49  1  0  0  0
 49 50  1  0  0  0
 49 52  1  0  0  0
 50 51  2  0  0  0
 50 57  1  0  0  0
 52 53  1  0  0  0
 53 54  1  0  0  0
 54 55  2  0  0  0
 54 56  1  0  0  0
  2 58  1  0  0  0
  2 59  1  0  0  0
  2 60  1  0  0  0
  4 61  1  0  0  0
  5 62  1  0  0  0
  8 63  1  0  0  0
  8 64  1  0  0  0
  9 65  1  0  0  0
 10 66  1  0  0  0
 11 67  1  0  0  0
 14 68  1  0  0  0
 14 69  1  0  0  0
 15 70  1  0  0  0
 15 71  1  0  0  0
 16 72  1  0  0  0
 16 73  1  0  0  0
 17 74  1  0  0  0
 19 75  1  0  0  0
 19 76  1  0  0  0
 20 77  1  0  0  0
 21 78  1  0  0  0
 22 79  1  0  0  0
 22 80  1  0  0  0
 25 81  1  0  0  0
 26 82  1  0  0  0
 29 83  1  0  0  0
 30 84  1  0  0  0
 31 85  1  0  0  0
 31 86  1  0  0  0
 31 87  1  0  0  0
 32 88  1  0  0  0
 33 89  1  0  0  0
 36 90  1  0  0  0
 36 91  1  0  0  0
 37 92  1  0  0  0
 37 93  1  0  0  0
 40 94  1  0  0  0
 40 95  1  0  0  0
 41 96  1  0  0  0
 42 97  1  0  0  0
 45 98  1  0  0  0
 46 99  1  0  0  0
 47100  1  0  0  0
 47101  1  0  0  0
 47102  1  0  0  0
 48103  1  0  0  0
 49104  1  0  0  0
 52105  1  0  0  0
 52106  1  0  0  0
 53107  1  0  0  0
 53108  1  0  0  0
 56109  1  0  0  0
 57110  1  0  0  0
M  END
$$$$
