5djr_ligand
  -I-interpret- 

 31 34  0  0  0  0  0  0  0  0999 V2000
    2.7360   72.8610   29.5260 C   0  0  0  0  0
    3.7170   72.1230   28.8320 C   0  0  0  0  0
    4.6110   74.2360   28.0160 C   0  0  0  0  0
    2.7040   74.2730   29.4660 C   0  0  0  0  0
    3.6480   74.9950   28.7040 C   0  0  0  0  0
    1.0990   76.7920   27.8000 C   0  0  0  0  0
    0.4660   77.9350   27.4970 C   0  0  0  0  0
    2.5040   77.1790   28.1870 C   0  0  0  0  0
    3.6480   76.4800   28.5960 C   0  0  0  0  0
    4.7950   77.2600   28.8680 C   0  0  0  0  0
    4.7920   78.6620   28.7060 C   0  0  0  0  0
    3.6260   79.3430   28.3100 C   0  0  0  0  0
    2.4940   78.5600   28.0490 C   0  0  0  0  0
    4.6540   72.8480   28.0780 C   0  0  0  0  0
    5.6860   72.4050   27.3290 N   0  0  0  0  0
    6.3310   73.3970   26.7630 C   0  0  0  0  0
    5.7700   74.5660   27.1100 C   0  0  0  0  0
    7.5250   73.2400   25.9120 C   0  0  0  0  0
    7.5280   72.3560   24.9100 O   0  0  0  0  0
    8.5020   73.9360   26.1490 O   0  0  0  0  0
    1.2780   78.9510   27.6370 N   0  0  0  0  0
    1.9892   72.3333   30.1192 H   0  0  0  0  0
    3.7468   71.0344   28.8789 H   0  0  0  0  0
    1.9361   74.8145   30.0184 H   0  0  0  0  0
    0.6816   75.7855   27.7721 H   0  0  0  0  0
   -0.5744   78.0069   27.1800 H   0  0  0  0  0
    5.7042   76.7665   29.2113 H   0  0  0  0  0
    5.7065   79.2257   28.8904 H   0  0  0  0  0
    3.6046   80.4283   28.2110 H   0  0  0  0  0
    6.0900   75.5601   26.7977 H   0  0  0  0  0
    6.6804   71.9064   24.8789 H   0  0  0  0  0
  1  2  4  0  0  0
  4  1  4  0  0  0
 14  2  4  0  0  0
  5  3  4  0  0  0
  3 14  4  0  0  0
  3 17  4  0  0  0
  5  4  4  0  0  0
  9  5  1  0  0  0
  6  7  4  0  0  0
  8  6  4  0  0  0
  7 21  4  0  0  0
  8  9  4  0  0  0
  8 13  4  0  0  0
  9 10  4  0  0  0
 10 11  4  0  0  0
 11 12  4  0  0  0
 12 13  4  0  0  0
 13 21  4  0  0  0
 14 15  4  0  0  0
 15 16  4  0  0  0
 16 17  4  0  0  0
 16 18  1  0  0  0
 18 19  1  0  0  0
 18 20  2  0  0  0
  1 22  1  0  0  0
  2 23  1  0  0  0
  4 24  1  0  0  0
  6 25  1  0  0  0
  7 26  1  0  0  0
 10 27  1  0  0  0
 11 28  1  0  0  0
 12 29  1  0  0  0
 17 30  1  0  0  0
 19 31  1  0  0  0
M  END
$$$$
