4kom_ligand
  -I-interpret- 

109112  0  0  0  0  0  0  0  0999 V2000
   31.6770  -33.7900   35.8100 C   0  0  0  0  0
   32.1530  -33.1830   37.0780 C   0  0  0  0  0
   31.4170  -34.2170   37.9470 C   0  0  0  0  0
   31.8920  -35.6280   37.8730 C   0  0  0  0  0
   33.2800  -35.8100   38.1750 C   0  0  0  0  0
   34.0020  -34.7680   37.3610 C   0  0  0  0  0
   35.4690  -34.7010   37.5560 C   0  0  0  0  0
   36.0160  -33.6340   36.6130 C   0  0  0  0  0
   37.5050  -33.7590   36.4940 C   0  0  0  0  0
   34.8050  -37.8700   38.5260 C   0  0  0  0  0
   35.1470  -39.3210   38.1590 C   0  0  0  0  0
   33.6700  -37.2070   37.8740 N   0  0  0  0  0
   30.4700  -34.0550   35.6490 O   0  0  0  0  0
   32.4670  -34.0010   34.8490 O   0  0  0  0  0
   31.0780  -36.4980   38.6950 O   0  0  0  0  0
   33.3950  -33.4590   37.6690 O   0  0  0  0  0
   35.8410  -34.4330   38.8860 O   0  0  0  0  0
   35.3840  -33.7070   35.3750 O   0  0  0  0  0
   38.2180  -32.5980   36.2460 O   0  0  0  0  0
   35.4960  -37.2880   39.3580 O   0  0  0  0  0
   33.6850  -19.1320   39.2280 C   0  0  0  0  0
   33.6600  -20.3800   38.3500 C   0  0  0  0  0
   34.5610  -21.4800   38.9110 C   0  0  0  0  0
   35.9180  -20.9240   39.3330 C   0  0  0  0  0
   35.7470  -19.6700   40.1830 C   0  0  0  0  0
   37.0930  -19.0810   40.5860 C   0  0  0  0  0
   32.9740  -18.0930   38.5910 O   0  0  0  0  0
   32.3320  -20.8450   38.2730 O   0  0  0  0  0
   34.7620  -22.5080   37.9600 O   0  0  0  0  0
   36.6780  -20.6150   38.1860 O   0  0  0  0  0
   35.0160  -18.7170   39.4450 O   0  0  0  0  0
   36.8860  -17.8790   41.2950 O   0  0  0  0  0
   33.9380  -23.6560   38.2600 C   0  0  0  0  0
   32.9900  -23.9650   37.0970 C   0  0  0  0  0
   32.3570  -25.3600   37.1290 C   0  0  0  0  0
   33.2400  -26.4460   37.7470 C   0  0  0  0  0
   34.0150  -25.9110   38.9430 C   0  0  0  0  0
   34.9830  -26.9560   39.4810 C   0  0  0  0  0
   31.5030  -22.4810   35.8750 C   0  0  0  0  0
   30.0790  -22.7660   35.4960 C   0  0  0  0  0
   31.9240  -22.9800   37.0360 N   0  0  0  0  0
   32.0310  -25.7060   35.7990 O   0  0  0  0  0
   32.4450  -27.5320   38.1890 O   0  0  0  0  0
   34.7470  -24.7710   38.5660 O   0  0  0  0  0
   35.9100  -26.3320   40.3400 O   0  0  0  0  0
   32.2250  -21.8160   35.1330 O   0  0  0  0  0
   32.1850  -28.4890   37.1400 C   0  0  0  0  0
   32.2810  -29.8990   37.7280 C   0  0  0  0  0
   31.6680  -30.9870   36.8440 C   0  0  0  0  0
   30.4290  -30.5300   36.0860 C   0  0  0  0  0
   30.6840  -29.1590   35.4800 C   0  0  0  0  0
   29.5050  -28.6860   34.6380 C   0  0  0  0  0
   33.6430  -30.2150   37.9120 O   0  0  0  0  0
   31.3520  -32.1270   37.6190 O   0  0  0  0  0
   29.3220  -30.4850   36.9580 O   0  0  0  0  0
   30.9250  -28.2660   36.5430 O   0  0  0  0  0
   29.9170  -27.6180   33.8130 O   0  0  0  0  0
   30.3890  -34.2307   37.5850 H   0  0  0  0  0
   31.5761  -33.9042   38.9790 H   0  0  0  0  0
   31.7804  -35.9045   36.8246 H   0  0  0  0  0
   33.5299  -35.6729   39.2271 H   0  0  0  0  0
   33.8838  -35.0538   36.3158 H   0  0  0  0  0
   35.8941  -35.6788   37.3296 H   0  0  0  0  0
   35.8028  -32.6484   37.0267 H   0  0  0  0  0
   37.6806  -34.4045   35.6334 H   0  0  0  0  0
   37.8509  -34.1182   37.4632 H   0  0  0  0  0
   36.1580  -39.3633   37.7538 H   0  0  0  0  0
   35.0853  -39.9443   39.0511 H   0  0  0  0  0
   34.4396  -39.6820   37.4124 H   0  0  0  0  0
   33.1277  -37.7291   37.1857 H   0  0  0  0  0
   33.3578  -33.7547   35.1085 H   0  0  0  0  0
   30.1518  -36.3642   38.4809 H   0  0  0  0  0
   35.4865  -35.1159   39.4601 H   0  0  0  0  0
   35.7397  -33.0297   34.7950 H   0  0  0  0  0
   39.1540  -32.8042   36.1912 H   0  0  0  0  0
   33.2207  -19.3655   40.1861 H   0  0  0  0  0
   34.0354  -20.1214   37.3599 H   0  0  0  0  0
   34.0546  -21.8895   39.7850 H   0  0  0  0  0
   36.4336  -21.6790   39.9265 H   0  0  0  0  0
   35.2140  -19.9382   41.0952 H   0  0  0  0  0
   37.6838  -18.8791   39.6925 H   0  0  0  0  0
   37.6251  -19.7902   41.2200 H   0  0  0  0  0
   32.9908  -17.3090   39.1447 H   0  0  0  0  0
   32.3008  -21.6311   37.7229 H   0  0  0  0  0
   37.5312  -20.2654   38.4534 H   0  0  0  0  0
   37.7344  -17.5083   41.5487 H   0  0  0  0  0
   33.3271  -23.4265   39.1330 H   0  0  0  0  0
   33.6239  -23.9282   36.2110 H   0  0  0  0  0
   31.4799  -25.3088   37.7742 H   0  0  0  0  0
   33.9385  -26.7731   36.9768 H   0  0  0  0  0
   33.2954  -25.6585   39.7218 H   0  0  0  0  0
   35.5120  -27.4253   38.6516 H   0  0  0  0  0
   34.4300  -27.7173   40.0313 H   0  0  0  0  0
   29.5393  -21.8258   35.3831 H   0  0  0  0  0
   30.0578  -23.3139   34.5540 H   0  0  0  0  0
   29.6094  -23.3646   36.2766 H   0  0  0  0  0
   31.4880  -22.6633   37.9020 H   0  0  0  0  0
   31.6308  -26.5785   35.7854 H   0  0  0  0  0
   36.5215  -26.9890   40.6805 H   0  0  0  0  0
   32.9291  -28.3741   36.3518 H   0  0  0  0  0
   31.7173  -29.8833   38.6608 H   0  0  0  0  0
   32.4243  -31.2308   36.0979 H   0  0  0  0  0
   30.2101  -31.2366   35.2854 H   0  0  0  0  0
   31.5428  -29.2063   34.8105 H   0  0  0  0  0
   28.7010  -28.3507   35.2932 H   0  0  0  0  0
   29.1475  -29.5080   34.0179 H   0  0  0  0  0
   33.7184  -31.0981   38.2809 H   0  0  0  0  0
   28.5455  -30.1962   36.4729 H   0  0  0  0  0
   29.1744  -27.3200   33.2826 H   0  0  0  0  0
  2  1  1  0  0  0
  1 13  2  0  0  0
  1 14  1  0  0  0
  2  3  1  0  0  0
  2 16  1  0  0  0
 54  2  1  0  0  0
  3  4  1  0  0  0
  4  5  1  0  0  0
  4 15  1  0  0  0
  6  5  1  0  0  0
  5 12  1  0  0  0
  6  7  1  0  0  0
 16  6  1  0  0  0
  7  8  1  0  0  0
  7 17  1  0  0  0
  8  9  1  0  0  0
  8 18  1  0  0  0
  9 19  1  0  0  0
 10 11  1  0  0  0
 12 10  1  0  0  0
 10 20  2  0  0  0
 22 21  1  0  0  0
 21 27  1  0  0  0
 21 31  1  0  0  0
 23 22  1  0  0  0
 22 28  1  0  0  0
 23 24  1  0  0  0
 29 23  1  0  0  0
 24 25  1  0  0  0
 24 30  1  0  0  0
 25 26  1  0  0  0
 25 31  1  0  0  0
 26 32  1  0  0  0
 33 29  1  0  0  0
 34 33  1  0  0  0
 44 33  1  0  0  0
 35 34  1  0  0  0
 34 41  1  0  0  0
 36 35  1  0  0  0
 35 42  1  0  0  0
 36 37  1  0  0  0
 43 36  1  0  0  0
 37 38  1  0  0  0
 37 44  1  0  0  0
 38 45  1  0  0  0
 39 40  1  0  0  0
 41 39  1  0  0  0
 39 46  2  0  0  0
 47 43  1  0  0  0
 48 47  1  0  0  0
 47 56  1  0  0  0
 49 48  1  0  0  0
 48 53  1  0  0  0
 49 50  1  0  0  0
 49 54  1  0  0  0
 50 51  1  0  0  0
 50 55  1  0  0  0
 51 52  1  0  0  0
 51 56  1  0  0  0
 52 57  1  0  0  0
  3 58  1  0  0  0
  3 59  1  0  0  0
  4 60  1  0  0  0
  5 61  1  0  0  0
  6 62  1  0  0  0
  7 63  1  0  0  0
  8 64  1  0  0  0
  9 65  1  0  0  0
  9 66  1  0  0  0
 11 67  1  0  0  0
 11 68  1  0  0  0
 11 69  1  0  0  0
 12 70  1  0  0  0
 14 71  1  0  0  0
 15 72  1  0  0  0
 17 73  1  0  0  0
 18 74  1  0  0  0
 19 75  1  0  0  0
 21 76  1  0  0  0
 22 77  1  0  0  0
 23 78  1  0  0  0
 24 79  1  0  0  0
 25 80  1  0  0  0
 26 81  1  0  0  0
 26 82  1  0  0  0
 27 83  1  0  0  0
 28 84  1  0  0  0
 30 85  1  0  0  0
 32 86  1  0  0  0
 33 87  1  0  0  0
 34 88  1  0  0  0
 35 89  1  0  0  0
 36 90  1  0  0  0
 37 91  1  0  0  0
 38 92  1  0  0  0
 38 93  1  0  0  0
 40 94  1  0  0  0
 40 95  1  0  0  0
 40 96  1  0  0  0
 41 97  1  0  0  0
 42 98  1  0  0  0
 45 99  1  0  0  0
 47100  1  0  0  0
 48101  1  0  0  0
 49102  1  0  0  0
 50103  1  0  0  0
 51104  1  0  0  0
 52105  1  0  0  0
 52106  1  0  0  0
 53107  1  0  0  0
 55108  1  0  0  0
 57109  1  0  0  0
M  END
$$$$
