3uo6_ligand
  -I-interpret- 

 37 39  0  0  0  0  0  0  0  0999 V2000
    8.5350   30.6570   -0.3600 N   0  0  0  0  0
    7.2030   29.9250    1.5120 N   0  0  0  0  0
    8.0760   28.3650   -0.0060 N   0  0  0  0  0
    5.8440   29.2550    3.4240 N   0  0  0  0  0
    7.9480   33.9730    1.2560 C   0  0  0  0  0
    9.0000   34.7110    0.7140 C   0  0  0  0  0
    9.8850   34.1010   -0.1610 C   0  0  0  0  0
    9.7130   32.7680   -0.5040 C   0  0  0  0  0
    8.6690   32.0300    0.0370 C   0  0  0  0  0
    7.7810   32.6340    0.9190 C   0  0  0  0  0
    9.1960   36.1450    1.0930 C   0  0  0  0  0
    7.9160   29.6260    0.4150 C   0  0  0  0  0
    6.6150   28.9530    2.2440 C   0  0  0  0  0
    6.7850   27.6290    1.8150 C   0  0  0  0  0
    7.5290   27.3380    0.6710 C   0  0  0  0  0
    5.2730   30.5580    3.6250 C   0  0  0  0  0
    6.1160   31.5880    4.0180 C   0  0  0  0  0
    5.6220   32.8660    4.2290 C   0  0  0  0  0
    4.2690   33.1280    4.0440 C   0  0  0  0  0
    3.4170   32.1060    3.6460 C   0  0  0  0  0
    3.9120   30.8240    3.4400 C   0  0  0  0  0
    9.3200   37.0470    0.2240 O   0  0  0  0  0
    9.2590   36.4500    2.3150 O   0  0  0  0  0
    2.7980   29.6000    2.9490 Cl  0  0  0  0  0
    8.9126   30.3946   -1.2705 H   0  0  0  0  0
    5.7014   28.5312    4.1284 H   0  0  0  0  0
    7.2526   34.4484    1.9478 H   0  0  0  0  0
   10.7161   34.6687   -0.5796 H   0  0  0  0  0
   10.4029   32.2963   -1.2037 H   0  0  0  0  0
    6.9573   32.0609    1.3448 H   0  0  0  0  0
    6.3303   26.8169    2.3823 H   0  0  0  0  0
    7.6633   26.3097    0.3355 H   0  0  0  0  0
    7.1781   31.3900    4.1623 H   0  0  0  0  0
    6.2943   33.6656    4.5400 H   0  0  0  0  0
    3.8785   34.1319    4.2107 H   0  0  0  0  0
    2.3570   32.3101    3.4948 H   0  0  0  0  0
    9.1471   35.6590    2.8473 H   0  0  0  0  0
  9  1  1  0  0  0
  1 12  1  0  0  0
 12  2  4  0  0  0
  2 13  4  0  0  0
 12  3  4  0  0  0
  3 15  4  0  0  0
 13  4  1  0  0  0
  4 16  1  0  0  0
  6  5  4  0  0  0
  5 10  4  0  0  0
  7  6  4  0  0  0
  6 11  1  0  0  0
  8  7  4  0  0  0
  8  9  4  0  0  0
  9 10  4  0  0  0
 11 22  2  0  0  0
 11 23  1  0  0  0
 13 14  4  0  0  0
 14 15  4  0  0  0
 16 17  4  0  0  0
 16 21  4  0  0  0
 17 18  4  0  0  0
 18 19  4  0  0  0
 19 20  4  0  0  0
 20 21  4  0  0  0
 21 24  1  0  0  0
  1 25  1  0  0  0
  4 26  1  0  0  0
  5 27  1  0  0  0
  7 28  1  0  0  0
  8 29  1  0  0  0
 10 30  1  0  0  0
 14 31  1  0  0  0
 15 32  1  0  0  0
 17 33  1  0  0  0
 18 34  1  0  0  0
 19 35  1  0  0  0
 20 36  1  0  0  0
 23 37  1  0  0  0
M  END
$$$$
