### 
### Created by X-TOOL on Mon Sep 10 21:13:13 2018
### 

@<TRIPOS>MOLECULE
4gvc_ligand
  140   141     1     0     0
SMALL
GAST_HUCK


@<TRIPOS>ATOM
      1 N          12.0140    1.0800    3.7110 N.4       1 THR         0.2398
      2 CA         11.1700    2.0880    4.4090 C.3       1 THR         0.0910
      3 C           9.8660    1.4300    4.7950 C.2       1 THR         0.2293
      4 O           9.4370    0.4610    4.1660 O.2       1 THR        -0.3906
      5 CB         10.9040    3.2980    3.5080 C.3       1 THR         0.1120
      6 OG1        10.4550    2.8360    2.2270 O.3       1 THR        -0.3840
      7 CG2        12.1840    4.1000    3.3290 C.3       1 THR        -0.0314
      8 N           9.2560    1.9470    5.8490 N.am      1 LYS        -0.2609
      9 CA          7.9190    1.5290    6.2330 C.3       1 LYS         0.1311
     10 C           6.9600    2.6010    5.7550 C.2       1 LYS         0.2039
     11 O           7.2810    3.7930    5.7700 O.2       1 LYS        -0.3944
     12 CB          7.7980    1.3860    7.7430 C.3       1 LYS        -0.0122
     13 CG          8.8650    0.5570    8.4320 C.3       1 LYS        -0.0440
     14 CD          8.7860    0.8580    9.9220 C.3       1 LYS        -0.0124
     15 CE          9.8140    0.1140   10.7080 C.3       1 LYS        -0.0354
     16 NZ          9.8390    0.6360   12.1100 N.4       1 LYS         0.2185
     17 N           5.7870    2.1740    5.3070 N.am      1 GLN        -0.2636
     18 CA          4.7640    3.1130    4.8710 C.3       1 GLN         0.1330
     19 C           4.2030    3.8120    6.0930 C.2       1 GLN         0.2040
     20 O           4.0130    5.0380    6.1080 O.2       1 GLN        -0.3944
     21 CB          3.6370    2.3800    4.1540 C.3       1 GLN         0.0045
     22 CG          3.9640    1.8890    2.7590 C.3       1 GLN         0.0412
     23 CD          2.7700    1.2060    2.0900 C.2       1 GLN         0.1737
     24 OE1         1.9790    0.5140    2.7490 O.2       1 GLN        -0.3973
     25 NE2         2.6380    1.3930    0.7750 N.am      1 GLN        -0.3009
     26 N           3.9500    3.0210    7.1270 N.am      1 GLU        -0.2636
     27 CA          3.3110    3.5250    8.3280 C.3       1 GLU         0.1325
     28 C           3.1980    2.4070    9.3270 C.2       1 GLU         0.2040
     29 O           3.5830    1.2630    9.0650 O.2       1 GLU        -0.3944
     30 CB          1.9120    4.0540    8.0240 C.3       1 GLU        -0.0008
     31 CG          0.9150    2.9720    7.6240 C.3       1 GLU         0.0044
     32 CD         -0.3420    3.5690    7.0370 C.2       1 GLU         0.0350
     33 OE1        -0.9920    2.8810    6.2180 O.co2     1 GLU        -0.5690
     34 OE2        -0.6660    4.7320    7.3780 O.co2     1 GLU        -0.5690
     35 N           2.5880    2.7540   10.4480 N.am      1 GLU        -0.2636
     36 CA          2.6880    1.9790   11.6390 C.3       1 GLU         0.1325
     37 C           1.4740    2.2620   12.4930 C.2       1 GLU         0.2041
     38 O           1.0360    3.4060   12.5870 O.2       1 GLU        -0.3944
     39 CB          3.9280    2.4760   12.3520 C.3       1 GLU        -0.0008
     40 CG          4.5270    1.5830   13.3350 C.3       1 GLU         0.0044
     41 CD          5.9420    2.0310   13.6320 C.2       1 GLU         0.0350
     42 OE1         6.1070    2.7950   14.6020 O.co2     1 GLU        -0.5690
     43 OE2         6.8720    1.6620   12.8720 O.co2     1 GLU        -0.5690
     44 N           0.9280    1.2060   13.0980 N.am      1 PHE        -0.2619
     45 CA         -0.1570    1.3430   14.0710 C.3       1 PHE         0.1404
     46 C           0.1640    0.5570   15.3180 C.2       1 PHE         0.2062
     47 O           0.8320   -0.4680   15.2480 O.2       1 PHE        -0.3942
     48 CB         -1.4980    0.8480   13.5000 C.3       1 PHE         0.0214
     49 CG         -2.0630    1.7260   12.4180 C.ar      1 PHE        -0.0386
     50 CD1        -2.9050    2.7940   12.7430 C.ar      1 PHE        -0.0601
     51 CD2        -1.7670    1.4860   11.0810 C.ar      1 PHE        -0.0601
     52 CE1        -3.4470    3.6140   11.7450 C.ar      1 PHE        -0.0686
     53 CE2        -2.2940    2.3040   10.0700 C.ar      1 PHE        -0.0686
     54 CZ         -3.1320    3.3750   10.4080 C.ar      1 PHE        -0.0687
     55 N          -0.3470    1.0310   16.4540 N.am      1 PTR        -0.2606
     56 CA         -0.2010    0.3440   17.7360 C.3       1 PTR         0.1468
     57 C          -1.5540    0.2240   18.4160 C.2       1 PTR         0.2069
     58 O          -2.4230    1.0890   18.2680 O.2       1 PTR        -0.3941
     59 CB          0.8200    1.0750   18.6260 C.3       1 PTR         0.0400
     60 CG          0.7040    0.8010   20.1170 C.ar      1 PTR        -0.0004
     61 CD1         1.6410    0.0110   20.7830 C.ar      1 PTR        -0.0239
     62 CD2        -0.3240    1.3740   20.8740 C.ar      1 PTR        -0.0239
     63 CE1         1.5380   -0.2250   22.1540 C.ar      1 PTR         0.0115
     64 CE2        -0.4380    1.1330   22.2390 C.ar      1 PTR         0.0115
     65 CZ          0.4990    0.3450   22.8860 C.ar      1 PTR         0.1728
     66 OH          0.3860    0.1140   24.1190 O.3       1 PTR        -0.2040
     67 P           0.7270    1.1830   25.2910 P.3       1 PTR         0.1348
     68 O1P        -0.0810    2.3990   24.9840 O.co2     1 PTR        -0.6653
     69 O2P         2.2380    1.4570   25.2860 O.co2     1 PTR        -0.6653
     70 O3P         0.1960    0.6070   26.5960 O.co2     1 PTR        -0.6653
     71 N          -1.7370   -0.8640   19.1500 N.am      1 ALA        -0.2695
     72 CA         -2.9150   -0.9810   20.0080 C.3       1 ALA         0.0916
     73 C          -2.6500   -1.8670   21.2090 C.2       1 ALA         0.0598
     74 O          -3.5510   -2.0940   22.0380 O.co2     1 ALA        -0.5666
     75 CB         -4.1220   -1.4750   19.2100 C.3       1 ALA        -0.0300
     76 OXT        -1.5270   -2.3710   21.3570 O.co2     1 ALA        -0.5666
     77 H1         12.1749    0.2951    4.3226 H         1 THR         0.2016
     78 H2         12.8968    1.4968    3.4600 H         1 THR         0.2016
     79 H3         11.5419    0.7654    2.8778 H         1 THR         0.2016
     80 H4         11.6894    2.4286    5.3168 H         1 THR         0.1125
     81 H5         10.1318    3.9347    3.9644 H         1 THR         0.0674
     82 H6         10.2882    3.5821    1.6632 H         1 THR         0.2102
     83 H7         11.9860    4.9668    2.6814 H         1 THR         0.0258
     84 H8         12.9532    3.4645    2.8659 H         1 THR         0.0258
     85 H9         12.5385    4.4488    4.3102 H         1 THR         0.0258
     86 H10         9.7261    2.6414    6.3937 H         1 LYS         0.1884
     87 H11         7.6797    0.5670    5.7562 H         1 LYS         0.0800
     88 H12         6.8240    0.9222    7.9578 H         1 LYS         0.0312
     89 H13         7.8270    2.3960    8.1777 H         1 LYS         0.0312
     90 H14         9.8588    0.8280    8.0462 H         1 LYS         0.0269
     91 H15         8.6821   -0.5131    8.2547 H         1 LYS         0.0269
     92 H16         7.7881    0.5739   10.2874 H         1 LYS         0.0317
     93 H17         8.9384    1.9369   10.0731 H         1 LYS         0.0317
     94 H18        10.8023    0.2546   10.2461 H         1 LYS         0.0813
     95 H19         9.5636   -0.9570   10.7193 H         1 LYS         0.0813
     96 H20        10.5327    0.1349   12.6427 H         1 LYS         0.1994
     97 H21         8.9331    0.5072   12.5327 H         1 LYS         0.1994
     98 H22        10.0682    1.6175   12.0991 H         1 LYS         0.1994
     99 H23         5.6026    1.1919    5.2682 H         1 GLN         0.1883
    100 H24         5.2099    3.8529    4.1900 H         1 GLN         0.0801
    101 H25         2.7798    3.0653    4.0800 H         1 GLN         0.0337
    102 H26         3.3578    1.5080    4.7636 H         1 GLN         0.0337
    103 H27         4.7934    1.1693    2.8225 H         1 GLN         0.0504
    104 H28         4.2703    2.7481    2.1442 H         1 GLN         0.0504
    105 H29         1.8761    0.9707    0.2839 H         1 GLN         0.1814
    106 H30         3.3010    1.9554    0.2809 H         1 GLN         0.1814
    107 H31         4.2054    2.0554    7.0777 H         1 GLU         0.1883
    108 H32         3.9219    4.3371    8.7490 H         1 GLU         0.0801
    109 H33         1.9872    4.7776    7.1989 H         1 GLU         0.0330
    110 H34         1.5307    4.5609    8.9227 H         1 GLU         0.0330
    111 H35         0.6493    2.3836    8.5146 H         1 GLU         0.0433
    112 H36         1.3818    2.3145    6.8758 H         1 GLU         0.0433
    113 H37         2.0378    3.5889   10.4599 H         1 GLU         0.1883
    114 H38         2.7627    0.9049   11.4136 H         1 GLU         0.0801
    115 H39         3.6617    3.4092   12.8699 H         1 GLU         0.0330
    116 H40         4.6896    2.6859   11.5865 H         1 GLU         0.0330
    117 H41         4.5436    0.5579   12.9363 H         1 GLU         0.0433
    118 H42         3.9336    1.6068   14.2609 H         1 GLU         0.0433
    119 H43         1.2706    0.2922   12.8800 H         1 PHE         0.1885
    120 H44        -0.2571    2.4065   14.3337 H         1 PHE         0.0823
    121 H45        -2.2272    0.7994   14.3221 H         1 PHE         0.0474
    122 H46        -1.3464   -0.1591   13.0843 H         1 PHE         0.0474
    123 H47        -3.1418    2.9903   13.7825 H         1 PHE         0.0557
    124 H48        -1.1211    0.6567   10.8163 H         1 PHE         0.0557
    125 H49        -4.1083    4.4307   12.0110 H         1 PHE         0.0599
    126 H50        -2.0537    2.1081    9.0313 H         1 PHE         0.0599
    127 H51        -3.5343    4.0161    9.6320 H         1 PHE         0.0559
    128 H52        -0.8520    1.8937   16.4282 H         1 PTR         0.1886
    129 H53         0.1781   -0.6708   17.5451 H         1 PTR         0.0840
    130 H54         0.6930    2.1564   18.4694 H         1 PTR         0.0584
    131 H55         1.8276    0.7736   18.3036 H         1 PTR         0.0584
    132 H56         2.4620   -0.4264   20.2265 H         1 PTR         0.0703
    133 H57        -1.0462    2.0189   20.3866 H         1 PTR         0.0703
    134 H58         2.2682   -0.8534   22.6509 H         1 PTR         0.0736
    135 H59        -1.2618    1.5628   22.7974 H         1 PTR         0.0736
    136 H60        -1.0680   -1.6065   19.1170 H         1 ALA         0.1875
    137 H61        -3.1527    0.0247   20.3850 H         1 ALA         0.0723
    138 H62        -4.9940   -1.5548   19.8758 H         1 ALA         0.0270
    139 H63        -3.8979   -2.4621   18.7795 H         1 ALA         0.0270
    140 H64        -4.3426   -0.7635   18.4006 H         1 ALA         0.0270
@<TRIPOS>BOND
     1    1    2 1  
     2    2    3 1  
     3    2    5 1  
     4    3    4 2  
     5    3    8 am 
     6    5    6 1  
     7    5    7 1  
     8    8    9 1  
     9    9   10 1  
    10    9   12 1  
    11   10   11 2  
    12   10   17 am 
    13   12   13 1  
    14   13   14 1  
    15   14   15 1  
    16   15   16 1  
    17   17   18 1  
    18   18   19 1  
    19   18   21 1  
    20   19   20 2  
    21   19   26 am 
    22   21   22 1  
    23   22   23 1  
    24   23   24 2  
    25   23   25 am 
    26   26   27 1  
    27   27   28 1  
    28   27   30 1  
    29   28   29 2  
    30   28   35 am 
    31   30   31 1  
    32   31   32 1  
    33   32   33 ar 
    34   32   34 ar 
    35   35   36 1  
    36   36   37 1  
    37   36   39 1  
    38   37   38 2  
    39   37   44 am 
    40   39   40 1  
    41   40   41 1  
    42   41   42 ar 
    43   41   43 ar 
    44   44   45 1  
    45   45   46 1  
    46   45   48 1  
    47   46   47 2  
    48   46   55 am 
    49   48   49 1  
    50   49   50 ar 
    51   49   51 ar 
    52   50   52 ar 
    53   51   53 ar 
    54   52   54 ar 
    55   53   54 ar 
    56   55   56 1  
    57   56   57 1  
    58   56   59 1  
    59   57   58 2  
    60   57   71 am 
    61   59   60 1  
    62   60   61 ar 
    63   60   62 ar 
    64   61   63 ar 
    65   62   64 ar 
    66   63   65 ar 
    67   64   65 ar 
    68   65   66 1  
    69   66   67 1  
    70   67   68 ar 
    71   67   69 ar 
    72   67   70 ar 
    73   71   72 1  
    74   72   73 1  
    75   72   75 1  
    76   73   74 ar 
    77   73   76 ar 
    78    1   77 1  
    79    1   78 1  
    80    1   79 1  
    81    2   80 1  
    82    5   81 1  
    83    6   82 1  
    84    7   83 1  
    85    7   84 1  
    86    7   85 1  
    87    8   86 1  
    88    9   87 1  
    89   12   88 1  
    90   12   89 1  
    91   13   90 1  
    92   13   91 1  
    93   14   92 1  
    94   14   93 1  
    95   15   94 1  
    96   15   95 1  
    97   16   96 1  
    98   16   97 1  
    99   16   98 1  
   100   17   99 1  
   101   18  100 1  
   102   21  101 1  
   103   21  102 1  
   104   22  103 1  
   105   22  104 1  
   106   25  105 1  
   107   25  106 1  
   108   26  107 1  
   109   27  108 1  
   110   30  109 1  
   111   30  110 1  
   112   31  111 1  
   113   31  112 1  
   114   35  113 1  
   115   36  114 1  
   116   39  115 1  
   117   39  116 1  
   118   40  117 1  
   119   40  118 1  
   120   44  119 1  
   121   45  120 1  
   122   48  121 1  
   123   48  122 1  
   124   50  123 1  
   125   51  124 1  
   126   52  125 1  
   127   53  126 1  
   128   54  127 1  
   129   55  128 1  
   130   56  129 1  
   131   59  130 1  
   132   59  131 1  
   133   61  132 1  
   134   62  133 1  
   135   63  134 1  
   136   64  135 1  
   137   71  136 1  
   138   72  137 1  
   139   75  138 1  
   140   75  139 1  
   141   75  140 1  
@<TRIPOS>SUBSTRUCTURE
     1 THR         1

