4gvc_ligand
  -I-interpret- 

145146  0  0  0  0  0  0  0  0999 V2000
   12.0140    1.0800    3.7110 N   0  3  0  0  0
   11.1700    2.0880    4.4090 C   0  0  0  0  0
    9.8660    1.4300    4.7950 C   0  0  0  0  0
    9.4370    0.4610    4.1660 O   0  0  0  0  0
   10.9040    3.2980    3.5080 C   0  0  0  0  0
   10.4550    2.8360    2.2270 O   0  0  0  0  0
   12.1840    4.1000    3.3290 C   0  0  0  0  0
    9.2560    1.9470    5.8490 N   0  0  0  0  0
    7.9190    1.5290    6.2330 C   0  0  0  0  0
    6.9600    2.6010    5.7550 C   0  0  0  0  0
    7.2810    3.7930    5.7700 O   0  0  0  0  0
    7.7980    1.3860    7.7430 C   0  0  0  0  0
    8.8650    0.5570    8.4320 C   0  0  0  0  0
    8.7860    0.8580    9.9220 C   0  0  0  0  0
    9.8140    0.1140   10.7080 C   0  0  0  0  0
    9.8390    0.6360   12.1100 N   0  3  0  0  0
    5.7870    2.1740    5.3070 N   0  0  0  0  0
    4.7640    3.1130    4.8710 C   0  0  0  0  0
    4.2030    3.8120    6.0930 C   0  0  0  0  0
    4.0130    5.0380    6.1080 O   0  0  0  0  0
    3.6370    2.3800    4.1540 C   0  0  0  0  0
    3.9640    1.8890    2.7590 C   0  0  0  0  0
    2.7700    1.2060    2.0900 C   0  0  0  0  0
    1.9790    0.5140    2.7490 O   0  0  0  0  0
    2.6380    1.3930    0.7750 N   0  0  0  0  0
    3.9500    3.0210    7.1270 N   0  0  0  0  0
    3.3110    3.5250    8.3280 C   0  0  0  0  0
    3.1980    2.4070    9.3270 C   0  0  0  0  0
    3.5830    1.2630    9.0650 O   0  0  0  0  0
    1.9120    4.0540    8.0240 C   0  0  0  0  0
    0.9150    2.9720    7.6240 C   0  0  0  0  0
   -0.3420    3.5690    7.0370 C   0  0  0  0  0
   -0.9920    2.8810    6.2180 O   0  0  0  0  0
   -0.6660    4.7320    7.3780 O   0  0  0  0  0
    2.5880    2.7540   10.4480 N   0  0  0  0  0
    2.6880    1.9790   11.6390 C   0  0  0  0  0
    1.4740    2.2620   12.4930 C   0  0  0  0  0
    1.0360    3.4060   12.5870 O   0  0  0  0  0
    3.9280    2.4760   12.3520 C   0  0  0  0  0
    4.5270    1.5830   13.3350 C   0  0  0  0  0
    5.9420    2.0310   13.6320 C   0  0  0  0  0
    6.1070    2.7950   14.6020 O   0  0  0  0  0
    6.8720    1.6620   12.8720 O   0  0  0  0  0
    0.9280    1.2060   13.0980 N   0  0  0  0  0
   -0.1570    1.3430   14.0710 C   0  0  0  0  0
    0.1640    0.5570   15.3180 C   0  0  0  0  0
    0.8320   -0.4680   15.2480 O   0  0  0  0  0
   -1.4980    0.8480   13.5000 C   0  0  0  0  0
   -2.0630    1.7260   12.4180 C   0  0  0  0  0
   -2.9050    2.7940   12.7430 C   0  0  0  0  0
   -1.7670    1.4860   11.0810 C   0  0  0  0  0
   -3.4470    3.6140   11.7450 C   0  0  0  0  0
   -2.2940    2.3040   10.0700 C   0  0  0  0  0
   -3.1320    3.3750   10.4080 C   0  0  0  0  0
   -0.3470    1.0310   16.4540 N   0  0  0  0  0
   -0.2010    0.3440   17.7360 C   0  0  0  0  0
   -1.5540    0.2240   18.4160 C   0  0  0  0  0
   -2.4230    1.0890   18.2680 O   0  0  0  0  0
    0.8200    1.0750   18.6260 C   0  0  0  0  0
    0.7040    0.8010   20.1170 C   0  0  0  0  0
    1.6410    0.0110   20.7830 C   0  0  0  0  0
   -0.3240    1.3740   20.8740 C   0  0  0  0  0
    1.5380   -0.2250   22.1540 C   0  0  0  0  0
   -0.4380    1.1330   22.2390 C   0  0  0  0  0
    0.4990    0.3450   22.8860 C   0  0  0  0  0
    0.3860    0.1140   24.1190 O   0  0  0  0  0
    0.7270    1.1830   25.2910 P   0  0  0  0  0
   -0.0810    2.3990   24.9840 O   0  0  0  0  0
    2.2380    1.4570   25.2860 O   0  0  0  0  0
    0.1960    0.6070   26.5960 O   0  0  0  0  0
   -1.7370   -0.8640   19.1500 N   0  0  0  0  0
   -2.9150   -0.9810   20.0080 C   0  0  0  0  0
   -2.6500   -1.8670   21.2090 C   0  0  0  0  0
   -3.5510   -2.0940   22.0380 O   0  0  0  0  0
   -4.1220   -1.4750   19.2100 C   0  0  0  0  0
   -1.5270   -2.3710   21.3570 O   0  0  0  0  0
   12.1761    0.2863    4.3308 H   0  0  0  0  0
   11.5353    0.7625    2.8681 H   0  0  0  0  0
   12.9069    1.5029    3.4575 H   0  0  0  0  0
   11.6906    2.4458    5.2973 H   0  0  0  0  0
   10.1440    3.9311    3.9658 H   0  0  0  0  0
    9.6470    2.3292    2.3361 H   0  0  0  0  0
   12.9483    3.4664    2.8791 H   0  0  0  0  0
   11.9888    4.9531    2.6792 H   0  0  0  0  0
   12.5288    4.4532    4.3008 H   0  0  0  0  0
    9.7355    2.6553    6.4046 H   0  0  0  0  0
    7.6949    0.5592    5.7888 H   0  0  0  0  0
    6.8537    0.8722    7.9228 H   0  0  0  0  0
    7.8888    2.3932    8.1498 H   0  0  0  0  0
    9.8524    0.8075    8.0441 H   0  0  0  0  0
    8.7010   -0.5048    8.2481 H   0  0  0  0  0
    7.8023    0.5501   10.2766 H   0  0  0  0  0
    8.9624    1.9247   10.0604 H   0  0  0  0  0
   10.7935    0.2520   10.2500 H   0  0  0  0  0
    9.5670   -0.9476   10.7186 H   0  0  0  0  0
   10.5412    0.1283   12.6481 H   0  0  0  0  0
   10.0710    1.6292   12.0976 H   0  0  0  0  0
    8.9218    0.5051   12.5367 H   0  0  0  0  0
    5.5989    1.1723    5.2674 H   0  0  0  0  0
    5.2051    3.8337    4.1824 H   0  0  0  0  0
    2.8197    3.0935    4.0488 H   0  0  0  0  0
    3.4127    1.4955    4.7502 H   0  0  0  0  0
    4.7707    1.1601    2.8372 H   0  0  0  0  0
    4.2435    2.7512    2.1536 H   0  0  0  0  0
    1.8633    0.9587    0.2733 H   0  0  0  0  0
    3.3118    1.9702    0.2718 H   0  0  0  0  0
    4.2105    2.0361    7.0767 H   0  0  0  0  0
    3.9151    4.3407    8.7253 H   0  0  0  0  0
    2.0010    4.7399    7.1815 H   0  0  0  0  0
    1.5366    4.5195    8.9353 H   0  0  0  0  0
    0.6450    2.4045    8.5145 H   0  0  0  0  0
    1.3795    2.3352    6.8711 H   0  0  0  0  0
   -0.0285    5.0675    8.0125 H   0  0  0  0  0
    2.0268    3.6056   10.4601 H   0  0  0  0  0
    2.7433    0.9093   11.4371 H   0  0  0  0  0
    3.6186    3.3630   12.9047 H   0  0  0  0  0
    4.6819    2.6148   11.5771 H   0  0  0  0  0
    4.5441    0.5676   12.9390 H   0  0  0  0  0
    3.9391    1.6077   14.2525 H   0  0  0  0  0
    6.5191    1.0783   12.1964 H   0  0  0  0  0
    1.2775    0.2739   12.8757 H   0  0  0  0  0
   -0.2507    2.4029   14.3077 H   0  0  0  0  0
   -2.2162    0.8423   14.3199 H   0  0  0  0  0
   -1.3198   -0.1333   13.0602 H   0  0  0  0  0
   -3.1431    2.9913   13.7882 H   0  0  0  0  0
   -1.1175    0.6521   10.8148 H   0  0  0  0  0
   -4.1120    4.4352   12.0124 H   0  0  0  0  0
   -2.0524    2.1070    9.0255 H   0  0  0  0  0
   -3.5366    4.0196    9.6277 H   0  0  0  0  0
   -0.8621    1.9110   16.4277 H   0  0  0  0  0
    0.1794   -0.6627   17.5629 H   0  0  0  0  0
    0.6408    2.1418   18.4918 H   0  0  0  0  0
    1.8054    0.7224   18.3216 H   0  0  0  0  0
    2.4666   -0.4288   20.2234 H   0  0  0  0  0
   -1.0502    2.0224   20.3839 H   0  0  0  0  0
    2.2723   -0.8569   22.6536 H   0  0  0  0  0
   -1.2663    1.5651   22.8005 H   0  0  0  0  0
    2.7098    0.6458   25.4883 H   0  0  0  0  0
    0.6960   -0.1802   26.8239 H   0  0  0  0  0
   -1.0546   -1.6214   19.1163 H   0  0  0  0  0
   -3.1448    0.0142   20.3886 H   0  0  0  0  0
   -4.3499   -1.6308   21.7756 H   0  0  0  0  0
   -4.3395   -0.7692   18.4083 H   0  0  0  0  0
   -3.8986   -2.4531   18.7840 H   0  0  0  0  0
   -4.9853   -1.5536   19.8708 H   0  0  0  0  0
  1  2  1  0  0  0
  2  3  1  0  0  0
  2  5  1  0  0  0
  3  4  2  0  0  0
  3  8  1  0  0  0
  5  6  1  0  0  0
  5  7  1  0  0  0
  8  9  1  0  0  0
  9 10  1  0  0  0
  9 12  1  0  0  0
 10 11  2  0  0  0
 10 17  1  0  0  0
 12 13  1  0  0  0
 13 14  1  0  0  0
 14 15  1  0  0  0
 15 16  1  0  0  0
 17 18  1  0  0  0
 18 19  1  0  0  0
 18 21  1  0  0  0
 19 20  2  0  0  0
 19 26  1  0  0  0
 21 22  1  0  0  0
 22 23  1  0  0  0
 23 24  2  0  0  0
 23 25  1  0  0  0
 26 27  1  0  0  0
 27 28  1  0  0  0
 27 30  1  0  0  0
 28 29  2  0  0  0
 28 35  1  0  0  0
 30 31  1  0  0  0
 31 32  1  0  0  0
 32 33  2  0  0  0
 32 34  1  0  0  0
 35 36  1  0  0  0
 36 37  1  0  0  0
 36 39  1  0  0  0
 37 38  2  0  0  0
 37 44  1  0  0  0
 39 40  1  0  0  0
 40 41  1  0  0  0
 41 42  2  0  0  0
 41 43  1  0  0  0
 44 45  1  0  0  0
 45 46  1  0  0  0
 45 48  1  0  0  0
 46 47  2  0  0  0
 46 55  1  0  0  0
 48 49  1  0  0  0
 49 50  4  0  0  0
 49 51  4  0  0  0
 50 52  4  0  0  0
 51 53  4  0  0  0
 52 54  4  0  0  0
 53 54  4  0  0  0
 55 56  1  0  0  0
 56 57  1  0  0  0
 56 59  1  0  0  0
 57 58  2  0  0  0
 57 71  1  0  0  0
 59 60  1  0  0  0
 60 61  4  0  0  0
 60 62  4  0  0  0
 61 63  4  0  0  0
 62 64  4  0  0  0
 63 65  4  0  0  0
 64 65  4  0  0  0
 65 66  1  0  0  0
 66 67  1  0  0  0
 67 68  2  0  0  0
 67 69  1  0  0  0
 67 70  1  0  0  0
 71 72  1  0  0  0
 72 73  1  0  0  0
 72 75  1  0  0  0
 73 74  1  0  0  0
 73 76  2  0  0  0
  1 77  1  0  0  0
  1 78  1  0  0  0
  1 79  1  0  0  0
  2 80  1  0  0  0
  5 81  1  0  0  0
  6 82  1  0  0  0
  7 83  1  0  0  0
  7 84  1  0  0  0
  7 85  1  0  0  0
  8 86  1  0  0  0
  9 87  1  0  0  0
 12 88  1  0  0  0
 12 89  1  0  0  0
 13 90  1  0  0  0
 13 91  1  0  0  0
 14 92  1  0  0  0
 14 93  1  0  0  0
 15 94  1  0  0  0
 15 95  1  0  0  0
 16 96  1  0  0  0
 16 97  1  0  0  0
 16 98  1  0  0  0
 17 99  1  0  0  0
 18100  1  0  0  0
 21101  1  0  0  0
 21102  1  0  0  0
 22103  1  0  0  0
 22104  1  0  0  0
 25105  1  0  0  0
 25106  1  0  0  0
 26107  1  0  0  0
 27108  1  0  0  0
 30109  1  0  0  0
 30110  1  0  0  0
 31111  1  0  0  0
 31112  1  0  0  0
 34113  1  0  0  0
 35114  1  0  0  0
 36115  1  0  0  0
 39116  1  0  0  0
 39117  1  0  0  0
 40118  1  0  0  0
 40119  1  0  0  0
 43120  1  0  0  0
 44121  1  0  0  0
 45122  1  0  0  0
 48123  1  0  0  0
 48124  1  0  0  0
 50125  1  0  0  0
 51126  1  0  0  0
 52127  1  0  0  0
 53128  1  0  0  0
 54129  1  0  0  0
 55130  1  0  0  0
 56131  1  0  0  0
 59132  1  0  0  0
 59133  1  0  0  0
 61134  1  0  0  0
 62135  1  0  0  0
 63136  1  0  0  0
 64137  1  0  0  0
 69138  1  0  0  0
 70139  1  0  0  0
 71140  1  0  0  0
 72141  1  0  0  0
 74142  1  0  0  0
 75143  1  0  0  0
 75144  1  0  0  0
 75145  1  0  0  0
M  END
$$$$
