1onp_ligand
  -I-interpret- 

 20 19  0  0  0  0  0  0  0  0999 V2000
    6.4900   -5.7460   34.8370 O   0  0  0  0  0
    6.7750   -4.5810   35.3160 N   0  3  0  0  0
    6.0380   -3.5130   34.9670 C   0  0  0  0  0
    5.0960   -3.4330   34.2410 O   0  0  0  0  0
    7.9160   -4.4610   36.2430 C   0  0  0  0  0
    7.9600   -5.5740   37.3170 C   0  0  0  0  0
    9.3870   -5.8110   37.8460 C   0  0  0  0  0
   10.3570   -6.9770   36.9110 P   0  0  0  0  0
    9.4910   -8.3100   36.7320 O   0  0  0  0  0
   10.4770   -6.4190   35.4240 O   0  0  0  0  0
   11.8220   -7.3140   37.4220 O   0  0  0  0  0
    6.3508   -2.5717   35.4189 H   0  0  0  0  0
    7.8162   -3.5083   36.7631 H   0  0  0  0  0
    8.8280   -4.5410   35.6514 H   0  0  0  0  0
    7.6073   -6.4998   36.8624 H   0  0  0  0  0
    7.3338   -5.2645   38.1538 H   0  0  0  0  0
    9.2847   -6.2223   38.8502 H   0  0  0  0  0
    9.9057   -4.8541   37.7881 H   0  0  0  0  0
    8.6117   -8.0799   36.4231 H   0  0  0  0  0
    9.6018   -6.2072   35.0913 H   0  0  0  0  0
  1  2  2  0  0  0
  2  3  1  0  0  0
  2  5  1  0  0  0
  3  4  2  0  0  0
  5  6  1  0  0  0
  6  7  1  0  0  0
  7  8  1  0  0  0
  8  9  1  0  0  0
  8 10  1  0  0  0
  8 11  2  0  0  0
  3 12  1  0  0  0
  5 13  1  0  0  0
  5 14  1  0  0  0
  6 15  1  0  0  0
  6 16  1  0  0  0
  7 17  1  0  0  0
  7 18  1  0  0  0
  9 19  1  0  0  0
 10 20  1  0  0  0
M  END
$$$$
