### 
### Created by X-TOOL on Mon Sep 10 21:12:51 2018
### 

@<TRIPOS>MOLECULE
1onp_ligand
   18    17     1     0     0
SMALL
GAST_HUCK


@<TRIPOS>ATOM
      1 O2          6.4900   -5.7460   34.8370 O.2       1 FOM         0.1605
      2 N1          6.7750   -4.5810   35.3160 N.2       1 FOM         0.0851
      3 C1          6.0380   -3.5130   34.9670 C.2       1 FOM         0.3885
      4 O1          5.0960   -3.4330   34.2410 O.2       1 FOM        -0.2003
      5 C2          7.9160   -4.4610   36.2430 C.3       1 FOM         0.1527
      6 C3          7.9600   -5.5740   37.3170 C.3       1 FOM         0.0027
      7 C4          9.3870   -5.8110   37.8460 C.3       1 FOM         0.0230
      8 PA1        10.3570   -6.9770   36.9110 P.3       1 FOM         0.0580
      9 OP1         9.4910   -8.3100   36.7320 O.co2     1 FOM        -0.5623
     10 OP2        10.4770   -6.4190   35.4240 O.co2     1 FOM        -0.5623
     11 OP3        11.8220   -7.3140   37.4220 O.co2     1 FOM        -0.5623
     12 H1          6.3505   -2.5726   35.4185 H         1 FOM         0.2097
     13 H2          7.8496   -3.4884   36.7525 H         1 FOM         0.0767
     14 H3          8.8462   -4.5056   35.6575 H         1 FOM         0.0767
     15 H4          7.5857   -6.5090   36.8747 H         1 FOM         0.0315
     16 H5          7.3139   -5.2816   38.1578 H         1 FOM         0.0315
     17 H6          9.3102   -6.1825   38.8785 H         1 FOM         0.0452
     18 H7          9.9164   -4.8468   37.8417 H         1 FOM         0.0452
@<TRIPOS>BOND
     1    1    2 2  
     2    2    3 1  
     3    2    5 1  
     4    3    4 2  
     5    5    6 1  
     6    6    7 1  
     7    7    8 1  
     8    8    9 ar 
     9    8   10 ar 
    10    8   11 ar 
    11    3   12 1  
    12    5   13 1  
    13    5   14 1  
    14    6   15 1  
    15    6   16 1  
    16    7   17 1  
    17    7   18 1  
@<TRIPOS>SUBSTRUCTURE
     1 FOM         1

