2r2b_ligand
  -I-interpret- 

 91 93  0  0  0  0  0  0  0  0999 V2000
  -12.7430   -2.1760   73.6210 C   0  0  0  0  0
  -13.5900   -1.3470   73.1820 O   0  0  0  0  0
  -12.9780   -3.0170   74.5110 O   0  0  0  0  0
  -11.3210   -2.1500   73.0410 C   0  0  0  0  0
  -11.1470   -0.8760   72.1500 C   0  0  0  0  0
   -9.8480   -0.0840   72.4120 C   0  0  0  0  0
   -9.5710    0.0640   73.9180 C   0  0  0  0  0
  -10.6990    0.6140   74.6220 O   0  0  0  0  0
   -9.2790   -1.3740   74.3970 C   0  0  0  0  0
  -10.5040   -2.1590   74.2570 O   0  0  0  0  0
   -8.6670   -1.4470   75.8110 C   0  0  0  0  0
   -7.3650   -0.8590   75.8290 O   0  0  0  0  0
   -8.5220   -2.9000   76.3050 C   0  0  0  0  0
   -7.8160   -3.7100   75.3430 O   0  0  0  0  0
  -11.0010   -3.3550   72.2780 O   0  0  0  0  0
  -10.9710   -4.6580   72.7230 C   0  0  0  0  0
  -11.5920   -5.7840   72.1610 C   0  0  0  0  0
  -11.4480   -7.0310   72.7590 C   0  0  0  0  0
   -8.7210    2.7160   71.6140 C   0  0  0  0  0
   -7.6810    3.1570   72.1820 O   0  0  0  0  0
   -9.8240    3.3050   71.5950 O   0  0  0  0  0
   -8.6580    1.3600   70.8710 C   0  0  0  0  0
   -9.8630    0.5620   71.1180 O   0  0  0  0  0
   -8.4950    1.6730   69.3530 C   0  0  0  0  0
   -7.8490    0.5220   68.5430 C   0  0  0  0  0
   -6.5760   -0.0610   69.1620 C   0  0  0  0  0
   -5.5150    0.9180   69.1230 O   0  0  0  0  0
   -6.9300   -0.5060   70.5980 C   0  0  0  0  0
   -7.4580    0.6500   71.3440 O   0  0  0  0  0
   -5.7350   -1.1960   71.2770 C   0  0  0  0  0
   -5.4310   -2.4370   70.6310 O   0  0  0  0  0
   -6.0110   -1.4790   72.7630 C   0  0  0  0  0
   -4.8940   -2.1720   73.3460 O   0  0  0  0  0
   -9.6190    0.7250   65.9370 C   0  0  0  0  0
  -10.6670    1.3080   65.5500 O   0  0  0  0  0
   -9.5050   -0.4930   66.0910 O   0  0  0  0  0
   -8.3410    1.5570   66.1670 C   0  0  0  0  0
   -7.5270    1.1110   67.2760 O   0  0  0  0  0
   -7.4740    1.4980   64.8850 C   0  0  0  0  0
   -6.3030    2.4880   65.0120 C   0  0  0  0  0
   -5.6020    2.4800   63.7640 O   0  0  0  0  0
   -6.7990    3.9100   65.3100 C   0  0  0  0  0
   -7.6390    4.3800   64.2390 O   0  0  0  0  0
   -7.6530    3.8980   66.6050 C   0  0  0  0  0
   -8.7390    2.9320   66.4590 O   0  0  0  0  0
   -8.1930    5.2880   66.9910 C   0  0  0  0  0
   -7.0900    6.1580   67.1750 O   0  0  0  0  0
   -8.9610    5.2330   68.3200 C   0  0  0  0  0
   -8.0530    4.9110   69.3990 O   0  0  0  0  0
  -13.1825   -0.8039   72.5033 H   0  0  0  0  0
  -11.9786   -0.2099   72.3800 H   0  0  0  0  0
  -11.1113   -1.2136   71.1142 H   0  0  0  0  0
   -8.7678   -0.1320   72.5494 H   0  0  0  0  0
   -8.7465    0.7510   74.1089 H   0  0  0  0  0
  -10.8646    1.5069   74.3108 H   0  0  0  0  0
   -8.5003   -1.8029   73.7664 H   0  0  0  0  0
   -9.3494   -0.9046   76.4654 H   0  0  0  0  0
   -7.0023   -0.9145   76.7161 H   0  0  0  0  0
   -9.5177   -3.3195   76.4490 H   0  0  0  0  0
   -7.9574   -2.8957   77.2373 H   0  0  0  0  0
   -7.7405   -4.6073   75.6759 H   0  0  0  0  0
  -11.5159   -4.5684   73.6627 H   0  0  0  0  0
   -9.9200   -4.9042   72.5720 H   0  0  0  0  0
  -12.1881   -5.6809   71.2543 H   0  0  0  0  0
  -10.8520   -7.1351   73.6657 H   0  0  0  0  0
  -11.9311   -7.9045   72.3211 H   0  0  0  0  0
   -6.9624    2.5321   72.0612 H   0  0  0  0  0
   -7.8378    2.5385   69.2684 H   0  0  0  0  0
   -9.4928    1.8365   68.9460 H   0  0  0  0  0
   -8.5427   -0.3174   68.4955 H   0  0  0  0  0
   -6.2111   -0.9234   68.6042 H   0  0  0  0  0
   -4.7215    0.5439   69.5129 H   0  0  0  0  0
   -7.7150   -1.2619   70.5762 H   0  0  0  0  0
   -4.8902   -0.5124   71.1934 H   0  0  0  0  0
   -4.6837   -2.8502   71.0697 H   0  0  0  0  0
   -6.9035   -2.0985   72.8509 H   0  0  0  0  0
   -6.1608   -0.5348   73.2866 H   0  0  0  0  0
   -5.0744   -2.3446   74.2730 H   0  0  0  0  0
  -10.5088    2.2539   65.5082 H   0  0  0  0  0
   -8.0834    1.7648   64.0216 H   0  0  0  0  0
   -7.0840    0.4884   64.7562 H   0  0  0  0  0
   -5.6577    2.1870   65.8373 H   0  0  0  0  0
   -4.8621    3.0900   63.8099 H   0  0  0  0  0
   -5.9312    4.5603   65.4203 H   0  0  0  0  0
   -7.9418    5.2690   64.4379 H   0  0  0  0  0
   -7.0009    3.5995   67.4258 H   0  0  0  0  0
   -8.8605    5.6320   66.2009 H   0  0  0  0  0
   -7.4090    7.0306   67.4165 H   0  0  0  0  0
   -9.7330    4.4660   68.2582 H   0  0  0  0  0
   -9.4183    6.2037   68.5119 H   0  0  0  0  0
   -8.5394    4.8783   70.2260 H   0  0  0  0  0
  1  2  1  0  0  0
  1  3  2  0  0  0
  4  1  1  0  0  0
  5  4  1  0  0  0
  4 10  1  0  0  0
  4 15  1  0  0  0
  6  5  1  0  0  0
  6  7  1  0  0  0
 23  6  1  0  0  0
  7  8  1  0  0  0
  7  9  1  0  0  0
  9 10  1  0  0  0
  9 11  1  0  0  0
 11 12  1  0  0  0
 11 13  1  0  0  0
 13 14  1  0  0  0
 15 16  1  0  0  0
 16 17  1  0  0  0
 17 18  2  0  0  0
 19 20  1  0  0  0
 19 21  2  0  0  0
 22 19  1  0  0  0
 22 23  1  0  0  0
 24 22  1  0  0  0
 22 29  1  0  0  0
 25 24  1  0  0  0
 25 26  1  0  0  0
 38 25  1  0  0  0
 26 27  1  0  0  0
 26 28  1  0  0  0
 28 29  1  0  0  0
 28 30  1  0  0  0
 30 31  1  0  0  0
 30 32  1  0  0  0
 32 33  1  0  0  0
 34 35  1  0  0  0
 34 36  2  0  0  0
 37 34  1  0  0  0
 37 38  1  0  0  0
 37 39  1  0  0  0
 37 45  1  0  0  0
 39 40  1  0  0  0
 40 41  1  0  0  0
 40 42  1  0  0  0
 42 43  1  0  0  0
 42 44  1  0  0  0
 44 45  1  0  0  0
 44 46  1  0  0  0
 46 47  1  0  0  0
 46 48  1  0  0  0
 48 49  1  0  0  0
  2 50  1  0  0  0
  5 51  1  0  0  0
  5 52  1  0  0  0
  6 53  1  0  0  0
  7 54  1  0  0  0
  8 55  1  0  0  0
  9 56  1  0  0  0
 11 57  1  0  0  0
 12 58  1  0  0  0
 13 59  1  0  0  0
 13 60  1  0  0  0
 14 61  1  0  0  0
 16 62  1  0  0  0
 16 63  1  0  0  0
 17 64  1  0  0  0
 18 65  1  0  0  0
 18 66  1  0  0  0
 20 67  1  0  0  0
 24 68  1  0  0  0
 24 69  1  0  0  0
 25 70  1  0  0  0
 26 71  1  0  0  0
 27 72  1  0  0  0
 28 73  1  0  0  0
 30 74  1  0  0  0
 31 75  1  0  0  0
 32 76  1  0  0  0
 32 77  1  0  0  0
 33 78  1  0  0  0
 35 79  1  0  0  0
 39 80  1  0  0  0
 39 81  1  0  0  0
 40 82  1  0  0  0
 41 83  1  0  0  0
 42 84  1  0  0  0
 43 85  1  0  0  0
 44 86  1  0  0  0
 46 87  1  0  0  0
 47 88  1  0  0  0
 48 89  1  0  0  0
 48 90  1  0  0  0
 49 91  1  0  0  0
M  END
$$$$
