2bv4_ligand
  -I-interpret- 

 27 27  0  0  0  0  0  0  0  0999 V2000
    4.9120   10.5980   -3.1590 C   0  0  0  0  0
    6.1880    9.8340   -2.9310 C   0  0  0  0  0
    5.8520    8.4860   -2.2890 C   0  0  0  0  0
    4.9470    8.6860   -1.0610 C   0  0  0  0  0
    3.6830    9.4300   -1.5330 C   0  0  0  0  0
    2.6650    9.7520   -0.4460 C   0  0  0  0  0
    3.1480   10.8250   -4.7080 C   0  0  0  0  0
    4.2840   10.0750   -4.2600 O   0  0  0  0  0
    7.0630   10.5050   -2.0260 O   0  0  0  0  0
    7.0450    7.7960   -1.9030 O   0  0  0  0  0
    4.6840    7.3890   -0.5330 O   0  0  0  0  0
    4.1210   10.7250   -2.0210 O   0  0  0  0  0
    1.4550   10.1800   -1.1350 O   0  0  0  0  0
    5.1449   11.6404   -3.3762 H   0  0  0  0  0
    6.6758    9.7295   -3.9001 H   0  0  0  0  0
    5.3226    7.8839   -3.0274 H   0  0  0  0  0
    5.3961    9.2867   -0.2701 H   0  0  0  0  0
    3.2020    8.7725   -2.2572 H   0  0  0  0  0
    3.0347   10.5321    0.2194 H   0  0  0  0  0
    2.4725    8.8820    0.1817 H   0  0  0  0  0
    2.4063   10.8698   -3.9105 H   0  0  0  0  0
    3.4619   11.8351   -4.9711 H   0  0  0  0  0
    2.7147   10.3385   -5.5819 H   0  0  0  0  0
    7.3021   11.3609   -2.3891 H   0  0  0  0  0
    7.6059    7.6738   -2.6725 H   0  0  0  0  0
    5.5096    6.9828   -0.2591 H   0  0  0  0  0
    0.7791   10.3955   -0.4883 H   0  0  0  0  0
  1  2  1  0  0  0
  1  8  1  0  0  0
  1 12  1  0  0  0
  2  3  1  0  0  0
  2  9  1  0  0  0
  3  4  1  0  0  0
  3 10  1  0  0  0
  4  5  1  0  0  0
  4 11  1  0  0  0
  5  6  1  0  0  0
  5 12  1  0  0  0
  6 13  1  0  0  0
  8  7  1  0  0  0
  1 14  1  0  0  0
  2 15  1  0  0  0
  3 16  1  0  0  0
  4 17  1  0  0  0
  5 18  1  0  0  0
  6 19  1  0  0  0
  6 20  1  0  0  0
  7 21  1  0  0  0
  7 22  1  0  0  0
  7 23  1  0  0  0
  9 24  1  0  0  0
 10 25  1  0  0  0
 11 26  1  0  0  0
 13 27  1  0  0  0
M  END
$$$$
