5u6b_ligand
  -I-interpret- 

 54 57  0  0  0  0  0  0  0  0999 V2000
   26.6810  -12.6260   14.0370 N   0  0  0  0  0
   27.1150  -12.1060   15.1920 C   0  0  0  0  0
   26.6590  -12.5540   16.4270 C   0  0  0  0  0
   26.9760  -11.8370   17.6990 C   0  0  0  0  0
   28.1230  -10.9640   17.9540 C   0  0  0  0  0
   22.8640  -14.4130   18.5070 C   0  0  0  0  0
   23.9830  -15.6890   16.5880 C   0  0  0  0  0
   21.6890  -14.4710   16.4360 C   0  0  0  0  0
   20.6930  -13.7030   16.9620 C   0  0  0  0  0
   20.7380  -13.2830   18.2670 C   0  0  0  0  0
   26.6290  -10.7110   21.1430 C   0  0  0  0  0
   25.3560  -14.1100   15.3450 C   0  0  0  0  0
   25.7690  -13.6250   14.0540 C   0  0  0  0  0
   25.8040  -13.5870   16.4760 N   0  0  0  0  0
   28.0910  -10.5260   19.2020 N   0  0  0  0  0
   26.9540  -11.0630   19.7610 N   0  0  0  0  0
   26.2610  -11.8500   18.8960 C   0  0  0  0  0
   24.9420  -12.5170   19.2140 C   0  0  0  0  0
   24.9540  -13.8940   19.6940 N   0  0  0  0  0
   24.0020  -14.8020   19.4080 C   0  0  0  0  0
   22.8170  -14.8450   17.1730 C   0  0  0  0  0
   24.4670  -15.1300   15.3670 O   0  0  0  0  0
   23.6050  -17.1320   16.3250 C   0  0  0  0  0
   21.8240  -13.6470   19.0450 C   0  0  0  0  0
   19.6560  -13.3110   16.1850 F   0  0  0  0  0
   21.4880  -14.9760   14.8020 Cl  0  0  0  0  0
   24.0010  -15.9210   19.8780 O   0  0  0  0  0
   26.0500  -14.2700   20.5800 C   0  0  0  0  0
   26.1100   -9.2920   21.2780 C   0  0  0  0  0
   24.9730   -9.0690   20.4680 O   0  0  0  0  0
   29.2160  -10.5170   17.0390 C   0  0  0  0  0
   25.3010  -14.0630   12.8830 N   0  0  0  0  0
   27.8517  -11.3032   15.1632 H   0  0  0  0  0
   24.7585  -15.6681   17.3536 H   0  0  0  0  0
   19.9349  -12.6748   18.6833 H   0  0  0  0  0
   27.5421  -10.7913   21.7328 H   0  0  0  0  0
   25.8466  -11.3880   21.4861 H   0  0  0  0  0
   24.4050  -12.5512   18.2660 H   0  0  0  0  0
   24.5190  -11.9345   20.0324 H   0  0  0  0  0
   23.2957  -17.6012   17.2589 H   0  0  0  0  0
   22.7831  -17.1664   15.6099 H   0  0  0  0  0
   24.4652  -17.6631   15.9175 H   0  0  0  0  0
   21.8692  -13.3334   20.0879 H   0  0  0  0  0
   26.9988  -14.1282   20.0626 H   0  0  0  0  0
   26.0246  -13.6451   21.4727 H   0  0  0  0  0
   25.9428  -15.3167   20.8645 H   0  0  0  0  0
   26.8967   -8.6079   20.9597 H   0  0  0  0  0
   25.8271   -9.1284   22.3178 H   0  0  0  0  0
   24.6744   -8.1635   20.5798 H   0  0  0  0  0
   29.7576  -11.3878   16.6695 H   0  0  0  0  0
   28.7849   -9.9723   16.1990 H   0  0  0  0  0
   29.9002   -9.8659   17.5832 H   0  0  0  0  0
   25.6321  -13.6457   12.0132 H   0  0  0  0  0
   24.6123  -14.8150   12.8581 H   0  0  0  0  0
  2  1  4  0  0  0
  1 13  4  0  0  0
  3  2  4  0  0  0
  4  3  1  0  0  0
  3 14  4  0  0  0
  5  4  4  0  0  0
  4 17  4  0  0  0
 15  5  4  0  0  0
  5 31  1  0  0  0
  6 20  1  0  0  0
 21  6  4  0  0  0
  6 24  4  0  0  0
  7 21  1  0  0  0
 22  7  1  0  0  0
  7 23  1  0  0  0
  8  9  4  0  0  0
 21  8  4  0  0  0
  8 26  1  0  0  0
  9 10  4  0  0  0
  9 25  1  0  0  0
 24 10  4  0  0  0
 16 11  1  0  0  0
 11 29  1  0  0  0
 12 13  4  0  0  0
 14 12  4  0  0  0
 12 22  1  0  0  0
 13 32  1  0  0  0
 15 16  4  0  0  0
 16 17  4  0  0  0
 17 18  1  0  0  0
 18 19  1  0  0  0
 19 20  1  0  0  0
 19 28  1  0  0  0
 20 27  2  0  0  0
 29 30  1  0  0  0
  2 33  1  0  0  0
  7 34  1  0  0  0
 10 35  1  0  0  0
 11 36  1  0  0  0
 11 37  1  0  0  0
 18 38  1  0  0  0
 18 39  1  0  0  0
 23 40  1  0  0  0
 23 41  1  0  0  0
 23 42  1  0  0  0
 24 43  1  0  0  0
 28 44  1  0  0  0
 28 45  1  0  0  0
 28 46  1  0  0  0
 29 47  1  0  0  0
 29 48  1  0  0  0
 30 49  1  0  0  0
 31 50  1  0  0  0
 31 51  1  0  0  0
 31 52  1  0  0  0
 32 53  1  0  0  0
 32 54  1  0  0  0
M  END
$$$$
