1z3c_ligand
  -I-interpret- 

 52 54  0  0  0  0  0  0  0  0999 V2000
   13.3520   30.1670   91.2330 N   0  3  0  0  0
   13.9720   31.0910   92.2340 C   0  0  0  0  0
   13.1940   32.3900   92.3540 C   0  0  0  0  0
   12.1940   32.5580   91.6530 O   0  0  0  0  0
   13.6660   33.2230   93.2010 O   0  0  0  0  0
   15.4110   31.4330   91.8530 C   0  0  0  0  0
   15.9290   30.5380   90.8050 C   0  0  0  0  0
   17.6110   30.8330   90.2350 N   0  3  0  0  0
   17.4310   32.3390   89.2770 C   0  0  0  0  0
   17.8040   29.6040   89.0590 C   0  0  0  0  0
   18.0040   28.2250   89.6270 C   0  0  0  0  0
   18.0560   27.3540   88.4990 O   0  0  0  0  0
   19.3930   28.0230   90.2500 C   0  0  0  0  0
   19.1480   27.9260   91.6880 O   0  0  0  0  0
   19.8710   26.6740   89.7340 C   0  0  0  0  0
   20.4780   25.7300   90.5810 O   0  0  0  0  0
   18.6330   26.2000   88.9530 C   0  0  0  0  0
   18.9140   25.3370   87.8390 N   0  0  0  0  0
   19.7200   25.5360   86.7550 C   0  0  0  0  0
   19.7330   24.5300   85.9260 N   0  0  0  0  0
   18.8730   23.6050   86.5050 C   0  0  0  0  0
   18.4490   22.2990   86.1130 C   0  0  0  0  0
   18.8890   21.7110   84.9710 N   0  0  0  0  0
   17.5590   21.6140   86.9220 N   0  0  0  0  0
   17.1320   22.2240   88.0610 C   0  0  0  0  0
   17.4750   23.4500   88.5240 N   0  0  0  0  0
   18.3560   24.0920   87.6860 C   0  0  0  0  0
   12.3940   29.9572   91.5134 H   0  0  0  0  0
   13.3490   30.6136   90.3160 H   0  0  0  0  0
   13.8919   29.3027   91.1898 H   0  0  0  0  0
   13.9541   30.5656   93.1888 H   0  0  0  0  0
   14.4487   32.8499   93.6130 H   0  0  0  0  0
   16.0354   31.3190   92.7391 H   0  0  0  0  0
   15.4300   32.4536   91.4709 H   0  0  0  0  0
   15.2890   30.6951   89.9368 H   0  0  0  0  0
   15.9341   29.5396   91.2425 H   0  0  0  0  0
   18.3388   30.8664   90.9489 H   0  0  0  0  0
   18.3235   32.4908   88.6700 H   0  0  0  0  0
   16.5591   32.2535   88.6284 H   0  0  0  0  0
   17.3014   33.1845   89.9526 H   0  0  0  0  0
   18.6994   29.8469   88.4868 H   0  0  0  0  0
   16.8866   29.5775   88.4709 H   0  0  0  0  0
   17.2209   28.0562   90.3662 H   0  0  0  0  0
   20.1158   28.8065   90.0223 H   0  0  0  0  0
   19.9821   27.7975   92.1456 H   0  0  0  0  0
   20.7866   26.7976   89.1557 H   0  0  0  0  0
   20.7082   24.9480   90.0739 H   0  0  0  0  0
   18.0019   25.5985   89.6073 H   0  0  0  0  0
   20.2966   26.4476   86.5980 H   0  0  0  0  0
   19.5430   22.2038   84.3629 H   0  0  0  0  0
   18.5655   20.7765   84.7212 H   0  0  0  0  0
   16.4301   21.6586   88.6740 H   0  0  0  0  0
  2  1  1  0  0  0
  2  3  1  0  0  0
  6  2  1  0  0  0
  3  4  2  0  0  0
  3  5  1  0  0  0
  7  6  1  0  0  0
  8 10  1  0  0  0
 10 11  1  0  0  0
 11 12  1  0  0  0
 11 13  1  0  0  0
 12 17  1  0  0  0
 13 14  1  0  0  0
 13 15  1  0  0  0
 15 16  1  0  0  0
 15 17  1  0  0  0
 17 18  1  0  0  0
 18 19  4  0  0  0
 18 27  4  0  0  0
 19 20  4  0  0  0
 21 20  4  0  0  0
 21 22  4  0  0  0
 27 21  4  0  0  0
 22 23  1  0  0  0
 22 24  4  0  0  0
 25 24  4  0  0  0
 26 25  4  0  0  0
 27 26  4  0  0  0
  8  9  1  0  0  0
  7  8  1  0  0  0
  1 28  1  0  0  0
  1 29  1  0  0  0
  1 30  1  0  0  0
  2 31  1  0  0  0
  5 32  1  0  0  0
  6 33  1  0  0  0
  6 34  1  0  0  0
  7 35  1  0  0  0
  7 36  1  0  0  0
  8 37  1  0  0  0
  9 38  1  0  0  0
  9 39  1  0  0  0
  9 40  1  0  0  0
 10 41  1  0  0  0
 10 42  1  0  0  0
 11 43  1  0  0  0
 13 44  1  0  0  0
 14 45  1  0  0  0
 15 46  1  0  0  0
 16 47  1  0  0  0
 17 48  1  0  0  0
 19 49  1  0  0  0
 23 50  1  0  0  0
 23 51  1  0  0  0
 25 52  1  0  0  0
M  END
$$$$
