3rdh_ligand
  -I-interpret- 

 30 30  0  0  0  0  0  0  0  0999 V2000
  -82.7310   66.1860   10.6760 C   0  0  0  0  0
  -83.8610   65.3260   10.8130 C   0  0  0  0  0
  -84.0930   64.3440    9.8940 N   0  0  0  0  0
  -83.2860   64.1190    8.8120 C   0  0  0  0  0
  -82.1120   64.9270    8.5750 C   0  0  0  0  0
  -81.8500   65.9850    9.5460 C   0  0  0  0  0
  -80.6120   66.9330    9.4020 C   0  0  0  0  0
  -80.1250   67.4770   10.4120 O   0  0  0  0  0
  -82.5060   67.1730   11.6040 O   0  0  0  0  0
  -84.8390   65.4750   11.9890 C   0  0  0  0  0
  -81.1760   64.6820    7.3560 C   0  0  0  0  0
  -80.4420   63.5880    7.9540 O   0  0  0  0  0
  -79.2270   62.6340    7.4780 P   0  0  0  0  0
  -78.6550   63.0520    6.1780 O   0  0  0  0  0
  -79.9350   61.1900    7.2990 O   0  0  0  0  0
  -78.1370   62.5320    8.6590 O   0  0  0  0  0
  -83.7470   63.1040    8.0800 N   0  0  0  0  0
  -80.9719   67.7616    8.7921 H   0  0  0  0  0
  -79.8163   66.2885    9.0283 H   0  0  0  0  0
  -79.3781   68.0212   10.1522 H   0  0  0  0  0
  -81.7118   67.6578   11.3677 H   0  0  0  0  0
  -84.3015   65.3352   12.9269 H   0  0  0  0  0
  -85.2820   66.4707   11.9676 H   0  0  0  0  0
  -85.6248   64.7244   11.9037 H   0  0  0  0  0
  -80.5905   65.5332    7.0085 H   0  0  0  0  0
  -81.6589   64.4834    6.3992 H   0  0  0  0  0
  -80.3087   60.9118    8.1384 H   0  0  0  0  0
  -78.5707   62.2579    9.4704 H   0  0  0  0  0
  -84.5966   62.6157    8.3630 H   0  0  0  0  0
  -83.2499   62.8160    7.2372 H   0  0  0  0  0
  1  2  4  0  0  0
  1  6  4  0  0  0
  1  9  1  0  0  0
  2  3  4  0  0  0
  2 10  1  0  0  0
  3  4  4  0  0  0
  4  5  4  0  0  0
  4 17  1  0  0  0
  5  6  4  0  0  0
  5 11  1  0  0  0
  6  7  1  0  0  0
  7  8  1  0  0  0
 11 12  1  0  0  0
 12 13  1  0  0  0
 13 14  2  0  0  0
 13 15  1  0  0  0
 13 16  1  0  0  0
  7 18  1  0  0  0
  7 19  1  0  0  0
  8 20  1  0  0  0
  9 21  1  0  0  0
 10 22  1  0  0  0
 10 23  1  0  0  0
 10 24  1  0  0  0
 11 25  1  0  0  0
 11 26  1  0  0  0
 15 27  1  0  0  0
 16 28  1  0  0  0
 17 29  1  0  0  0
 17 30  1  0  0  0
M  END
$$$$
