### 
### Created by X-TOOL on Mon Sep 10 21:13:08 2018
### 

@<TRIPOS>MOLECULE
3rdh_ligand
   28    28     1     0     0
SMALL
GAST_HUCK


@<TRIPOS>ATOM
      1 C1        -82.7310   66.1860   10.6760 C.ar      1 3RD         0.0988
      2 C2        -83.8610   65.3260   10.8130 C.ar      1 3RD         0.0240
      3 N2        -84.0930   64.3440    9.8940 N.ar      1 3RD        -0.3134
      4 C3        -83.2860   64.1190    8.8120 C.ar      1 3RD         0.0861
      5 C4        -82.1120   64.9270    8.5750 C.ar      1 3RD         0.0214
      6 C5        -81.8500   65.9850    9.5460 C.ar      1 3RD         0.0174
      7 C6        -80.6120   66.9330    9.4020 C.3       1 3RD         0.0764
      8 O1        -80.1250   67.4770   10.4120 O.3       1 3RD        -0.3841
      9 O2        -82.5060   67.1730   11.6040 O.3       1 3RD        -0.3436
     10 C7        -84.8390   65.4750   11.9890 C.3       1 3RD        -0.0264
     11 C8        -81.1760   64.6820    7.3560 C.3       1 3RD         0.1070
     12 O3        -80.4420   63.5880    7.9540 O.3       1 3RD        -0.2674
     13 P1        -79.2270   62.6340    7.4780 P.3       1 3RD         0.2031
     14 O4        -78.6550   63.0520    6.1780 O.co2     1 3RD        -0.5536
     15 O5        -79.9350   61.1900    7.2990 O.co2     1 3RD        -0.5536
     16 O6        -78.1370   62.5320    8.6590 O.co2     1 3RD        -0.5536
     17 N3        -83.7470   63.1040    8.0800 N.pl3     1 3RD        -0.3342
     18 H         -80.9084   67.7413    8.7173 H         1 3RD         0.0702
     19 H         -81.6515   67.0323   12.0183 H         1 3RD         0.2411
     20 H         -84.3015   65.3352   12.9269 H         1 3RD         0.0378
     21 H         -85.2820   66.4707   11.9676 H         1 3RD         0.0378
     22 H         -85.6248   64.7244   11.9037 H         1 3RD         0.0378
     23 H         -80.5905   65.5332    7.0085 H         1 3RD         0.0733
     24 H         -81.6589   64.4834    6.3992 H         1 3RD         0.0733
     25 H         -84.5966   62.6157    8.3630 H         1 3RD         0.1708
     26 H         -83.2499   62.8160    7.2372 H         1 3RD         0.1708
     27 H         -79.8084   66.3390    8.9422 H         1 3RD         0.0702
     28 H         -80.7848   68.0201   10.8270 H         1 3RD         0.2123
@<TRIPOS>BOND
     1    1    2 ar 
     2    1    6 ar 
     3    1    9 1  
     4    2    3 ar 
     5    2   10 1  
     6    3    4 ar 
     7    4    5 ar 
     8    4   17 1  
     9    5    6 ar 
    10    5   11 1  
    11    6    7 1  
    12    7    8 1  
    13   11   12 1  
    14   12   13 1  
    15   13   14 ar 
    16   13   15 ar 
    17   13   16 ar 
    18    7   18 1  
    19    9   19 1  
    20   10   20 1  
    21   10   21 1  
    22   10   22 1  
    23   11   23 1  
    24   11   24 1  
    25   17   25 1  
    26   17   26 1  
    27    7   27 1  
    28    8   28 1  
@<TRIPOS>SUBSTRUCTURE
     1 3RD         1

