4mzf_ligand
  -I-interpret- 

174173  0  0  0  0  0  0  0  0999 V2000
   -6.4870    9.5990    6.4110 N   0  3  0  0  0
   -6.9500    9.2950    5.0640 C   0  0  0  0  0
   -8.4200    8.8570    5.0800 C   0  0  0  0  0
   -8.9280    8.4000    6.1120 O   0  0  0  0  0
   -6.0810    8.2150    4.4470 C   0  0  0  0  0
   -9.0920    9.0090    3.9370 N   0  0  0  0  0
  -10.4690    8.5420    3.7740 C   0  0  0  0  0
  -10.5750    7.0530    4.0190 C   0  0  0  0  0
   -9.6170    6.3110    3.8130 O   0  0  0  0  0
  -10.9670    8.7920    2.3510 C   0  0  0  0  0
  -11.2050   10.2260    2.0140 C   0  0  0  0  0
  -11.5400   10.3770    0.5450 C   0  0  0  0  0
  -11.3080   11.7520    0.1100 N   0  0  0  0  0
  -12.1390   12.7570    0.3560 C   0  0  0  0  0
  -13.2620   12.5260    1.0280 N   0  0  0  0  0
  -11.8610   13.9870   -0.0780 N   0  0  0  0  0
  -11.7630    6.6200    4.4220 N   0  0  0  0  0
  -12.0620    5.2060    4.5200 C   0  0  0  0  0
  -13.0050    4.8070    3.3880 C   0  0  0  0  0
  -13.9020    5.5600    2.9990 O   0  0  0  0  0
  -12.6880    4.8620    5.8800 C   0  0  0  0  0
  -11.8760    5.4120    6.9290 O   0  0  0  0  0
  -12.7980    3.3410    6.0590 C   0  0  0  0  0
  -12.7690    3.6270    2.8430 N   0  0  0  0  0
  -13.5820    3.0980    1.7930 C   0  0  0  0  0
  -12.8800    1.8750    1.1980 C   0  0  0  0  0
  -13.1060    1.8140   -0.2840 C   0  0  0  0  0
  -12.1540    2.6980   -1.0670 C   0  0  0  0  0
  -12.3210    2.1690   -2.4850 C   0  0  0  0  0
  -12.2010    3.0670   -3.6890 N   0  3  0  0  0
  -14.9600    2.6810    2.3060 C   0  0  0  0  0
  -15.1240    2.0500    3.3520 O   0  0  0  0  0
  -13.0150    4.3230   -3.5610 C   0  0  0  0  0
  -12.6540    2.2980   -4.8840 C   0  0  0  0  0
  -10.7600    3.4240   -3.8420 C   0  0  0  0  0
  -15.9830    3.0600    1.5450 N   0  0  0  0  0
  -17.3760    2.7860    1.9260 C   0  0  0  0  0
  -17.8900    1.4530    1.4390 C   0  0  0  0  0
  -17.5170    0.9910    0.3660 O   0  0  0  0  0
  -18.3180    3.8310    1.3270 C   0  0  0  0  0
  -18.2530    5.1940    1.9410 C   0  0  0  0  0
  -19.3230    6.0890    1.3650 C   0  0  0  0  0
  -19.9740    5.7420    0.3640 O   0  0  0  0  0
  -19.5110    7.2470    1.9820 N   0  0  0  0  0
  -18.7810    0.8580    2.2260 N   0  0  0  0  0
  -19.6300   -0.2040    1.7230 C   0  0  0  0  0
  -20.6950    0.4970    0.8930 C   0  0  0  0  0
  -21.1410    1.5970    1.2380 O   0  0  0  0  0
  -20.3260   -0.9530    2.8590 C   0  0  0  0  0
  -21.2090   -0.0520    3.5400 O   0  0  0  0  0
  -19.3070   -1.5030    3.8440 C   0  0  0  0  0
  -21.0860   -0.1190   -0.2100 N   0  0  0  0  0
  -22.0500    0.4990   -1.1060 C   0  0  0  0  0
  -23.0890   -0.5340   -1.5490 C   0  0  0  0  0
  -22.7950   -1.7280   -1.6220 O   0  0  0  0  0
  -21.3320    1.0910   -2.2970 C   0  0  0  0  0
  -28.0130    5.1090   -5.4440 C   0  0  0  0  0
  -30.4700    5.2920   -5.4340 C   0  0  0  0  0
  -24.3050   -0.0760   -1.8340 N   0  0  0  0  0
  -25.3770   -0.9790   -2.2230 C   0  0  0  0  0
  -26.7530   -0.2950   -2.2400 C   0  0  0  0  0
  -26.8340    0.8430   -3.2680 C   0  0  0  0  0
  -28.2520    1.4300   -3.3630 C   0  0  0  0  0
  -28.2590    2.7530   -3.9680 N   0  0  0  0  0
  -29.3720    3.3620   -4.3990 C   0  0  0  0  0
  -30.5150    2.8650   -4.1840 N   0  0  0  0  0
  -29.2860    4.5190   -5.0590 N   0  0  0  0  0
  -25.1400   -1.6140   -3.5690 C   0  0  0  0  0
  -24.5150   -1.0040   -4.4760 O   0  0  0  0  0
  -25.6350   -2.8410   -3.6830 N   0  0  0  0  0
  -25.7960   -3.5820   -4.9360 C   0  0  0  0  0
  -24.4890   -4.1030   -5.5180 C   0  0  0  0  0
  -24.0240   -5.1770   -5.1240 O   0  0  0  0  0
  -26.6170   -2.7850   -5.9570 C   0  0  0  0  0
  -26.3720   -3.1640   -7.4010 C   0  0  0  0  0
  -27.6700   -3.5690   -8.1010 C   0  0  0  0  0
  -27.5810   -3.3210   -9.6030 C   0  0  0  0  0
  -27.3710   -1.8640   -9.8660 N   0  3  0  0  0
  -23.8826   -3.4390   -6.4006 O   0  0  0  0  0
   -7.0773   10.3254    6.8163 H   0  0  0  0  0
   -6.5388    8.7575    6.9851 H   0  0  0  0  0
   -5.5217    9.9263    6.3717 H   0  0  0  0  0
   -6.8725   10.1981    4.4586 H   0  0  0  0  0
   -6.1721    7.2993    5.0312 H   0  0  0  0  0
   -6.4070    8.0287    3.4237 H   0  0  0  0  0
   -5.0418    8.5439    4.4445 H   0  0  0  0  0
   -8.6302    9.4660    3.1507 H   0  0  0  0  0
  -11.0688    9.0938    4.4977 H   0  0  0  0  0
  -11.9255    8.2816    2.2570 H   0  0  0  0  0
  -10.1898    8.4332    1.6762 H   0  0  0  0  0
  -10.3015   10.7956    2.2315 H   0  0  0  0  0
  -12.0412   10.5952    2.6077 H   0  0  0  0  0
  -12.5902   10.1282    0.3924 H   0  0  0  0  0
  -10.9041    9.7084   -0.0352 H   0  0  0  0  0
  -10.4562   11.9517   -0.4143 H   0  0  0  0  0
  -13.4789   11.5827    1.3498 H   0  0  0  0  0
  -12.5106   14.7516    0.1057 H   0  0  0  0  0
  -10.9988   14.1631   -0.5937 H   0  0  0  0  0
  -12.4829    7.2992    4.6687 H   0  0  0  0  0
  -11.1300    4.6474    4.4334 H   0  0  0  0  0
  -13.6902    5.2886    5.9225 H   0  0  0  0  0
  -12.2660    5.1978    7.7797 H   0  0  0  0  0
  -13.4240    2.9277    5.2682 H   0  0  0  0  0
  -11.8037    2.8974    6.0063 H   0  0  0  0  0
  -13.2441    3.1219    7.0291 H   0  0  0  0  0
  -11.9810    3.0754    3.1825 H   0  0  0  0  0
  -13.7210    3.8736    1.0399 H   0  0  0  0  0
  -13.2859    0.9736    1.6571 H   0  0  0  0  0
  -11.8100    1.9498    1.3918 H   0  0  0  0  0
  -14.1197    2.1637   -0.4795 H   0  0  0  0  0
  -12.9406    0.7848   -0.6025 H   0  0  0  0  0
  -11.1263    2.6492   -0.7072 H   0  0  0  0  0
  -12.3781    3.7607   -0.9744 H   0  0  0  0  0
  -13.3586    1.8364   -2.5148 H   0  0  0  0  0
  -11.4898    1.4733   -2.5994 H   0  0  0  0  0
  -14.0667    4.0623   -3.4424 H   0  0  0  0  0
  -12.6783    4.8855   -2.6901 H   0  0  0  0  0
  -12.8885    4.9294   -4.4579 H   0  0  0  0  0
  -12.0250    1.4163   -5.0069 H   0  0  0  0  0
  -13.6903    1.9901   -4.7449 H   0  0  0  0  0
  -12.5765    2.9276   -5.7704 H   0  0  0  0  0
  -10.4179    3.9410   -2.9454 H   0  0  0  0  0
  -10.1750    2.5154   -3.9845 H   0  0  0  0  0
  -10.6383    4.0755   -4.7074 H   0  0  0  0  0
  -15.7956    3.5545    0.6728 H   0  0  0  0  0
  -17.3660    2.8009    3.0159 H   0  0  0  0  0
  -19.3309    3.4653    1.4957 H   0  0  0  0  0
  -18.0240    3.9488    0.2840 H   0  0  0  0  0
  -17.2767    5.6301    1.7292 H   0  0  0  0  0
  -18.4091    5.1044    3.0160 H   0  0  0  0  0
  -20.2159    7.8994    1.6385 H   0  0  0  0  0
  -18.9508    7.4857    2.8003 H   0  0  0  0  0
  -18.8686    1.1531    3.1984 H   0  0  0  0  0
  -19.0421   -0.9297    1.1610 H   0  0  0  0  0
  -20.8882   -1.7877    2.4402 H   0  0  0  0  0
  -21.6495   -0.5169    4.2552 H   0  0  0  0  0
  -18.6375   -2.1901    3.3265 H   0  0  0  0  0
  -18.7301   -0.6799    4.2655 H   0  0  0  0  0
  -19.8254   -2.0320    4.6437 H   0  0  0  0  0
  -20.7067   -1.0388   -0.4349 H   0  0  0  0  0
  -22.5704    1.3016   -0.5834 H   0  0  0  0  0
  -20.6221    1.8438   -1.9543 H   0  0  0  0  0
  -20.7990    0.3019   -2.8274 H   0  0  0  0  0
  -22.0589    1.5528   -2.9652 H   0  0  0  0  0
  -27.9796    5.2227   -6.5275 H   0  0  0  0  0
  -27.9090    6.0857   -4.9715 H   0  0  0  0  0
  -27.2001    4.4590   -5.1204 H   0  0  0  0  0
  -30.4265    6.2732   -4.9612 H   0  0  0  0  0
  -30.4971    5.4101   -6.5172 H   0  0  0  0  0
  -31.3655    4.7667   -5.1020 H   0  0  0  0  0
  -24.4889    0.9258   -1.7788 H   0  0  0  0  0
  -25.3756   -1.7544   -1.4569 H   0  0  0  0  0
  -26.9276    0.1320   -1.2524 H   0  0  0  0  0
  -27.4969   -1.0445   -2.5100 H   0  0  0  0  0
  -26.5643    0.4411   -4.2447 H   0  0  0  0  0
  -26.1560    1.6365   -2.9536 H   0  0  0  0  0
  -28.6518    1.5167   -2.3527 H   0  0  0  0  0
  -28.8522    0.7681   -3.9874 H   0  0  0  0  0
  -27.3700    3.2427   -4.0694 H   0  0  0  0  0
  -30.6011    1.9856   -3.6745 H   0  0  0  0  0
  -25.9282   -3.3073   -2.8245 H   0  0  0  0  0
  -26.3634   -4.4778   -4.6837 H   0  0  0  0  0
  -26.3270   -1.7397   -5.8502 H   0  0  0  0  0
  -27.6670   -2.9907   -5.7492 H   0  0  0  0  0
  -25.6875   -4.0120   -7.4244 H   0  0  0  0  0
  -25.9548   -2.3004   -7.9190 H   0  0  0  0  0
  -28.4869   -2.9720   -7.6957 H   0  0  0  0  0
  -27.8418   -4.6320   -7.9316 H   0  0  0  0  0
  -28.5090   -3.6419  -10.0762 H   0  0  0  0  0
  -26.7425   -3.8849  -10.0117 H   0  0  0  0  0
  -27.3125   -1.7063  -10.8720 H   0  0  0  0  0
  -28.1537   -1.3342   -9.4825 H   0  0  0  0  0
  -26.5040   -1.5611   -9.4222 H   0  0  0  0  0
  -24.3750   -2.6372   -6.5909 H   0  0  0  0  0
  2  1  1  0  0  0
  3  2  1  0  0  0
  2  5  1  0  0  0
  3  4  2  0  0  0
  6  3  1  0  0  0
  7  6  1  0  0  0
  8  7  1  0  0  0
  7 10  1  0  0  0
  8  9  2  0  0  0
 17  8  1  0  0  0
 10 11  1  0  0  0
 11 12  1  0  0  0
 12 13  1  0  0  0
 13 14  1  0  0  0
 14 15  2  0  0  0
 14 16  1  0  0  0
 18 17  1  0  0  0
 19 18  1  0  0  0
 18 21  1  0  0  0
 19 20  2  0  0  0
 24 19  1  0  0  0
 21 22  1  0  0  0
 21 23  1  0  0  0
 25 24  1  0  0  0
 25 26  1  0  0  0
 31 25  1  0  0  0
 26 27  1  0  0  0
 27 28  1  0  0  0
 28 29  1  0  0  0
 29 30  1  0  0  0
 30 33  1  0  0  0
 30 34  1  0  0  0
 30 35  1  0  0  0
 31 32  2  0  0  0
 36 31  1  0  0  0
 37 36  1  0  0  0
 38 37  1  0  0  0
 37 40  1  0  0  0
 38 39  2  0  0  0
 45 38  1  0  0  0
 40 41  1  0  0  0
 41 42  1  0  0  0
 42 43  2  0  0  0
 42 44  1  0  0  0
 46 45  1  0  0  0
 47 46  1  0  0  0
 46 49  1  0  0  0
 47 48  2  0  0  0
 52 47  1  0  0  0
 49 50  1  0  0  0
 49 51  1  0  0  0
 53 52  1  0  0  0
 54 53  1  0  0  0
 53 56  1  0  0  0
 54 55  2  0  0  0
 59 54  1  0  0  0
 67 57  1  0  0  0
 67 58  1  0  0  0
 60 59  1  0  0  0
 61 60  1  0  0  0
 60 68  1  0  0  0
 62 61  1  0  0  0
 63 62  1  0  0  0
 64 63  1  0  0  0
 65 64  1  0  0  0
 65 66  2  0  0  0
 65 67  1  0  0  0
 68 69  2  0  0  0
 68 70  1  0  0  0
 70 71  1  0  0  0
 71 72  1  0  0  0
 71 74  1  0  0  0
 72 73  2  0  0  0
 74 75  1  0  0  0
 75 76  1  0  0  0
 76 77  1  0  0  0
 77 78  1  0  0  0
 72 79  1  0  0  0
  1 80  1  0  0  0
  1 81  1  0  0  0
  1 82  1  0  0  0
  2 83  1  0  0  0
  5 84  1  0  0  0
  5 85  1  0  0  0
  5 86  1  0  0  0
  6 87  1  0  0  0
  7 88  1  0  0  0
 10 89  1  0  0  0
 10 90  1  0  0  0
 11 91  1  0  0  0
 11 92  1  0  0  0
 12 93  1  0  0  0
 12 94  1  0  0  0
 13 95  1  0  0  0
 15 96  1  0  0  0
 16 97  1  0  0  0
 16 98  1  0  0  0
 17 99  1  0  0  0
 18100  1  0  0  0
 21101  1  0  0  0
 22102  1  0  0  0
 23103  1  0  0  0
 23104  1  0  0  0
 23105  1  0  0  0
 24106  1  0  0  0
 25107  1  0  0  0
 26108  1  0  0  0
 26109  1  0  0  0
 27110  1  0  0  0
 27111  1  0  0  0
 28112  1  0  0  0
 28113  1  0  0  0
 29114  1  0  0  0
 29115  1  0  0  0
 33116  1  0  0  0
 33117  1  0  0  0
 33118  1  0  0  0
 34119  1  0  0  0
 34120  1  0  0  0
 34121  1  0  0  0
 35122  1  0  0  0
 35123  1  0  0  0
 35124  1  0  0  0
 36125  1  0  0  0
 37126  1  0  0  0
 40127  1  0  0  0
 40128  1  0  0  0
 41129  1  0  0  0
 41130  1  0  0  0
 44131  1  0  0  0
 44132  1  0  0  0
 45133  1  0  0  0
 46134  1  0  0  0
 49135  1  0  0  0
 50136  1  0  0  0
 51137  1  0  0  0
 51138  1  0  0  0
 51139  1  0  0  0
 52140  1  0  0  0
 53141  1  0  0  0
 56142  1  0  0  0
 56143  1  0  0  0
 56144  1  0  0  0
 57145  1  0  0  0
 57146  1  0  0  0
 57147  1  0  0  0
 58148  1  0  0  0
 58149  1  0  0  0
 58150  1  0  0  0
 59151  1  0  0  0
 60152  1  0  0  0
 61153  1  0  0  0
 61154  1  0  0  0
 62155  1  0  0  0
 62156  1  0  0  0
 63157  1  0  0  0
 63158  1  0  0  0
 64159  1  0  0  0
 66160  1  0  0  0
 70161  1  0  0  0
 71162  1  0  0  0
 74163  1  0  0  0
 74164  1  0  0  0
 75165  1  0  0  0
 75166  1  0  0  0
 76167  1  0  0  0
 76168  1  0  0  0
 77169  1  0  0  0
 77170  1  0  0  0
 78171  1  0  0  0
 78172  1  0  0  0
 78173  1  0  0  0
 79174  1  0  0  0
M  END
$$$$
