### 
### Created by X-TOOL on Mon Sep 10 21:13:19 2018
### 

@<TRIPOS>MOLECULE
4mzf_ligand
  175   174     1     0     0
SMALL
GAST_HUCK


@<TRIPOS>ATOM
      1 N          -6.4870    9.5990    6.4110 N.4       1 ALA         0.2377
      2 CA         -6.9500    9.2950    5.0640 C.3       1 ALA         0.0621
      3 C          -8.4200    8.8570    5.0800 C.2       1 ALA         0.2264
      4 O          -8.9280    8.4000    6.1120 O.2       1 ALA        -0.3907
      5 CB         -6.0810    8.2150    4.4470 C.3       1 ALA        -0.0040
      6 N          -9.0920    9.0090    3.9370 N.am      1 ARG        -0.2610
      7 CA        -10.4690    8.5420    3.7740 C.3       1 ARG         0.1312
      8 C         -10.5750    7.0530    4.0190 C.2       1 ARG         0.2040
      9 O          -9.6170    6.3110    3.8130 O.2       1 ARG        -0.3944
     10 CB        -10.9670    8.7920    2.3510 C.3       1 ARG        -0.0092
     11 CG        -11.2050   10.2260    2.0140 C.3       1 ARG        -0.0156
     12 CD        -11.5400   10.3770    0.5450 C.3       1 ARG         0.0627
     13 NE        -11.3080   11.7520    0.1100 N.pl3     1 ARG        -0.2723
     14 CZ        -12.1390   12.7570    0.3560 C.cat     1 ARG         0.2882
     15 NH1       -13.2620   12.5260    1.0280 N.pl3     1 ARG        -0.2849
     16 NH2       -11.8610   13.9870   -0.0780 N.pl3     1 ARG        -0.2849
     17 N         -11.7630    6.6200    4.4220 N.am      1 THR        -0.2613
     18 CA        -12.0620    5.2060    4.5200 C.3       1 THR         0.1565
     19 C         -13.0050    4.8070    3.3880 C.2       1 THR         0.2065
     20 O         -13.9020    5.5600    2.9990 O.2       1 THR        -0.3943
     21 CB        -12.6880    4.8620    5.8800 C.3       1 THR         0.0924
     22 OG1       -11.8760    5.4120    6.9290 O.3       1 THR        -0.3874
     23 CG2       -12.7980    3.3410    6.0590 C.3       1 THR        -0.0346
     24 N         -12.7690    3.6270    2.8430 N.am      1 M3L        -0.2637
     25 CA        -13.5820    3.0980    1.7930 C.3       1 M3L         0.1310
     26 CB        -12.8800    1.8750    1.1980 C.3       1 M3L        -0.0122
     27 CG        -13.1060    1.8140   -0.2840 C.3       1 M3L        -0.0440
     28 CD        -12.1540    2.6980   -1.0670 C.3       1 M3L        -0.0123
     29 CE        -12.3210    2.1690   -2.4850 C.3       1 M3L        -0.0309
     30 NZ        -12.2010    3.0670   -3.6890 N.4       1 M3L         0.2369
     31 C         -14.9600    2.6810    2.3060 C.2       1 M3L         0.2039
     32 O         -15.1240    2.0500    3.3520 O.2       1 M3L        -0.3944
     33 CM1       -13.0150    4.3230   -3.5610 C.3       1 M3L        -0.0418
     34 CM2       -12.6540    2.2980   -4.8840 C.3       1 M3L        -0.0418
     35 CM3       -10.7600    3.4240   -3.8420 C.3       1 M3L        -0.0418
     36 N         -15.9830    3.0600    1.5450 N.am      1 GLN        -0.2636
     37 CA        -17.3760    2.7860    1.9260 C.3       1 GLN         0.1330
     38 C         -17.8900    1.4530    1.4390 C.2       1 GLN         0.2041
     39 O         -17.5170    0.9910    0.3660 O.2       1 GLN        -0.3944
     40 CB        -18.3180    3.8310    1.3270 C.3       1 GLN         0.0045
     41 CG        -18.2530    5.1940    1.9410 C.3       1 GLN         0.0412
     42 CD        -19.3230    6.0890    1.3650 C.2       1 GLN         0.1737
     43 OE1       -19.9740    5.7420    0.3640 O.2       1 GLN        -0.3973
     44 NE2       -19.5110    7.2470    1.9820 N.am      1 GLN        -0.3009
     45 N         -18.7810    0.8580    2.2260 N.am      1 THR        -0.2613
     46 CA        -19.6300   -0.2040    1.7230 C.3       1 THR         0.1565
     47 C         -20.6950    0.4970    0.8930 C.2       1 THR         0.2065
     48 O         -21.1410    1.5970    1.2380 O.2       1 THR        -0.3943
     49 CB        -20.3260   -0.9530    2.8590 C.3       1 THR         0.0924
     50 OG1       -21.2090   -0.0520    3.5400 O.3       1 THR        -0.3874
     51 CG2       -19.3070   -1.5030    3.8440 C.3       1 THR        -0.0346
     52 N         -21.0860   -0.1190   -0.2100 N.am      1 ALA        -0.2639
     53 CA        -22.0500    0.4990   -1.1060 C.3       1 ALA         0.1282
     54 C         -23.0890   -0.5340   -1.5490 C.2       1 ALA         0.2036
     55 O         -22.7950   -1.7280   -1.6220 O.2       1 ALA        -0.3944
     56 CB        -21.3320    1.0910   -2.2970 C.3       1 ALA        -0.0244
     57 C1        -28.0130    5.1090   -5.4440 C.3       1 DA2         0.0535
     58 C2        -30.4700    5.2920   -5.4340 C.3       1 DA2         0.0535
     59 N         -24.3050   -0.0760   -1.8340 N.am      1 DA2        -0.2637
     60 CA        -25.3770   -0.9790   -2.2230 C.3       1 DA2         0.1310
     61 CB        -26.7530   -0.2950   -2.2400 C.3       1 DA2        -0.0092
     62 CG        -26.8340    0.8430   -3.2680 C.3       1 DA2        -0.0156
     63 CD        -28.2520    1.4300   -3.3630 C.3       1 DA2         0.0627
     64 NE        -28.2590    2.7530   -3.9680 N.pl3     1 DA2        -0.2721
     65 CZ        -29.3720    3.3620   -4.3990 C.cat     1 DA2         0.2920
     66 NH2       -30.5150    2.8650   -4.1840 N.pl3     1 DA2        -0.2847
     67 NH1       -29.2860    4.5190   -5.0590 N.pl3     1 DA2        -0.2650
     68 C         -25.1400   -1.6140   -3.5690 C.2       1 DA2         0.2034
     69 O         -24.5150   -1.0040   -4.4760 O.2       1 DA2        -0.3944
     70 N         -25.6350   -2.8410   -3.6830 N.am      1 LYS        -0.2671
     71 CA        -25.7960   -3.5820   -4.9360 C.3       1 LYS         0.1226
     72 C         -24.4890   -4.1030   -5.5180 C.2       1 LYS         0.2149
     73 O         -24.0240   -5.1770   -5.1240 O.co2     1 LYS        -0.4120
     74 CB        -26.6170   -2.7850   -5.9570 C.3       1 LYS        -0.0154
     75 CG        -26.3720   -3.1640   -7.4010 C.3       1 LYS        -0.0445
     76 CD        -27.6700   -3.5690   -8.1010 C.3       1 LYS        -0.0125
     77 CE        -27.5810   -3.3210   -9.6030 C.3       1 LYS        -0.0354
     78 NZ        -27.3710   -1.8640   -9.8660 N.4       1 LYS         0.2185
     79 H          -5.5207    9.8841    6.3778 H         1 ALA         0.2015
     80 H          -6.5755    8.7786    6.9899 H         1 ALA         0.2015
     81 H          -7.0442   10.3447    6.7976 H         1 ALA         0.2015
     82 H          -6.8651   10.2050    4.4519 H         1 ALA         0.1095
     83 H          -6.4385    7.9928    3.4307 H         1 ALA         0.0310
     84 H          -6.1354    7.3046    5.0620 H         1 ALA         0.0310
     85 H          -5.0391    8.5646    4.4008 H         1 ALA         0.0310
     86 H          -8.6392    9.4571    3.1661 H         1 ARG         0.1884
     87 H         -11.1104    9.0788    4.4885 H         1 ARG         0.0800
     88 H         -11.9139    8.2479    2.2193 H         1 ARG         0.0313
     89 H         -10.2162    8.3962    1.6512 H         1 ARG         0.0313
     90 H         -10.2983   10.8063    2.2400 H         1 ARG         0.0301
     91 H         -12.0430   10.6054    2.6172 H         1 ARG         0.0301
     92 H         -12.5976   10.1198    0.3858 H         1 ARG         0.0689
     93 H         -10.9050    9.6984   -0.0435 H         1 ARG         0.0689
     94 H         -10.4478   11.9536   -0.4194 H         1 ARG         0.2642
     95 H         -13.9133   13.2995    1.2239 H         1 ARG         0.2615
     96 H         -13.4810   11.5735    1.3530 H         1 ARG         0.2615
     97 H         -10.9903   14.1649   -0.5987 H         1 ARG         0.2615
     98 H         -12.5170   14.7591    0.1075 H         1 ARG         0.2615
     99 H         -12.4688    7.2859    4.6638 H         1 THR         0.1884
    100 H         -11.1240    4.6409    4.4159 H         1 THR         0.0826
    101 H         -13.6949    5.3017    5.9325 H         1 THR         0.0639
    102 H         -12.2619    5.2001    7.7708 H         1 THR         0.2101
    103 H         -13.2481    3.1186    7.0378 H         1 THR         0.0257
    104 H         -11.7952    2.8921    6.0061 H         1 THR         0.0257
    105 H         -13.4296    2.9226    5.2615 H         1 THR         0.0257
    106 H         -11.9965    3.0862    3.1758 H         1 M3L         0.1883
    107 H         -13.7073    3.8653    1.0148 H         1 M3L         0.0800
    108 H         -13.2821    0.9634    1.6641 H         1 M3L         0.0312
    109 H         -11.8005    1.9434    1.3978 H         1 M3L         0.0312
    110 H         -14.1364    2.1361   -0.4947 H         1 M3L         0.0269
    111 H         -12.9717    0.7741   -0.6163 H         1 M3L         0.0269
    112 H         -11.1184    2.5789   -0.7158 H         1 M3L         0.0317
    113 H         -12.4449    3.7567   -0.9990 H         1 M3L         0.0317
    114 H         -13.3256    1.7233   -2.5316 H         1 M3L         0.0815
    115 H         -11.5640    1.3810   -2.6114 H         1 M3L         0.0815
    116 H         -12.8882    4.9359   -4.4656 H         1 M3L         0.0778
    117 H         -12.6762    4.8916   -2.6824 H         1 M3L         0.0778
    118 H         -14.0767    4.0613   -3.4413 H         1 M3L         0.0778
    119 H         -12.0570    1.3787   -4.9763 H         1 M3L         0.0778
    120 H         -12.5228    2.9125   -5.7869 H         1 M3L         0.0778
    121 H         -13.7161    2.0355   -4.7702 H         1 M3L         0.0778
    122 H         -10.4271    3.9910   -2.9602 H         1 M3L         0.0778
    123 H         -10.6284    4.0390   -4.7445 H         1 M3L         0.0778
    124 H         -10.1623    2.5051   -3.9341 H         1 M3L         0.0778
    125 H         -15.7993    3.5448    0.6899 H         1 GLN         0.1883
    126 H         -17.4405    2.8159    3.0237 H         1 GLN         0.0801
    127 H         -19.3476    3.4600    1.4372 H         1 GLN         0.0337
    128 H         -18.0764    3.9303    0.2585 H         1 GLN         0.0337
    129 H         -17.2658    5.6348    1.7385 H         1 GLN         0.0504
    130 H         -18.4003    5.1081    3.0277 H         1 GLN         0.0504
    131 H         -20.2057    7.8843    1.6484 H         1 GLN         0.1814
    132 H         -18.9582    7.4833    2.7811 H         1 GLN         0.1814
    133 H         -18.8669    1.1474    3.1794 H         1 THR         0.1884
    134 H         -19.0467   -0.9078    1.1111 H         1 THR         0.0826
    135 H         -20.9070   -1.7873    2.4390 H         1 THR         0.0639
    136 H         -21.8571    0.2773    2.9283 H         1 THR         0.2101
    137 H         -19.8290   -2.0371    4.6516 H         1 THR         0.0257
    138 H         -18.7241   -0.6732    4.2702 H         1 THR         0.0257
    139 H         -18.6307   -2.1966    3.3230 H         1 THR         0.0257
    140 H         -20.7142   -1.0207   -0.4305 H         1 ALA         0.1883
    141 H         -22.5667    1.3081   -0.5690 H         1 ALA         0.0797
    142 H         -22.0646    1.5574   -2.9721 H         1 ALA         0.0277
    143 H         -20.7937    0.2956   -2.8332 H         1 ALA         0.0277
    144 H         -20.6152    1.8509   -1.9525 H         1 ALA         0.0277
    145 H         -28.1931    6.0558   -5.9742 H         1 DA2         0.0653
    146 H         -27.4725    4.4156   -6.1051 H         1 DA2         0.0653
    147 H         -27.4110    5.3017   -4.5438 H         1 DA2         0.0653
    148 H         -31.3744    4.7628   -5.0994 H         1 DA2         0.0653
    149 H         -30.4986    5.4119   -6.5271 H         1 DA2         0.0653
    150 H         -30.4274    6.2825   -4.9574 H         1 DA2         0.0653
    151 H         -24.4853    0.9061   -1.7799 H         1 DA2         0.1883
    152 H         -25.4097   -1.7824   -1.4724 H         1 DA2         0.0800
    153 H         -26.9534    0.1182   -1.2405 H         1 DA2         0.0313
    154 H         -27.5173   -1.0469   -2.4859 H         1 DA2         0.0313
    155 H         -26.5440    0.4524   -4.2546 H         1 DA2         0.0301
    156 H         -26.1380    1.6411   -2.9706 H         1 DA2         0.0301
    157 H         -28.6746    1.5014   -2.3499 H         1 DA2         0.0689
    158 H         -28.8736    0.7581   -3.9731 H         1 DA2         0.0689
    159 H         -27.3613    3.2475   -4.0704 H         1 DA2         0.2642
    160 H         -30.6015    1.9730   -3.6764 H         1 DA2         0.2615
    161 H         -31.3593    3.3523   -4.5165 H         1 DA2         0.2615
    162 H         -25.9224   -3.2981   -2.8413 H         1 LYS         0.1876
    163 H         -26.3911   -4.4733   -4.6883 H         1 LYS         0.0751
    164 O1        -23.8826   -3.4390   -6.4006 O.co2     1 LYS        -0.4120
    165 H         -26.3721   -1.7194   -5.8364 H         1 LYS         0.0306
    166 H         -27.6832   -2.9434   -5.7376 H         1 LYS         0.0306
    167 H         -25.6689   -4.0092   -7.4346 H         1 LYS         0.0269
    168 H         -25.9354   -2.3027   -7.9277 H         1 LYS         0.0269
    169 H         -28.5010   -2.9787   -7.6876 H         1 LYS         0.0317
    170 H         -27.8560   -4.6385   -7.9234 H         1 LYS         0.0317
    171 H         -28.5155   -3.6473  -10.0827 H         1 LYS         0.0813
    172 H         -26.7372   -3.8919  -10.0177 H         1 LYS         0.0813
    173 H         -27.3131   -1.7070  -10.8600 H         1 LYS         0.1994
    174 H         -26.5144   -1.5635   -9.4279 H         1 LYS         0.1994
    175 H         -28.1440   -1.3394   -9.4875 H         1 LYS         0.1994
@<TRIPOS>BOND
     1    2    1 1  
     2    3    2 1  
     3    2    5 1  
     4    3    4 2  
     5    6    3 am 
     6    7    6 1  
     7    8    7 1  
     8    7   10 1  
     9    8    9 2  
    10   17    8 am 
    11   10   11 1  
    12   11   12 1  
    13   12   13 1  
    14   13   14 ar 
    15   14   15 ar 
    16   14   16 ar 
    17   18   17 1  
    18   19   18 1  
    19   18   21 1  
    20   19   20 2  
    21   24   19 am 
    22   21   22 1  
    23   21   23 1  
    24   25   24 1  
    25   25   26 1  
    26   31   25 1  
    27   26   27 1  
    28   27   28 1  
    29   28   29 1  
    30   29   30 1  
    31   30   33 1  
    32   30   34 1  
    33   30   35 1  
    34   31   32 2  
    35   36   31 am 
    36   37   36 1  
    37   38   37 1  
    38   37   40 1  
    39   38   39 2  
    40   45   38 am 
    41   40   41 1  
    42   41   42 1  
    43   42   43 2  
    44   42   44 am 
    45   46   45 1  
    46   47   46 1  
    47   46   49 1  
    48   47   48 2  
    49   52   47 am 
    50   49   50 1  
    51   49   51 1  
    52   53   52 1  
    53   54   53 1  
    54   53   56 1  
    55   54   55 2  
    56   59   54 am 
    57   67   57 1  
    58   67   58 1  
    59   60   59 1  
    60   61   60 1  
    61   60   68 1  
    62   62   61 1  
    63   63   62 1  
    64   64   63 1  
    65   65   64 ar 
    66   65   66 ar 
    67   65   67 ar 
    68   68   69 2  
    69   68   70 am 
    70   70   71 1  
    71   71   72 1  
    72   71   74 1  
    73   72   73 ar 
    74   74   75 1  
    75   75   76 1  
    76   76   77 1  
    77   77   78 1  
    78    1   79 1  
    79    1   80 1  
    80    1   81 1  
    81    2   82 1  
    82    5   83 1  
    83    5   84 1  
    84    5   85 1  
    85    6   86 1  
    86    7   87 1  
    87   10   88 1  
    88   10   89 1  
    89   11   90 1  
    90   11   91 1  
    91   12   92 1  
    92   12   93 1  
    93   13   94 1  
    94   15   95 1  
    95   15   96 1  
    96   16   97 1  
    97   16   98 1  
    98   17   99 1  
    99   18  100 1  
   100   21  101 1  
   101   22  102 1  
   102   23  103 1  
   103   23  104 1  
   104   23  105 1  
   105   24  106 1  
   106   25  107 1  
   107   26  108 1  
   108   26  109 1  
   109   27  110 1  
   110   27  111 1  
   111   28  112 1  
   112   28  113 1  
   113   29  114 1  
   114   29  115 1  
   115   33  116 1  
   116   33  117 1  
   117   33  118 1  
   118   34  119 1  
   119   34  120 1  
   120   34  121 1  
   121   35  122 1  
   122   35  123 1  
   123   35  124 1  
   124   36  125 1  
   125   37  126 1  
   126   40  127 1  
   127   40  128 1  
   128   41  129 1  
   129   41  130 1  
   130   44  131 1  
   131   44  132 1  
   132   45  133 1  
   133   46  134 1  
   134   49  135 1  
   135   50  136 1  
   136   51  137 1  
   137   51  138 1  
   138   51  139 1  
   139   52  140 1  
   140   53  141 1  
   141   56  142 1  
   142   56  143 1  
   143   56  144 1  
   144   57  145 1  
   145   57  146 1  
   146   57  147 1  
   147   58  148 1  
   148   58  149 1  
   149   58  150 1  
   150   59  151 1  
   151   60  152 1  
   152   61  153 1  
   153   61  154 1  
   154   62  155 1  
   155   62  156 1  
   156   63  157 1  
   157   63  158 1  
   158   64  159 1  
   159   66  160 1  
   160   66  161 1  
   161   70  162 1  
   162   71  163 1  
   163   72  164 ar 
   164   74  165 1  
   165   74  166 1  
   166   75  167 1  
   167   75  168 1  
   168   76  169 1  
   169   76  170 1  
   170   77  171 1  
   171   77  172 1  
   172   78  173 1  
   173   78  174 1  
   174   78  175 1  
@<TRIPOS>SUBSTRUCTURE
     1 ALA         1

