1xt8_ligand
  -I-interpret- 

 15 14  0  0  0  0  0  0  0  0999 V2000
   -8.7320   82.3120  -31.0620 N   0  3  0  0  0
   -7.9630   81.7460  -29.8920 C   0  0  0  0  0
   -8.3110   80.2840  -29.6380 C   0  0  0  0  0
   -7.9460   79.7080  -28.6100 O   0  0  0  0  0
   -8.2280   82.5590  -28.6330 C   0  0  0  0  0
   -9.9770   82.5870  -28.1410 S   0  0  0  0  0
   -8.9770   79.6390  -30.4560 O   0  0  0  0  0
   -8.5413   81.7543  -31.8945 H   0  0  0  0  0
   -9.7305   82.2863  -30.8555 H   0  0  0  0  0
   -8.4417   83.2764  -31.2236 H   0  0  0  0  0
   -6.9047   81.8043  -30.1464 H   0  0  0  0  0
   -7.9295   83.5870  -28.8386 H   0  0  0  0  0
   -7.6671   82.0965  -27.8209 H   0  0  0  0  0
  -10.1138   83.3165  -27.0374 H   0  0  0  0  0
   -9.1941   80.2004  -31.2039 H   0  0  0  0  0
  1  2  1  0  0  0
  2  3  1  0  0  0
  2  5  1  0  0  0
  3  4  2  0  0  0
  3  7  1  0  0  0
  5  6  1  0  0  0
  1  8  1  0  0  0
  1  9  1  0  0  0
  1 10  1  0  0  0
  2 11  1  0  0  0
  5 12  1  0  0  0
  5 13  1  0  0  0
  6 14  1  0  0  0
  7 15  1  0  0  0
M  END
$$$$
