6fe1_ligand
  -I-interpret- 

 51 52  0  0  0  0  0  0  0  0999 V2000
   11.7100  -25.7520  -55.6830 F   0  0  0  0  0
   11.2210  -26.2820  -56.8000 C   0  0  0  0  0
    9.8130  -26.7280  -56.8110 C   0  0  0  0  0
    8.7780  -26.4080  -55.5870 S   0  0  0  0  0
    8.9670  -27.2010  -54.4020 O   0  0  0  0  0
    7.2800  -26.5260  -56.1820 N   0  0  0  0  0
    8.9550  -24.9930  -55.3500 O   0  0  0  0  0
    9.3460  -27.3400  -58.0710 C   0  0  0  0  0
    8.1260  -27.7760  -58.2240 F   0  0  0  0  0
   10.1720  -27.5110  -59.2540 C   0  0  0  0  0
    9.6450  -28.0530  -60.3670 F   0  0  0  0  0
   12.0860  -26.4400  -58.0210 C   0  0  0  0  0
   11.5590  -27.0890  -59.2420 C   0  0  0  0  0
   12.3940  -27.2640  -60.6330 S   0  0  0  0  0
   13.6530  -26.5840  -60.5460 O   0  0  0  0  0
   11.5980  -26.6160  -61.6300 O   0  0  0  0  0
   12.6010  -28.8780  -61.0410 C   0  0  0  0  0
   13.6200  -29.5700  -60.1530 C   0  0  0  0  0
   12.9580  -29.9140  -58.9490 O   0  0  0  0  0
   13.4020  -26.1890  -58.1310 N   0  0  0  0  0
   14.4680  -26.2890  -57.1730 C   0  0  0  0  0
   14.2620  -27.4870  -56.2340 C   0  0  0  0  0
   15.5580  -28.1430  -55.7560 C   0  0  0  0  0
   16.3000  -27.4930  -54.5850 C   0  0  0  0  0
   15.7320  -26.1930  -53.9880 C   0  0  0  0  0
   16.2790  -24.9170  -54.6180 C   0  0  0  0  0
   16.2100  -24.8600  -56.1270 C   0  0  0  0  0
   14.7490  -24.9300  -56.5650 C   0  0  0  0  0
    6.5916  -27.1178  -55.7169 H   0  0  0  0  0
    7.0229  -26.0087  -57.0227 H   0  0  0  0  0
   12.9612  -28.9238  -62.0687 H   0  0  0  0  0
   11.6438  -29.3842  -60.9158 H   0  0  0  0  0
   14.4655  -28.9120  -59.9526 H   0  0  0  0  0
   14.0154  -30.4601  -60.6425 H   0  0  0  0  0
   13.5750  -30.3555  -58.3608 H   0  0  0  0  0
   13.6947  -25.8725  -59.0554 H   0  0  0  0  0
   15.4154  -26.5450  -57.6474 H   0  0  0  0  0
   13.7085  -28.2412  -56.7934 H   0  0  0  0  0
   13.7456  -27.1154  -55.3490 H   0  0  0  0  0
   16.2425  -28.0835  -56.6021 H   0  0  0  0  0
   15.2690  -29.1329  -55.4028 H   0  0  0  0  0
   17.2779  -27.2211  -54.9824 H   0  0  0  0  0
   16.2526  -28.2228  -53.7767 H   0  0  0  0  0
   16.0137  -26.1754  -52.9352 H   0  0  0  0  0
   14.6569  -26.2023  -54.1676 H   0  0  0  0  0
   17.3348  -24.8655  -54.3519 H   0  0  0  0  0
   15.6641  -24.0973  -54.2465 H   0  0  0  0  0
   16.7598  -25.7004  -56.5506 H   0  0  0  0  0
   16.6534  -23.9285  -56.4788 H   0  0  0  0  0
   14.1030  -24.7785  -55.7002 H   0  0  0  0  0
   14.5542  -24.1538  -57.3050 H   0  0  0  0  0
  1  2  1  0  0  0
  2  3  4  0  0  0
  2 12  4  0  0  0
  3  4  1  0  0  0
  3  8  4  0  0  0
  4  5  2  0  0  0
  4  6  1  0  0  0
  4  7  2  0  0  0
  8  9  1  0  0  0
  8 10  4  0  0  0
 10 11  1  0  0  0
 10 13  4  0  0  0
 12 13  4  0  0  0
 12 20  1  0  0  0
 13 14  1  0  0  0
 14 15  2  0  0  0
 14 16  2  0  0  0
 14 17  1  0  0  0
 17 18  1  0  0  0
 18 19  1  0  0  0
 20 21  1  0  0  0
 21 22  1  0  0  0
 21 28  1  0  0  0
 22 23  1  0  0  0
 23 24  1  0  0  0
 24 25  1  0  0  0
 25 26  1  0  0  0
 26 27  1  0  0  0
 27 28  1  0  0  0
  6 29  1  0  0  0
  6 30  1  0  0  0
 17 31  1  0  0  0
 17 32  1  0  0  0
 18 33  1  0  0  0
 18 34  1  0  0  0
 19 35  1  0  0  0
 20 36  1  0  0  0
 21 37  1  0  0  0
 22 38  1  0  0  0
 22 39  1  0  0  0
 23 40  1  0  0  0
 23 41  1  0  0  0
 24 42  1  0  0  0
 24 43  1  0  0  0
 25 44  1  0  0  0
 25 45  1  0  0  0
 26 46  1  0  0  0
 26 47  1  0  0  0
 27 48  1  0  0  0
 27 49  1  0  0  0
 28 50  1  0  0  0
 28 51  1  0  0  0
M  END
$$$$
