1hy7_ligand
  -I-interpret- 

 49 50  0  0  0  0  0  0  0  0999 V2000
   -4.7390   50.0940   46.4700 C   0  0  0  0  0
   -3.4580   49.9780   47.1030 O   0  0  0  0  0
   -3.5180   50.3600   48.4840 C   0  0  0  0  0
   -2.1650   50.4140   49.1850 C   0  0  0  0  0
   -1.1020   50.4290   49.7690 C   0  0  0  0  0
    0.2030   50.4460   50.4360 C   0  0  0  0  0
    0.7610   49.4910   51.4870 C   0  0  0  0  0
    0.0050   49.5450   52.7860 C   0  0  0  0  0
    0.2090   50.4150   53.6330 O   0  0  0  0  0
   -0.8660   48.5890   53.0210 O   0  0  0  0  0
    2.0810   49.9510   51.8400 N   0  0  0  0  0
    3.2940   49.0350   52.6110 S   0  0  0  0  0
    3.4030   47.6230   51.9970 O   0  0  0  0  0
    4.5890   49.9090   52.3640 O   0  0  0  0  0
    3.0210   48.7920   54.2990 C   0  0  0  0  0
    3.2620   49.8260   55.1990 C   0  0  0  0  0
    3.0870   49.6390   56.5710 C   0  0  0  0  0
    2.6670   48.4120   57.0600 C   0  0  0  0  0
    2.4550   47.3620   56.1510 C   0  0  0  0  0
    2.5970   47.5490   54.7780 C   0  0  0  0  0
    2.5690   48.2330   58.4290 C   0  0  0  0  0
    2.5560   46.9260   58.9250 C   0  0  0  0  0
    2.5300   46.6790   60.2830 C   0  0  0  0  0
    2.5800   47.7350   61.1610 C   0  0  0  0  0
    2.6260   49.0600   60.6950 C   0  0  0  0  0
    2.6510   49.3010   59.3280 C   0  0  0  0  0
    2.5510   47.4740   62.3710 O   0  0  0  0  0
    2.9470   48.4090   63.3140 C   0  0  0  0  0
   -5.4535   49.4458   46.9773 H   0  0  0  0  0
   -5.0793   51.1279   46.5283 H   0  0  0  0  0
   -4.6547   49.7962   45.4249 H   0  0  0  0  0
   -4.1134   49.6054   48.9979 H   0  0  0  0  0
   -3.9354   51.3663   48.5186 H   0  0  0  0  0
    0.1170   51.3611   51.0219 H   0  0  0  0  0
    0.8609   50.2258   49.5953 H   0  0  0  0  0
    0.7129   48.4899   51.0586 H   0  0  0  0  0
   -0.9035   47.9989   52.2647 H   0  0  0  0  0
    2.3109   50.9168   51.6060 H   0  0  0  0  0
    3.5922   50.7959   54.8269 H   0  0  0  0  0
    3.2813   50.4607   57.2603 H   0  0  0  0  0
    2.1731   46.3791   56.5286 H   0  0  0  0  0
    2.3801   46.7358   54.0853 H   0  0  0  0  0
    2.5666   46.0881   58.2279 H   0  0  0  0  0
    2.4704   45.6563   60.6552 H   0  0  0  0  0
    2.6419   49.8909   61.4003 H   0  0  0  0  0
    2.7345   50.3220   58.9557 H   0  0  0  0  0
    3.9876   48.6819   63.1385 H   0  0  0  0  0
    2.3185   49.2957   63.2308 H   0  0  0  0  0
    2.8453   47.9823   64.3118 H   0  0  0  0  0
  1  2  1  0  0  0
  2  3  1  0  0  0
  3  4  1  0  0  0
  4  5  3  0  0  0
  5  6  1  0  0  0
  6  7  1  0  0  0
  7 11  1  0  0  0
  7  8  1  0  0  0
  8 10  1  0  0  0
  8  9  2  0  0  0
 11 12  1  0  0  0
 12 15  1  0  0  0
 12 14  2  0  0  0
 12 13  2  0  0  0
 15 20  4  0  0  0
 15 16  4  0  0  0
 16 17  4  0  0  0
 17 18  4  0  0  0
 18 21  1  0  0  0
 18 19  4  0  0  0
 19 20  4  0  0  0
 21 26  4  0  0  0
 21 22  4  0  0  0
 22 23  4  0  0  0
 23 24  4  0  0  0
 24 27  1  0  0  0
 24 25  4  0  0  0
 25 26  4  0  0  0
 27 28  1  0  0  0
  1 29  1  0  0  0
  1 30  1  0  0  0
  1 31  1  0  0  0
  3 32  1  0  0  0
  3 33  1  0  0  0
  6 34  1  0  0  0
  6 35  1  0  0  0
  7 36  1  0  0  0
 10 37  1  0  0  0
 11 38  1  0  0  0
 16 39  1  0  0  0
 17 40  1  0  0  0
 19 41  1  0  0  0
 20 42  1  0  0  0
 22 43  1  0  0  0
 23 44  1  0  0  0
 25 45  1  0  0  0
 26 46  1  0  0  0
 28 47  1  0  0  0
 28 48  1  0  0  0
 28 49  1  0  0  0
M  END
$$$$
