6r1k_ligand
  -I-interpret- 

 26 27  0  0  0  0  0  0  0  0999 V2000
   24.2580   18.0670   -7.0440 C   0  0  0  0  0
   25.8920   19.8400   -7.1630 C   0  0  0  0  0
   26.2650   21.1590   -7.7620 C   0  0  0  0  0
   26.3750   22.2800   -6.9390 C   0  0  0  0  0
   26.5970   21.2830   -9.1120 C   0  0  0  0  0
   26.9900   22.4970   -9.6510 C   0  0  0  0  0
   27.0700   23.5860   -8.8080 C   0  0  0  0  0
   26.7580   23.5050   -7.4630 C   0  0  0  0  0
   23.3870   16.3780   -8.3660 N   0  0  0  0  0
   24.7070   19.3410   -7.4880 N   0  0  0  0  0
   22.7340   18.0330   -6.8540 C   0  0  0  0  0
   25.5730   16.9940   -8.7910 O   0  0  0  0  0
   24.5300   17.0870   -8.1520 C   0  0  0  0  0
   22.3050   16.8350   -7.6550 C   0  0  0  0  0
   21.2180   16.2900   -7.6580 O   0  0  0  0  0
   26.6400   19.2610   -6.3760 O   0  0  0  0  0
   26.5000   19.9250  -10.1960 Cl  0  0  0  0  0
   27.5820   25.1070   -9.4660 Cl  0  0  0  0  0
   25.9710   22.1790   -5.2350 Cl  0  0  0  0  0
   24.7614   17.8412   -6.1039 H   0  0  0  0  0
   27.2291   22.5891  -10.7105 H   0  0  0  0  0
   26.8123   24.3883   -6.8266 H   0  0  0  0  0
   23.3391   15.5789   -8.9980 H   0  0  0  0  0
   24.0908   19.8953   -8.0824 H   0  0  0  0  0
   22.2516   18.9519   -7.1871 H   0  0  0  0  0
   22.4460   17.9584   -5.8054 H   0  0  0  0  0
 10  1  1  0  0  0
  1 11  1  0  0  0
  1 13  1  0  0  0
  2  3  1  0  0  0
  2 10  1  0  0  0
  2 16  2  0  0  0
  3  4  4  0  0  0
  3  5  4  0  0  0
  4  8  4  0  0  0
  4 19  1  0  0  0
  5  6  4  0  0  0
  5 17  1  0  0  0
  6  7  4  0  0  0
  7  8  4  0  0  0
  7 18  1  0  0  0
 13  9  1  0  0  0
  9 14  1  0  0  0
 11 14  1  0  0  0
 13 12  2  0  0  0
 14 15  2  0  0  0
  1 20  1  0  0  0
  6 21  1  0  0  0
  8 22  1  0  0  0
  9 23  1  0  0  0
 10 24  1  0  0  0
 11 25  1  0  0  0
 11 26  1  0  0  0
M  END
$$$$
