6pvy_ligand
  -I-interpret- 

 36 38  0  0  0  0  0  0  0  0999 V2000
   19.9970  -10.5680    2.6330 C   0  0  0  0  0
   20.3920   -7.2610    0.9250 C   0  0  0  0  0
   21.3470   -5.0000    1.3760 C   0  0  0  0  0
   18.9260   -8.7060    0.8450 C   0  0  0  0  0
   18.2430   -9.8510    1.0870 C   0  0  0  0  0
   18.2340  -12.4250    4.5320 C   0  0  0  0  0
   17.8740  -13.8020    7.7730 C   0  0  0  0  0
   18.4540  -13.3550    5.5360 C   0  0  0  0  0
   18.6130  -14.6970    5.2250 C   0  0  0  0  0
   18.5520  -15.1130    3.9110 C   0  0  0  0  0
   18.3340  -14.1860    2.9060 C   0  0  0  0  0
   18.1900  -12.8400    3.2050 C   0  0  0  0  0
   18.7410  -10.8100    1.9820 C   0  0  0  0  0
   20.6900   -9.3630    2.3620 C   0  0  0  0  0
   20.1840   -8.4380    1.4890 C   0  0  0  0  0
   21.6630   -6.4960    1.2910 C   0  0  0  0  0
   19.6280   -6.6950    0.1010 C   0  0  0  0  0
   18.5180  -12.9460    6.8700 O   0  0  0  0  0
   17.9460  -11.9570    2.1430 O   0  0  0  0  0
   21.1100   -4.3430    0.3260 O   0  0  0  0  0
   21.3190   -4.4190    2.4930 O   0  0  0  0  0
   18.5890   -7.5490   -0.0580 O   0  0  0  0  0
   20.4113  -11.3006    3.3256 H   0  0  0  0  0
   17.2947  -10.0293    0.5800 H   0  0  0  0  0
   18.0961  -11.3729    4.7812 H   0  0  0  0  0
   16.8177  -13.8736    7.5136 H   0  0  0  0  0
   18.3297  -14.7909    7.7223 H   0  0  0  0  0
   17.9753  -13.4052    8.7831 H   0  0  0  0  0
   18.7862  -15.4234    6.0190 H   0  0  0  0  0
   18.6750  -16.1677    3.6649 H   0  0  0  0  0
   18.2750  -14.5178    1.8694 H   0  0  0  0  0
   21.6417   -9.1690    2.8566 H   0  0  0  0  0
   22.4231   -6.6655    0.5284 H   0  0  0  0  0
   22.0345   -6.8456    2.2542 H   0  0  0  0  0
   19.7712   -5.7276   -0.3803 H   0  0  0  0  0
   21.1699   -4.9253   -0.4349 H   0  0  0  0  0
 13  1  4  0  0  0
  1 14  4  0  0  0
 15  2  4  0  0  0
  2 16  1  0  0  0
  2 17  4  0  0  0
 16  3  1  0  0  0
  3 20  1  0  0  0
  3 21  2  0  0  0
  5  4  4  0  0  0
  4 15  4  0  0  0
  4 22  4  0  0  0
 13  5  4  0  0  0
  6  8  4  0  0  0
 12  6  4  0  0  0
 18  7  1  0  0  0
  8  9  4  0  0  0
  8 18  1  0  0  0
 10  9  4  0  0  0
 11 10  4  0  0  0
 12 11  4  0  0  0
 19 12  1  0  0  0
 13 19  1  0  0  0
 14 15  4  0  0  0
 17 22  4  0  0  0
  1 23  1  0  0  0
  5 24  1  0  0  0
  6 25  1  0  0  0
  7 26  1  0  0  0
  7 27  1  0  0  0
  7 28  1  0  0  0
  9 29  1  0  0  0
 10 30  1  0  0  0
 11 31  1  0  0  0
 14 32  1  0  0  0
 16 33  1  0  0  0
 16 34  1  0  0  0
 17 35  1  0  0  0
 20 36  1  0  0  0
M  END
$$$$
