3njq_ligand
  -I-interpret- 

 60 63  0  0  0  0  0  0  0  0999 V2000
    1.1620  -31.1060  -18.0700 C   0  0  0  0  0
    1.3920  -32.2610  -19.0350 C   0  0  0  0  0
    1.3980  -31.9550  -20.3860 C   0  0  0  0  0
    1.6360  -32.9330  -21.3300 C   0  0  0  0  0
    1.8670  -34.2630  -20.9340 C   0  0  0  0  0
    1.8720  -34.5550  -19.5730 C   0  0  0  0  0
    1.6580  -33.5800  -18.6140 C   0  0  0  0  0
    1.5610  -33.9090  -17.3190 N   0  0  0  0  0
    1.6070  -32.5870  -22.7920 C   0  0  0  0  0
    1.7180  -33.5350  -23.5840 O   0  0  0  0  0
    1.4260  -31.4030  -23.1320 O   0  0  0  0  0
   -0.2510  -31.0110  -17.5890 C   0  0  0  0  0
   -2.8420  -30.7820  -16.6410 C   0  0  0  0  0
   -2.5700  -31.4650  -17.8000 C   0  0  0  0  0
   -1.2770  -31.6090  -18.2780 C   0  0  0  0  0
   -0.5110  -30.3060  -16.4260 C   0  0  0  0  0
   -1.8080  -30.1970  -15.9500 C   0  0  0  0  0
    2.1870  -34.8150  -16.5700 C   0  0  0  0  0
    3.1390  -35.5280  -16.8950 O   0  0  0  0  0
    1.6240  -34.9190  -15.1950 C   0  0  0  0  0
    2.0910  -35.9140  -14.3550 C   0  0  0  0  0
    1.5610  -35.9840  -13.0990 C   0  0  0  0  0
    0.5660  -35.1040  -12.6980 C   0  0  0  0  0
    0.1190  -34.1330  -13.5920 C   0  0  0  0  0
    0.6550  -34.0760  -14.7930 N   0  0  0  0  0
   -0.9990  -33.1280  -13.2380 C   0  0  0  0  0
   -2.4990  -33.5880  -13.2580 C   0  0  0  0  0
   -2.7870  -35.0130  -13.7910 C   0  0  0  0  0
   -3.4450  -32.4370  -13.7790 C   0  0  0  0  0
   -5.2370  -34.2820  -13.9530 C   0  0  0  0  0
   -4.9100  -32.7850  -14.1920 C   0  0  0  0  0
   -4.1030  -35.1500  -14.5520 C   0  0  0  0  0
    1.3927  -30.1821  -18.6003 H   0  0  0  0  0
    1.7964  -31.2723  -17.1993 H   0  0  0  0  0
    1.2126  -30.9300  -20.7071 H   0  0  0  0  0
    2.0377  -35.0449  -21.6740 H   0  0  0  0  0
    2.0497  -35.5817  -19.2530 H   0  0  0  0  0
    0.8729  -33.3576  -16.8062 H   0  0  0  0  0
    1.3716  -30.8510  -22.3485 H   0  0  0  0  0
   -3.8652  -30.7045  -16.2732 H   0  0  0  0  0
   -3.3941  -31.9066  -18.3603 H   0  0  0  0  0
   -1.0789  -32.1849  -19.1820 H   0  0  0  0  0
    0.3079  -29.8347  -15.8825 H   0  0  0  0  0
   -2.0076  -29.6484  -15.0295 H   0  0  0  0  0
    2.8555  -36.6176  -14.6846 H   0  0  0  0  0
    1.9237  -36.7402  -12.4028 H   0  0  0  0  0
    0.1397  -35.1713  -11.6971 H   0  0  0  0  0
   -0.9366  -32.3651  -14.0140 H   0  0  0  0  0
   -0.8084  -32.8621  -12.1983 H   0  0  0  0  0
   -2.7682  -33.7491  -12.2141 H   0  0  0  0  0
   -2.8496  -35.6712  -12.9244 H   0  0  0  0  0
   -1.9874  -35.2601  -14.4893 H   0  0  0  0  0
   -2.9735  -32.0808  -14.6949 H   0  0  0  0  0
   -3.5471  -31.7554  -12.9346 H   0  0  0  0  0
   -6.1830  -34.5320  -14.4334 H   0  0  0  0  0
   -5.3190  -34.4732  -12.8830 H   0  0  0  0  0
   -5.0247  -32.5753  -15.2555 H   0  0  0  0  0
   -5.5882  -32.1855  -13.5848 H   0  0  0  0  0
   -4.4150  -36.1928  -14.4936 H   0  0  0  0  0
   -3.9326  -34.8160  -15.5755 H   0  0  0  0  0
  1  2  1  0  0  0
 12  1  1  0  0  0
  2  3  4  0  0  0
  2  7  4  0  0  0
  3  4  4  0  0  0
  4  5  4  0  0  0
  4  9  1  0  0  0
  6  5  4  0  0  0
  7  6  4  0  0  0
  7  8  1  0  0  0
  8 18  1  0  0  0
  9 10  2  0  0  0
  9 11  1  0  0  0
 15 12  4  0  0  0
 12 16  4  0  0  0
 14 13  4  0  0  0
 13 17  4  0  0  0
 14 15  4  0  0  0
 16 17  4  0  0  0
 18 19  2  0  0  0
 18 20  1  0  0  0
 20 21  4  0  0  0
 20 25  4  0  0  0
 21 22  4  0  0  0
 22 23  4  0  0  0
 23 24  4  0  0  0
 24 25  4  0  0  0
 24 26  1  0  0  0
 26 27  1  0  0  0
 27 28  1  0  0  0
 27 29  1  0  0  0
 28 32  1  0  0  0
 29 31  1  0  0  0
 31 30  1  0  0  0
 30 32  1  0  0  0
  1 33  1  0  0  0
  1 34  1  0  0  0
  3 35  1  0  0  0
  5 36  1  0  0  0
  6 37  1  0  0  0
  8 38  1  0  0  0
 11 39  1  0  0  0
 13 40  1  0  0  0
 14 41  1  0  0  0
 15 42  1  0  0  0
 16 43  1  0  0  0
 17 44  1  0  0  0
 21 45  1  0  0  0
 22 46  1  0  0  0
 23 47  1  0  0  0
 26 48  1  0  0  0
 26 49  1  0  0  0
 27 50  1  0  0  0
 28 51  1  0  0  0
 28 52  1  0  0  0
 29 53  1  0  0  0
 29 54  1  0  0  0
 30 55  1  0  0  0
 30 56  1  0  0  0
 31 57  1  0  0  0
 31 58  1  0  0  0
 32 59  1  0  0  0
 32 60  1  0  0  0
M  END
$$$$
