5f1u_ligand
  -I-interpret- 

 54 53  0  0  0  0  0  0  0  0999 V2000
   19.3940    6.4670   49.5070 N   0  3  0  0  0
   19.2220    7.8900   49.5920 C   0  0  0  0  0
   17.9100    8.2570   48.9660 C   0  0  0  0  0
   17.1640    7.3500   48.5110 O   0  0  0  0  0
   17.5350    9.4600   48.8750 O   0  0  0  0  0
   20.3370    8.5540   48.8520 C   0  0  0  0  0
   20.1740    8.7740   47.3850 C   0  0  0  0  0
   21.3910    9.0820   46.5870 C   0  0  0  0  0
   21.2150    9.9760   45.4110 C   0  0  0  0  0
   20.5780    9.4090   44.2590 N   0  3  0  0  0
   19.2640    8.3010   51.0330 C   0  0  0  0  0
   19.1520    9.7490   51.3890 C   0  0  0  0  0
   19.1900   10.1830   52.8180 C   0  0  0  0  0
   18.6230   11.4930   52.9230 N   0  3  0  0  0
   20.6130   10.2120   53.2620 C   0  0  0  0  0
   20.8810   10.3410   54.7230 C   0  0  0  0  0
   22.1350    9.7360   55.2530 C   0  0  0  0  0
   22.4040    9.9330   56.7040 C   0  0  0  0  0
   21.4230    9.4070   57.6120 N   0  3  0  0  0
   18.4130    9.2580   53.6950 C   0  0  0  0  0
   18.8710    8.1230   53.9960 O   0  0  0  0  0
   17.2930    9.6190   54.1460 O   0  0  0  0  0
   19.3664    6.1802   48.5285 H   0  0  0  0  0
   20.2937    6.2096   49.9128 H   0  0  0  0  0
   18.6436    6.0038   50.0196 H   0  0  0  0  0
   18.2019   10.0320   49.2619 H   0  0  0  0  0
   21.1889    7.8811   48.9497 H   0  0  0  0  0
   20.4177    9.5507   49.2858 H   0  0  0  0  0
   19.5370    9.6537   47.2930 H   0  0  0  0  0
   19.8002    7.8293   46.9902 H   0  0  0  0  0
   21.7362    8.1281   46.1882 H   0  0  0  0  0
   22.0665    9.6066   47.2627 H   0  0  0  0  0
   22.2198   10.2528   45.0920 H   0  0  0  0  0
   20.5656   10.7854   45.7445 H   0  0  0  0  0
   20.5155   10.1143   43.5248 H   0  0  0  0  0
   21.1258    8.6162   43.9247 H   0  0  0  0  0
   19.6409    9.0944   44.5105 H   0  0  0  0  0
   20.2563    8.0078   51.3756 H   0  0  0  0  0
   18.3838    7.8376   51.4787 H   0  0  0  0  0
   18.1563   10.0331   51.0484 H   0  0  0  0  0
   20.0383   10.2037   50.9465 H   0  0  0  0  0
   18.6461   11.7951   53.8970 H   0  0  0  0  0
   19.1629   12.1427   52.3514 H   0  0  0  0  0
   17.6573   11.4715   52.5952 H   0  0  0  0  0
   21.0423   11.1046   52.8069 H   0  0  0  0  0
   21.0281    9.2463   52.9736 H   0  0  0  0  0
   20.1836   10.8600   55.3805 H   0  0  0  0  0
   22.8190    9.1789   54.6127 H   0  0  0  0  0
   22.4192   11.0108   56.8656 H   0  0  0  0  0
   23.3301    9.3985   56.9157 H   0  0  0  0  0
   21.7114    9.5997   58.5712 H   0  0  0  0  0
   20.5221    9.8497   57.4311 H   0  0  0  0  0
   21.3414    8.3994   57.4761 H   0  0  0  0  0
   19.7256    8.0023   53.5758 H   0  0  0  0  0
  1  2  1  0  0  0
  2  3  1  0  0  0
  2  6  1  0  0  0
  2 11  1  0  0  0
  3  4  2  0  0  0
  3  5  1  0  0  0
  6  7  1  0  0  0
  7  8  1  0  0  0
  8  9  1  0  0  0
  9 10  1  0  0  0
 11 12  1  0  0  0
 12 13  1  0  0  0
 13 14  1  0  0  0
 13 15  1  0  0  0
 13 20  1  0  0  0
 15 16  1  0  0  0
 16 17  2  0  0  0
 17 18  1  0  0  0
 18 19  1  0  0  0
 20 21  1  0  0  0
 20 22  2  0  0  0
  1 23  1  0  0  0
  1 24  1  0  0  0
  1 25  1  0  0  0
  5 26  1  0  0  0
  6 27  1  0  0  0
  6 28  1  0  0  0
  7 29  1  0  0  0
  7 30  1  0  0  0
  8 31  1  0  0  0
  8 32  1  0  0  0
  9 33  1  0  0  0
  9 34  1  0  0  0
 10 35  1  0  0  0
 10 36  1  0  0  0
 10 37  1  0  0  0
 11 38  1  0  0  0
 11 39  1  0  0  0
 12 40  1  0  0  0
 12 41  1  0  0  0
 14 42  1  0  0  0
 14 43  1  0  0  0
 14 44  1  0  0  0
 15 45  1  0  0  0
 15 46  1  0  0  0
 16 47  1  0  0  0
 17 48  1  0  0  0
 18 49  1  0  0  0
 18 50  1  0  0  0
 19 51  1  0  0  0
 19 52  1  0  0  0
 19 53  1  0  0  0
 21 54  1  0  0  0
M  END
$$$$
