2vzr_ligand
  -I-interpret- 

 23 23  0  0  0  0  0  0  0  0999 V2000
   18.1230    7.6630   54.1910 C   0  0  0  0  0
   18.9430    6.6720   53.3530 C   0  0  0  0  0
   19.1000    7.1960   51.9290 C   0  0  0  0  0
   17.7280    7.4440   51.3270 C   0  0  0  0  0
   16.9280    8.4340   52.1910 C   0  0  0  0  0
   15.5060    8.6150   51.6540 C   0  0  0  0  0
   18.8820    8.8400   54.3660 O   0  0  0  0  0
   20.2170    6.4440   53.9160 O   0  0  0  0  0
   19.8240    6.2730   51.1420 O   0  0  0  0  0
   17.8760    7.8940   49.9960 O   0  0  0  0  0
   16.8800    7.9730   53.5480 O   0  0  0  0  0
   15.3140    8.8920   50.4400 O   0  0  0  0  0
   14.5580    8.4550   52.4490 O   0  0  0  0  0
   17.8956    7.2136   55.1577 H   0  0  0  0  0
   18.4035    5.7250   53.3401 H   0  0  0  0  0
   19.6554    8.1336   51.9515 H   0  0  0  0  0
   17.1597    6.5141   51.3085 H   0  0  0  0  0
   17.4324    9.3995   52.1524 H   0  0  0  0  0
   19.7120    8.6231   54.7969 H   0  0  0  0  0
   20.1154    6.1144   54.8119 H   0  0  0  0  0
   20.6876    6.1271   51.5352 H   0  0  0  0  0
   18.3794    7.2480   49.4951 H   0  0  0  0  0
   16.1602    8.9754   49.9943 H   0  0  0  0  0
  1  2  1  0  0  0
  1  7  1  0  0  0
  1 11  1  0  0  0
  2  3  1  0  0  0
  2  8  1  0  0  0
  3  4  1  0  0  0
  3  9  1  0  0  0
  4  5  1  0  0  0
  4 10  1  0  0  0
  5  6  1  0  0  0
  5 11  1  0  0  0
  6 12  1  0  0  0
  6 13  2  0  0  0
  1 14  1  0  0  0
  2 15  1  0  0  0
  3 16  1  0  0  0
  4 17  1  0  0  0
  5 18  1  0  0  0
  7 19  1  0  0  0
  8 20  1  0  0  0
  9 21  1  0  0  0
 10 22  1  0  0  0
 12 23  1  0  0  0
M  END
$$$$
