### 
### Created by X-TOOL on Wed Jan  1 15:39:36 2020
### 

@<TRIPOS>MOLECULE
5vb9_ligand
  244   249     1     0     0
SMALL
GAST_HUCK


@<TRIPOS>ATOM
      1 N          28.0420   65.5880  165.7270 N.4       1 CYS         0.2385
      2 CA         27.3260   65.7440  164.4660 C.3       1 CYS         0.0749
      3 C          25.9120   66.2400  164.6910 C.2       1 CYS         0.2276
      4 O          24.9380   65.5010  164.5270 O.2       1 CYS        -0.3907
      5 CB         27.3520   64.4520  163.6610 C.3       1 CYS         0.0643
      6 SG         26.7300   64.6280  161.9690 S.3       1 CYS        -0.0848
      7 N          25.8080   67.5110  165.0820 N.am      1 TRP        -0.2599
      8 CA         24.5340   68.1500  165.3830 C.3       1 TRP         0.1353
      9 C          23.6230   68.2120  164.1730 C.2       1 TRP         0.2052
     10 O          22.4130   68.1310  164.3280 O.2       1 TRP        -0.3942
     11 CB         24.7540   69.5780  165.9110 C.3       1 TRP         0.0042
     12 CG         25.2300   69.6460  167.3290 C.2       1 TRP        -0.0418
     13 CD1        26.4520   70.0730  167.7690 C.2       1 TRP         0.0167
     14 CD2        24.4730   69.3110  168.4970 C.ar      1 TRP        -0.0214
     15 NE1        26.4970   70.0370  169.1490 N.pl3     1 TRP        -0.2890
     16 CE2        25.2890   69.5830  169.6210 C.ar      1 TRP         0.0603
     17 CE3        23.1790   68.7980  168.7050 C.ar      1 TRP        -0.0747
     18 CZ2        24.8530   69.3590  170.9360 C.ar      1 TRP        -0.0443
     19 CZ3        22.7450   68.5850  170.0130 C.ar      1 TRP        -0.0792
     20 CH2        23.5780   68.8480  171.1050 C.ar      1 TRP        -0.0768
     21 N          24.2030   68.4040  162.9830 N.am      1 VAL        -0.2634
     22 CA         23.4220   68.5770  161.7640 C.3       1 VAL         0.1333
     23 C          23.9090   67.5620  160.7540 C.2       1 VAL         0.2041
     24 O          25.0810   67.5810  160.3610 O.2       1 VAL        -0.3944
     25 CB         23.5130   70.0430  161.2200 C.3       1 VAL        -0.0063
     26 CG1        22.7460   70.2030  159.9020 C.3       1 VAL        -0.0584
     27 CG2        23.0400   71.0740  162.2590 C.3       1 VAL        -0.0584
     28 N          23.0260   66.6500  160.3770 N.am      1 LEU        -0.2637
     29 CA         23.3460   65.6220  159.3690 C.3       1 LEU         0.1312
     30 C          22.5450   65.9220  158.1160 C.2       1 LEU         0.2039
     31 O          21.3140   66.1080  158.1960 O.2       1 LEU        -0.3944
     32 CB         23.0260   64.2210  159.9140 C.3       1 LEU        -0.0101
     33 CG         23.3460   63.0510  158.9380 C.3       1 LEU        -0.0425
     34 CD1        24.8920   62.8660  158.7670 C.3       1 LEU        -0.0625
     35 CD2        22.7240   61.7540  159.4520 C.3       1 LEU        -0.0625
     36 N          23.2230   65.9990  156.9610 N.am      1 GLU        -0.2636
     37 CA         22.5060   66.3420  155.7390 C.3       1 GLU         0.1325
     38 C          22.9740   65.5110  154.5730 C.2       1 GLU         0.2041
     39 O          24.1690   65.2190  154.4800 O.2       1 GLU        -0.3944
     40 CB         22.7750   67.8210  155.3320 C.3       1 GLU        -0.0008
     41 CG         22.2210   68.8960  156.2630 C.3       1 GLU         0.0044
     42 CD         22.3730   70.3240  155.7420 C.2       1 GLU         0.0350
     43 OE1        21.9470   71.2460  156.4730 O.co2     1 GLU        -0.5690
     44 OE2        22.8800   70.5350  154.6060 O.co2     1 GLU        -0.5690
     45 N          22.0580   65.2460  153.6270 N.am      1 TYR        -0.2621
     46 CA         22.4410   64.7060  152.3290 C.3       1 TYR         0.1390
     47 C          22.8610   65.8810  151.4470 C.2       1 TYR         0.2058
     48 O          22.2380   66.9630  151.4750 O.2       1 TYR        -0.3942
     49 CB         21.2470   64.0520  151.5930 C.3       1 TYR         0.0163
     50 CG         20.9920   62.6340  152.0190 C.ar      1 TYR        -0.0493
     51 CD1        21.7660   61.5880  151.5250 C.ar      1 TYR        -0.0685
     52 CD2        19.9970   62.3350  152.9440 C.ar      1 TYR        -0.0685
     53 CE1        21.5330   60.2680  151.9240 C.ar      1 TYR        -0.0398
     54 CE2        19.7170   61.0180  153.3050 C.ar      1 TYR        -0.0398
     55 CZ         20.5030   59.9930  152.8100 C.ar      1 TYR         0.0805
     56 OH         20.2780   58.6990  153.2090 O.3       1 TYR        -0.3376
     57 N          23.8770   65.6520  150.6000 N.am      1 ASP        -0.2620
     58 CA         24.1800   66.6220  149.5540 C.3       1 ASP         0.1423
     59 C          23.3370   66.1820  148.3040 C.2       1 ASP         0.2056
     60 O          22.6780   65.1290  148.3340 O.2       1 ASP        -0.3943
     61 CB         25.6980   66.7270  149.2760 C.3       1 ASP         0.0406
     62 CG         26.3940   65.4830  148.7390 C.2       1 ASP         0.0393
     63 OD1        25.6960   64.5860  148.1990 O.co2     1 ASP        -0.5688
     64 OD2        27.6430   65.4310  148.8070 O.co2     1 ASP        -0.5688
     65 N          23.3790   66.9620  147.2020 N.am      1 MET        -0.2636
     66 CA         22.6200   66.6120  145.9900 C.3       1 MET         0.1317
     67 C          23.1210   65.3470  145.2610 C.2       1 MET         0.2040
     68 O          22.4880   64.9100  144.2870 O.2       1 MET        -0.3944
     69 CB         22.5740   67.8100  145.0090 C.3       1 MET        -0.0034
     70 CG         23.9200   68.3680  144.7050 C.3       1 MET        -0.0024
     71 SD         23.7900   69.8000  143.5770 S.3       1 MET        -0.1639
     72 CE         23.0360   69.0300  142.1800 C.3       1 MET        -0.0181
     73 N          24.2470   64.7540  145.7420 N.am      1 PHE        -0.2619
     74 CA         24.8430   63.5640  145.1270 C.3       1 PHE         0.1404
     75 C          24.5450   62.2700  145.9100 C.2       1 PHE         0.2058
     76 O          25.0880   61.2210  145.5620 O.2       1 PHE        -0.3942
     77 CB         26.3610   63.7680  144.9240 C.3       1 PHE         0.0214
     78 CG         26.7160   65.1330  144.3540 C.ar      1 PHE        -0.0386
     79 CD1        26.4150   65.4530  143.0370 C.ar      1 PHE        -0.0601
     80 CD2        27.2730   66.1180  145.1630 C.ar      1 PHE        -0.0601
     81 CE1        26.7040   66.7210  142.5250 C.ar      1 PHE        -0.0686
     82 CE2        27.5800   67.3870  144.6440 C.ar      1 PHE        -0.0686
     83 CZ         27.2910   67.6750  143.3350 C.ar      1 PHE        -0.0687
     84 N          23.7190   62.3570  146.9480 N.am      1 GLY        -0.2663
     85 CA         23.3550   61.1900  147.7480 C.3       1 GLY         0.1201
     86 C          24.3160   60.8320  148.8770 C.2       1 GLY         0.2007
     87 O          24.1530   59.7700  149.4850 O.2       1 GLY        -0.3947
     88 N          25.2960   61.7230  149.2000 N.am      1 ALA        -0.2642
     89 CA         26.2410   61.4810  150.3070 C.3       1 ALA         0.1282
     90 C          25.8200   62.2420  151.5530 C.2       1 ALA         0.2036
     91 O          25.3180   63.3540  151.4440 O.2       1 ALA        -0.3944
     92 CB         27.6630   61.9130  149.9130 C.3       1 ALA        -0.0244
     93 N          26.0690   61.6590  152.7220 N.am      1 LEU        -0.2637
     94 CA         25.7530   62.2940  153.9960 C.3       1 LEU         0.1312
     95 C          26.9460   63.1060  154.4960 C.2       1 LEU         0.2040
     96 O          28.1010   62.7040  154.3030 O.2       1 LEU        -0.3944
     97 CB         25.3780   61.2140  155.0210 C.3       1 LEU        -0.0101
     98 CG         24.0170   60.5440  154.7690 C.3       1 LEU        -0.0425
     99 CD1        23.9270   59.2010  155.4590 C.3       1 LEU        -0.0625
    100 CD2        22.8380   61.4730  155.2350 C.3       1 LEU        -0.0625
    101 N          26.6610   64.2320  155.1740 N.am      1 HIS        -0.2619
    102 CA         27.7120   65.0960  155.7230 C.3       1 HIS         0.1421
    103 C          27.2970   65.6450  157.0610 C.2       1 HIS         0.2060
    104 O          26.1360   66.0090  157.2370 O.2       1 HIS        -0.3942
    105 CB         27.9670   66.3150  154.8060 C.3       1 HIS         0.0427
    106 CG         28.4390   65.9610  153.4400 C.2       1 HIS         0.0561
    107 ND1        29.7870   65.9360  153.1270 N.pl3     1 HIS        -0.2623
    108 CD2        27.7220   65.7160  152.3210 C.2       1 HIS        -0.0276
    109 CE1        29.8470   65.6200  151.8400 C.2       1 HIS         0.0875
    110 NE2        28.6320   65.4600  151.3230 N.2       1 HIS        -0.3437
    111 N          28.2680   65.7900  157.9730 N.am      1 CYS        -0.2627
    112 CA         28.0500   66.4770  159.2320 C.3       1 CYS         0.1406
    113 C          28.3080   67.9820  158.9950 C.2       1 CYS         0.2042
    114 O          29.4340   68.3630  158.7220 O.2       1 CYS        -0.3944
    115 CB         28.9620   65.9190  160.3070 C.3       1 CYS         0.0443
    116 SG         28.4530   64.2840  160.8690 S.3       1 CYS        -0.0880
    117 N          27.2750   68.8270  159.1610 N.am      1 ARG        -0.2695
    118 CA         27.3360   70.2760  158.9020 C.3       1 ARG         0.0945
    119 C          27.4480   71.1110  160.1350 C.2       1 ARG         0.0601
    120 O          27.4960   72.3580  160.0170 O.co2     1 ARG        -0.5666
    121 CB         26.0390   70.7370  158.1740 C.3       1 ARG        -0.0148
    122 CG         25.6690   69.9230  156.9650 C.3       1 ARG        -0.0162
    123 CD         26.6010   70.1890  155.8300 C.3       1 ARG         0.0627
    124 NE         26.0250   69.8050  154.5570 N.pl3     1 ARG        -0.2723
    125 CZ         26.7390   69.6170  153.4520 C.cat     1 ARG         0.2882
    126 NH1        28.0570   69.7820  153.4680 N.pl3     1 ARG        -0.2849
    127 NH2        26.1410   69.2770  152.3200 N.pl3     1 ARG        -0.2849
    128 OXT        27.2640   70.5340  161.2210 O.co2     1 ARG        -0.5666
    129 H1         28.9766   65.2578  165.5440 H         1 CYS         0.2015
    130 H2         27.5580   64.9216  166.3080 H         1 CYS         0.2015
    131 H3         28.0864   66.4768  166.2004 H         1 CYS         0.2015
    132 H4         27.8530   66.5098  163.8779 H         1 CYS         0.1107
    133 H5         26.7325   63.7070  164.1818 H         1 CYS         0.0466
    134 H6         28.3914   64.0952  163.6124 H         1 CYS         0.0466
    135 H7         26.6447   68.0511  165.1729 H         1 TRP         0.1886
    136 H8         24.0333   67.5588  166.1639 H         1 TRP         0.0815
    137 H9         23.8001   70.1213  165.8418 H         1 TRP         0.0397
    138 H10        25.5030   70.0694  165.2727 H         1 TRP         0.0397
    139 H11        27.2699   70.3944  167.1258 H         1 TRP         0.0795
    140 H12        27.3041   70.3064  169.7294 H         1 TRP         0.2216
    141 H13        22.5323   68.5728  167.8647 H         1 TRP         0.0540
    142 H14        25.4897   69.5776  171.7857 H         1 TRP         0.0541
    143 H15        21.7434   68.2086  170.1865 H         1 TRP         0.0510
    144 H16        23.2167   68.6470  172.1071 H         1 TRP         0.0530
    145 H17        25.2012   68.4296  162.9279 H         1 VAL         0.1883
    146 H18        22.3661   68.3673  161.9900 H         1 VAL         0.0802
    147 H19        24.5734   70.2487  161.0122 H         1 VAL         0.0343
    148 H20        22.8321   71.2421  159.5515 H         1 VAL         0.0234
    149 H21        21.6860   69.9569  160.0624 H         1 VAL         0.0234
    150 H22        23.1697   69.5249  159.1465 H         1 VAL         0.0234
    151 H23        23.6044   70.9384  163.1934 H         1 VAL         0.0234
    152 H24        21.9670   70.9315  162.4549 H         1 VAL         0.0234
    153 H25        23.2104   72.0894  161.8719 H         1 VAL         0.0234
    154 H26        22.1145   66.6586  160.7883 H         1 LEU         0.1883
    155 H27        24.4186   65.6697  159.1299 H         1 LEU         0.0800
    156 H28        21.9528   64.1836  160.1524 H         1 LEU         0.0315
    157 H29        23.6113   64.0696  160.8329 H         1 LEU         0.0315
    158 H30        22.9109   63.2870  157.9557 H         1 LEU         0.0298
    159 H31        25.0873   62.0346  158.0738 H         1 LEU         0.0232
    160 H32        25.3449   62.6427  159.7442 H         1 LEU         0.0232
    161 H33        25.3295   63.7908  158.3628 H         1 LEU         0.0232
    162 H34        21.6388   61.8895  159.5702 H         1 LEU         0.0232
    163 H35        23.1690   61.4938  160.4237 H         1 LEU         0.0232
    164 H36        22.9162   60.9447  158.7322 H         1 LEU         0.0232
    165 H37        24.2072   65.8234  156.9386 H         1 GLU         0.1883
    166 H38        21.4295   66.1860  155.9025 H         1 GLU         0.0801
    167 H39        22.3321   67.9797  154.3377 H         1 GLU         0.0330
    168 H40        23.8648   67.9586  155.2741 H         1 GLU         0.0330
    169 H41        22.7494   68.8231  157.2250 H         1 GLU         0.0433
    170 H42        21.1499   68.6986  156.4170 H         1 GLU         0.0433
    171 H43        21.0924   65.4231  153.8176 H         1 TYR         0.1885
    172 H44        23.2605   63.9822  152.4500 H         1 TYR         0.0821
    173 H45        21.4555   64.0601  150.5130 H         1 TYR         0.0453
    174 H46        20.3436   64.6456  151.7965 H         1 TYR         0.0453
    175 H47        22.5618   61.7998  150.8200 H         1 TYR         0.0530
    176 H48        19.4285   63.1416  153.3927 H         1 TYR         0.0530
    177 H49        22.1538   59.4652  151.5429 H         1 TYR         0.0525
    178 H50        18.8889   60.7986  153.9692 H         1 TYR         0.0525
    179 H51        20.8999   58.1236  152.7792 H         1 TYR         0.2458
    180 H52        24.4241   64.8193  150.6860 H         1 ASP         0.1884
    181 H53        23.8358   67.6153  149.8778 H         1 ASP         0.0819
    182 H54        26.1897   66.9994  150.2215 H         1 ASP         0.0478
    183 H55        25.8451   67.5320  148.5410 H         1 ASP         0.0478
    184 H56        23.9359   67.7925  147.2095 H         1 MET         0.1883
    185 H57        21.5884   66.4061  146.3115 H         1 MET         0.0800
    186 H58        21.9584   68.6047  145.4556 H         1 MET         0.0320
    187 H59        22.1135   67.4745  144.0681 H         1 MET         0.0320
    188 H60        24.5342   67.5891  144.2295 H         1 MET         0.0378
    189 H61        24.3971   68.6897  145.6425 H         1 MET         0.0378
    190 H62        22.8841   69.7772  141.3871 H         1 MET         0.0340
    191 H63        22.0649   68.6057  142.4748 H         1 MET         0.0340
    192 H64        23.6889   68.2271  141.8070 H         1 MET         0.0340
    193 H65        24.6870   65.1466  146.5496 H         1 PHE         0.1885
    194 H66        24.3887   63.4493  144.1318 H         1 PHE         0.0823
    195 H67        26.7273   62.9953  144.2321 H         1 PHE         0.0474
    196 H68        26.8612   63.6557  145.8972 H         1 PHE         0.0474
    197 H69        25.9503   64.7106  142.3982 H         1 PHE         0.0557
    198 H70        27.4727   65.9039  146.2067 H         1 PHE         0.0557
    199 H71        26.4680   66.9561  141.4935 H         1 PHE         0.0599
    200 H72        28.0436   68.1357  145.2762 H         1 PHE         0.0599
    201 H73        27.5238   68.6547  142.9337 H         1 PHE         0.0559
    202 H74        23.3351   63.2485  147.1886 H         1 GLY         0.1881
    203 H75        23.2911   60.3244  147.0723 H         1 GLY         0.0763
    204 H76        22.3676   61.3811  148.1935 H         1 GLY         0.0763
    205 H77        25.3769   62.5671  148.6700 H         1 ALA         0.1883
    206 H78        26.2460   60.4044  150.5328 H         1 ALA         0.0797
    207 H79        28.3492   61.7238  150.7516 H         1 ALA         0.0277
    208 H80        27.6665   62.9861  149.6713 H         1 ALA         0.0277
    209 H81        27.9907   61.3381  149.0343 H         1 ALA         0.0277
    210 H82        26.4886   60.7513  152.7275 H         1 LEU         0.1883
    211 H83        24.8965   62.9701  153.8571 H         1 LEU         0.0800
    212 H84        25.3531   61.6792  156.0174 H         1 LEU         0.0315
    213 H85        26.1542   60.4349  154.9994 H         1 LEU         0.0315
    214 H86        23.9161   60.3790  153.6861 H         1 LEU         0.0298
    215 H87        22.9436   58.7509  155.2584 H         1 LEU         0.0232
    216 H88        24.0539   59.3365  156.5432 H         1 LEU         0.0232
    217 H89        24.7180   58.5388  155.0772 H         1 LEU         0.0232
    218 H90        22.9146   62.4455  154.7267 H         1 LEU         0.0232
    219 H91        22.8970   61.6225  156.3232 H         1 LEU         0.0232
    220 H92        21.8772   61.0013  154.9812 H         1 LEU         0.0232
    221 H93        25.7037   64.4881  155.3080 H         1 HIS         0.1885
    222 H94        28.6372   64.5107  155.8293 H         1 HIS         0.0824
    223 H95        28.7291   66.9506  155.2806 H         1 HIS         0.0491
    224 H96        27.0270   66.8783  154.7112 H         1 HIS         0.0491
    225 H97        30.5774   66.1234  153.7603 H         1 HIS         0.2386
    226 H98        26.6370   65.7205  152.2282 H         1 HIS         0.0324
    227 H99        30.7730   65.5061  151.2784 H         1 HIS         0.1149
    228 H100       29.1733   65.4120  157.7792 H         1 CYS         0.1884
    229 H101       27.0063   66.3351  159.5491 H         1 CYS         0.0808
    230 H102       28.9539   66.6051  161.1667 H         1 CYS         0.0432
    231 H103       29.9825   65.8503  159.9023 H         1 CYS         0.0432
    232 H104       26.4076   68.4464  159.4816 H         1 ARG         0.1875
    233 H105       28.2086   70.4722  158.2616 H         1 ARG         0.0726
    234 H106       26.1789   71.7801  157.8540 H         1 ARG         0.0307
    235 H107       25.2066   70.6819  158.8909 H         1 ARG         0.0307
    236 H108       24.6454   70.1825  156.6571 H         1 ARG         0.0301
    237 H109       25.7144   68.8549  157.2238 H         1 ARG         0.0301
    238 H110       27.5270   69.6168  155.9885 H         1 ARG         0.0689
    239 H111       26.8338   71.2638  155.8053 H         1 ARG         0.0689
    240 H112       25.0051   69.6702  154.5057 H         1 ARG         0.2642
    241 H113       28.6049   69.6348  152.6083 H         1 ARG         0.2615
    242 H114       28.5310   70.0571  154.3401 H         1 ARG         0.2615
    243 H115       25.1196   69.1464  152.2962 H         1 ARG         0.2615
    244 H116       26.6974   69.1432  151.4636 H         1 ARG         0.2615
@<TRIPOS>BOND
     1    1    2 1  
     2    2    3 1  
     3    2    5 1  
     4    3    4 2  
     5    3    7 am 
     6    5    6 1  
     7    6  116 1  
     8    7    8 1  
     9    8    9 1  
    10    8   11 1  
    11    9   10 2  
    12    9   21 am 
    13   11   12 1  
    14   12   13 2  
    15   12   14 1  
    16   13   15 1  
    17   14   16 ar 
    18   14   17 ar 
    19   15   16 1  
    20   16   18 ar 
    21   17   19 ar 
    22   18   20 ar 
    23   19   20 ar 
    24   21   22 1  
    25   22   23 1  
    26   22   25 1  
    27   23   24 2  
    28   23   28 am 
    29   25   26 1  
    30   25   27 1  
    31   28   29 1  
    32   29   30 1  
    33   29   32 1  
    34   30   31 2  
    35   30   36 am 
    36   32   33 1  
    37   33   34 1  
    38   33   35 1  
    39   36   37 1  
    40   37   38 1  
    41   37   40 1  
    42   38   39 2  
    43   38   45 am 
    44   40   41 1  
    45   41   42 1  
    46   42   43 ar 
    47   42   44 ar 
    48   45   46 1  
    49   46   47 1  
    50   46   49 1  
    51   47   48 2  
    52   47   57 am 
    53   49   50 1  
    54   50   51 ar 
    55   50   52 ar 
    56   51   53 ar 
    57   52   54 ar 
    58   53   55 ar 
    59   54   55 ar 
    60   55   56 1  
    61   57   58 1  
    62   58   59 1  
    63   58   61 1  
    64   59   60 2  
    65   59   65 am 
    66   61   62 1  
    67   62   63 ar 
    68   62   64 ar 
    69   65   66 1  
    70   66   67 1  
    71   66   69 1  
    72   67   68 2  
    73   67   73 am 
    74   69   70 1  
    75   70   71 1  
    76   71   72 1  
    77   73   74 1  
    78   74   75 1  
    79   74   77 1  
    80   75   76 2  
    81   75   84 am 
    82   77   78 1  
    83   78   79 ar 
    84   78   80 ar 
    85   79   81 ar 
    86   80   82 ar 
    87   81   83 ar 
    88   82   83 ar 
    89   84   85 1  
    90   85   86 1  
    91   86   87 2  
    92   86   88 am 
    93   88   89 1  
    94   89   90 1  
    95   89   92 1  
    96   90   91 2  
    97   90   93 am 
    98   93   94 1  
    99   94   95 1  
   100   94   97 1  
   101   95   96 2  
   102   95  101 am 
   103   97   98 1  
   104   98   99 1  
   105   98  100 1  
   106  101  102 1  
   107  102  103 1  
   108  102  105 1  
   109  103  104 2  
   110  103  111 am 
   111  105  106 1  
   112  106  107 1  
   113  106  108 2  
   114  107  109 1  
   115  108  110 1  
   116  109  110 2  
   117  111  112 1  
   118  112  113 1  
   119  112  115 1  
   120  113  114 2  
   121  113  117 am 
   122  115  116 1  
   123  117  118 1  
   124  118  119 1  
   125  118  121 1  
   126  119  120 ar 
   127  119  128 ar 
   128  121  122 1  
   129  122  123 1  
   130  123  124 1  
   131  124  125 ar 
   132  125  126 ar 
   133  125  127 ar 
   134    1  129 1  
   135    1  130 1  
   136    1  131 1  
   137    2  132 1  
   138    5  133 1  
   139    5  134 1  
   140    7  135 1  
   141    8  136 1  
   142   11  137 1  
   143   11  138 1  
   144   13  139 1  
   145   15  140 1  
   146   17  141 1  
   147   18  142 1  
   148   19  143 1  
   149   20  144 1  
   150   21  145 1  
   151   22  146 1  
   152   25  147 1  
   153   26  148 1  
   154   26  149 1  
   155   26  150 1  
   156   27  151 1  
   157   27  152 1  
   158   27  153 1  
   159   28  154 1  
   160   29  155 1  
   161   32  156 1  
   162   32  157 1  
   163   33  158 1  
   164   34  159 1  
   165   34  160 1  
   166   34  161 1  
   167   35  162 1  
   168   35  163 1  
   169   35  164 1  
   170   36  165 1  
   171   37  166 1  
   172   40  167 1  
   173   40  168 1  
   174   41  169 1  
   175   41  170 1  
   176   45  171 1  
   177   46  172 1  
   178   49  173 1  
   179   49  174 1  
   180   51  175 1  
   181   52  176 1  
   182   53  177 1  
   183   54  178 1  
   184   56  179 1  
   185   57  180 1  
   186   58  181 1  
   187   61  182 1  
   188   61  183 1  
   189   65  184 1  
   190   66  185 1  
   191   69  186 1  
   192   69  187 1  
   193   70  188 1  
   194   70  189 1  
   195   72  190 1  
   196   72  191 1  
   197   72  192 1  
   198   73  193 1  
   199   74  194 1  
   200   77  195 1  
   201   77  196 1  
   202   79  197 1  
   203   80  198 1  
   204   81  199 1  
   205   82  200 1  
   206   83  201 1  
   207   84  202 1  
   208   85  203 1  
   209   85  204 1  
   210   88  205 1  
   211   89  206 1  
   212   92  207 1  
   213   92  208 1  
   214   92  209 1  
   215   93  210 1  
   216   94  211 1  
   217   97  212 1  
   218   97  213 1  
   219   98  214 1  
   220   99  215 1  
   221   99  216 1  
   222   99  217 1  
   223  100  218 1  
   224  100  219 1  
   225  100  220 1  
   226  101  221 1  
   227  102  222 1  
   228  105  223 1  
   229  105  224 1  
   230  107  225 1  
   231  108  226 1  
   232  109  227 1  
   233  111  228 1  
   234  112  229 1  
   235  115  230 1  
   236  115  231 1  
   237  117  232 1  
   238  118  233 1  
   239  121  234 1  
   240  121  235 1  
   241  122  236 1  
   242  122  237 1  
   243  123  238 1  
   244  123  239 1  
   245  124  240 1  
   246  126  241 1  
   247  126  242 1  
   248  127  243 1  
   249  127  244 1  
@<TRIPOS>SUBSTRUCTURE
     1 CYS         1

