5vb9_ligand
  -I-interpret- 

244249  0  0  0  0  0  0  0  0999 V2000
   28.0420   65.5880  165.7270 N   0  3  0  0  0
   27.3260   65.7440  164.4660 C   0  0  0  0  0
   25.9120   66.2400  164.6910 C   0  0  0  0  0
   24.9380   65.5010  164.5270 O   0  0  0  0  0
   27.3520   64.4520  163.6610 C   0  0  0  0  0
   26.7300   64.6280  161.9690 S   0  0  0  0  0
   25.8080   67.5110  165.0820 N   0  0  0  0  0
   24.5340   68.1500  165.3830 C   0  0  0  0  0
   23.6230   68.2120  164.1730 C   0  0  0  0  0
   22.4130   68.1310  164.3280 O   0  0  0  0  0
   24.7540   69.5780  165.9110 C   0  0  0  0  0
   25.2300   69.6460  167.3290 C   0  0  0  0  0
   26.4520   70.0730  167.7690 C   0  0  0  0  0
   24.4730   69.3110  168.4970 C   0  0  0  0  0
   26.4970   70.0370  169.1490 N   0  0  0  0  0
   25.2890   69.5830  169.6210 C   0  0  0  0  0
   23.1790   68.7980  168.7050 C   0  0  0  0  0
   24.8530   69.3590  170.9360 C   0  0  0  0  0
   22.7450   68.5850  170.0130 C   0  0  0  0  0
   23.5780   68.8480  171.1050 C   0  0  0  0  0
   24.2030   68.4040  162.9830 N   0  0  0  0  0
   23.4220   68.5770  161.7640 C   0  0  0  0  0
   23.9090   67.5620  160.7540 C   0  0  0  0  0
   25.0810   67.5810  160.3610 O   0  0  0  0  0
   23.5130   70.0430  161.2200 C   0  0  0  0  0
   22.7460   70.2030  159.9020 C   0  0  0  0  0
   23.0400   71.0740  162.2590 C   0  0  0  0  0
   23.0260   66.6500  160.3770 N   0  0  0  0  0
   23.3460   65.6220  159.3690 C   0  0  0  0  0
   22.5450   65.9220  158.1160 C   0  0  0  0  0
   21.3140   66.1080  158.1960 O   0  0  0  0  0
   23.0260   64.2210  159.9140 C   0  0  0  0  0
   23.3460   63.0510  158.9380 C   0  0  0  0  0
   24.8920   62.8660  158.7670 C   0  0  0  0  0
   22.7240   61.7540  159.4520 C   0  0  0  0  0
   23.2230   65.9990  156.9610 N   0  0  0  0  0
   22.5060   66.3420  155.7390 C   0  0  0  0  0
   22.9740   65.5110  154.5730 C   0  0  0  0  0
   24.1690   65.2190  154.4800 O   0  0  0  0  0
   22.7750   67.8210  155.3320 C   0  0  0  0  0
   22.2210   68.8960  156.2630 C   0  0  0  0  0
   22.3730   70.3240  155.7420 C   0  0  0  0  0
   21.9470   71.2460  156.4730 O   0  0  0  0  0
   22.8800   70.5350  154.6060 O   0  0  0  0  0
   22.0580   65.2460  153.6270 N   0  0  0  0  0
   22.4410   64.7060  152.3290 C   0  0  0  0  0
   22.8610   65.8810  151.4470 C   0  0  0  0  0
   22.2380   66.9630  151.4750 O   0  0  0  0  0
   21.2470   64.0520  151.5930 C   0  0  0  0  0
   20.9920   62.6340  152.0190 C   0  0  0  0  0
   21.7660   61.5880  151.5250 C   0  0  0  0  0
   19.9970   62.3350  152.9440 C   0  0  0  0  0
   21.5330   60.2680  151.9240 C   0  0  0  0  0
   19.7170   61.0180  153.3050 C   0  0  0  0  0
   20.5030   59.9930  152.8100 C   0  0  0  0  0
   20.2780   58.6990  153.2090 O   0  0  0  0  0
   23.8770   65.6520  150.6000 N   0  0  0  0  0
   24.1800   66.6220  149.5540 C   0  0  0  0  0
   23.3370   66.1820  148.3040 C   0  0  0  0  0
   22.6780   65.1290  148.3340 O   0  0  0  0  0
   25.6980   66.7270  149.2760 C   0  0  0  0  0
   26.3940   65.4830  148.7390 C   0  0  0  0  0
   25.6960   64.5860  148.1990 O   0  0  0  0  0
   27.6430   65.4310  148.8070 O   0  0  0  0  0
   23.3790   66.9620  147.2020 N   0  0  0  0  0
   22.6200   66.6120  145.9900 C   0  0  0  0  0
   23.1210   65.3470  145.2610 C   0  0  0  0  0
   22.4880   64.9100  144.2870 O   0  0  0  0  0
   22.5740   67.8100  145.0090 C   0  0  0  0  0
   23.9200   68.3680  144.7050 C   0  0  0  0  0
   23.7900   69.8000  143.5770 S   0  0  0  0  0
   23.0360   69.0300  142.1800 C   0  0  0  0  0
   24.2470   64.7540  145.7420 N   0  0  0  0  0
   24.8430   63.5640  145.1270 C   0  0  0  0  0
   24.5450   62.2700  145.9100 C   0  0  0  0  0
   25.0880   61.2210  145.5620 O   0  0  0  0  0
   26.3610   63.7680  144.9240 C   0  0  0  0  0
   26.7160   65.1330  144.3540 C   0  0  0  0  0
   26.4150   65.4530  143.0370 C   0  0  0  0  0
   27.2730   66.1180  145.1630 C   0  0  0  0  0
   26.7040   66.7210  142.5250 C   0  0  0  0  0
   27.5800   67.3870  144.6440 C   0  0  0  0  0
   27.2910   67.6750  143.3350 C   0  0  0  0  0
   23.7190   62.3570  146.9480 N   0  0  0  0  0
   23.3550   61.1900  147.7480 C   0  0  0  0  0
   24.3160   60.8320  148.8770 C   0  0  0  0  0
   24.1530   59.7700  149.4850 O   0  0  0  0  0
   25.2960   61.7230  149.2000 N   0  0  0  0  0
   26.2410   61.4810  150.3070 C   0  0  0  0  0
   25.8200   62.2420  151.5530 C   0  0  0  0  0
   25.3180   63.3540  151.4440 O   0  0  0  0  0
   27.6630   61.9130  149.9130 C   0  0  0  0  0
   26.0690   61.6590  152.7220 N   0  0  0  0  0
   25.7530   62.2940  153.9960 C   0  0  0  0  0
   26.9460   63.1060  154.4960 C   0  0  0  0  0
   28.1010   62.7040  154.3030 O   0  0  0  0  0
   25.3780   61.2140  155.0210 C   0  0  0  0  0
   24.0170   60.5440  154.7690 C   0  0  0  0  0
   23.9270   59.2010  155.4590 C   0  0  0  0  0
   22.8380   61.4730  155.2350 C   0  0  0  0  0
   26.6610   64.2320  155.1740 N   0  0  0  0  0
   27.7120   65.0960  155.7230 C   0  0  0  0  0
   27.2970   65.6450  157.0610 C   0  0  0  0  0
   26.1360   66.0090  157.2370 O   0  0  0  0  0
   27.9670   66.3150  154.8060 C   0  0  0  0  0
   28.4390   65.9610  153.4400 C   0  0  0  0  0
   29.7870   65.9360  153.1270 N   0  0  0  0  0
   27.7220   65.7160  152.3210 C   0  0  0  0  0
   29.8470   65.6200  151.8400 C   0  0  0  0  0
   28.6320   65.4600  151.3230 N   0  0  0  0  0
   28.2680   65.7900  157.9730 N   0  0  0  0  0
   28.0500   66.4770  159.2320 C   0  0  0  0  0
   28.3080   67.9820  158.9950 C   0  0  0  0  0
   29.4340   68.3630  158.7220 O   0  0  0  0  0
   28.9620   65.9190  160.3070 C   0  0  0  0  0
   28.4530   64.2840  160.8690 S   0  0  0  0  0
   27.2750   68.8270  159.1610 N   0  0  0  0  0
   27.3360   70.2760  158.9020 C   0  0  0  0  0
   27.4480   71.1110  160.1350 C   0  0  0  0  0
   27.4960   72.3580  160.0170 O   0  0  0  0  0
   26.0390   70.7370  158.1740 C   0  0  0  0  0
   25.6690   69.9230  156.9650 C   0  0  0  0  0
   26.6010   70.1890  155.8300 C   0  0  0  0  0
   26.0250   69.8050  154.5570 N   0  0  0  0  0
   26.7390   69.6170  153.4520 C   0  0  0  0  0
   28.0570   69.7820  153.4680 N   0  0  0  0  0
   26.1410   69.2770  152.3200 N   0  0  0  0  0
   27.2640   70.5340  161.2210 O   0  0  0  0  0
   28.0096   66.4656  166.2458 H   0  0  0  0  0
   27.6025   64.8500  166.2771 H   0  0  0  0  0
   29.0129   65.3396  165.5369 H   0  0  0  0  0
   27.8409   66.5048  163.8794 H   0  0  0  0  0
   26.7046   63.7391  164.1716 H   0  0  0  0  0
   28.3923   64.1340  163.5923 H   0  0  0  0  0
   26.6614   68.0619  165.1747 H   0  0  0  0  0
   24.0534   67.5380  166.1462 H   0  0  0  0  0
   23.7902   70.0856  165.8722 H   0  0  0  0  0
   25.5272   70.0327  165.2917 H   0  0  0  0  0
   27.2706   70.3946  167.1252 H   0  0  0  0  0
   22.5287   68.5716  167.8601 H   0  0  0  0  0
   25.4932   69.5788  171.7904 H   0  0  0  0  0
   21.7378   68.2065  170.1875 H   0  0  0  0  0
   23.2147   68.6459  172.1126 H   0  0  0  0  0
   25.2211   68.4301  162.9268 H   0  0  0  0  0
   22.3651   68.4083  161.9706 H   0  0  0  0  0
   24.5666   70.2394  161.0214 H   0  0  0  0  0
   23.1667   69.5306  159.1543 H   0  0  0  0  0
   21.6959   69.9588  160.0623 H   0  0  0  0  0
   22.8321   71.2329  159.5557 H   0  0  0  0  0
   22.0018   70.8721  162.5227 H   0  0  0  0  0
   23.6633   71.0019  163.1503 H   0  0  0  0  0
   23.1209   72.0760  161.8376 H   0  0  0  0  0
   22.0963   66.6587  160.7965 H   0  0  0  0  0
   24.4098   65.6407  159.1322 H   0  0  0  0  0
   21.9525   64.1921  160.1010 H   0  0  0  0  0
   23.6485   64.0754  160.7969 H   0  0  0  0  0
   22.9198   63.2966  157.9653 H   0  0  0  0  0
   25.3243   63.7830  158.3665 H   0  0  0  0  0
   25.3395   62.6448  159.7360 H   0  0  0  0  0
   25.0842   62.0419  158.0799 H   0  0  0  0  0
   23.1319   61.5219  160.4358 H   0  0  0  0  0
   21.6431   61.8747  159.5247 H   0  0  0  0  0
   22.9547   60.9432  158.7610 H   0  0  0  0  0
   24.2269   65.8199  156.9382 H   0  0  0  0  0
   21.4516   66.1661  155.9521 H   0  0  0  0  0
   22.2759   67.9656  154.3738 H   0  0  0  0  0
   23.8580   67.9438  155.3404 H   0  0  0  0  0
   22.7851   68.8340  157.1936 H   0  0  0  0  0
   21.1528   68.7069  156.3690 H   0  0  0  0  0
   23.1411   69.6989  154.2131 H   0  0  0  0  0
   21.0731   65.4267  153.8214 H   0  0  0  0  0
   23.2243   63.9666  152.4960 H   0  0  0  0  0
   21.4825   64.0393  150.5288 H   0  0  0  0  0
   20.3555   64.6328  151.8297 H   0  0  0  0  0
   22.5662   61.8009  150.8161 H   0  0  0  0  0
   19.4253   63.1460  153.3952 H   0  0  0  0  0
   22.1572   59.4608  151.5408 H   0  0  0  0  0
   18.8843   60.7974  153.9728 H   0  0  0  0  0
   19.5361   58.6775  153.8178 H   0  0  0  0  0
   24.4350   64.8027  150.6877 H   0  0  0  0  0
   23.9067   67.6342  149.8521 H   0  0  0  0  0
   26.1623   66.9333  150.2404 H   0  0  0  0  0
   25.8054   67.4849  148.5000 H   0  0  0  0  0
   24.7682   64.8255  148.2574 H   0  0  0  0  0
   23.9471   67.8091  147.2097 H   0  0  0  0  0
   21.6154   66.3745  146.3400 H   0  0  0  0  0
   21.9864   68.5994  145.4777 H   0  0  0  0  0
   22.1435   67.4549  144.0727 H   0  0  0  0  0
   24.5201   67.5955  144.2242 H   0  0  0  0  0
   24.3831   68.6951  145.6359 H   0  0  0  0  0
   23.6839   68.2347  141.8114 H   0  0  0  0  0
   22.0739   68.6100  142.4735 H   0  0  0  0  0
   22.8860   69.7713  141.3951 H   0  0  0  0  0
   24.6958   65.1545  146.5658 H   0  0  0  0  0
   24.3740   63.4362  144.1514 H   0  0  0  0  0
   26.7014   63.0160  144.2122 H   0  0  0  0  0
   26.8372   63.6859  145.9010 H   0  0  0  0  0
   25.9478   64.7065  142.3947 H   0  0  0  0  0
   27.4738   65.9027  146.2125 H   0  0  0  0  0
   26.4667   66.9574  141.4878 H   0  0  0  0  0
   28.0462   68.1398  145.2796 H   0  0  0  0  0
   27.5251   68.6601  142.9315 H   0  0  0  0  0
   23.3274   63.2663  147.1934 H   0  0  0  0  0
   23.3507   60.3393  147.0666 H   0  0  0  0  0
   22.4010   61.4259  148.2195 H   0  0  0  0  0
   25.3785   62.5840  148.6594 H   0  0  0  0  0
   26.2327   60.4116  150.5179 H   0  0  0  0  0
   27.9865   61.3427  149.0422 H   0  0  0  0  0
   27.6651   62.9764  149.6737 H   0  0  0  0  0
   28.3420   61.7251  150.7447 H   0  0  0  0  0
   26.4970   60.7331  152.7277 H   0  0  0  0  0
   24.9108   62.9726  153.8605 H   0  0  0  0  0
   25.3186   61.7028  155.9934 H   0  0  0  0  0
   26.1359   60.4334  154.9548 H   0  0  0  0  0
   23.9286   60.3812  153.6948 H   0  0  0  0  0
   24.7113   58.5459  155.0798 H   0  0  0  0  0
   24.0529   59.3367  156.5332 H   0  0  0  0  0
   22.9522   58.7561  155.2595 H   0  0  0  0  0
   22.9367   61.6759  156.3014 H   0  0  0  0  0
   22.8751   62.4107  154.6805 H   0  0  0  0  0
   21.8875   60.9745  155.0451 H   0  0  0  0  0
   25.6845   64.4932  155.3107 H   0  0  0  0  0
   28.6098   64.4837  155.8075 H   0  0  0  0  0
   28.7509   66.9110  155.2732 H   0  0  0  0  0
   27.0170   66.8374  154.6932 H   0  0  0  0  0
   26.6360   65.7205  152.2281 H   0  0  0  0  0
   30.7739   65.5060  151.2778 H   0  0  0  0  0
   29.1914   65.4044  157.7754 H   0  0  0  0  0
   27.0274   66.3297  159.5795 H   0  0  0  0  0
   28.9243   66.5940  161.1620 H   0  0  0  0  0
   29.9632   65.8317  159.8849 H   0  0  0  0  0
   26.3903   68.4388  159.4880 H   0  0  0  0  0
   28.2344   70.4203  158.3019 H   0  0  0  0  0
   27.6458   72.5857  159.0965 H   0  0  0  0  0
   26.2164   71.7550  157.8271 H   0  0  0  0  0
   25.2219   70.6318  158.8877 H   0  0  0  0  0
   24.6594   70.1955  156.6576 H   0  0  0  0  0
   25.7298   68.8662  157.2250 H   0  0  0  0  0
   27.5064   69.6026  155.9864 H   0  0  0  0  0
   26.8095   71.2585  155.8022 H   0  0  0  0  0
   25.0150   69.6715  154.5062 H   0  0  0  0  0
   28.5983   69.6469  152.6141 H   0  0  0  0  0
   28.5277   70.0438  154.3342 H   0  0  0  0  0
   25.1283   69.1584  152.2938 H   0  0  0  0  0
  1  2  1  0  0  0
  2  3  1  0  0  0
  2  5  1  0  0  0
  3  4  2  0  0  0
  3  7  1  0  0  0
  5  6  1  0  0  0
  6116  1  0  0  0
  7  8  1  0  0  0
  8  9  1  0  0  0
  8 11  1  0  0  0
  9 10  2  0  0  0
  9 21  1  0  0  0
 11 12  1  0  0  0
 12 13  4  0  0  0
 12 14  4  0  0  0
 13 15  4  0  0  0
 14 16  4  0  0  0
 14 17  4  0  0  0
 15 16  4  0  0  0
 16 18  4  0  0  0
 17 19  4  0  0  0
 18 20  4  0  0  0
 19 20  4  0  0  0
 21 22  1  0  0  0
 22 23  1  0  0  0
 22 25  1  0  0  0
 23 24  2  0  0  0
 23 28  1  0  0  0
 25 26  1  0  0  0
 25 27  1  0  0  0
 28 29  1  0  0  0
 29 30  1  0  0  0
 29 32  1  0  0  0
 30 31  2  0  0  0
 30 36  1  0  0  0
 32 33  1  0  0  0
 33 34  1  0  0  0
 33 35  1  0  0  0
 36 37  1  0  0  0
 37 38  1  0  0  0
 37 40  1  0  0  0
 38 39  2  0  0  0
 38 45  1  0  0  0
 40 41  1  0  0  0
 41 42  1  0  0  0
 42 43  2  0  0  0
 42 44  1  0  0  0
 45 46  1  0  0  0
 46 47  1  0  0  0
 46 49  1  0  0  0
 47 48  2  0  0  0
 47 57  1  0  0  0
 49 50  1  0  0  0
 50 51  4  0  0  0
 50 52  4  0  0  0
 51 53  4  0  0  0
 52 54  4  0  0  0
 53 55  4  0  0  0
 54 55  4  0  0  0
 55 56  1  0  0  0
 57 58  1  0  0  0
 58 59  1  0  0  0
 58 61  1  0  0  0
 59 60  2  0  0  0
 59 65  1  0  0  0
 61 62  1  0  0  0
 62 63  1  0  0  0
 62 64  2  0  0  0
 65 66  1  0  0  0
 66 67  1  0  0  0
 66 69  1  0  0  0
 67 68  2  0  0  0
 67 73  1  0  0  0
 69 70  1  0  0  0
 70 71  1  0  0  0
 71 72  1  0  0  0
 73 74  1  0  0  0
 74 75  1  0  0  0
 74 77  1  0  0  0
 75 76  2  0  0  0
 75 84  1  0  0  0
 77 78  1  0  0  0
 78 79  4  0  0  0
 78 80  4  0  0  0
 79 81  4  0  0  0
 80 82  4  0  0  0
 81 83  4  0  0  0
 82 83  4  0  0  0
 84 85  1  0  0  0
 85 86  1  0  0  0
 86 87  2  0  0  0
 86 88  1  0  0  0
 88 89  1  0  0  0
 89 90  1  0  0  0
 89 92  1  0  0  0
 90 91  2  0  0  0
 90 93  1  0  0  0
 93 94  1  0  0  0
 94 95  1  0  0  0
 94 97  1  0  0  0
 95 96  2  0  0  0
 95101  1  0  0  0
 97 98  1  0  0  0
 98 99  1  0  0  0
 98100  1  0  0  0
101102  1  0  0  0
102103  1  0  0  0
102105  1  0  0  0
103104  2  0  0  0
103111  1  0  0  0
105106  1  0  0  0
106107  4  0  0  0
106108  4  0  0  0
107109  4  0  0  0
108110  4  0  0  0
109110  4  0  0  0
111112  1  0  0  0
112113  1  0  0  0
112115  1  0  0  0
113114  2  0  0  0
113117  1  0  0  0
115116  1  0  0  0
117118  1  0  0  0
118119  1  0  0  0
118121  1  0  0  0
119120  1  0  0  0
119128  2  0  0  0
121122  1  0  0  0
122123  1  0  0  0
123124  1  0  0  0
124125  1  0  0  0
125126  1  0  0  0
125127  2  0  0  0
  1129  1  0  0  0
  1130  1  0  0  0
  1131  1  0  0  0
  2132  1  0  0  0
  5133  1  0  0  0
  5134  1  0  0  0
  7135  1  0  0  0
  8136  1  0  0  0
 11137  1  0  0  0
 11138  1  0  0  0
 13139  1  0  0  0
 17140  1  0  0  0
 18141  1  0  0  0
 19142  1  0  0  0
 20143  1  0  0  0
 21144  1  0  0  0
 22145  1  0  0  0
 25146  1  0  0  0
 26147  1  0  0  0
 26148  1  0  0  0
 26149  1  0  0  0
 27150  1  0  0  0
 27151  1  0  0  0
 27152  1  0  0  0
 28153  1  0  0  0
 29154  1  0  0  0
 32155  1  0  0  0
 32156  1  0  0  0
 33157  1  0  0  0
 34158  1  0  0  0
 34159  1  0  0  0
 34160  1  0  0  0
 35161  1  0  0  0
 35162  1  0  0  0
 35163  1  0  0  0
 36164  1  0  0  0
 37165  1  0  0  0
 40166  1  0  0  0
 40167  1  0  0  0
 41168  1  0  0  0
 41169  1  0  0  0
 44170  1  0  0  0
 45171  1  0  0  0
 46172  1  0  0  0
 49173  1  0  0  0
 49174  1  0  0  0
 51175  1  0  0  0
 52176  1  0  0  0
 53177  1  0  0  0
 54178  1  0  0  0
 56179  1  0  0  0
 57180  1  0  0  0
 58181  1  0  0  0
 61182  1  0  0  0
 61183  1  0  0  0
 63184  1  0  0  0
 65185  1  0  0  0
 66186  1  0  0  0
 69187  1  0  0  0
 69188  1  0  0  0
 70189  1  0  0  0
 70190  1  0  0  0
 72191  1  0  0  0
 72192  1  0  0  0
 72193  1  0  0  0
 73194  1  0  0  0
 74195  1  0  0  0
 77196  1  0  0  0
 77197  1  0  0  0
 79198  1  0  0  0
 80199  1  0  0  0
 81200  1  0  0  0
 82201  1  0  0  0
 83202  1  0  0  0
 84203  1  0  0  0
 85204  1  0  0  0
 85205  1  0  0  0
 88206  1  0  0  0
 89207  1  0  0  0
 92208  1  0  0  0
 92209  1  0  0  0
 92210  1  0  0  0
 93211  1  0  0  0
 94212  1  0  0  0
 97213  1  0  0  0
 97214  1  0  0  0
 98215  1  0  0  0
 99216  1  0  0  0
 99217  1  0  0  0
 99218  1  0  0  0
100219  1  0  0  0
100220  1  0  0  0
100221  1  0  0  0
101222  1  0  0  0
102223  1  0  0  0
105224  1  0  0  0
105225  1  0  0  0
108226  1  0  0  0
109227  1  0  0  0
111228  1  0  0  0
112229  1  0  0  0
115230  1  0  0  0
115231  1  0  0  0
117232  1  0  0  0
118233  1  0  0  0
120234  1  0  0  0
121235  1  0  0  0
121236  1  0  0  0
122237  1  0  0  0
122238  1  0  0  0
123239  1  0  0  0
123240  1  0  0  0
124241  1  0  0  0
126242  1  0  0  0
126243  1  0  0  0
127244  1  0  0  0
M  END
$$$$
