5kqx_ligand
  -I-interpret- 

100104  0  0  0  0  0  0  0  0999 V2000
  -18.3420    8.0020  -16.5070 C   0  0  0  0  0
  -18.3380    8.4680  -15.3790 O   0  0  0  0  0
  -18.7130    6.0830  -17.9600 N   0  0  0  0  0
  -19.2430    6.8430  -16.9600 C   0  0  0  0  0
  -20.5170    6.5880  -16.4800 C   0  0  0  0  0
  -21.2360    5.5440  -16.9850 C   0  0  0  0  0
  -21.4390    3.6750  -18.5140 C   0  0  0  0  0
  -20.8960    2.8800  -19.5210 C   0  0  0  0  0
  -19.6250    3.1550  -20.0180 C   0  0  0  0  0
  -18.8860    4.2300  -19.5030 C   0  0  0  0  0
  -20.6970    4.7560  -17.9880 C   0  0  0  0  0
  -19.4390    5.0280  -18.4780 C   0  0  0  0  0
  -17.5030    8.5310  -17.5320 N   0  0  0  0  0
  -16.6410    9.6160  -17.2820 C   0  0  0  0  0
  -16.8990   10.5490  -18.4550 C   0  0  0  0  0
  -16.3720   10.3600  -19.5370 O   0  0  0  0  0
  -15.1980    9.2240  -17.2550 C   0  0  0  0  0
  -14.9490    8.4510  -15.9820 C   0  0  0  0  0
  -14.9580    9.0110  -14.8940 O   0  0  0  0  0
  -14.7220    7.0510  -16.0660 N   0  0  0  0  0
  -17.5930   13.9150  -18.7450 C   0  0  0  0  0
  -18.3680   14.3750  -17.6800 O   0  0  0  0  0
  -18.0870   12.5600  -19.2590 C   0  0  0  0  0
  -17.8080   11.6440  -18.2210 N   0  0  0  0  0
  -19.5780   12.5460  -19.4770 C   0  0  0  0  0
  -20.1270   11.1220  -19.7120 C   0  0  0  0  0
  -20.6470   10.3790  -18.6540 C   0  0  0  0  0
  -20.1540   10.5920  -20.9950 C   0  0  0  0  0
  -21.1610    9.1070  -18.8810 C   0  0  0  0  0
  -20.6770    9.3270  -21.2310 C   0  0  0  0  0
  -21.1710    8.5830  -20.1700 C   0  0  0  0  0
  -16.3650   14.7430  -20.6820 N   0  3  0  0  0
  -17.5930   14.9370  -19.8920 C   0  0  0  0  0
  -16.5660   15.4940  -21.9770 C   0  0  0  0  0
  -17.6520   14.8450  -22.7540 C   0  0  0  0  0
  -17.8760   13.6610  -22.6560 O   0  0  0  0  0
  -15.2930   15.6140  -22.8270 C   0  0  0  0  0
  -14.1560   16.1850  -22.0290 C   0  0  0  0  0
  -12.9050   16.1480  -22.9480 C   0  0  0  0  0
  -12.4070   14.7160  -23.1560 C   0  0  0  0  0
  -12.1260   14.0340  -21.8320 C   0  0  0  0  0
  -13.4040   14.0050  -20.9920 C   0  0  0  0  0
  -13.9420   15.4340  -20.7440 C   0  0  0  0  0
  -15.2180   15.2930  -19.9080 C   0  0  0  0  0
  -18.3940   15.7440  -23.6140 N   0  0  0  0  0
  -19.4910   15.3550  -24.4760 C   0  0  0  0  0
  -19.0100   14.3480  -25.5100 C   0  0  0  0  0
  -20.6360   14.7900  -23.6440 C   0  0  0  0  0
  -19.9440   16.6170  -25.1660 C   0  0  0  0  0
  -20.9441    7.2196  -15.7010 H   0  0  0  0  0
  -22.2330    5.3307  -16.5995 H   0  0  0  0  0
  -22.4374    3.4627  -18.1316 H   0  0  0  0  0
  -21.4670    2.0417  -19.9202 H   0  0  0  0  0
  -19.2036    2.5340  -20.8085 H   0  0  0  0  0
  -17.8912    4.4480  -19.8916 H   0  0  0  0  0
  -17.5279    8.1157  -18.4633 H   0  0  0  0  0
  -16.8334   10.0566  -16.3037 H   0  0  0  0  0
  -14.5658   10.1113  -17.2869 H   0  0  0  0  0
  -14.9583    8.6090  -18.1224 H   0  0  0  0  0
  -14.5655    6.5079  -15.2169 H   0  0  0  0  0
  -14.7155    6.5891  -16.9754 H   0  0  0  0  0
  -16.5755   13.7876  -18.3754 H   0  0  0  0  0
  -18.0312   15.2238  -17.3838 H   0  0  0  0  0
  -17.6057   12.3271  -20.2089 H   0  0  0  0  0
  -18.2484   11.7566  -17.3079 H   0  0  0  0  0
  -19.7940   13.1408  -20.3645 H   0  0  0  0  0
  -20.0529   12.9463  -18.5813 H   0  0  0  0  0
  -20.6509   10.7956  -17.6468 H   0  0  0  0  0
  -19.7601   11.1756  -21.8271 H   0  0  0  0  0
  -21.5554    8.5214  -18.0506 H   0  0  0  0  0
  -20.6990    8.9220  -22.2427 H   0  0  0  0  0
  -21.5687    7.5836  -20.3465 H   0  0  0  0  0
  -16.1717   13.7608  -20.8776 H   0  0  0  0  0
  -17.6242   15.9501  -19.4910 H   0  0  0  0  0
  -18.4705   14.7926  -20.5223 H   0  0  0  0  0
  -16.8413   16.5156  -21.7150 H   0  0  0  0  0
  -15.4971   16.2797  -23.6656 H   0  0  0  0  0
  -15.0103   14.6191  -23.1710 H   0  0  0  0  0
  -14.3724   17.2090  -21.7245 H   0  0  0  0  0
  -12.1107   16.7254  -22.4748 H   0  0  0  0  0
  -13.1758   16.5646  -23.9182 H   0  0  0  0  0
  -11.4824   14.7500  -23.7323 H   0  0  0  0  0
  -13.1789   14.1525  -23.6801 H   0  0  0  0  0
  -11.3520   14.5842  -21.2970 H   0  0  0  0  0
  -11.7872   13.0140  -22.0134 H   0  0  0  0  0
  -13.1777   13.5462  -20.0295 H   0  0  0  0  0
  -14.1619   13.4362  -21.5307 H   0  0  0  0  0
  -13.2131   16.0338  -20.1990 H   0  0  0  0  0
  -15.0056   14.6007  -19.0933 H   0  0  0  0  0
  -15.4986   16.2876  -19.5613 H   0  0  0  0  0
  -18.1229   16.7273  -23.6124 H   0  0  0  0  0
  -18.2214   14.7974  -26.1135 H   0  0  0  0  0
  -18.6221   13.4649  -25.0022 H   0  0  0  0  0
  -19.8431   14.0627  -26.1524 H   0  0  0  0  0
  -20.2865   13.9170  -23.0927 H   0  0  0  0  0
  -20.9830   15.5491  -22.9429 H   0  0  0  0  0
  -21.4545   14.5012  -24.3034 H   0  0  0  0  0
  -20.2671   17.3421  -24.4190 H   0  0  0  0  0
  -19.1169   17.0313  -25.7425 H   0  0  0  0  0
  -20.7743   16.3866  -25.8335 H   0  0  0  0  0
  1  2  2  0  0  0
  1  4  1  0  0  0
 13  1  1  0  0  0
  4  3  4  0  0  0
  3 12  4  0  0  0
  4  5  4  0  0  0
  5  6  4  0  0  0
  6 11  4  0  0  0
  7  8  4  0  0  0
 11  7  4  0  0  0
  9  8  4  0  0  0
 10  9  4  0  0  0
 12 10  4  0  0  0
 12 11  4  0  0  0
 14 13  1  0  0  0
 15 14  1  0  0  0
 14 17  1  0  0  0
 15 16  2  0  0  0
 24 15  1  0  0  0
 17 18  1  0  0  0
 18 19  2  0  0  0
 18 20  1  0  0  0
 21 22  1  0  0  0
 23 21  1  0  0  0
 21 33  1  0  0  0
 23 24  1  0  0  0
 23 25  1  0  0  0
 25 26  1  0  0  0
 26 27  4  0  0  0
 26 28  4  0  0  0
 27 29  4  0  0  0
 28 30  4  0  0  0
 29 31  4  0  0  0
 30 31  4  0  0  0
 33 32  1  0  0  0
 32 34  1  0  0  0
 32 44  1  0  0  0
 34 35  1  0  0  0
 34 37  1  0  0  0
 35 36  2  0  0  0
 35 45  1  0  0  0
 37 38  1  0  0  0
 38 39  1  0  0  0
 38 43  1  0  0  0
 39 40  1  0  0  0
 40 41  1  0  0  0
 41 42  1  0  0  0
 42 43  1  0  0  0
 43 44  1  0  0  0
 45 46  1  0  0  0
 46 47  1  0  0  0
 46 48  1  0  0  0
 46 49  1  0  0  0
  5 50  1  0  0  0
  6 51  1  0  0  0
  7 52  1  0  0  0
  8 53  1  0  0  0
  9 54  1  0  0  0
 10 55  1  0  0  0
 13 56  1  0  0  0
 14 57  1  0  0  0
 17 58  1  0  0  0
 17 59  1  0  0  0
 20 60  1  0  0  0
 20 61  1  0  0  0
 21 62  1  0  0  0
 22 63  1  0  0  0
 23 64  1  0  0  0
 24 65  1  0  0  0
 25 66  1  0  0  0
 25 67  1  0  0  0
 27 68  1  0  0  0
 28 69  1  0  0  0
 29 70  1  0  0  0
 30 71  1  0  0  0
 31 72  1  0  0  0
 32 73  1  0  0  0
 33 74  1  0  0  0
 33 75  1  0  0  0
 34 76  1  0  0  0
 37 77  1  0  0  0
 37 78  1  0  0  0
 38 79  1  0  0  0
 39 80  1  0  0  0
 39 81  1  0  0  0
 40 82  1  0  0  0
 40 83  1  0  0  0
 41 84  1  0  0  0
 41 85  1  0  0  0
 42 86  1  0  0  0
 42 87  1  0  0  0
 43 88  1  0  0  0
 44 89  1  0  0  0
 44 90  1  0  0  0
 45 91  1  0  0  0
 47 92  1  0  0  0
 47 93  1  0  0  0
 47 94  1  0  0  0
 48 95  1  0  0  0
 48 96  1  0  0  0
 48 97  1  0  0  0
 49 98  1  0  0  0
 49 99  1  0  0  0
 49100  1  0  0  0
M  END
$$$$
