### 
### Created by X-TOOL on Mon Sep 10 21:12:44 2018
### 

@<TRIPOS>MOLECULE
2lpr_ligand
   55    55     1     0     0
SMALL
GAST_HUCK


@<TRIPOS>ATOM
      1 N          13.8500   42.1190   18.2540 N.4       1 ALA         0.2377
      2 CA         14.3830   40.7440   18.0810 C.3       1 ALA         0.0621
      3 C          13.5040   39.5640   18.4510 C.2       1 ALA         0.2264
      4 O          12.7700   39.5060   19.4720 O.2       1 ALA        -0.3907
      5 CB         15.6840   40.6310   18.8650 C.3       1 ALA        -0.0040
      6 N          13.5890   38.5620   17.5900 N.am      1 ALA        -0.2613
      7 CA         12.8050   37.3080   17.7720 C.3       1 ALA         0.1285
      8 C          13.7030   36.1490   17.3620 C.2       1 ALA         0.2061
      9 O          14.5170   36.3700   16.4740 O.2       1 ALA        -0.3942
     10 CB         11.5940   37.3810   16.8660 C.3       1 ALA        -0.0244
     11 N          13.4980   35.0050   17.9720 N.am      1 PRO        -0.2498
     12 CA         14.2260   33.7990   17.6290 C.3       1 PRO         0.1336
     13 C          13.8980   33.3970   16.1940 C.2       1 PRO         0.2010
     14 O          12.7440   33.5680   15.7620 O.2       1 PRO        -0.3946
     15 CB         13.5810   32.6990   18.4880 C.3       1 PRO        -0.0104
     16 CG         12.7760   33.3970   19.5080 C.3       1 PRO        -0.0281
     17 CD         12.4820   34.7900   19.0110 C.3       1 PRO         0.0369
     18 N          14.8430   32.8070   15.4680 N.am      1 B2V        -0.2915
     19 CA         14.6410   32.3200   14.0880 C.3       1 B2V         0.0555
     20 CB         15.4800   33.1350   13.0840 C.3       1 B2V        -0.0325
     21 CG1        14.9250   34.5250   12.9390 C.3       1 B2V        -0.0617
     22 CG2        16.9790   33.2090   13.3780 C.3       1 B2V        -0.0617
     23 B          14.9130   30.7900   14.0650 B         1 B2V         0.7166
     24 O1         14.8860   30.1920   12.7180 O.3       1 B2V        -0.4967
     25 O2         14.0130   30.0760   15.0060 O.3       1 B2V        -0.4967
     26 H1         14.5471   42.7881   17.9671 H         1 ALA         0.2015
     27 H2         13.6182   42.2700   19.2233 H         1 ALA         0.2015
     28 H3         13.0229   42.2323   17.6890 H         1 ALA         0.2015
     29 H4         14.6117   40.6349   17.0106 H         1 ALA         0.1095
     30 H5         16.0951   39.6173   18.7490 H         1 ALA         0.0310
     31 H6         15.4889   40.8279   19.9295 H         1 ALA         0.0310
     32 H7         16.4075   41.3660   18.4827 H         1 ALA         0.0310
     33 H8         14.1939   38.6488   16.7984 H         1 ALA         0.1884
     34 H9         12.4889   37.1937   18.8194 H         1 ALA         0.0797
     35 H10        10.9951   36.4654   16.9800 H         1 ALA         0.0277
     36 H11        11.9232   37.4759   15.8207 H         1 ALA         0.0277
     37 H12        10.9839   38.2546   17.1391 H         1 ALA         0.0277
     38 H13        15.3081   33.9039   17.7963 H         1 PRO         0.0802
     39 H14        14.3572   32.0852   18.9684 H         1 PRO         0.0313
     40 H15        12.9381   32.0575   17.8674 H         1 PRO         0.0313
     41 H16        13.3378   33.4503   20.4522 H         1 PRO         0.0287
     42 H17        11.8333   32.8546   19.6724 H         1 PRO         0.0287
     43 H18        11.4683   34.8508   18.5883 H         1 PRO         0.0524
     44 H19        12.5862   35.5266   19.8212 H         1 PRO         0.0524
     45 H20        15.7454   32.6856   15.8814 H         1 B2V         0.1840
     46 H21        13.5847   32.4720   13.8213 H         1 B2V         0.0434
     47 H22        15.3755   32.6318   12.1114 H         1 B2V         0.0305
     48 H23        15.5357   35.0905   12.2198 H         1 B2V         0.0233
     49 H24        14.9452   35.0316   13.9152 H         1 B2V         0.0233
     50 H25        13.8882   34.4698   12.5759 H         1 B2V         0.0233
     51 H26        17.3826   32.1912   13.4836 H         1 B2V         0.0233
     52 H27        17.1424   33.7669   14.3118 H         1 B2V         0.0233
     53 H28        17.4902   33.7220   12.5501 H         1 B2V         0.0233
     54 H29        15.1667   29.2858   12.7693 H         1 B2V         0.1667
     55 H30        14.0577   30.4892   15.8603 H         1 B2V         0.1667
@<TRIPOS>BOND
     1    1    2 1  
     2    2    3 1  
     3    2    5 1  
     4    3    4 2  
     5    3    6 am 
     6    6    7 1  
     7    7    8 1  
     8    7   10 1  
     9    8    9 2  
    10    8   11 am 
    11   11   12 1  
    12   11   17 1  
    13   12   13 1  
    14   12   15 1  
    15   13   14 2  
    16   13   18 am 
    17   15   16 1  
    18   16   17 1  
    19   18   19 1  
    20   19   20 1  
    21   19   23 1  
    22   20   21 1  
    23   20   22 1  
    24   23   24 1  
    25   23   25 1  
    26    1   26 1  
    27    1   27 1  
    28    1   28 1  
    29    2   29 1  
    30    5   30 1  
    31    5   31 1  
    32    5   32 1  
    33    6   33 1  
    34    7   34 1  
    35   10   35 1  
    36   10   36 1  
    37   10   37 1  
    38   12   38 1  
    39   15   39 1  
    40   15   40 1  
    41   16   41 1  
    42   16   42 1  
    43   17   43 1  
    44   17   44 1  
    45   18   45 1  
    46   19   46 1  
    47   20   47 1  
    48   21   48 1  
    49   21   49 1  
    50   21   50 1  
    51   22   51 1  
    52   22   52 1  
    53   22   53 1  
    54   24   54 1  
    55   25   55 1  
@<TRIPOS>SUBSTRUCTURE
     1 ALA         1

