2lpr_ligand
  -I-interpret- 

 55 55  0  0  0  0  0  0  0  0999 V2000
   13.8500   42.1190   18.2540 N   0  3  0  0  0
   14.3830   40.7440   18.0810 C   0  0  0  0  0
   13.5040   39.5640   18.4510 C   0  0  0  0  0
   12.7700   39.5060   19.4720 O   0  0  0  0  0
   15.6840   40.6310   18.8650 C   0  0  0  0  0
   13.5890   38.5620   17.5900 N   0  0  0  0  0
   12.8050   37.3080   17.7720 C   0  0  0  0  0
   13.7030   36.1490   17.3620 C   0  0  0  0  0
   14.5170   36.3700   16.4740 O   0  0  0  0  0
   11.5940   37.3810   16.8660 C   0  0  0  0  0
   13.4980   35.0050   17.9720 N   0  0  0  0  0
   14.2260   33.7990   17.6290 C   0  0  0  0  0
   13.8980   33.3970   16.1940 C   0  0  0  0  0
   12.7440   33.5680   15.7620 O   0  0  0  0  0
   13.5810   32.6990   18.4880 C   0  0  0  0  0
   12.7760   33.3970   19.5080 C   0  0  0  0  0
   12.4820   34.7900   19.0110 C   0  0  0  0  0
   14.8430   32.8070   15.4680 N   0  0  0  0  0
   14.6410   32.3200   14.0880 C   0  0  0  0  0
   15.4800   33.1350   13.0840 C   0  0  0  0  0
   14.9250   34.5250   12.9390 C   0  0  0  0  0
   16.9790   33.2090   13.3780 C   0  0  0  0  0
   14.9130   30.7900   14.0650 B   0  0  0  0  0
   14.8860   30.1920   12.7180 O   0  0  0  0  0
   14.0130   30.0760   15.0060 O   0  0  0  0  0
   12.9772   42.2119   17.7344 H   0  0  0  0  0
   13.6779   42.2936   19.2441 H   0  0  0  0  0
   14.5301   42.7928   17.9019 H   0  0  0  0  0
   14.4870   40.6524   16.9998 H   0  0  0  0  0
   15.4657   40.6455   19.9328 H   0  0  0  0  0
   16.1820   39.6963   18.6073 H   0  0  0  0  0
   16.3321   41.4707   18.6139 H   0  0  0  0  0
   14.2060   38.6505   16.7826 H   0  0  0  0  0
   12.4758   37.1742   18.8025 H   0  0  0  0  0
   11.9203   37.5299   15.8367 H   0  0  0  0  0
   11.0307   36.4507   16.9389 H   0  0  0  0  0
   10.9623   38.2147   17.1725 H   0  0  0  0  0
   15.2984   33.9378   17.7660 H   0  0  0  0  0
   14.3378   32.0646   18.9494 H   0  0  0  0  0
   12.9618   32.0378   17.8818 H   0  0  0  0  0
   13.3253   33.4446   20.4483 H   0  0  0  0  0
   11.8443   32.8582   19.6807 H   0  0  0  0  0
   11.4661   34.8916   18.6293 H   0  0  0  0  0
   12.5315   35.5358   19.8044 H   0  0  0  0  0
   15.7635   32.6831   15.8896 H   0  0  0  0  0
   13.6109   32.4717   13.7655 H   0  0  0  0  0
   15.3965   32.5797   12.1498 H   0  0  0  0  0
   13.8976   34.4689   12.5792 H   0  0  0  0  0
   14.9455   35.0258   13.9069 H   0  0  0  0  0
   15.5310   35.0843   12.2262 H   0  0  0  0  0
   17.1344   33.6711   14.3529 H   0  0  0  0  0
   17.3975   32.2026   13.3807 H   0  0  0  0  0
   17.4697   33.8059   12.6092 H   0  0  0  0  0
   15.0613   29.2504   12.7836 H   0  0  0  0  0
   14.1998   29.1349   14.9738 H   0  0  0  0  0
  1  2  1  0  0  0
  2  3  1  0  0  0
  2  5  1  0  0  0
  3  4  2  0  0  0
  3  6  1  0  0  0
  6  7  1  0  0  0
  7  8  1  0  0  0
  7 10  1  0  0  0
  8  9  2  0  0  0
  8 11  1  0  0  0
 11 12  1  0  0  0
 11 17  1  0  0  0
 12 13  1  0  0  0
 12 15  1  0  0  0
 13 14  2  0  0  0
 13 18  1  0  0  0
 15 16  1  0  0  0
 16 17  1  0  0  0
 18 19  1  0  0  0
 19 20  1  0  0  0
 19 23  1  0  0  0
 20 21  1  0  0  0
 20 22  1  0  0  0
 23 24  1  0  0  0
 23 25  1  0  0  0
  1 26  1  0  0  0
  1 27  1  0  0  0
  1 28  1  0  0  0
  2 29  1  0  0  0
  5 30  1  0  0  0
  5 31  1  0  0  0
  5 32  1  0  0  0
  6 33  1  0  0  0
  7 34  1  0  0  0
 10 35  1  0  0  0
 10 36  1  0  0  0
 10 37  1  0  0  0
 12 38  1  0  0  0
 15 39  1  0  0  0
 15 40  1  0  0  0
 16 41  1  0  0  0
 16 42  1  0  0  0
 17 43  1  0  0  0
 17 44  1  0  0  0
 18 45  1  0  0  0
 19 46  1  0  0  0
 20 47  1  0  0  0
 21 48  1  0  0  0
 21 49  1  0  0  0
 21 50  1  0  0  0
 22 51  1  0  0  0
 22 52  1  0  0  0
 22 53  1  0  0  0
 24 54  1  0  0  0
 25 55  1  0  0  0
M  END
$$$$
