3vrt_ligand
  -I-interpret- 

 65 67  0  0  0  0  0  0  0  0999 V2000
   10.5150   -5.7840   27.3870 O   0  0  0  0  0
   11.3990   -4.7380   26.9680 C   0  0  0  0  0
   12.6790   -4.7920   27.7930 C   0  0  0  0  0
   13.0560   -3.4090   28.3090 C   0  0  0  0  0
   12.9010   -2.3580   27.2160 C   0  0  0  0  0
   11.6970   -1.4630   27.4860 C   0  0  0  0  0
   14.1710   -1.5330   27.0690 C   0  0  0  0  0
   13.8780   -0.1120   26.6220 C   0  0  0  0  0
   12.7160   -0.1280   25.6400 C   0  0  0  0  0
   13.6220    0.9070   27.7130 C   0  0  0  0  0
   13.2640    2.2420   27.0510 C   0  0  0  0  0
   14.1790    2.6790   25.8960 C   0  0  0  0  0
   15.1040   -2.1020   26.0000 C   0  0  0  0  0
   15.5780   -0.9280   25.1400 C   0  0  0  0  0
   15.1460    0.3000   25.9240 C   0  0  0  0  0
   14.7900    1.5170   25.1390 C   0  0  0  0  0
   15.0020    1.5810   23.8180 C   0  0  0  0  0
   14.6430    2.7870   23.0780 C   0  0  0  0  0
   14.2220    2.6940   21.8090 C   0  0  0  0  0
   13.8500    3.9410   21.0430 C   0  0  0  0  0
   14.1190    1.3420   21.1450 C   0  0  0  0  0
   14.8550    1.3740   19.8100 C   0  0  0  0  0
   14.5020    0.2180   19.0430 O   0  0  0  0  0
   14.4680    2.6120   19.0560 C   0  0  0  0  0
   14.0220    2.5180   17.8180 C   0  0  0  0  0
   14.5880    3.9570   19.7100 C   0  0  0  0  0
   15.9700    4.2580   19.9330 O   0  0  0  0  0
    9.7093   -5.7483   26.8662 H   0  0  0  0  0
   10.9139   -3.7728   27.1137 H   0  0  0  0  0
   11.6413   -4.8684   25.9133 H   0  0  0  0  0
   13.4867   -5.1611   27.1609 H   0  0  0  0  0
   12.5172   -5.4510   28.6460 H   0  0  0  0  0
   14.0970   -3.4276   28.6315 H   0  0  0  0  0
   12.3955   -3.1525   29.1373 H   0  0  0  0  0
   12.7279   -2.8777   26.2736 H   0  0  0  0  0
   11.8605   -0.9044   28.4076 H   0  0  0  0  0
   11.5692   -0.7680   26.6561 H   0  0  0  0  0
   10.8034   -2.0789   27.5867 H   0  0  0  0  0
   14.6307   -1.5568   28.0570 H   0  0  0  0  0
   12.9806   -0.7375   24.7759 H   0  0  0  0  0
   11.8361   -0.5484   26.1270 H   0  0  0  0  0
   12.5017    0.8904   25.3160 H   0  0  0  0  0
   14.5118    1.0235   28.3317 H   0  0  0  0  0
   12.8026    0.5743   28.3502 H   0  0  0  0  0
   13.3567    3.0048   27.8241 H   0  0  0  0  0
   12.2678    2.1188   26.6262 H   0  0  0  0  0
   14.9969    3.2574   26.3257 H   0  0  0  0  0
   13.5706    3.2463   25.1916 H   0  0  0  0  0
   14.5828   -2.8390   25.3890 H   0  0  0  0  0
   15.9529   -2.6068   26.4612 H   0  0  0  0  0
   15.1495   -0.9503   24.1380 H   0  0  0  0  0
   16.6540   -0.9504   24.9672 H   0  0  0  0  0
   15.9977    0.5840   26.5421 H   0  0  0  0  0
   15.4428    0.7321   23.2953 H   0  0  0  0  0
   14.7173    3.7631   23.5575 H   0  0  0  0  0
   14.1286    4.8206   21.6233 H   0  0  0  0  0
   12.7749    3.9500   20.8634 H   0  0  0  0  0
   13.0699    1.0993   20.9758 H   0  0  0  0  0
   14.5676    0.5857   21.7892 H   0  0  0  0  0
   15.9305    1.3777   19.9874 H   0  0  0  0  0
   14.9658    0.2390   18.2027 H   0  0  0  0  0
   13.9347    1.5409   17.3429 H   0  0  0  0  0
   13.7408    3.4174   17.2702 H   0  0  0  0  0
   14.1510    4.7165   19.0617 H   0  0  0  0  0
   16.4339    4.2678   19.0926 H   0  0  0  0  0
  1  2  1  0  0  0
  2  3  1  0  0  0
  3  4  1  0  0  0
  4  5  1  0  0  0
  5  6  1  0  0  0
  5  7  1  0  0  0
  7  8  1  0  0  0
  7 13  1  0  0  0
  8  9  1  0  0  0
  8 10  1  0  0  0
  8 15  1  0  0  0
 10 11  1  0  0  0
 11 12  1  0  0  0
 12 16  1  0  0  0
 13 14  1  0  0  0
 14 15  1  0  0  0
 15 16  1  0  0  0
 16 17  2  0  0  0
 17 18  1  0  0  0
 18 19  2  0  0  0
 19 20  1  0  0  0
 19 21  1  0  0  0
 20 26  1  0  0  0
 21 22  1  0  0  0
 22 23  1  0  0  0
 22 24  1  0  0  0
 24 25  2  0  0  0
 24 26  1  0  0  0
 26 27  1  0  0  0
  1 28  1  0  0  0
  2 29  1  0  0  0
  2 30  1  0  0  0
  3 31  1  0  0  0
  3 32  1  0  0  0
  4 33  1  0  0  0
  4 34  1  0  0  0
  5 35  1  0  0  0
  6 36  1  0  0  0
  6 37  1  0  0  0
  6 38  1  0  0  0
  7 39  1  0  0  0
  9 40  1  0  0  0
  9 41  1  0  0  0
  9 42  1  0  0  0
 10 43  1  0  0  0
 10 44  1  0  0  0
 11 45  1  0  0  0
 11 46  1  0  0  0
 12 47  1  0  0  0
 12 48  1  0  0  0
 13 49  1  0  0  0
 13 50  1  0  0  0
 14 51  1  0  0  0
 14 52  1  0  0  0
 15 53  1  0  0  0
 17 54  1  0  0  0
 18 55  1  0  0  0
 20 56  1  0  0  0
 20 57  1  0  0  0
 21 58  1  0  0  0
 21 59  1  0  0  0
 22 60  1  0  0  0
 23 61  1  0  0  0
 25 62  1  0  0  0
 25 63  1  0  0  0
 26 64  1  0  0  0
 27 65  1  0  0  0
M  END
$$$$
