6hx8_ligand
  -I-interpret- 

 53 55  0  0  0  0  0  0  0  0999 V2000
   17.4160   67.5310   40.8860 C   0  0  0  0  0
   14.5880   66.7310   38.5320 C   0  0  0  0  0
   13.6020   67.1500   40.7740 C   0  0  0  0  0
   11.7480   65.2710   38.5670 C   0  0  0  0  0
   14.4130   66.4030   37.1710 Br  0  0  0  0  0
   17.2630   64.8740   46.4920 C   0  0  0  0  0
   17.8860   65.9290   47.1650 C   0  0  0  0  0
   18.3440   67.0310   46.4490 C   0  0  0  0  0
   18.1820   67.0860   45.0600 C   0  0  0  0  0
   17.5640   66.0320   44.3770 C   0  0  0  0  0
   17.1020   64.9290   45.1030 C   0  0  0  0  0
   18.6940   68.2870   44.3190 C   0  0  0  0  0
   18.7960   68.0040   42.8190 C   0  0  0  0  0
   17.3770   66.0700   42.8750 C   0  0  0  0  0
   16.0340   67.2920   40.3690 C   0  0  0  0  0
   15.9010   66.9780   39.0550 C   0  0  0  0  0
   13.4250   66.8190   39.3890 C   0  0  0  0  0
   14.8920   67.3810   41.2390 C   0  0  0  0  0
   11.5660   68.2710   41.4170 C   0  0  0  0  0
   16.7760   62.4850   46.5470 C   0  0  0  0  0
   17.5010   67.4550   42.3630 N   0  3  0  0  0
   15.5870   66.0600   49.5700 N   0  0  0  0  0
   12.4830   67.2180   41.5940 O   0  0  0  0  0
   12.2820   66.5690   38.7920 O   0  0  0  0  0
   16.7940   63.7630   47.1750 O   0  0  0  0  0
   18.0370   65.8520   48.5410 O   0  0  0  0  0
   17.7160   66.6760   50.8720 O   0  0  0  0  0
   17.0240   68.1260   48.9990 O   0  0  0  0  0
   17.1220   66.7680   49.5430 S   0  0  0  0  0
   17.7138   68.5360   40.5870 H   0  0  0  0  0
   18.0634   66.7562   40.4753 H   0  0  0  0  0
   12.4408   64.6960   37.9525 H   0  0  0  0  0
   11.6047   64.7677   39.5232 H   0  0  0  0  0
   10.7905   65.3575   38.0534 H   0  0  0  0  0
   18.8307   67.8543   46.9720 H   0  0  0  0  0
   16.6127   64.1058   44.5825 H   0  0  0  0  0
   19.6864   68.5337   44.6964 H   0  0  0  0  0
   18.0007   69.1140   44.4723 H   0  0  0  0  0
   19.5951   67.2881   42.6263 H   0  0  0  0  0
   19.0243   68.9230   42.2791 H   0  0  0  0  0
   16.3820   65.6950   42.6355 H   0  0  0  0  0
   18.1462   65.4536   42.4098 H   0  0  0  0  0
   16.7764   66.9146   38.4086 H   0  0  0  0  0
   15.0414   67.6357   42.2882 H   0  0  0  0  0
   12.0741   69.2231   41.5699 H   0  0  0  0  0
   11.1609   68.2322   40.4058 H   0  0  0  0  0
   10.7554   68.1703   42.1387 H   0  0  0  0  0
   16.1477   62.5276   45.6573 H   0  0  0  0  0
   17.7910   62.2066   46.2636 H   0  0  0  0  0
   16.3756   61.7461   47.2411 H   0  0  0  0  0
   16.7196   67.9996   42.7279 H   0  0  0  0  0
   15.2256   65.6586   50.4353 H   0  0  0  0  0
   15.0223   66.0342   48.7210 H   0  0  0  0  0
  1 15  1  0  0  0
 21  1  1  0  0  0
  2  5  1  0  0  0
 16  2  4  0  0  0
  2 17  4  0  0  0
  3 17  4  0  0  0
 18  3  4  0  0  0
  3 23  1  0  0  0
 24  4  1  0  0  0
  7  6  4  0  0  0
  6 11  4  0  0  0
  6 25  1  0  0  0
  7  8  4  0  0  0
 26  7  1  0  0  0
  8  9  4  0  0  0
  9 10  4  0  0  0
  9 12  1  0  0  0
 11 10  4  0  0  0
 10 14  1  0  0  0
 12 13  1  0  0  0
 13 21  1  0  0  0
 14 21  1  0  0  0
 15 16  4  0  0  0
 15 18  4  0  0  0
 17 24  1  0  0  0
 23 19  1  0  0  0
 25 20  1  0  0  0
 29 22  1  0  0  0
 26 29  1  0  0  0
 29 27  2  0  0  0
 29 28  2  0  0  0
  1 30  1  0  0  0
  1 31  1  0  0  0
  4 32  1  0  0  0
  4 33  1  0  0  0
  4 34  1  0  0  0
  8 35  1  0  0  0
 11 36  1  0  0  0
 12 37  1  0  0  0
 12 38  1  0  0  0
 13 39  1  0  0  0
 13 40  1  0  0  0
 14 41  1  0  0  0
 14 42  1  0  0  0
 16 43  1  0  0  0
 18 44  1  0  0  0
 19 45  1  0  0  0
 19 46  1  0  0  0
 19 47  1  0  0  0
 20 48  1  0  0  0
 20 49  1  0  0  0
 20 50  1  0  0  0
 21 51  1  0  0  0
 22 52  1  0  0  0
 22 53  1  0  0  0
M  END
$$$$
