5nxw_ligand
  -I-interpret- 

 32 33  0  0  0  0  0  0  0  0999 V2000
   -7.5090    2.6370   16.7080 O   0  0  0  0  0
   -6.0690    2.5930   16.7970 S   0  0  0  0  0
   -5.4960    2.7070   18.1400 O   0  0  0  0  0
   -5.5090    1.2820   16.0570 N   0  0  0  0  0
   -5.5300    3.9390   15.9450 C   0  0  0  0  0
   -4.1870    4.1140   15.5780 C   0  0  0  0  0
   -6.4170    4.9610   15.5260 C   0  0  0  0  0
   -6.0090    6.0780   14.8070 C   0  0  0  0  0
   -4.6770    6.2340   14.4400 C   0  0  0  0  0
   -3.7650    5.2580   14.8500 C   0  0  0  0  0
   -4.2410    7.3500   13.7520 N   0  0  0  0  0
   -2.9410    7.7370   13.5220 C   0  0  0  0  0
   -1.8840    7.1860   13.8060 O   0  0  0  0  0
   -2.6740    9.0690   12.8720 C   0  0  0  0  0
   -1.4440    9.8840   13.8540 S   0  0  0  0  0
   -1.6530   11.5350   13.3680 C   0  0  0  0  0
   -2.3950   11.8690   12.2930 N   0  0  0  0  0
   -0.8830   12.7760   14.2940 S   0  0  0  0  0
   -1.6350   13.8210   13.1300 C   0  0  0  0  0
   -2.3860   13.2750   12.1460 N   0  0  0  0  0
   -1.4610   15.1610   13.2130 N   0  0  0  0  0
   -6.1569    0.6300   15.6148 H   0  0  0  0  0
   -4.5055    1.1015   16.0293 H   0  0  0  0  0
   -3.4536    3.3574   15.8570 H   0  0  0  0  0
   -7.4727    4.8665   15.7804 H   0  0  0  0  0
   -6.7391    6.8380   14.5285 H   0  0  0  0  0
   -2.7093    5.3770   14.6064 H   0  0  0  0  0
   -4.9666    7.9570   13.3706 H   0  0  0  0  0
   -3.5856    9.6644   12.8219 H   0  0  0  0  0
   -2.3255    8.9364   11.8477 H   0  0  0  0  0
   -0.8884   15.5557   13.9591 H   0  0  0  0  0
   -1.9025   15.7759   12.5294 H   0  0  0  0  0
  1  2  2  0  0  0
  2  3  2  0  0  0
  2  4  1  0  0  0
  2  5  1  0  0  0
  5  6  4  0  0  0
  5  7  4  0  0  0
  6 10  4  0  0  0
  7  8  4  0  0  0
  8  9  4  0  0  0
  9 10  4  0  0  0
  9 11  1  0  0  0
 11 12  1  0  0  0
 12 13  2  0  0  0
 12 14  1  0  0  0
 14 15  1  0  0  0
 15 16  1  0  0  0
 16 17  4  0  0  0
 16 18  4  0  0  0
 17 20  4  0  0  0
 18 19  4  0  0  0
 19 20  4  0  0  0
 19 21  1  0  0  0
  4 22  1  0  0  0
  4 23  1  0  0  0
  6 24  1  0  0  0
  7 25  1  0  0  0
  8 26  1  0  0  0
 10 27  1  0  0  0
 11 28  1  0  0  0
 14 29  1  0  0  0
 14 30  1  0  0  0
 21 31  1  0  0  0
 21 32  1  0  0  0
M  END
$$$$
