4ajn_ligand
  -I-interpret- 

 61 63  0  0  0  0  0  0  0  0999 V2000
   15.3590  -14.1690    8.4600 C   0  0  0  0  0
   13.1920  -13.8880    7.5330 C   0  0  0  0  0
   14.8040  -14.7640    9.5770 C   0  0  0  0  0
   12.6360  -14.4760    8.6550 C   0  0  0  0  0
   21.6850   -5.7460    1.1870 C   0  0  0  0  0
   20.4150   -5.7470    1.7350 C   0  0  0  0  0
   19.6120   -7.1540   -0.0470 C   0  0  0  0  0
   14.5620  -13.7190    7.4220 C   0  0  0  0  0
   13.4340  -14.9270    9.6920 C   0  0  0  0  0
   21.9360   -6.4560    0.0130 C   0  0  0  0  0
   19.3790   -6.4410    1.1240 C   0  0  0  0  0
   20.8890   -7.1550   -0.5850 C   0  0  0  0  0
   23.0460   -7.2960   -1.7200 C   0  0  0  0  0
   17.2990   -7.5250    1.9040 C   0  0  0  0  0
   11.2270  -17.3010   11.8450 C   0  0  0  0  0
   12.5010  -17.8210    9.7680 C   0  0  0  0  0
   14.8860   -9.9040    4.3100 C   0  0  0  0  0
   24.2130   -7.5670   -2.6070 C   0  0  0  0  0
   15.1840  -13.0990    6.1900 C   0  0  0  0  0
   12.8380  -15.5820   10.9180 C   0  0  0  0  0
   16.0770   -7.2790    2.7630 C   0  0  0  0  0
   14.8340  -11.6450    6.0080 C   0  0  0  0  0
   14.9550   -8.2560    2.4840 C   0  0  0  0  0
   11.8470  -16.7170   10.5850 C   0  0  0  0  0
   23.1580   -6.5480   -0.6490 N   0  0  0  0  0
   18.0850   -6.4400    1.6990 N   0  0  0  0  0
   15.0140  -11.2000    4.6320 N   0  0  0  0  0
   15.2060   -9.5780    3.0480 N   0  0  0  0  0
   17.5310   -8.6290    1.4160 O   0  0  0  0  0
   11.6780  -18.2910   12.3960 O   0  0  0  0  0
   13.5150  -18.3700   10.1620 O   0  0  0  0  0
   14.4540   -9.0810    5.1110 O   0  0  0  0  0
   10.1610  -16.6690   12.2470 O   0  0  0  0  0
   11.9060  -18.1110    8.6410 O   0  0  0  0  0
   21.4670   -7.9410   -2.0260 S   0  0  0  0  0
   16.4408  -14.0524    8.3956 H   0  0  0  0  0
   12.5423  -13.5528    6.7245 H   0  0  0  0  0
   15.4549  -15.1103   10.3798 H   0  0  0  0  0
   11.5537  -14.5857    8.7234 H   0  0  0  0  0
   22.4883   -5.1913    1.6718 H   0  0  0  0  0
   20.2253   -5.1969    2.6567 H   0  0  0  0  0
   18.8048   -7.7021   -0.5328 H   0  0  0  0  0
   24.5954   -6.6250   -3.0002 H   0  0  0  0  0
   24.9943   -8.0672   -2.0347 H   0  0  0  0  0
   23.8997   -8.2063   -3.4324 H   0  0  0  0  0
   14.8030  -13.6390    5.3232 H   0  0  0  0  0
   16.2664  -13.1643    6.3009 H   0  0  0  0  0
   12.2888  -14.8162   11.4658 H   0  0  0  0  0
   13.6576  -16.0181   11.4890 H   0  0  0  0  0
   15.7095   -6.2773    2.5403 H   0  0  0  0  0
   16.3726   -7.4000    3.8051 H   0  0  0  0  0
   15.4960  -11.0561    6.6429 H   0  0  0  0  0
   13.7842  -11.5148    6.2706 H   0  0  0  0  0
   14.8670   -8.3646    1.4030 H   0  0  0  0  0
   14.0476   -7.8633    2.9427 H   0  0  0  0  0
   11.0562  -16.2716    9.9814 H   0  0  0  0  0
   17.7085   -5.5366    1.9863 H   0  0  0  0  0
   15.2395  -11.8807    3.9066 H   0  0  0  0  0
   15.6437  -10.2852    2.4575 H   0  0  0  0  0
    9.9938  -15.9238   11.6654 H   0  0  0  0  0
   11.1300  -17.5553    8.5379 H   0  0  0  0  0
  1  3  4  0  0  0
  8  1  4  0  0  0
  2  4  4  0  0  0
  8  2  4  0  0  0
  3  9  4  0  0  0
  4  9  4  0  0  0
  6  5  4  0  0  0
  5 10  4  0  0  0
 11  6  4  0  0  0
 11  7  4  0  0  0
  7 12  4  0  0  0
 19  8  1  0  0  0
  9 20  1  0  0  0
 12 10  4  0  0  0
 10 25  4  0  0  0
 26 11  1  0  0  0
 12 35  4  0  0  0
 13 18  1  0  0  0
 13 25  4  0  0  0
 35 13  4  0  0  0
 21 14  1  0  0  0
 14 26  1  0  0  0
 14 29  2  0  0  0
 24 15  1  0  0  0
 15 30  2  0  0  0
 15 33  1  0  0  0
 24 16  1  0  0  0
 16 31  2  0  0  0
 16 34  1  0  0  0
 17 27  1  0  0  0
 28 17  1  0  0  0
 17 32  2  0  0  0
 22 19  1  0  0  0
 20 24  1  0  0  0
 23 21  1  0  0  0
 27 22  1  0  0  0
 23 28  1  0  0  0
  1 36  1  0  0  0
  2 37  1  0  0  0
  3 38  1  0  0  0
  4 39  1  0  0  0
  5 40  1  0  0  0
  6 41  1  0  0  0
  7 42  1  0  0  0
 18 43  1  0  0  0
 18 44  1  0  0  0
 18 45  1  0  0  0
 19 46  1  0  0  0
 19 47  1  0  0  0
 20 48  1  0  0  0
 20 49  1  0  0  0
 21 50  1  0  0  0
 21 51  1  0  0  0
 22 52  1  0  0  0
 22 53  1  0  0  0
 23 54  1  0  0  0
 23 55  1  0  0  0
 24 56  1  0  0  0
 26 57  1  0  0  0
 27 58  1  0  0  0
 28 59  1  0  0  0
 33 60  1  0  0  0
 34 61  1  0  0  0
M  END
$$$$
