4mfe_ligand
  -I-interpret- 

 11 10  0  0  0  0  0  0  0  0999 V2000
  -39.6810   -5.3650   12.2900 C   0  0  0  0  0
  -40.6710   -5.1430   11.5290 O   0  0  0  0  0
  -39.5760   -4.8580   13.4290 O   0  0  0  0  0
  -38.6760   -6.2980   11.8290 C   0  0  0  0  0
  -37.5840   -6.3850   12.3650 O   0  0  0  0  0
  -39.0690   -7.1290   10.6320 C   0  0  0  0  0
  -38.4220   -8.3960   10.6550 O   0  0  0  0  0
  -40.5558   -5.6253   10.7070 H   0  0  0  0  0
  -38.7702   -6.6006    9.7267 H   0  0  0  0  0
  -40.1472   -7.2869   10.6552 H   0  0  0  0  0
  -38.6880   -8.9039    9.8850 H   0  0  0  0  0
  1  2  1  0  0  0
  1  3  2  0  0  0
  1  4  1  0  0  0
  4  5  2  0  0  0
  4  6  1  0  0  0
  6  7  1  0  0  0
  2  8  1  0  0  0
  6  9  1  0  0  0
  6 10  1  0  0  0
  7 11  1  0  0  0
M  END
$$$$
