2fm2_ligand
  -I-interpret- 

110113  0  0  0  0  0  0  0  0999 V2000
  192.3020  -10.2990   49.2280 C   0  0  0  0  0
  192.8030  -11.0460   50.0800 O   0  0  0  0  0
  190.9660  -10.1340   49.0300 O   0  0  0  0  0
  189.9130  -10.8490   49.7290 C   0  0  0  0  0
  189.8520  -10.4420   51.2240 C   0  0  0  0  0
  188.6230  -10.4630   48.9820 C   0  0  0  0  0
  190.1000  -12.3650   49.6030 C   0  0  0  0  0
  193.0260   -9.5280   48.4190 N   0  0  0  0  0
  194.4890   -9.5250   48.4230 C   0  0  0  0  0
  195.0520   -9.1880   47.0390 C   0  0  0  0  0
  196.6000   -9.0580   47.1420 C   0  0  0  0  0
  194.6970  -10.3230   46.0770 C   0  0  0  0  0
  194.3960   -7.8930   46.4990 C   0  0  0  0  0
  195.0580   -8.6430   49.5280 C   0  0  0  0  0
  194.8980   -7.4170   49.5080 O   0  0  0  0  0
  195.7180   -9.2690   50.5120 N   0  0  0  0  0
  195.9590  -10.7180   50.6090 C   0  0  0  0  0
  196.3170   -8.5500   51.6350 C   0  0  0  0  0
  196.7810   -9.5620   52.6350 C   0  0  0  0  0
  196.7910  -10.8280   51.8490 C   0  0  0  0  0
  196.0050  -10.7630   53.1620 C   0  0  0  0  0
  196.5820  -11.5380   54.3050 C   0  0  0  0  0
  194.4910  -10.7220   53.1400 C   0  0  0  0  0
  197.3190   -7.5080   51.1580 C   0  0  0  0  0
  198.3220   -7.8370   50.5270 O   0  0  0  0  0
  197.0220   -6.2470   51.4500 N   0  0  0  0  0
  197.8940   -5.1460   51.0510 C   0  0  0  0  0
  197.0900   -4.0520   50.3370 C   0  0  0  0  0
  196.3200   -4.6170   49.1410 C   0  0  0  0  0
  196.8710   -4.7030   47.7130 C   0  0  0  0  0
  195.7440   -3.7230   48.0440 C   0  0  0  0  0
  199.2260   -5.7150   53.0620 O   0  0  0  0  0
  198.5850   -4.5900   52.3470 C   0  0  0  0  0
  199.5370   -2.6820   51.2180 O   0  0  0  0  0
  200.8660   -4.4600   51.6170 N   0  0  0  0  0
  202.1580   -3.8040   51.5250 C   0  0  0  0  0
  202.6770   -3.7490   50.1080 C   0  0  0  0  0
  201.9270   -3.9030   49.1380 O   0  0  0  0  0
  199.7070   -3.8140   51.6740 C   0  0  0  0  0
  203.9790   -3.5100   49.9970 N   0  0  0  0  0
  204.6440   -3.4330   48.7050 C   0  0  0  0  0
  204.3130   -2.1330   47.9370 C   0  0  0  0  0
  204.3500   -0.8840   48.5660 C   0  0  0  0  0
  203.9790   -2.2020   46.5820 C   0  0  0  0  0
  204.0870    0.2800   47.8500 C   0  0  0  0  0
  203.7140   -1.0430   45.8550 C   0  0  0  0  0
  203.7590    0.1990   46.4950 C   0  0  0  0  0
  206.1550   -3.5820   48.8680 C   0  0  0  0  0
  206.7740   -2.8920   49.6850 O   0  0  0  0  0
  206.7760   -4.4760   48.0800 N   0  0  0  0  0
  208.2190   -4.5310   48.0670 C   0  0  0  0  0
  206.0870   -5.4280   47.2140 C   0  0  0  0  0
  189.0134  -10.9475   51.7029 H   0  0  0  0  0
  190.7809  -10.7306   51.7160 H   0  0  0  0  0
  189.7190   -9.3628   51.3003 H   0  0  0  0  0
  188.7138  -10.7451   47.9331 H   0  0  0  0  0
  187.7764  -10.9850   49.4280 H   0  0  0  0  0
  188.4689   -9.3866   49.0581 H   0  0  0  0  0
  189.2429  -12.8735   50.0446 H   0  0  0  0  0
  190.1804  -12.6336   48.5497 H   0  0  0  0  0
  191.0092  -12.6623   50.1255 H   0  0  0  0  0
  192.5391   -8.9123   47.7677 H   0  0  0  0  0
  194.8184  -10.5381   48.6535 H   0  0  0  0  0
  196.8506   -8.2641   47.8456 H   0  0  0  0  0
  197.0201  -10.0011   47.4916 H   0  0  0  0  0
  197.0093   -8.8181   46.1607 H   0  0  0  0  0
  195.1334  -11.2540   46.4387 H   0  0  0  0  0
  193.6132  -10.4254   46.0221 H   0  0  0  0  0
  195.0923  -10.0955   45.0870 H   0  0  0  0  0
  193.3184   -8.0379   46.4221 H   0  0  0  0  0
  194.6054   -7.0693   47.1815 H   0  0  0  0  0
  194.8042   -7.6636   45.5147 H   0  0  0  0  0
  196.4516  -11.1282   49.7274 H   0  0  0  0  0
  195.0392  -11.3007   50.6597 H   0  0  0  0  0
  195.5979   -7.9273   52.1672 H   0  0  0  0  0
  197.3641   -8.8720   53.2449 H   0  0  0  0  0
  197.5480  -11.5075   51.4573 H   0  0  0  0  0
  197.5545  -11.9375   54.0173 H   0  0  0  0  0
  196.6984  -10.8802   55.1663 H   0  0  0  0  0
  195.9119  -12.3587   54.5609 H   0  0  0  0  0
  194.1427   -9.8831   53.7425 H   0  0  0  0  0
  194.1470  -10.6009   52.1128 H   0  0  0  0  0
  194.0976  -11.6527   53.5489 H   0  0  0  0  0
  196.1653   -6.0430   51.9647 H   0  0  0  0  0
  198.6508   -5.4938   50.3479 H   0  0  0  0  0
  197.7833   -3.2926   49.9754 H   0  0  0  0  0
  196.3738   -3.6317   51.0430 H   0  0  0  0  0
  195.9251   -5.3475   49.8470 H   0  0  0  0  0
  197.1008   -5.4654   46.9686 H   0  0  0  0  0
  197.8360   -4.7001   47.2062 H   0  0  0  0  0
  195.5065   -2.6704   47.8900 H   0  0  0  0  0
  194.7675   -3.4395   47.6512 H   0  0  0  0  0
  199.6521   -5.3862   53.8570 H   0  0  0  0  0
  197.9377   -4.0546   53.0416 H   0  0  0  0  0
  200.8473   -5.4796   51.6392 H   0  0  0  0  0
  202.8690   -4.3748   52.1223 H   0  0  0  0  0
  202.0423   -2.7804   51.8814 H   0  0  0  0  0
  204.5303   -3.3762   50.8447 H   0  0  0  0  0
  204.2622   -4.2612   48.1080 H   0  0  0  0  0
  204.5873   -0.8219   49.6280 H   0  0  0  0  0
  203.9252   -3.1724   46.0885 H   0  0  0  0  0
  204.1368    1.2502   48.3444 H   0  0  0  0  0
  203.4731   -1.1045   44.7937 H   0  0  0  0  0
  203.5373    1.1072   45.9345 H   0  0  0  0  0
  208.6151   -3.5678   47.7454 H   0  0  0  0  0
  208.5817   -4.7581   49.0695 H   0  0  0  0  0
  208.5455   -5.3085   47.3763 H   0  0  0  0  0
  205.4498   -6.0727   47.8194 H   0  0  0  0  0
  205.4762   -4.8850   46.4928 H   0  0  0  0  0
  206.8224   -6.0347   46.6855 H   0  0  0  0  0
  1  2  2  0  0  0
  1  3  1  0  0  0
  8  1  1  0  0  0
  3  4  1  0  0  0
  4  5  1  0  0  0
  4  6  1  0  0  0
  4  7  1  0  0  0
  9  8  1  0  0  0
  9 10  1  0  0  0
 14  9  1  0  0  0
 10 11  1  0  0  0
 10 12  1  0  0  0
 10 13  1  0  0  0
 14 15  2  0  0  0
 16 14  1  0  0  0
 16 17  1  0  0  0
 18 16  1  0  0  0
 20 17  1  0  0  0
 18 19  1  0  0  0
 24 18  1  0  0  0
 19 20  1  0  0  0
 19 21  1  0  0  0
 21 20  1  0  0  0
 21 22  1  0  0  0
 21 23  1  0  0  0
 24 25  2  0  0  0
 26 24  1  0  0  0
 27 26  1  0  0  0
 27 28  1  0  0  0
 33 27  1  0  0  0
 28 29  1  0  0  0
 29 30  1  0  0  0
 29 31  1  0  0  0
 31 30  1  0  0  0
 33 32  1  0  0  0
 39 33  1  0  0  0
 39 34  2  0  0  0
 35 36  1  0  0  0
 35 39  1  0  0  0
 36 37  1  0  0  0
 37 38  2  0  0  0
 37 40  1  0  0  0
 40 41  1  0  0  0
 41 42  1  0  0  0
 41 48  1  0  0  0
 42 43  4  0  0  0
 42 44  4  0  0  0
 43 45  4  0  0  0
 44 46  4  0  0  0
 45 47  4  0  0  0
 46 47  4  0  0  0
 48 49  2  0  0  0
 48 50  1  0  0  0
 50 51  1  0  0  0
 50 52  1  0  0  0
  5 53  1  0  0  0
  5 54  1  0  0  0
  5 55  1  0  0  0
  6 56  1  0  0  0
  6 57  1  0  0  0
  6 58  1  0  0  0
  7 59  1  0  0  0
  7 60  1  0  0  0
  7 61  1  0  0  0
  8 62  1  0  0  0
  9 63  1  0  0  0
 11 64  1  0  0  0
 11 65  1  0  0  0
 11 66  1  0  0  0
 12 67  1  0  0  0
 12 68  1  0  0  0
 12 69  1  0  0  0
 13 70  1  0  0  0
 13 71  1  0  0  0
 13 72  1  0  0  0
 17 73  1  0  0  0
 17 74  1  0  0  0
 18 75  1  0  0  0
 19 76  1  0  0  0
 20 77  1  0  0  0
 22 78  1  0  0  0
 22 79  1  0  0  0
 22 80  1  0  0  0
 23 81  1  0  0  0
 23 82  1  0  0  0
 23 83  1  0  0  0
 26 84  1  0  0  0
 27 85  1  0  0  0
 28 86  1  0  0  0
 28 87  1  0  0  0
 29 88  1  0  0  0
 30 89  1  0  0  0
 30 90  1  0  0  0
 31 91  1  0  0  0
 31 92  1  0  0  0
 32 93  1  0  0  0
 33 94  1  0  0  0
 35 95  1  0  0  0
 36 96  1  0  0  0
 36 97  1  0  0  0
 40 98  1  0  0  0
 41 99  1  0  0  0
 43100  1  0  0  0
 44101  1  0  0  0
 45102  1  0  0  0
 46103  1  0  0  0
 47104  1  0  0  0
 51105  1  0  0  0
 51106  1  0  0  0
 51107  1  0  0  0
 52108  1  0  0  0
 52109  1  0  0  0
 52110  1  0  0  0
M  END
$$$$
