6eog_ligand
  -I-interpret- 

 49 52  0  0  0  0  0  0  0  0999 V2000
  -17.3340    7.5260   -1.6710 C   0  0  0  0  0
  -19.3540    6.3500   -0.9040 C   0  0  0  0  0
  -18.1100    8.8250   -1.5850 C   0  0  0  0  0
  -19.5870    8.4890   -1.7970 C   0  0  0  0  0
  -19.9700    5.3880    0.1080 C   0  0  0  0  0
  -15.2090    8.1860   -0.3820 C   0  0  0  0  0
  -11.4880    8.6940   -0.5880 C   0  0  0  0  0
  -11.6840    8.7300    2.1450 C   0  0  0  0  0
  -10.4510    8.9160    1.5670 C   0  0  0  0  0
  -10.3630    8.9280    0.1290 C   0  0  0  0  0
  -23.7370    7.6190   -4.5000 C   0  0  0  0  0
  -22.9760    8.7060   -4.9130 C   0  0  0  0  0
  -13.8870    8.1760   -0.7510 C   0  0  0  0  0
  -12.7050    8.4940    0.0440 C   0  0  0  0  0
  -12.7920    8.4220    1.4190 C   0  0  0  0  0
  -24.4870    5.8050   -2.6350 Cl  0  0  0  0  0
  -23.5230    7.2050   -3.1890 C   0  0  0  0  0
  -22.5970    7.8540   -2.3530 C   0  0  0  0  0
  -21.8370    8.9760   -2.7970 C   0  0  0  0  0
  -22.0810    9.3640   -4.1220 C   0  0  0  0  0
  -20.6640    9.8200   -1.8240 S   0  0  0  0  0
  -20.0020    7.6000   -0.7610 O   0  0  0  0  0
  -21.3550    5.1530   -0.1310 O   0  0  0  0  0
  -17.8890    6.5530   -0.6750 C   0  0  0  0  0
  -17.6280    6.9700    0.6520 O   0  0  0  0  0
  -17.6920    9.7500   -2.6160 O   0  0  0  0  0
  -15.9160    7.7640   -1.4450 N   0  0  0  0  0
  -13.7990    7.7180   -2.0330 N   0  0  0  0  0
  -15.0710    7.4880   -2.4670 N   0  0  0  0  0
   -9.1600    9.1080   -0.4560 F   0  0  0  0  0
   -9.3410    9.1570    2.2550 F   0  0  0  0  0
  -11.7010    8.7030    3.5160 F   0  0  0  0  0
  -17.4388    7.1026   -2.6699 H   0  0  0  0  0
  -19.4815    5.9277   -1.9008 H   0  0  0  0  0
  -17.9342    9.2919   -0.6159 H   0  0  0  0  0
  -19.6408    8.0502   -2.7933 H   0  0  0  0  0
  -19.8717    5.8343    1.0976 H   0  0  0  0  0
  -19.4489    4.4343    0.0241 H   0  0  0  0  0
  -15.6095    8.4801    0.5882 H   0  0  0  0  0
  -11.4355    8.6626   -1.6763 H   0  0  0  0  0
  -24.4521    7.1249   -5.1577 H   0  0  0  0  0
  -23.1029    9.0560   -5.9375 H   0  0  0  0  0
  -13.7203    8.1273    1.9085 H   0  0  0  0  0
  -22.4560    7.4887   -1.3358 H   0  0  0  0  0
  -21.5395   10.2166   -4.5319 H   0  0  0  0  0
  -21.6938    4.5442    0.5295 H   0  0  0  0  0
  -17.3867    5.5961   -0.8173 H   0  0  0  0  0
  -16.6828    7.0916    0.7680 H   0  0  0  0  0
  -16.7653    9.9679   -2.4923 H   0  0  0  0  0
  3  1  1  0  0  0
  1 24  1  0  0  0
  1 27  1  0  0  0
  2  5  1  0  0  0
 22  2  1  0  0  0
  2 24  1  0  0  0
  4  3  1  0  0  0
  3 26  1  0  0  0
 21  4  1  0  0  0
  4 22  1  0  0  0
  5 23  1  0  0  0
  6 13  4  0  0  0
 27  6  4  0  0  0
  7 10  4  0  0  0
 14  7  4  0  0  0
  8  9  4  0  0  0
 15  8  4  0  0  0
  8 32  1  0  0  0
 10  9  4  0  0  0
  9 31  1  0  0  0
 10 30  1  0  0  0
 12 11  4  0  0  0
 17 11  4  0  0  0
 20 12  4  0  0  0
 13 14  1  0  0  0
 13 28  4  0  0  0
 14 15  4  0  0  0
 17 16  1  0  0  0
 18 17  4  0  0  0
 19 18  4  0  0  0
 19 20  4  0  0  0
 19 21  1  0  0  0
 24 25  1  0  0  0
 27 29  4  0  0  0
 28 29  4  0  0  0
  1 33  1  0  0  0
  2 34  1  0  0  0
  3 35  1  0  0  0
  4 36  1  0  0  0
  5 37  1  0  0  0
  5 38  1  0  0  0
  6 39  1  0  0  0
  7 40  1  0  0  0
 11 41  1  0  0  0
 12 42  1  0  0  0
 15 43  1  0  0  0
 18 44  1  0  0  0
 20 45  1  0  0  0
 23 46  1  0  0  0
 24 47  1  0  0  0
 25 48  1  0  0  0
 26 49  1  0  0  0
M  END
$$$$
