5dd9_ligand
  -I-interpret- 

 41 44  0  0  0  0  0  0  0  0999 V2000
  -13.3730    7.4140  -12.4190 C   0  0  0  0  0
  -13.5220    8.7410  -12.1300 C   0  0  0  0  0
  -12.4420    9.4020  -11.6040 C   0  0  0  0  0
  -11.2700    8.7570  -11.3860 N   0  0  0  0  0
  -12.2240    6.7840  -12.2060 N   0  0  0  0  0
  -17.7500    6.4250  -12.0240 F   0  0  0  0  0
  -18.0090    7.7380  -12.1820 C   0  0  0  0  0
  -17.7500    8.3520  -11.0260 F   0  0  0  0  0
  -19.2940    7.8810  -12.4770 F   0  0  0  0  0
  -17.1340    8.3470  -13.3120 C   0  0  0  0  0
  -15.6600    8.2050  -12.9090 C   0  0  0  0  0
  -14.7670    6.7170  -13.0870 S   0  0  0  0  0
  -14.8070    9.1460  -12.4130 C   0  0  0  0  0
  -11.1110    7.4290  -11.7130 C   0  0  0  0  0
  -12.4030   10.7270  -11.2920 N   0  0  0  0  0
  -11.2610   11.2880  -10.5140 C   0  0  0  0  0
  -11.4690   12.7780  -10.2500 C   0  0  0  0  0
  -13.2760   11.7410  -11.9410 C   0  0  0  0  0
  -12.4370   12.9320  -12.4970 C   0  0  0  0  0
  -11.5520   13.4780  -11.5120 N   0  0  0  0  0
  -10.7330   14.4650  -11.8470 C   0  0  0  0  0
  -10.6380   15.0950  -13.4470 S   0  0  0  0  0
   -9.8860   15.0470  -10.9840 N   0  0  0  0  0
   -9.1080   16.0570  -11.6150 N   0  0  0  0  0
   -9.3940   16.1870  -12.9290 C   0  0  0  0  0
   -8.6960   17.1900  -13.8490 C   0  0  0  0  0
  -17.3836    9.3986  -13.4528 H   0  0  0  0  0
  -17.3173    7.8235  -14.2503 H   0  0  0  0  0
  -15.1285   10.1743  -12.2477 H   0  0  0  0  0
  -10.1572    6.9163  -11.5887 H   0  0  0  0  0
  -10.3442   11.1562  -11.0886 H   0  0  0  0  0
  -11.1947   10.7665   -9.5591 H   0  0  0  0  0
  -10.6316   13.1670   -9.6706 H   0  0  0  0  0
  -12.3922   12.9245   -9.6893 H   0  0  0  0  0
  -13.9761   12.1244  -11.1988 H   0  0  0  0  0
  -13.8022   11.2683  -12.7703 H   0  0  0  0  0
  -13.1269   13.7176  -12.8053 H   0  0  0  0  0
  -11.8342   12.5634  -13.3270 H   0  0  0  0  0
   -8.1995   16.6544  -14.6582 H   0  0  0  0  0
   -9.4349   17.8751  -14.2647 H   0  0  0  0  0
   -7.9579   17.7527  -13.2775 H   0  0  0  0  0
  1  2  4  0  0  0
  1  5  4  0  0  0
 12  1  4  0  0  0
  2  3  4  0  0  0
  2 13  4  0  0  0
  3  4  4  0  0  0
  3 15  1  0  0  0
 14  4  4  0  0  0
  5 14  4  0  0  0
  7  6  1  0  0  0
  7  8  1  0  0  0
  7  9  1  0  0  0
 10  7  1  0  0  0
 11 10  1  0  0  0
 11 12  4  0  0  0
 11 13  4  0  0  0
 15 16  1  0  0  0
 15 18  1  0  0  0
 16 17  1  0  0  0
 17 20  1  0  0  0
 18 19  1  0  0  0
 19 20  1  0  0  0
 20 21  1  0  0  0
 21 22  4  0  0  0
 21 23  4  0  0  0
 22 25  4  0  0  0
 23 24  4  0  0  0
 24 25  4  0  0  0
 25 26  1  0  0  0
 10 27  1  0  0  0
 10 28  1  0  0  0
 13 29  1  0  0  0
 14 30  1  0  0  0
 16 31  1  0  0  0
 16 32  1  0  0  0
 17 33  1  0  0  0
 17 34  1  0  0  0
 18 35  1  0  0  0
 18 36  1  0  0  0
 19 37  1  0  0  0
 19 38  1  0  0  0
 26 39  1  0  0  0
 26 40  1  0  0  0
 26 41  1  0  0  0
M  END
$$$$
