3ej1_ligand
  -I-interpret- 

 31 34  0  0  0  0  0  0  0  0999 V2000
  -16.2450  204.1280  113.0590 N   0  0  0  0  0
  -14.3580  205.3010  113.4970 C   0  0  0  0  0
  -13.4450  205.8700  114.4040 C   0  0  0  0  0
  -13.6340  205.7480  115.7200 C   0  0  0  0  0
  -14.8390  204.9860  116.0980 C   0  0  0  0  0
  -13.5460  205.7910  111.1780 C   0  0  0  0  0
  -13.9900  206.1410  109.9270 C   0  0  0  0  0
   -9.8570  207.4100  112.2300 C   0  0  0  0  0
  -15.6650  204.4950  111.9130 C   0  0  0  0  0
  -14.4760  205.2330  112.1260 C   0  0  0  0  0
  -15.7110  204.4420  115.3080 N   0  0  0  0  0
  -15.4350  204.6290  114.0080 N   0  0  0  0  0
  -12.2730  205.9310  111.5630 N   0  0  0  0  0
  -11.4200  206.4450  110.6690 C   0  0  0  0  0
  -11.7470  206.8210  109.4300 N   0  0  0  0  0
  -13.0290  206.6590  109.0930 C   0  0  0  0  0
  -10.0850  206.6090  111.0340 N   0  0  0  0  0
   -9.2160  206.8080  113.4420 C   0  0  0  0  0
   -8.4760  207.8230  112.6280 C   0  0  0  0  0
  -12.5777  206.4140  114.0297 H   0  0  0  0  0
  -12.9531  206.1767  116.4553 H   0  0  0  0  0
  -15.0171  204.8663  117.1667 H   0  0  0  0  0
  -15.0280  206.0171  109.6183 H   0  0  0  0  0
  -10.7900  207.9373  112.0310 H   0  0  0  0  0
  -16.0618  204.2538  110.9269 H   0  0  0  0  0
  -13.3331  206.9575  108.0898 H   0  0  0  0  0
   -9.3197  206.1966  110.5005 H   0  0  0  0  0
   -9.0444  205.8212  113.8719 H   0  0  0  0  0
   -9.4599  206.6175  114.4871 H   0  0  0  0  0
   -7.9114  208.7421  112.7849 H   0  0  0  0  0
   -7.4951  207.9441  112.1684 H   0  0  0  0  0
  9  1  4  0  0  0
  1 12  4  0  0  0
  2  3  4  0  0  0
 10  2  4  0  0  0
  2 12  4  0  0  0
  3  4  4  0  0  0
  4  5  4  0  0  0
 11  5  4  0  0  0
  6  7  4  0  0  0
  6 10  1  0  0  0
 13  6  4  0  0  0
  7 16  4  0  0  0
 17  8  1  0  0  0
  8 18  1  0  0  0
  8 19  1  0  0  0
 10  9  4  0  0  0
 12 11  4  0  0  0
 14 13  4  0  0  0
 14 15  4  0  0  0
 14 17  1  0  0  0
 15 16  4  0  0  0
 18 19  1  0  0  0
  3 20  1  0  0  0
  4 21  1  0  0  0
  5 22  1  0  0  0
  7 23  1  0  0  0
  8 24  1  0  0  0
  9 25  1  0  0  0
 16 26  1  0  0  0
 17 27  1  0  0  0
 18 28  1  0  0  0
 18 29  1  0  0  0
 19 30  1  0  0  0
 19 31  1  0  0  0
M  END
$$$$
