3ckz_ligand
  -I-interpret- 

 43 43  0  0  0  0  0  0  0  0999 V2000
  -30.2410  -53.1300    6.6480 C   0  0  0  0  0
  -31.3330  -52.5290    6.4940 O   0  0  0  0  0
  -29.1810  -52.6830    6.1790 O   0  0  0  0  0
  -30.2510  -54.3840    7.4020 C   0  0  0  0  0
  -29.1290  -55.0600    7.7510 C   0  0  0  0  0
  -29.1700  -56.1270    8.8400 C   0  0  0  0  0
  -30.5260  -56.8340    8.7520 C   0  0  0  0  0
  -30.6670  -57.8540    9.7820 N   0  0  0  0  0
  -30.6130  -59.1750    9.5620 C   0  0  0  0  0
  -30.5210  -59.6830    8.4570 O   0  0  0  0  0
  -30.6470  -60.0450   10.7880 C   0  0  0  0  0
  -31.6650  -55.8090    8.8240 C   0  0  0  0  0
  -31.5720  -54.8710    7.7500 O   0  0  0  0  0
  -33.0480  -56.4220    8.6780 C   0  0  0  0  0
  -33.1590  -56.9510    7.3560 O   0  0  0  0  0
  -34.1360  -55.3580    8.8770 C   0  0  0  0  0
  -33.9750  -54.7610   10.1730 O   0  0  0  0  0
  -35.5350  -55.9600    8.7550 C   0  0  0  0  0
  -35.8070  -56.7910    9.8930 O   0  0  0  0  0
  -28.1980  -57.1930    8.6160 N   0  0  0  0  0
  -27.5560  -57.8760    9.4720 C   0  0  0  0  0
  -27.6800  -57.6790   10.7820 N   0  0  0  0  0
  -26.7290  -58.8360    9.0330 N   0  0  0  0  0
  -32.0334  -53.0249    6.9243 H   0  0  0  0  0
  -28.1876  -54.8387    7.2480 H   0  0  0  0  0
  -28.9730  -55.6234    9.7864 H   0  0  0  0  0
  -30.5805  -57.3431    7.7897 H   0  0  0  0  0
  -30.8178  -57.5401   10.7407 H   0  0  0  0  0
  -31.5048  -60.7152   10.7327 H   0  0  0  0  0
  -29.7294  -60.6309   10.8417 H   0  0  0  0  0
  -30.7313  -59.4173   11.6751 H   0  0  0  0  0
  -31.5524  -55.3526    9.8074 H   0  0  0  0  0
  -33.1803  -57.2010    9.4288 H   0  0  0  0  0
  -34.0273  -57.3442    7.2417 H   0  0  0  0  0
  -34.0297  -54.6031    8.0979 H   0  0  0  0  0
  -34.6532  -54.0942   10.3034 H   0  0  0  0  0
  -35.5909  -56.5615    7.8477 H   0  0  0  0  0
  -36.2706  -55.1568    8.7109 H   0  0  0  0  0
  -36.6868  -57.1662    9.8108 H   0  0  0  0  0
  -28.0092  -57.4196    7.6396 H   0  0  0  0  0
  -28.3096  -56.9567   11.1318 H   0  0  0  0  0
  -26.2059  -59.4029    9.7003 H   0  0  0  0  0
  -26.6231  -58.9993    8.0317 H   0  0  0  0  0
  1  2  1  0  0  0
  1  3  2  0  0  0
  1  4  1  0  0  0
  4  5  2  0  0  0
  4 13  1  0  0  0
  5  6  1  0  0  0
  6  7  1  0  0  0
  6 20  1  0  0  0
  7  8  1  0  0  0
  7 12  1  0  0  0
  8  9  1  0  0  0
  9 10  2  0  0  0
  9 11  1  0  0  0
 12 13  1  0  0  0
 12 14  1  0  0  0
 14 15  1  0  0  0
 14 16  1  0  0  0
 16 17  1  0  0  0
 16 18  1  0  0  0
 18 19  1  0  0  0
 20 21  1  0  0  0
 21 22  2  0  0  0
 21 23  1  0  0  0
  2 24  1  0  0  0
  5 25  1  0  0  0
  6 26  1  0  0  0
  7 27  1  0  0  0
  8 28  1  0  0  0
 11 29  1  0  0  0
 11 30  1  0  0  0
 11 31  1  0  0  0
 12 32  1  0  0  0
 14 33  1  0  0  0
 15 34  1  0  0  0
 16 35  1  0  0  0
 17 36  1  0  0  0
 18 37  1  0  0  0
 18 38  1  0  0  0
 19 39  1  0  0  0
 20 40  1  0  0  0
 22 41  1  0  0  0
 23 42  1  0  0  0
 23 43  1  0  0  0
M  END
$$$$
