4ufl_ligand
  -I-interpret- 

 28 29  0  0  0  0  0  0  0  0999 V2000
   80.7530   88.1080   16.9320 O   0  0  0  0  0
   80.0430   87.7450   18.0860 C   0  0  0  0  0
   79.0480   88.8960   18.3900 C   0  0  0  0  0
   78.7980   89.1420   19.9100 C   0  0  0  0  0
   78.8690   87.8940   20.5280 O   0  0  0  0  0
   77.4500   89.8000   20.3030 C   0  0  0  0  0
   77.1700   89.3350   21.5950 O   0  0  0  0  0
   76.3050   89.4370   19.3160 C   0  0  0  0  0
   76.1100   87.9140   19.2540 C   0  0  0  0  0
   76.9850   87.4240   18.0970 C   0  0  0  0  0
   77.7150   88.6900   17.6240 C   0  0  0  0  0
   76.7010   89.7390   17.9360 N   0  3  0  0  0
   81.3810   87.4157   16.7130 H   0  0  0  0  0
   80.7229   87.5926   18.9242 H   0  0  0  0  0
   79.5104   86.8067   17.9310 H   0  0  0  0  0
   79.5280   89.8056   18.0289 H   0  0  0  0  0
   79.5520   89.8619   20.2282 H   0  0  0  0  0
   79.6985   87.4701   20.2961 H   0  0  0  0  0
   77.5236   90.8869   20.2661 H   0  0  0  0  0
   77.8913   89.5721   22.1825 H   0  0  0  0  0
   75.4290   89.9865   19.6607 H   0  0  0  0  0
   75.0631   87.6559   19.0943 H   0  0  0  0  0
   76.3957   87.4406   20.1933 H   0  0  0  0  0
   76.3995   86.9624   17.3019 H   0  0  0  0  0
   77.6754   86.6384   18.4041 H   0  0  0  0  0
   78.0208   88.6779   16.5779 H   0  0  0  0  0
   77.0731   90.6833   17.8349 H   0  0  0  0  0
   75.9110   89.7218   17.2910 H   0  0  0  0  0
  1  2  1  0  0  0
  2  3  1  0  0  0
  3  4  1  0  0  0
  3 11  1  0  0  0
  4  5  1  0  0  0
  4  6  1  0  0  0
  6  7  1  0  0  0
  6  8  1  0  0  0
  8  9  1  0  0  0
  8 12  1  0  0  0
  9 10  1  0  0  0
 10 11  1  0  0  0
 11 12  1  0  0  0
  1 13  1  0  0  0
  2 14  1  0  0  0
  2 15  1  0  0  0
  3 16  1  0  0  0
  4 17  1  0  0  0
  5 18  1  0  0  0
  6 19  1  0  0  0
  7 20  1  0  0  0
  8 21  1  0  0  0
  9 22  1  0  0  0
  9 23  1  0  0  0
 10 24  1  0  0  0
 10 25  1  0  0  0
 11 26  1  0  0  0
 12 27  1  0  0  0
 12 28  1  0  0  0
M  END
$$$$
