6bcy_ligand
  -I-interpret- 

167167  0  0  0  0  0  0  0  0999 V2000
   -5.6610   -5.5970   -7.5490 N   0  3  0  0  0
   -4.4060   -6.2040   -7.9720 C   0  0  0  0  0
   -4.6220   -7.0130   -9.2550 C   0  0  0  0  0
   -5.7640   -7.2620   -9.6460 O   0  0  0  0  0
   -3.8260   -7.1170   -6.8840 C   0  0  0  0  0
   -4.2320   -6.6470   -5.5940 O   0  0  0  0  0
   -2.3050   -7.1220   -6.9600 C   0  0  0  0  0
   -3.5350   -7.4380   -9.9020 N   0  0  0  0  0
   -3.6200   -8.1180  -11.1870 C   0  0  0  0  0
   -2.8110   -9.4080  -11.1630 C   0  0  0  0  0
   -1.9490   -9.6200  -10.3060 O   0  0  0  0  0
   -3.1340   -7.2200  -12.3390 C   0  0  0  0  0
   -4.2370   -6.8170  -13.3150 C   0  0  0  0  0
   -4.8800   -8.0120  -14.0070 C   0  0  0  0  0
   -4.2480   -9.0900  -14.0600 O   0  0  0  0  0
   -6.0220   -7.8740  -14.4920 O   0  0  0  0  0
   -3.1060  -10.2690  -12.1350 N   0  0  0  0  0
   -2.4640  -11.5710  -12.2380 C   0  0  0  0  0
   -1.1560  -11.4500  -13.0080 C   0  0  0  0  0
   -1.1160  -10.8650  -14.0940 O   0  0  0  0  0
   -3.4020  -12.5600  -12.9300 C   0  0  0  0  0
   -4.8460  -12.3880  -12.5010 C   0  0  0  0  0
   -5.7430  -12.2770  -13.3360 O   0  0  0  0  0
   -5.0760  -12.3500  -11.1950 N   0  0  0  0  0
   -0.0890  -12.0050  -12.4460 N   0  0  0  0  0
    1.2260  -11.9260  -13.0660 C   0  0  0  0  0
    1.3570  -12.9480  -14.1880 C   0  0  0  0  0
    0.9940  -14.1160  -14.0310 O   0  0  0  0  0
    2.3180  -12.1350  -12.0150 C   0  0  0  0  0
    2.0970  -11.2980  -10.7700 C   0  0  0  0  0
    3.3890  -10.7130  -10.2410 C   0  0  0  0  0
    3.1150   -9.6430   -9.2020 C   0  0  0  0  0
    3.9800   -9.7990   -8.0030 N   0  3  0  0  0
    1.8580  -12.4850  -15.3280 N   0  0  0  0  0
    2.1300  -13.3370  -16.4780 C   0  0  0  0  0
    1.0480  -13.1700  -17.5360 C   0  0  0  0  0
   -0.2120  -13.9390  -17.1180 C   0  0  0  0  0
    0.7790  -11.7720  -17.6540 O   0  0  0  0  0
    0.1190  -11.4330  -19.0840 P   0  0  0  0  0
    0.7350  -12.3510  -20.2520 O   0  0  0  0  0
    0.4160   -9.8840  -19.4260 O   0  0  0  0  0
   -1.3470  -11.6380  -19.0030 O   0  0  0  0  0
    3.5010  -12.9630  -17.0340 C   0  0  0  0  0
    3.9620  -11.8400  -16.8330 O   0  0  0  0  0
    4.1500  -13.8950  -17.7240 N   0  0  0  0  0
    5.4560  -13.6320  -18.3260 C   0  0  0  0  0
    5.4100  -13.7830  -19.8440 C   0  0  0  0  0
    4.7000  -14.6430  -20.3550 O   0  0  0  0  0
    6.5140  -14.5730  -17.7490 C   0  0  0  0  0
    6.9300  -14.3190  -16.3000 C   0  0  0  0  0
    7.8970  -15.3960  -15.8420 C   0  0  0  0  0
    7.5550  -12.9370  -16.1400 C   0  0  0  0  0
    6.1630  -12.9430  -20.5760 N   0  0  0  0  0
    6.9500  -11.8150  -20.0660 C   0  0  0  0  0
    6.0550  -10.6370  -19.6950 C   0  0  0  0  0
    4.9090  -10.5840  -20.1400 O   0  0  0  0  0
    7.8680  -11.4680  -21.2380 C   0  0  0  0  0
    7.0960  -11.8660  -22.4350 C   0  0  0  0  0
    6.3060  -13.0860  -22.0360 C   0  0  0  0  0
    6.5600   -9.7120  -18.8870 N   0  0  0  0  0
    5.7750   -8.5780  -18.4220 C   0  0  0  0  0
    6.2710   -7.2960  -19.0760 C   0  0  0  0  0
    7.4790   -7.0790  -19.2090 O   0  0  0  0  0
    5.8250   -8.4570  -16.8950 C   0  0  0  0  0
    7.2120   -8.5210  -16.2670 C   0  0  0  0  0
    7.0980   -8.8250  -14.7790 C   0  0  0  0  0
    8.3290   -8.5390  -14.0440 N   0  0  0  0  0
    8.6560   -7.3450  -13.5550 C   0  0  0  0  0
    9.7960   -7.1880  -12.8970 N   0  0  0  0  0
    7.8500   -6.3040  -13.7270 N   0  0  0  0  0
    5.3260   -6.4580  -19.4930 N   0  0  0  0  0
    5.6620   -5.2100  -20.1600 C   0  0  0  0  0
    6.3740   -4.2660  -19.2000 C   0  0  0  0  0
    5.9920   -4.1350  -18.0330 O   0  0  0  0  0
    4.3970   -4.5480  -20.7070 C   0  0  0  0  0
    3.6790   -5.4380  -21.5440 O   0  0  0  0  0
    7.4130   -3.6040  -19.6980 N   0  0  0  0  0
    8.1910   -2.6820  -18.8810 C   0  0  0  0  0
    7.4260   -1.3810  -18.6570 C   0  0  0  0  0
    6.2310   -1.2930  -18.9450 O   0  0  0  0  0
    9.5420   -2.3940  -19.5380 C   0  0  0  0  0
    9.3820   -1.6300  -20.7210 O   0  0  0  0  0
    7.9870   -0.3910  -18.1830 O   0  0  0  0  0
   -6.0163   -4.9987   -8.2948 H   0  0  0  0  0
   -6.3407   -6.3301   -7.3467 H   0  0  0  0  0
   -5.5016   -5.0387   -6.7104 H   0  0  0  0  0
   -3.6946   -5.3991   -8.1567 H   0  0  0  0  0
   -4.1971   -8.1299   -7.0402 H   0  0  0  0  0
   -5.1907   -6.6428   -5.5433 H   0  0  0  0  0
   -1.9314   -6.1099   -6.8048 H   0  0  0  0  0
   -1.9061   -7.7803   -6.1882 H   0  0  0  0  0
   -1.9927   -7.4794   -7.9412 H   0  0  0  0  0
   -2.6176   -7.2820   -9.4842 H   0  0  0  0  0
   -4.6699   -8.3537  -11.3607 H   0  0  0  0  0
   -2.3931   -7.7872  -12.9025 H   0  0  0  0  0
   -2.7434   -6.3046  -11.8945 H   0  0  0  0  0
   -3.7884   -6.1881  -14.0840 H   0  0  0  0  0
   -5.0129   -6.3031  -12.7476 H   0  0  0  0  0
   -3.3963   -8.9817  -13.6305 H   0  0  0  0  0
   -3.8050  -10.0074  -12.8303 H   0  0  0  0  0
   -2.2432  -11.9401  -11.2365 H   0  0  0  0  0
   -3.0881  -13.5678  -12.6581 H   0  0  0  0  0
   -3.3466  -12.3811  -14.0038 H   0  0  0  0  0
   -6.0269  -12.2246  -10.8481 H   0  0  0  0  0
   -4.3019  -12.4462  -10.5378 H   0  0  0  0  0
   -0.1928  -12.4982  -11.5592 H   0  0  0  0  0
    1.3452  -10.9330  -13.4995 H   0  0  0  0  0
    3.2691  -11.8362  -12.4556 H   0  0  0  0  0
    2.3037  -13.1844  -11.7206 H   0  0  0  0  0
    1.6738  -11.9412   -9.9984 H   0  0  0  0  0
    1.4310  -10.4744  -11.0276 H   0  0  0  0  0
    3.9351  -10.2637  -11.0704 H   0  0  0  0  0
    3.9702  -11.5102   -9.7775 H   0  0  0  0  0
    2.0753   -9.7313   -8.8868 H   0  0  0  0  0
    3.3235   -8.6712   -9.6494 H   0  0  0  0  0
    3.7644   -9.0621   -7.3315 H   0  0  0  0  0
    3.8078  -10.7097   -7.5772 H   0  0  0  0  0
    4.9592   -9.7318   -8.2806 H   0  0  0  0  0
    2.0614  -11.4882  -15.4014 H   0  0  0  0  0
    2.1288  -14.3846  -16.1771 H   0  0  0  0  0
    1.3726  -13.5693  -18.4969 H   0  0  0  0  0
    0.0281  -14.9969  -17.0115 H   0  0  0  0  0
   -0.5747  -13.5499  -16.1666 H   0  0  0  0  0
   -0.9815  -13.8147  -17.8799 H   0  0  0  0  0
    1.6839  -12.2133  -20.2988 H   0  0  0  0  0
    1.3644   -9.7455  -19.4797 H   0  0  0  0  0
    3.7267  -14.8162  -17.8363 H   0  0  0  0  0
    5.7227  -12.6020  -18.0893 H   0  0  0  0  0
    7.4104  -14.4273  -18.3518 H   0  0  0  0  0
    6.0752  -15.5706  -17.7680 H   0  0  0  0  0
    6.0370  -14.3542  -15.6760 H   0  0  0  0  0
    7.4133  -16.3703  -15.9117 H   0  0  0  0  0
    8.7822  -15.3820  -16.4779 H   0  0  0  0  0
    8.1874  -15.2062  -14.8087 H   0  0  0  0  0
    8.4385  -12.8636  -16.7741 H   0  0  0  0  0
    6.8315  -12.1763  -16.4332 H   0  0  0  0  0
    7.8401  -12.7869  -15.0987 H   0  0  0  0  0
    7.4970  -12.0561  -19.1545 H   0  0  0  0  0
    8.8260  -11.9843  -21.1765 H   0  0  0  0  0
    8.1336  -10.4110  -21.2530 H   0  0  0  0  0
    7.7557  -12.0814  -23.2756 H   0  0  0  0  0
    6.4387  -11.0617  -22.7652 H   0  0  0  0  0
    5.3443  -13.1453  -22.5455 H   0  0  0  0  0
    6.8022  -14.0148  -22.3176 H   0  0  0  0  0
    7.5295   -9.7991  -18.5824 H   0  0  0  0  0
    4.7361   -8.7423  -18.7081 H   0  0  0  0  0
    5.2703   -9.3088  -16.5014 H   0  0  0  0  0
    5.4231   -7.4734  -16.6518 H   0  0  0  0  0
    7.7096   -7.5603  -16.3992 H   0  0  0  0  0
    7.7880   -9.3099  -16.7506 H   0  0  0  0  0
    6.8857   -9.8887  -14.6718 H   0  0  0  0  0
    6.3109   -8.1921  -14.3692 H   0  0  0  0  0
    8.9827   -9.3078  -13.8956 H   0  0  0  0  0
   10.4225   -7.9821  -12.7655 H   0  0  0  0  0
    8.1096   -5.3909  -13.3539 H   0  0  0  0  0
    6.9712   -6.4174  -14.2323 H   0  0  0  0  0
    4.3456   -6.6955  -19.3419 H   0  0  0  0  0
    6.3329   -5.4311  -20.9901 H   0  0  0  0  0
    4.6846   -3.6739  -21.2913 H   0  0  0  0  0
    3.7599   -4.2656  -19.8689 H   0  0  0  0  0
    2.8911   -4.9998  -21.8739 H   0  0  0  0  0
    7.6718   -3.7445  -20.6746 H   0  0  0  0  0
    8.3657   -3.1507  -17.9125 H   0  0  0  0  0
   10.0132   -3.3423  -19.7965 H   0  0  0  0  0
   10.1565   -1.8280  -18.8379 H   0  0  0  0  0
   10.2428   -1.4639  -21.1122 H   0  0  0  0  0
    8.9075   -0.5996  -18.0074 H   0  0  0  0  0
  1  2  1  0  0  0
  2  3  1  0  0  0
  2  5  1  0  0  0
  3  4  2  0  0  0
  3  8  1  0  0  0
  5  6  1  0  0  0
  5  7  1  0  0  0
  8  9  1  0  0  0
  9 10  1  0  0  0
  9 12  1  0  0  0
 10 11  2  0  0  0
 10 17  1  0  0  0
 12 13  1  0  0  0
 13 14  1  0  0  0
 14 15  1  0  0  0
 14 16  2  0  0  0
 17 18  1  0  0  0
 18 19  1  0  0  0
 18 21  1  0  0  0
 19 20  2  0  0  0
 19 25  1  0  0  0
 21 22  1  0  0  0
 22 23  2  0  0  0
 22 24  1  0  0  0
 25 26  1  0  0  0
 26 27  1  0  0  0
 26 29  1  0  0  0
 27 28  2  0  0  0
 27 34  1  0  0  0
 29 30  1  0  0  0
 30 31  1  0  0  0
 31 32  1  0  0  0
 32 33  1  0  0  0
 34 35  1  0  0  0
 35 36  1  0  0  0
 35 43  1  0  0  0
 36 37  1  0  0  0
 36 38  1  0  0  0
 38 39  1  0  0  0
 39 40  1  0  0  0
 39 41  1  0  0  0
 39 42  2  0  0  0
 43 44  2  0  0  0
 43 45  1  0  0  0
 45 46  1  0  0  0
 46 47  1  0  0  0
 46 49  1  0  0  0
 47 48  2  0  0  0
 47 53  1  0  0  0
 49 50  1  0  0  0
 50 51  1  0  0  0
 50 52  1  0  0  0
 53 54  1  0  0  0
 53 59  1  0  0  0
 54 55  1  0  0  0
 54 57  1  0  0  0
 55 56  2  0  0  0
 55 60  1  0  0  0
 57 58  1  0  0  0
 58 59  1  0  0  0
 60 61  1  0  0  0
 61 62  1  0  0  0
 61 64  1  0  0  0
 62 63  2  0  0  0
 62 71  1  0  0  0
 64 65  1  0  0  0
 65 66  1  0  0  0
 66 67  1  0  0  0
 67 68  1  0  0  0
 68 69  2  0  0  0
 68 70  1  0  0  0
 71 72  1  0  0  0
 72 73  1  0  0  0
 72 75  1  0  0  0
 73 74  2  0  0  0
 73 77  1  0  0  0
 75 76  1  0  0  0
 77 78  1  0  0  0
 78 79  1  0  0  0
 78 81  1  0  0  0
 79 80  2  0  0  0
 79 83  1  0  0  0
 81 82  1  0  0  0
  1 84  1  0  0  0
  1 85  1  0  0  0
  1 86  1  0  0  0
  2 87  1  0  0  0
  5 88  1  0  0  0
  6 89  1  0  0  0
  7 90  1  0  0  0
  7 91  1  0  0  0
  7 92  1  0  0  0
  8 93  1  0  0  0
  9 94  1  0  0  0
 12 95  1  0  0  0
 12 96  1  0  0  0
 13 97  1  0  0  0
 13 98  1  0  0  0
 15 99  1  0  0  0
 17100  1  0  0  0
 18101  1  0  0  0
 21102  1  0  0  0
 21103  1  0  0  0
 24104  1  0  0  0
 24105  1  0  0  0
 25106  1  0  0  0
 26107  1  0  0  0
 29108  1  0  0  0
 29109  1  0  0  0
 30110  1  0  0  0
 30111  1  0  0  0
 31112  1  0  0  0
 31113  1  0  0  0
 32114  1  0  0  0
 32115  1  0  0  0
 33116  1  0  0  0
 33117  1  0  0  0
 33118  1  0  0  0
 34119  1  0  0  0
 35120  1  0  0  0
 36121  1  0  0  0
 37122  1  0  0  0
 37123  1  0  0  0
 37124  1  0  0  0
 40125  1  0  0  0
 41126  1  0  0  0
 45127  1  0  0  0
 46128  1  0  0  0
 49129  1  0  0  0
 49130  1  0  0  0
 50131  1  0  0  0
 51132  1  0  0  0
 51133  1  0  0  0
 51134  1  0  0  0
 52135  1  0  0  0
 52136  1  0  0  0
 52137  1  0  0  0
 54138  1  0  0  0
 57139  1  0  0  0
 57140  1  0  0  0
 58141  1  0  0  0
 58142  1  0  0  0
 59143  1  0  0  0
 59144  1  0  0  0
 60145  1  0  0  0
 61146  1  0  0  0
 64147  1  0  0  0
 64148  1  0  0  0
 65149  1  0  0  0
 65150  1  0  0  0
 66151  1  0  0  0
 66152  1  0  0  0
 67153  1  0  0  0
 69154  1  0  0  0
 70155  1  0  0  0
 70156  1  0  0  0
 71157  1  0  0  0
 72158  1  0  0  0
 75159  1  0  0  0
 75160  1  0  0  0
 76161  1  0  0  0
 77162  1  0  0  0
 78163  1  0  0  0
 81164  1  0  0  0
 81165  1  0  0  0
 82166  1  0  0  0
 83167  1  0  0  0
M  END
$$$$
