### 
### Created by X-TOOL on Mon Aug  2 16:11:42 2021
### 

@<TRIPOS>MOLECULE
6bcy_ligand
  164   164     1     0     0
SMALL
GAST_HUCK


@<TRIPOS>ATOM
      1 N          -5.6610   -5.5970   -7.5490 N.4       1 THR         0.2398
      2 CA         -4.4060   -6.2040   -7.9720 C.3       1 THR         0.0910
      3 C          -4.6220   -7.0130   -9.2550 C.2       1 THR         0.2293
      4 O          -5.7640   -7.2620   -9.6460 O.2       1 THR        -0.3906
      5 CB         -3.8260   -7.1170   -6.8840 C.3       1 THR         0.1120
      6 OG1        -4.2320   -6.6470   -5.5940 O.3       1 THR        -0.3840
      7 CG2        -2.3050   -7.1220   -6.9600 C.3       1 THR        -0.0314
      8 N          -3.5350   -7.4380   -9.9020 N.am      1 THR        -0.2608
      9 CA         -3.6200   -8.1180  -11.1870 C.3       1 THR         0.1326
     10 C          -2.8110   -9.4080  -11.1630 C.2       1 THR         0.2041
     11 O          -1.9490   -9.6200  -10.3060 O.2       1 THR        -0.3944
     12 CB         -3.1340   -7.2200  -12.3390 C.3       1 THR        -0.0008
     13 CG         -4.2370   -6.8170  -13.3150 C.3       1 THR         0.0044
     14 CD         -4.8800   -8.0120  -14.0070 C.2       1 THR         0.0350
     15 OE1        -4.2480   -9.0900  -14.0600 O.co2     1 THR        -0.5690
     16 OE2        -6.0220   -7.8740  -14.4920 O.co2     1 THR        -0.5690
     17 N          -3.1060  -10.2690  -12.1350 N.am      1 THR        -0.2616
     18 CA         -2.4640  -11.5710  -12.2380 C.3       1 THR         0.1476
     19 C          -1.1560  -11.4500  -13.0080 C.2       1 THR         0.2063
     20 O          -1.1160  -10.8650  -14.0940 O.2       1 THR        -0.3942
     21 CB         -3.4020  -12.5600  -12.9300 C.3       1 THR         0.0773
     22 CG         -4.8460  -12.3880  -12.5010 C.2       1 THR         0.1780
     23 OD1        -5.7430  -12.2770  -13.3360 O.2       1 THR        -0.3970
     24 ND2        -5.0760  -12.3500  -11.1950 N.am      1 THR        -0.3007
     25 N          -0.0890  -12.0050  -12.4460 N.am      1 THR        -0.2636
     26 CA          1.2260  -11.9260  -13.0660 C.3       1 THR         0.1310
     27 C           1.3570  -12.9480  -14.1880 C.2       1 THR         0.2040
     28 O           0.9940  -14.1160  -14.0310 O.2       1 THR        -0.3944
     29 CB          2.3180  -12.1350  -12.0150 C.3       1 THR        -0.0122
     30 CG          2.0970  -11.2980  -10.7700 C.3       1 THR        -0.0440
     31 CD          3.3890  -10.7130  -10.2410 C.3       1 THR        -0.0124
     32 CE          3.1150   -9.6430   -9.2020 C.3       1 THR        -0.0354
     33 NZ          3.9800   -9.7990   -8.0030 N.4       1 THR         0.2185
     34 N           1.8580  -12.4850  -15.3280 N.am      1 THR        -0.2611
     35 CA          2.1300  -13.3370  -16.4780 C.3       1 THR         0.1612
     36 CB          1.0480  -13.1700  -17.5360 C.3       1 THR         0.1262
     37 CG2        -0.2120  -13.9390  -17.1180 C.3       1 THR        -0.0298
     38 OG1         0.7790  -11.7720  -17.6540 O.3       1 THR        -0.2685
     39 P           0.1190  -11.4330  -19.0840 P.3       1 THR         0.2014
     40 O1P         0.7350  -12.3510  -20.2520 O.co2     1 THR        -0.5537
     41 O2P         0.4160   -9.8840  -19.4260 O.co2     1 THR        -0.5537
     42 O3P        -1.3470  -11.6380  -19.0030 O.co2     1 THR        -0.5537
     43 C           3.5010  -12.9630  -17.0340 C.2       1 THR         0.2068
     44 O           3.9620  -11.8400  -16.8330 O.2       1 THR        -0.3943
     45 N           4.1500  -13.8950  -17.7240 N.am      1 THR        -0.2636
     46 CA          5.4560  -13.6320  -18.3260 C.3       1 THR         0.1314
     47 C           5.4100  -13.7830  -19.8440 C.2       1 THR         0.2064
     48 O           4.7000  -14.6430  -20.3550 O.2       1 THR        -0.3942
     49 CB          6.5140  -14.5730  -17.7490 C.3       1 THR        -0.0101
     50 CG          6.9300  -14.3190  -16.3000 C.3       1 THR        -0.0425
     51 CD1         7.8970  -15.3960  -15.8420 C.3       1 THR        -0.0625
     52 CD2         7.5550  -12.9370  -16.1400 C.3       1 THR        -0.0625
     53 N           6.1630  -12.9430  -20.5760 N.am      1 THR        -0.2498
     54 CA          6.9500  -11.8150  -20.0660 C.3       1 THR         0.1338
     55 C           6.0550  -10.6370  -19.6950 C.2       1 THR         0.2041
     56 O           4.9090  -10.5840  -20.1400 O.2       1 THR        -0.3944
     57 CB          7.8680  -11.4680  -21.2380 C.3       1 THR        -0.0104
     58 CG          7.0960  -11.8660  -22.4350 C.3       1 THR        -0.0281
     59 CD          6.3060  -13.0860  -22.0360 C.3       1 THR         0.0369
     60 N           6.5600   -9.7120  -18.8870 N.am      1 THR        -0.2637
     61 CA          5.7750   -8.5780  -18.4220 C.3       1 THR         0.1311
     62 C           6.2710   -7.2960  -19.0760 C.2       1 THR         0.2040
     63 O           7.4790   -7.0790  -19.2090 O.2       1 THR        -0.3944
     64 CB          5.8250   -8.4570  -16.8950 C.3       1 THR        -0.0092
     65 CG          7.2120   -8.5210  -16.2670 C.3       1 THR        -0.0156
     66 CD          7.0980   -8.8250  -14.7790 C.3       1 THR         0.0627
     67 NE          8.3290   -8.5390  -14.0440 N.pl3     1 THR        -0.2723
     68 CZ          8.6560   -7.3450  -13.5550 C.cat     1 THR         0.2882
     69 NH1         9.7960   -7.1880  -12.8970 N.pl3     1 THR        -0.2849
     70 NH2         7.8500   -6.3040  -13.7270 N.pl3     1 THR        -0.2849
     71 N           5.3260   -6.4580  -19.4930 N.am      1 THR        -0.2616
     72 CA          5.6620   -5.2100  -20.1600 C.3       1 THR         0.1539
     73 C           6.3740   -4.2660  -19.2000 C.2       1 THR         0.2057
     74 O           5.9920   -4.1350  -18.0330 O.2       1 THR        -0.3943
     75 CB          4.3970   -4.5480  -20.7070 C.3       1 THR         0.0843
     76 OG          3.6790   -5.4380  -21.5440 O.3       1 THR        -0.3903
     77 N           7.4130   -3.6040  -19.6980 N.am      1 THR        -0.2672
     78 CA          8.1910   -2.6820  -18.8810 C.3       1 THR         0.1173
     79 C           7.4260   -1.3810  -18.6570 C.2       1 THR         0.0623
     80 O           6.2310   -1.2930  -18.9450 O.co2     1 THR        -0.5665
     81 CB          9.5420   -2.3940  -19.5380 C.3       1 THR         0.0789
     82 OG          9.3820   -1.6300  -20.7210 O.3       1 THR        -0.3910
     83 OXT         7.9870   -0.3910  -18.1830 O.co2     1 THR        -0.5665
     84 H1         -6.0131   -5.0054   -8.2853 H         1 THR         0.2016
     85 H2         -5.5047   -5.0449   -6.7202 H         1 THR         0.2016
     86 H3         -6.3336   -6.3206   -7.3489 H         1 THR         0.2016
     87 H4         -3.6828   -5.4007   -8.1761 H         1 THR         0.1125
     88 H5         -4.2002   -8.1405   -7.0337 H         1 THR         0.0674
     89 H6         -3.8710   -7.2147   -4.9233 H         1 THR         0.2102
     90 H7         -1.9009   -7.7793   -6.1760 H         1 THR         0.0258
     91 H8         -1.9271   -6.0996   -6.8120 H         1 THR         0.0258
     92 H9         -1.9884   -7.4908   -7.9468 H         1 THR         0.0258
     93 H10        -2.6356   -7.2850   -9.4924 H         1 THR         0.1885
     94 H11        -4.6746   -8.3716  -11.3699 H         1 THR         0.0801
     95 H12        -2.3579   -7.7631  -12.8982 H         1 THR         0.0330
     96 H13        -2.7023   -6.3052  -11.9070 H         1 THR         0.0330
     97 H14        -3.8039   -6.1582  -14.0821 H         1 THR         0.0433
     98 H15        -5.0150   -6.2719  -12.7603 H         1 THR         0.0433
     99 H16        -3.7913  -10.0125  -12.8166 H         1 THR         0.1885
    100 H17        -2.2449  -11.9403  -11.2253 H         1 THR         0.0826
    101 H18        -3.0803  -13.5827  -12.6838 H         1 THR         0.0551
    102 H19        -3.3364  -12.4067  -14.0173 H         1 THR         0.0551
    103 H20        -6.0097  -12.2382  -10.8548 H         1 THR         0.1814
    104 H21        -4.3157  -12.4331  -10.5508 H         1 THR         0.1814
    105 H22        -0.1908  -12.4886  -11.5766 H         1 THR         0.1883
    106 H23         1.3467  -10.9215  -13.4978 H         1 THR         0.0800
    107 H24         3.2881  -11.8616  -12.4557 H         1 THR         0.0312
    108 H25         2.3319  -13.1967  -11.7278 H         1 THR         0.0312
    109 H26         1.6496  -11.9325   -9.9907 H         1 THR         0.0269
    110 H27         1.4085  -10.4753  -11.0131 H         1 THR         0.0269
    111 H28         3.9511  -10.2686  -11.0756 H         1 THR         0.0317
    112 H29         3.9861  -11.5151   -9.7826 H         1 THR         0.0317
    113 H30         2.0618   -9.7102   -8.8917 H         1 THR         0.0813
    114 H31         3.3030   -8.6561   -9.6499 H         1 THR         0.0813
    115 H32         3.7678   -9.0712   -7.3386 H         1 THR         0.1994
    116 H33         4.9480   -9.7327   -8.2761 H         1 THR         0.1994
    117 H34         3.8107  -10.6987   -7.5812 H         1 THR         0.1994
    118 H35         2.0574  -11.5077  -15.4000 H         1 THR         0.1884
    119 H36         2.1466  -14.3881  -16.1542 H         1 THR         0.0830
    120 H37         1.4051  -13.5601  -18.5005 H         1 THR         0.0695
    121 H38        -0.9894  -13.8143  -17.8862 H         1 THR         0.0260
    122 H39        -0.5791  -13.5472  -16.1579 H         1 THR         0.0260
    123 H40         0.0290  -15.0068  -17.0102 H         1 THR         0.0260
    124 H41         3.7350  -14.7981  -17.8341 H         1 THR         0.1883
    125 H42         5.7416  -12.5966  -18.0885 H         1 THR         0.0800
    126 H43         7.4143  -14.4892  -18.3755 H         1 THR         0.0315
    127 H44         6.1194  -15.5980  -17.8094 H         1 THR         0.0315
    128 H45         6.0308  -14.3657  -15.6681 H         1 THR         0.0298
    129 H46         8.1908  -15.2055  -14.7992 H         1 THR         0.0232
    130 H47         8.7908  -15.3829  -16.4830 H         1 THR         0.0232
    131 H48         7.4100  -16.3798  -15.9118 H         1 THR         0.0232
    132 H49         6.8411  -12.1706  -16.4762 H         1 THR         0.0232
    133 H50         8.4707  -12.8763  -16.7464 H         1 THR         0.0232
    134 H51         7.8038  -12.7673  -15.0820 H         1 THR         0.0232
    135 H52         7.5372  -12.1149  -19.1855 H         1 THR         0.0802
    136 H53         8.8099  -12.0327  -21.1760 H         1 THR         0.0313
    137 H54         8.0871  -10.3902  -21.2559 H         1 THR         0.0313
    138 H55         7.7761  -12.1064  -23.2655 H         1 THR         0.0287
    139 H56         6.4181  -11.0549  -22.7392 H         1 THR         0.0287
    140 H57         5.3223  -13.0953  -22.5281 H         1 THR         0.0524
    141 H58         6.8513  -14.0072  -22.2890 H         1 THR         0.0524
    142 H59         7.5105   -9.7974  -18.5883 H         1 THR         0.1883
    143 H60         4.7282   -8.7376  -18.7197 H         1 THR         0.0800
    144 H61         5.2256   -9.2767  -16.4722 H         1 THR         0.0313
    145 H62         5.3741   -7.4925  -16.6184 H         1 THR         0.0313
    146 H63         7.7183   -7.5540  -16.4032 H         1 THR         0.0301
    147 H64         7.7971   -9.3134  -16.7566 H         1 THR         0.0301
    148 H65         6.8554   -9.8908  -14.6561 H         1 THR         0.0689
    149 H66         6.2871   -8.2133  -14.3569 H         1 THR         0.0689
    150 H67         8.9891   -9.3154  -13.8942 H         1 THR         0.2642
    151 H68        10.0492   -6.2641  -12.5185 H         1 THR         0.2615
    152 H69        10.4286   -7.9899  -12.7642 H         1 THR         0.2615
    153 H70         6.9626   -6.4185  -14.2372 H         1 THR         0.2615
    154 H71         8.1121   -5.3819  -13.3502 H         1 THR         0.2615
    155 H72         4.3648   -6.6908  -19.3449 H         1 THR         0.1884
    156 H73         6.3363   -5.4311  -21.0005 H         1 THR         0.0823
    157 H74         4.6794   -3.6573  -21.2875 H         1 THR         0.0606
    158 H75         3.7549   -4.2489  -19.8654 H         1 THR         0.0606
    159 H76         3.4296   -6.2077  -21.0460 H         1 THR         0.2097
    160 H77         7.6667   -3.7418  -20.6554 H         1 THR         0.1876
    161 H78         8.3717   -3.1524  -17.9032 H         1 THR         0.0749
    162 H79        10.0297   -3.3474  -19.7894 H         1 THR         0.0599
    163 H80        10.1729   -1.8344  -18.8317 H         1 THR         0.0599
    164 H81        10.2338   -1.4656  -21.1081 H         1 THR         0.2096
@<TRIPOS>BOND
     1    1    2 1  
     2    2    3 1  
     3    2    5 1  
     4    3    4 2  
     5    3    8 am 
     6    5    6 1  
     7    5    7 1  
     8    8    9 1  
     9    9   10 1  
    10    9   12 1  
    11   10   11 2  
    12   10   17 am 
    13   12   13 1  
    14   13   14 1  
    15   14   15 ar 
    16   14   16 ar 
    17   17   18 1  
    18   18   19 1  
    19   18   21 1  
    20   19   20 2  
    21   19   25 am 
    22   21   22 1  
    23   22   23 2  
    24   22   24 am 
    25   25   26 1  
    26   26   27 1  
    27   26   29 1  
    28   27   28 2  
    29   27   34 am 
    30   29   30 1  
    31   30   31 1  
    32   31   32 1  
    33   32   33 1  
    34   34   35 1  
    35   35   36 1  
    36   35   43 1  
    37   36   37 1  
    38   36   38 1  
    39   38   39 1  
    40   39   40 ar 
    41   39   41 ar 
    42   39   42 ar 
    43   43   44 2  
    44   43   45 am 
    45   45   46 1  
    46   46   47 1  
    47   46   49 1  
    48   47   48 2  
    49   47   53 am 
    50   49   50 1  
    51   50   51 1  
    52   50   52 1  
    53   53   54 1  
    54   53   59 1  
    55   54   55 1  
    56   54   57 1  
    57   55   56 2  
    58   55   60 am 
    59   57   58 1  
    60   58   59 1  
    61   60   61 1  
    62   61   62 1  
    63   61   64 1  
    64   62   63 2  
    65   62   71 am 
    66   64   65 1  
    67   65   66 1  
    68   66   67 1  
    69   67   68 ar 
    70   68   69 ar 
    71   68   70 ar 
    72   71   72 1  
    73   72   73 1  
    74   72   75 1  
    75   73   74 2  
    76   73   77 am 
    77   75   76 1  
    78   77   78 1  
    79   78   79 1  
    80   78   81 1  
    81   79   80 ar 
    82   79   83 ar 
    83   81   82 1  
    84    1   84 1  
    85    1   85 1  
    86    1   86 1  
    87    2   87 1  
    88    5   88 1  
    89    6   89 1  
    90    7   90 1  
    91    7   91 1  
    92    7   92 1  
    93    8   93 1  
    94    9   94 1  
    95   12   95 1  
    96   12   96 1  
    97   13   97 1  
    98   13   98 1  
    99   17   99 1  
   100   18  100 1  
   101   21  101 1  
   102   21  102 1  
   103   24  103 1  
   104   24  104 1  
   105   25  105 1  
   106   26  106 1  
   107   29  107 1  
   108   29  108 1  
   109   30  109 1  
   110   30  110 1  
   111   31  111 1  
   112   31  112 1  
   113   32  113 1  
   114   32  114 1  
   115   33  115 1  
   116   33  116 1  
   117   33  117 1  
   118   34  118 1  
   119   35  119 1  
   120   36  120 1  
   121   37  121 1  
   122   37  122 1  
   123   37  123 1  
   124   45  124 1  
   125   46  125 1  
   126   49  126 1  
   127   49  127 1  
   128   50  128 1  
   129   51  129 1  
   130   51  130 1  
   131   51  131 1  
   132   52  132 1  
   133   52  133 1  
   134   52  134 1  
   135   54  135 1  
   136   57  136 1  
   137   57  137 1  
   138   58  138 1  
   139   58  139 1  
   140   59  140 1  
   141   59  141 1  
   142   60  142 1  
   143   61  143 1  
   144   64  144 1  
   145   64  145 1  
   146   65  146 1  
   147   65  147 1  
   148   66  148 1  
   149   66  149 1  
   150   67  150 1  
   151   69  151 1  
   152   69  152 1  
   153   70  153 1  
   154   70  154 1  
   155   71  155 1  
   156   72  156 1  
   157   75  157 1  
   158   75  158 1  
   159   76  159 1  
   160   77  160 1  
   161   78  161 1  
   162   81  162 1  
   163   81  163 1  
   164   82  164 1  
@<TRIPOS>SUBSTRUCTURE
     1 THR         1

