5owt_ligand
  -I-interpret- 

 39 42  0  0  0  0  0  0  0  0999 V2000
  -39.5280  -10.7050    3.4340 O   0  0  0  0  0
  -38.6250  -10.3800    4.1950 C   0  0  0  0  0
  -38.5170   -9.1130    4.5280 N   0  0  0  0  0
  -37.5100   -9.0320    5.3560 C   0  0  0  0  0
  -37.1480   -7.9310    5.7760 O   0  0  0  0  0
  -37.6840  -11.1490    4.7760 N   0  0  0  0  0
  -36.8770  -10.2320    5.3940 C   0  0  0  0  0
  -35.4230  -10.2850    5.1290 C   0  0  0  0  0
  -36.9480  -10.6120    6.8490 C   0  0  0  0  0
  -36.2590   -9.8910    7.8410 C   0  0  0  0  0
  -36.2690  -10.2130    9.2040 C   0  0  0  0  0
  -37.6520  -11.7050    7.3660 C   0  0  0  0  0
  -37.7120  -12.0180    8.7430 C   0  0  0  0  0
  -37.0010  -11.3010    9.6850 C   0  0  0  0  0
  -37.0630  -11.6000   11.0680 C   0  0  0  0  0
  -36.2960  -10.8910   12.0170 N   0  0  0  0  0
  -36.3240  -11.1100   13.3600 C   0  0  0  0  0
  -35.5700  -10.4640   14.1230 O   0  0  0  0  0
  -37.8610  -12.5420   11.5230 N   0  0  0  0  0
  -37.9160  -12.8180   12.8300 C   0  0  0  0  0
  -37.1900  -12.1090   13.7880 C   0  0  0  0  0
  -38.7750  -13.8360   13.2350 C   0  0  0  0  0
  -38.8920  -14.1630   14.5980 C   0  0  0  0  0
  -38.1780  -13.4210   15.5450 C   0  0  0  0  0
  -37.2960  -12.4130   15.1400 C   0  0  0  0  0
  -39.1040   -8.3444    4.2037 H   0  0  0  0  0
  -37.5947  -12.1649    4.7595 H   0  0  0  0  0
  -34.9103   -9.5769    5.7801 H   0  0  0  0  0
  -35.0558  -11.2924    5.3249 H   0  0  0  0  0
  -35.2351  -10.0246    4.0874 H   0  0  0  0  0
  -35.6783   -9.0234    7.5279 H   0  0  0  0  0
  -35.6951   -9.6035    9.9021 H   0  0  0  0  0
  -38.1839  -12.3513    6.6678 H   0  0  0  0  0
  -38.3371  -12.8487    9.0706 H   0  0  0  0  0
  -35.6745  -10.1601   11.6707 H   0  0  0  0  0
  -39.3588  -14.3814   12.4934 H   0  0  0  0  0
  -39.5327  -14.9865   14.9133 H   0  0  0  0  0
  -38.3098  -13.6297   16.6067 H   0  0  0  0  0
  -36.6997  -11.8731   15.8755 H   0  0  0  0  0
  1  2  2  0  0  0
  2  3  1  0  0  0
  2  6  1  0  0  0
  3  4  1  0  0  0
  4  5  2  0  0  0
  4  7  1  0  0  0
  6  7  1  0  0  0
  7  8  1  0  0  0
  7  9  1  0  0  0
  9 10  4  0  0  0
  9 12  4  0  0  0
 10 11  4  0  0  0
 11 14  4  0  0  0
 12 13  4  0  0  0
 13 14  4  0  0  0
 14 15  1  0  0  0
 15 16  1  0  0  0
 15 19  2  0  0  0
 16 17  1  0  0  0
 17 18  2  0  0  0
 17 21  1  0  0  0
 19 20  1  0  0  0
 20 21  4  0  0  0
 20 22  4  0  0  0
 21 25  4  0  0  0
 22 23  4  0  0  0
 23 24  4  0  0  0
 24 25  4  0  0  0
  3 26  1  0  0  0
  6 27  1  0  0  0
  8 28  1  0  0  0
  8 29  1  0  0  0
  8 30  1  0  0  0
 10 31  1  0  0  0
 11 32  1  0  0  0
 12 33  1  0  0  0
 13 34  1  0  0  0
 16 35  1  0  0  0
 22 36  1  0  0  0
 23 37  1  0  0  0
 24 38  1  0  0  0
 25 39  1  0  0  0
M  END
$$$$
