### 
### Created by X-TOOL on Mon Sep 10 21:13:04 2018
### 

@<TRIPOS>MOLECULE
3h9k_ligand
   31    32     1     0     0
SMALL
GAST_HUCK


@<TRIPOS>ATOM
      1 N1         25.5530  -11.0030  100.8590 N.am      1 UFP        -0.1661
      2 C2         25.8870  -10.2550   99.7360 C.2       1 UFP         0.3294
      3 N3         26.0310  -10.8670   98.5310 N.am      1 UFP        -0.1842
      4 C4         25.8710  -12.2220   98.3970 C.2       1 UFP         0.2212
      5 C5         25.5320  -13.0150   99.5520 C.2       1 UFP         0.1931
      6 C6         25.3870  -12.3820  100.7530 C.2       1 UFP         0.0879
      7 O2         26.0350   -9.0490   99.8090 O.2       1 UFP        -0.3830
      8 O4         26.0020  -12.7640   97.3140 O.2       1 UFP        -0.4071
      9 F5         25.3640  -14.3600   99.4490 F         1 UFP        -0.2165
     10 C1'        25.3700  -10.4020  102.2150 C.3       1 UFP         0.1777
     11 C2'        26.5210   -9.4900  102.7100 C.3       1 UFP         0.0312
     12 C3'        25.7860   -8.5990  103.7660 C.3       1 UFP         0.0889
     13 C4'        24.3480   -9.1630  103.7160 C.3       1 UFP         0.1156
     14 O3'        26.3540   -8.7920  105.0690 O.3       1 UFP        -0.3890
     15 O4'        24.2170   -9.5530  102.3280 O.3       1 UFP        -0.3391
     16 C5'        23.2980   -8.1250  104.1540 C.3       1 UFP         0.1071
     17 O5'        21.9730   -8.6850  104.1030 O.3       1 UFP        -0.2734
     18 P          20.8820   -7.6280  104.6130 P.3       1 UFP         0.2008
     19 O1P        20.9090   -6.3140  103.7180 O.co2     1 UFP        -0.5537
     20 O2P        19.4260   -8.2660  104.5270 O.co2     1 UFP        -0.5537
     21 O3P        21.1950   -7.2340  106.1180 O.co2     1 UFP        -0.5537
     22 H1         26.2581  -10.3182   97.7265 H         1 UFP         0.2260
     23 H2         25.1383  -12.9629  101.6399 H         1 UFP         0.1107
     24 H3         25.2637  -11.2429  102.9161 H         1 UFP         0.0964
     25 H4         26.9330   -8.8832  101.8902 H         1 UFP         0.0344
     26 H5         27.3277  -10.0775  103.1726 H         1 UFP         0.0344
     27 H6         25.8169   -7.5337  103.4939 H         1 UFP         0.0622
     28 H7         24.2576  -10.0433  104.3693 H         1 UFP         0.0649
     29 H8         27.2365   -8.4407  105.0837 H         1 UFP         0.2099
     30 H9         23.3481   -7.2557  103.4819 H         1 UFP         0.0639
     31 H10        23.5148   -7.8052  105.1839 H         1 UFP         0.0639
@<TRIPOS>BOND
     1    1    2 am 
     2    1    6 1  
     3    1   10 1  
     4    2    3 am 
     5    2    7 2  
     6    3    4 am 
     7    4    5 1  
     8    4    8 2  
     9    5    6 2  
    10    5    9 1  
    11   10   11 1  
    12   10   15 1  
    13   11   12 1  
    14   12   13 1  
    15   12   14 1  
    16   13   15 1  
    17   13   16 1  
    18   16   17 1  
    19   17   18 1  
    20   18   19 ar 
    21   18   20 ar 
    22   18   21 ar 
    23    3   22 1  
    24    6   23 1  
    25   10   24 1  
    26   11   25 1  
    27   11   26 1  
    28   12   27 1  
    29   13   28 1  
    30   14   29 1  
    31   16   30 1  
    32   16   31 1  
@<TRIPOS>SUBSTRUCTURE
     1 UFP         1

