3h9k_ligand
  -I-interpret- 

 33 34  0  0  0  0  0  0  0  0999 V2000
   25.5530  -11.0030  100.8590 N   0  0  0  0  0
   25.8870  -10.2550   99.7360 C   0  0  0  0  0
   26.0310  -10.8670   98.5310 N   0  0  0  0  0
   25.8710  -12.2220   98.3970 C   0  0  0  0  0
   25.5320  -13.0150   99.5520 C   0  0  0  0  0
   25.3870  -12.3820  100.7530 C   0  0  0  0  0
   26.0350   -9.0490   99.8090 O   0  0  0  0  0
   26.0020  -12.7640   97.3140 O   0  0  0  0  0
   25.3640  -14.3600   99.4490 F   0  0  0  0  0
   25.3700  -10.4020  102.2150 C   0  0  0  0  0
   26.5210   -9.4900  102.7100 C   0  0  0  0  0
   25.7860   -8.5990  103.7660 C   0  0  0  0  0
   24.3480   -9.1630  103.7160 C   0  0  0  0  0
   26.3540   -8.7920  105.0690 O   0  0  0  0  0
   24.2170   -9.5530  102.3280 O   0  0  0  0  0
   23.2980   -8.1250  104.1540 C   0  0  0  0  0
   21.9730   -8.6850  104.1030 O   0  0  0  0  0
   20.8820   -7.6280  104.6130 P   0  0  0  0  0
   20.9090   -6.3140  103.7180 O   0  0  0  0  0
   19.4260   -8.2660  104.5270 O   0  0  0  0  0
   21.1950   -7.2340  106.1180 O   0  0  0  0  0
   26.2626  -10.3073   97.7104 H   0  0  0  0  0
   25.1380  -12.9635  101.6407 H   0  0  0  0  0
   25.2970  -11.3117  102.8109 H   0  0  0  0  0
   26.9961   -8.9178  101.9131 H   0  0  0  0  0
   27.3674  -10.0413  103.1196 H   0  0  0  0  0
   25.8509   -7.5297  103.5647 H   0  0  0  0  0
   24.1781   -9.9897  104.4057 H   0  0  0  0  0
   25.8921   -8.2389  105.7033 H   0  0  0  0  0
   23.3448   -7.2711  103.4781 H   0  0  0  0  0
   23.5114   -7.8201  105.1785 H   0  0  0  0  0
   20.7203   -6.5456  102.8057 H   0  0  0  0  0
   19.2357   -8.5047  103.6168 H   0  0  0  0  0
  1  2  1  0  0  0
  1  6  1  0  0  0
  1 10  1  0  0  0
  2  3  1  0  0  0
  2  7  2  0  0  0
  3  4  1  0  0  0
  4  5  1  0  0  0
  4  8  2  0  0  0
  5  6  2  0  0  0
  5  9  1  0  0  0
 10 11  1  0  0  0
 10 15  1  0  0  0
 11 12  1  0  0  0
 12 13  1  0  0  0
 12 14  1  0  0  0
 13 15  1  0  0  0
 13 16  1  0  0  0
 16 17  1  0  0  0
 17 18  1  0  0  0
 18 19  1  0  0  0
 18 20  1  0  0  0
 18 21  2  0  0  0
  3 22  1  0  0  0
  6 23  1  0  0  0
 10 24  1  0  0  0
 11 25  1  0  0  0
 11 26  1  0  0  0
 12 27  1  0  0  0
 13 28  1  0  0  0
 14 29  1  0  0  0
 16 30  1  0  0  0
 16 31  1  0  0  0
 19 32  1  0  0  0
 20 33  1  0  0  0
M  END
$$$$
