5uch_ligand
  -I-interpret- 

 42 44  0  0  0  0  0  0  0  0999 V2000
   26.7300  100.5240   60.9250 C   0  0  0  0  0
   28.1360   99.8600   59.1330 C   0  0  0  0  0
   28.7280  101.0220   62.8130 C   0  0  0  0  0
   19.9000  100.4320   56.5860 C   0  0  0  0  0
   26.4950   99.9800   57.2370 C   0  0  0  0  0
   20.8990  100.5650   55.4480 C   0  0  0  0  0
   28.0380  100.3320   60.5880 C   0  0  0  0  0
   29.0810  100.5660   61.5010 C   0  0  0  0  0
   27.4220  101.2140   63.1650 C   0  0  0  0  0
   19.1650  100.3300   57.4430 N   0  0  0  0  0
   21.9800   97.3060   58.0670 C   0  0  0  0  0
   21.9010   97.9100   56.6170 C   0  0  0  0  0
   22.2810   96.8450   55.5530 C   0  0  0  0  0
   22.8370   99.1290   56.4970 C   0  0  0  0  0
   24.1560   98.9900   56.9160 C   0  0  0  0  0
   25.0320  100.1020   56.7930 C   0  0  0  0  0
   24.5900  101.3400   56.2480 C   0  0  0  0  0
   25.5720  102.3830   56.1780 O   0  0  0  0  0
   23.2800  101.4930   55.8370 C   0  0  0  0  0
   22.3860  100.3920   55.9430 C   0  0  0  0  0
   27.3780   99.8380   56.4300 O   0  0  0  0  0
   26.8020  100.0020   58.6250 N   0  0  0  0  0
   26.3860  100.9810   62.2550 C   0  0  0  0  0
   25.8420  100.1710   59.7090 C   0  0  0  0  0
   29.0183   99.4988   58.6047 H   0  0  0  0  0
   29.5142  101.2188   63.5418 H   0  0  0  0  0
   20.7965  101.5621   55.0197 H   0  0  0  0  0
   20.6899   99.7829   54.7181 H   0  0  0  0  0
   30.1222  100.4062   61.2208 H   0  0  0  0  0
   27.1834  101.5547   64.1725 H   0  0  0  0  0
   21.2893   96.4666   58.1477 H   0  0  0  0  0
   22.9960   96.9622   58.2611 H   0  0  0  0  0
   21.7092   98.0721   58.7936 H   0  0  0  0  0
   20.8742   98.2278   56.4362 H   0  0  0  0  0
   23.2985   96.4988   55.7346 H   0  0  0  0  0
   21.5919   96.0032   55.6211 H   0  0  0  0  0
   22.2185   97.2879   54.5590 H   0  0  0  0  0
   24.5108   98.0464   57.3306 H   0  0  0  0  0
   25.1747  103.1700   55.7981 H   0  0  0  0  0
   22.9356  102.4463   55.4362 H   0  0  0  0  0
   25.3459  101.1394   62.5398 H   0  0  0  0  0
   24.7571  100.0721   59.6714 H   0  0  0  0  0
  7  1  4  0  0  0
  1 23  4  0  0  0
  1 24  4  0  0  0
  2  7  4  0  0  0
 22  2  4  0  0  0
  8  3  4  0  0  0
  3  9  4  0  0  0
  6  4  1  0  0  0
  4 10  3  0  0  0
 16  5  1  0  0  0
  5 21  2  0  0  0
  5 22  1  0  0  0
 20  6  1  0  0  0
  7  8  4  0  0  0
 23  9  4  0  0  0
 12 11  1  0  0  0
 12 13  1  0  0  0
 14 12  1  0  0  0
 15 14  4  0  0  0
 14 20  4  0  0  0
 15 16  4  0  0  0
 16 17  4  0  0  0
 17 18  1  0  0  0
 17 19  4  0  0  0
 19 20  4  0  0  0
 22 24  4  0  0  0
  2 25  1  0  0  0
  3 26  1  0  0  0
  6 27  1  0  0  0
  6 28  1  0  0  0
  8 29  1  0  0  0
  9 30  1  0  0  0
 11 31  1  0  0  0
 11 32  1  0  0  0
 11 33  1  0  0  0
 12 34  1  0  0  0
 13 35  1  0  0  0
 13 36  1  0  0  0
 13 37  1  0  0  0
 15 38  1  0  0  0
 18 39  1  0  0  0
 19 40  1  0  0  0
 23 41  1  0  0  0
 24 42  1  0  0  0
M  END
$$$$
