5jf6_ligand
  -I-interpret- 

 23 24  0  0  0  0  0  0  0  0999 V2000
   -6.7710   -1.0960    6.4310 Br  0  0  0  0  0
   -5.1010   -3.8570   11.7420 N   0  0  0  0  0
   -3.6050   -2.3010   12.5520 O   0  0  0  0  0
   -5.5930    1.9100   11.5100 N   0  0  0  0  0
   -5.6390    0.8460   12.3990 C   0  0  0  0  0
   -5.8330   -0.3100   11.7390 C   0  0  0  0  0
   -6.0300    0.0100   10.3590 C   0  0  0  0  0
   -6.2720   -0.7350    9.2020 C   0  0  0  0  0
   -6.3990   -0.0660    8.0310 C   0  0  0  0  0
   -6.2970    1.3160    7.9180 C   0  0  0  0  0
   -6.0220    2.0800    9.0490 C   0  0  0  0  0
   -5.8530    1.4200   10.2500 C   0  0  0  0  0
   -5.9480   -1.6700   12.4030 C   0  0  0  0  0
   -4.7540   -2.6030   12.1750 C   0  0  0  0  0
   -4.0500   -4.6480   11.5970 O   0  0  0  0  0
   -6.0604   -4.1472   11.5531 H   0  0  0  0  0
   -5.5329    0.9343   13.4802 H   0  0  0  0  0
   -6.3560   -1.8211    9.2405 H   0  0  0  0  0
   -6.4315    1.7984    6.9499 H   0  0  0  0  0
   -5.9426    3.1654    8.9882 H   0  0  0  0  0
   -6.8190   -2.1605   11.9683 H   0  0  0  0  0
   -6.0090   -1.4925   13.4767 H   0  0  0  0  0
   -4.3401   -5.5114   11.2937 H   0  0  0  0  0
  9  1  1  0  0  0
 14  2  1  0  0  0
  2 15  1  0  0  0
 14  3  2  0  0  0
  5  4  4  0  0  0
 12  4  4  0  0  0
  6  5  4  0  0  0
  6  7  4  0  0  0
 13  6  1  0  0  0
  7  8  4  0  0  0
  7 12  4  0  0  0
  8  9  4  0  0  0
  9 10  4  0  0  0
 11 10  4  0  0  0
 12 11  4  0  0  0
 13 14  1  0  0  0
  2 16  1  0  0  0
  5 17  1  0  0  0
  8 18  1  0  0  0
 10 19  1  0  0  0
 11 20  1  0  0  0
 13 21  1  0  0  0
 13 22  1  0  0  0
 15 23  1  0  0  0
M  END
$$$$
