6haz_ligand
  -I-interpret- 

 38 40  0  0  0  0  0  0  0  0999 V2000
    4.6770  -10.2700    1.3650 C   0  0  0  0  0
    5.9050   -9.5940    1.2990 C   0  0  0  0  0
    7.0700  -10.3700    1.1580 C   0  0  0  0  0
    5.9640   -8.1040    1.3880 C   0  0  0  0  0
    4.8250   -7.2830    1.4460 C   0  0  0  0  0
    6.3400   -5.3840    1.4990 C   0  0  0  0  0
    7.1990   -7.5770    1.4200 N   0  0  0  0  0
    2.9890   -2.7970    1.0860 C   0  0  0  0  0
    2.7300   -5.3550    2.3720 C   0  0  0  0  0
    6.9990  -11.7700    1.1070 C   0  0  0  0  0
    3.7140   -4.0270    0.5900 C   0  0  0  0  0
    1.9540   -4.1480    2.8600 C   0  0  0  0  0
    5.7740  -12.4050    1.1890 C   0  0  0  0  0
    4.6160  -11.6610    1.3100 C   0  0  0  0  0
    5.0190   -5.8980    1.5150 C   0  0  0  0  0
    7.3820   -6.2290    1.4440 N   0  0  0  0  0
    6.6330   -4.0720    1.6200 N   0  0  0  0  0
    3.9660   -4.9400    1.7060 N   0  0  0  0  0
    1.7150   -3.1940    1.7410 N   0  3  0  0  0
    8.3190   -9.8250    1.0460 O   0  0  0  0  0
    3.7548   -9.6969    1.4610 H   0  0  0  0  0
    3.8225   -7.7107    1.4375 H   0  0  0  0  0
    2.7719   -2.1417    0.2425 H   0  0  0  0  0
    3.6175   -2.2742    1.8069 H   0  0  0  0  0
    2.1144   -5.9062    1.6612 H   0  0  0  0  0
    2.9835   -5.9808    3.2277 H   0  0  0  0  0
    7.9109  -12.3578    1.0026 H   0  0  0  0  0
    4.6644   -3.7300    0.1466 H   0  0  0  0  0
    3.0988   -4.5311   -0.1553 H   0  0  0  0  0
    2.5315   -3.6459    3.6362 H   0  0  0  0  0
    0.9933   -4.4801    3.2535 H   0  0  0  0  0
    5.7215  -13.4933    1.1582 H   0  0  0  0  0
    3.6506  -12.1643    1.3627 H   0  0  0  0  0
    5.8827   -3.3899    1.7304 H   0  0  0  0  0
    7.6048   -3.7626    1.6011 H   0  0  0  0  0
    1.1223   -3.6500    1.0473 H   0  0  0  0  0
    1.2699   -2.3572    2.1180 H   0  0  0  0  0
    8.9671  -10.5280    0.9598 H   0  0  0  0  0
  2  1  4  0  0  0
  1 14  4  0  0  0
  2  3  4  0  0  0
  4  2  1  0  0  0
  3 10  4  0  0  0
  3 20  1  0  0  0
  5  4  4  0  0  0
  4  7  4  0  0  0
 15  5  4  0  0  0
 15  6  4  0  0  0
  6 16  4  0  0  0
  6 17  1  0  0  0
 16  7  4  0  0  0
 11  8  1  0  0  0
  8 19  1  0  0  0
  9 12  1  0  0  0
 18  9  1  0  0  0
 10 13  4  0  0  0
 18 11  1  0  0  0
 12 19  1  0  0  0
 14 13  4  0  0  0
 15 18  1  0  0  0
  1 21  1  0  0  0
  5 22  1  0  0  0
  8 23  1  0  0  0
  8 24  1  0  0  0
  9 25  1  0  0  0
  9 26  1  0  0  0
 10 27  1  0  0  0
 11 28  1  0  0  0
 11 29  1  0  0  0
 12 30  1  0  0  0
 12 31  1  0  0  0
 13 32  1  0  0  0
 14 33  1  0  0  0
 17 34  1  0  0  0
 17 35  1  0  0  0
 19 36  1  0  0  0
 19 37  1  0  0  0
 20 38  1  0  0  0
M  END
$$$$
