5elf_ligand
  -I-interpret- 

112116  0  0  0  0  0  0  0  0999 V2000
  -28.1910   15.5890    3.9910 C   0  0  0  0  0
  -27.6520   14.2300    4.4130 C   0  0  0  0  0
  -28.6290   13.1050    4.1800 C   0  0  0  0  0
  -30.0360   13.4040    4.7160 C   0  0  0  0  0
  -30.5230   14.7520    4.1250 C   0  0  0  0  0
  -31.9270   15.1470    4.5990 C   0  0  0  0  0
  -28.1290   15.7220    2.5910 O   0  0  0  0  0
  -26.4940   13.9490    3.6470 O   0  0  0  0  0
  -28.1840   12.0720    4.9660 O   0  0  0  0  0
  -30.9070   12.3110    4.3080 O   0  0  0  0  0
  -29.5650   15.7740    4.4510 O   0  0  0  0  0
  -31.8720   15.1530    6.0400 O   0  0  0  0  0
  -31.9310   11.8790    5.2390 C   0  0  0  0  0
  -33.0560   11.1520    4.4850 C   0  0  0  0  0
  -33.9310   10.4090    5.4400 C   0  0  0  0  0
  -33.1280    9.5310    6.3910 C   0  0  0  0  0
  -32.1040   10.4290    7.0720 C   0  0  0  0  0
  -31.0620    9.7470    7.9210 C   0  0  0  0  0
  -33.8710   12.1410    3.8890 O   0  0  0  0  0
  -34.8210    9.5860    4.6570 O   0  0  0  0  0
  -32.5060    8.4830    5.6460 O   0  0  0  0  0
  -31.2650   10.9990    6.1000 O   0  0  0  0  0
  -31.7980    9.0550    8.9340 O   0  0  0  0  0
  -36.4150    9.9230    6.4570 O   0  0  0  0  0
  -35.9710    9.0460    5.3680 C   0  0  0  0  0
  -37.1500    8.7700    4.4040 C   0  0  0  0  0
  -36.6390    8.1330    3.1630 N   0  0  0  0  0
  -37.8710   10.0960    4.0450 C   0  0  0  0  0
  -39.0500    9.7930    3.2960 O   0  0  0  0  0
  -38.2910   10.8820    5.2870 C   0  0  0  0  0
  -39.1710   10.0290    6.0690 O   0  0  0  0  0
  -37.0980   11.2010    6.1300 C   0  0  0  0  0
  -37.5300   11.6250    7.5150 C   0  0  0  0  0
  -36.3090   11.9580    8.1800 O   0  0  0  0  0
  -37.2030    7.1020    2.4810 C   0  0  0  0  0
  -36.6890    6.6310    1.4590 O   0  0  0  0  0
  -38.5180    6.4740    3.0210 C   0  0  0  0  0
  -34.3870   11.8340    2.5690 C   0  0  0  0  0
  -35.4200   12.9040    2.1750 C   0  0  0  0  0
  -34.6810   14.2280    1.8950 C   0  0  0  0  0
  -33.6600   13.9940    0.7960 C   0  0  0  0  0
  -32.6500   13.0200    1.3560 C   0  0  0  0  0
  -31.4910   12.8130    0.3720 C   0  0  0  0  0
  -36.3900   13.0650    3.2440 O   0  0  0  0  0
  -35.5700   15.2340    1.4960 O   0  0  0  0  0
  -34.2920   13.3940   -0.3310 O   0  0  0  0  0
  -33.2830   11.7570    1.5960 O   0  0  0  0  0
  -27.4380   11.0790    4.2910 C   0  0  0  0  0
  -26.8440   10.2490    5.3770 C   0  0  0  0  0
  -27.8480    9.4040    6.0600 C   0  0  0  0  0
  -28.5480    8.5620    5.0420 C   0  0  0  0  0
  -29.1550    9.4730    3.9220 C   0  0  0  0  0
  -29.9150    8.7090    2.8360 C   0  0  0  0  0
  -26.3290   11.1820    6.2770 O   0  0  0  0  0
  -27.1230    8.5720    6.9900 O   0  0  0  0  0
  -27.5900    7.6210    4.5160 O   0  0  0  0  0
  -28.1590   10.2720    3.3080 O   0  0  0  0  0
  -27.5704   16.3578    4.4513 H   0  0  0  0  0
  -27.4490   14.2863    5.4825 H   0  0  0  0  0
  -28.6843   12.9178    3.1076 H   0  0  0  0  0
  -30.0405   13.4858    5.8029 H   0  0  0  0  0
  -30.5993   14.6357    3.0439 H   0  0  0  0  0
  -32.6785   14.4463    4.2352 H   0  0  0  0  0
  -32.2149   16.1239    4.2105 H   0  0  0  0  0
  -27.2229   15.5989    2.2988 H   0  0  0  0  0
  -25.8499   14.6495    3.7740 H   0  0  0  0  0
  -32.7319   15.3958    6.3909 H   0  0  0  0  0
  -32.3954   12.7081    5.7729 H   0  0  0  0  0
  -32.6169   10.4637    3.7628 H   0  0  0  0  0
  -34.4779   11.1241    6.0545 H   0  0  0  0  0
  -33.7571    9.0626    7.1479 H   0  0  0  0  0
  -32.7396   11.0856    7.6661 H   0  0  0  0  0
  -30.3618   10.4632    8.3510 H   0  0  0  0  0
  -30.4478    9.0648    7.3332 H   0  0  0  0  0
  -31.9984    7.9265    6.2412 H   0  0  0  0  0
  -31.1869    8.5951    9.5142 H   0  0  0  0  0
  -35.6438    8.1038    5.8077 H   0  0  0  0  0
  -37.8583    8.1023    4.8945 H   0  0  0  0  0
  -35.7713    8.5102    2.7819 H   0  0  0  0  0
  -37.1714   10.7048    3.4722 H   0  0  0  0  0
  -39.5025   10.6089    3.0697 H   0  0  0  0  0
  -38.7789   11.8087    4.9850 H   0  0  0  0  0
  -39.4515   10.4983    6.8581 H   0  0  0  0  0
  -36.5119   11.9461    5.5921 H   0  0  0  0  0
  -38.0775   10.8375    8.0329 H   0  0  0  0  0
  -38.2249   12.4644    7.4889 H   0  0  0  0  0
  -36.5013   12.2406    9.0771 H   0  0  0  0  0
  -39.2957    6.5534    2.2614 H   0  0  0  0  0
  -38.3468    5.4242    3.2591 H   0  0  0  0  0
  -38.8306    7.0055    3.9199 H   0  0  0  0  0
  -34.8801   10.8619    2.5760 H   0  0  0  0  0
  -35.9557   12.5999    1.2758 H   0  0  0  0  0
  -34.1913   14.5546    2.8124 H   0  0  0  0  0
  -33.1998   14.9315    0.4840 H   0  0  0  0  0
  -32.2586   13.4297    2.2872 H   0  0  0  0  0
  -31.8792   12.4175   -0.5666 H   0  0  0  0  0
  -30.9967   13.7671    0.1890 H   0  0  0  0  0
  -30.7767   12.1079    0.7971 H   0  0  0  0  0
  -37.0322   13.7333    2.9939 H   0  0  0  0  0
  -35.0816   16.0435    1.3295 H   0  0  0  0  0
  -33.6413   13.2489   -1.0217 H   0  0  0  0  0
  -26.6967   11.5631    3.6552 H   0  0  0  0  0
  -26.0989    9.5601    4.9790 H   0  0  0  0  0
  -28.5958   10.0004    6.5826 H   0  0  0  0  0
  -29.3782    8.0132    5.4867 H   0  0  0  0  0
  -29.8772   10.1019    4.4426 H   0  0  0  0  0
  -29.2396    8.0069    2.3472 H   0  0  0  0  0
  -30.7427    8.1633    3.2891 H   0  0  0  0  0
  -30.3023    9.4144    2.1008 H   0  0  0  0  0
  -25.9235   10.7223    7.0158 H   0  0  0  0  0
  -27.7398    8.0042    7.4577 H   0  0  0  0  0
  -28.0158    7.0666    3.8580 H   0  0  0  0  0
  1  2  1  0  0  0
  1  7  1  0  0  0
  1 11  1  0  0  0
  2  3  1  0  0  0
  2  8  1  0  0  0
  3  4  1  0  0  0
  3  9  1  0  0  0
  4  5  1  0  0  0
  4 10  1  0  0  0
  5  6  1  0  0  0
  5 11  1  0  0  0
  6 12  1  0  0  0
  9 48  1  0  0  0
 10 13  1  0  0  0
 13 14  1  0  0  0
 13 22  1  0  0  0
 14 15  1  0  0  0
 14 19  1  0  0  0
 15 16  1  0  0  0
 15 20  1  0  0  0
 16 17  1  0  0  0
 16 21  1  0  0  0
 17 18  1  0  0  0
 17 22  1  0  0  0
 18 23  1  0  0  0
 19 38  1  0  0  0
 20 25  1  0  0  0
 25 24  1  0  0  0
 24 32  1  0  0  0
 25 26  1  0  0  0
 26 27  1  0  0  0
 26 28  1  0  0  0
 27 35  1  0  0  0
 28 29  1  0  0  0
 28 30  1  0  0  0
 30 31  1  0  0  0
 30 32  1  0  0  0
 32 33  1  0  0  0
 33 34  1  0  0  0
 35 36  2  0  0  0
 35 37  1  0  0  0
 38 39  1  0  0  0
 38 47  1  0  0  0
 39 40  1  0  0  0
 39 44  1  0  0  0
 40 41  1  0  0  0
 40 45  1  0  0  0
 41 42  1  0  0  0
 41 46  1  0  0  0
 42 43  1  0  0  0
 42 47  1  0  0  0
 48 49  1  0  0  0
 48 57  1  0  0  0
 49 50  1  0  0  0
 49 54  1  0  0  0
 50 51  1  0  0  0
 50 55  1  0  0  0
 51 52  1  0  0  0
 51 56  1  0  0  0
 52 53  1  0  0  0
 52 57  1  0  0  0
  1 58  1  0  0  0
  2 59  1  0  0  0
  3 60  1  0  0  0
  4 61  1  0  0  0
  5 62  1  0  0  0
  6 63  1  0  0  0
  6 64  1  0  0  0
  7 65  1  0  0  0
  8 66  1  0  0  0
 12 67  1  0  0  0
 13 68  1  0  0  0
 14 69  1  0  0  0
 15 70  1  0  0  0
 16 71  1  0  0  0
 17 72  1  0  0  0
 18 73  1  0  0  0
 18 74  1  0  0  0
 21 75  1  0  0  0
 23 76  1  0  0  0
 25 77  1  0  0  0
 26 78  1  0  0  0
 27 79  1  0  0  0
 28 80  1  0  0  0
 29 81  1  0  0  0
 30 82  1  0  0  0
 31 83  1  0  0  0
 32 84  1  0  0  0
 33 85  1  0  0  0
 33 86  1  0  0  0
 34 87  1  0  0  0
 37 88  1  0  0  0
 37 89  1  0  0  0
 37 90  1  0  0  0
 38 91  1  0  0  0
 39 92  1  0  0  0
 40 93  1  0  0  0
 41 94  1  0  0  0
 42 95  1  0  0  0
 43 96  1  0  0  0
 43 97  1  0  0  0
 43 98  1  0  0  0
 44 99  1  0  0  0
 45100  1  0  0  0
 46101  1  0  0  0
 48102  1  0  0  0
 49103  1  0  0  0
 50104  1  0  0  0
 51105  1  0  0  0
 52106  1  0  0  0
 53107  1  0  0  0
 53108  1  0  0  0
 53109  1  0  0  0
 54110  1  0  0  0
 55111  1  0  0  0
 56112  1  0  0  0
M  END
$$$$
