4nzb_ligand
  -I-interpret- 

 27 29  0  0  0  0  0  0  0  0999 V2000
   12.9640   85.0870   19.2680 C   0  0  0  0  0
    9.6510   86.8310   28.0660 C   0  0  0  0  0
   12.6680   84.2250   21.5540 C   0  0  0  0  0
   12.6850   81.7990   21.9350 C   0  0  0  0  0
   11.7420   84.1770   25.6500 C   0  0  0  0  0
   12.3730   83.3950   23.8310 C   0  0  0  0  0
   12.5930   83.1200   22.4170 C   0  0  0  0  0
   11.0480   85.0750   26.5540 C   0  0  0  0  0
   10.1440   85.9840   25.9930 C   0  0  0  0  0
   11.2480   85.0580   27.9420 C   0  0  0  0  0
   10.5350   85.9610   28.7210 C   0  0  0  0  0
   13.0440   85.9580   18.4980 N   0  0  0  0  0
   11.6360   84.3620   24.2920 N   0  0  0  0  0
   12.8620   83.9910   20.1890 C   0  0  0  0  0
   12.4970   83.1560   26.0270 N   0  0  0  0  0
    9.4550   86.8550   26.7360 N   0  0  0  0  0
   12.9230   82.6160   24.7980 O   0  0  0  0  0
   12.8720   81.5820   20.5700 C   0  0  0  0  0
   12.9540   82.6710   19.7030 C   0  0  0  0  0
    9.0849   87.5349   28.6761 H   0  0  0  0  0
   12.5772   85.2408   21.9387 H   0  0  0  0  0
   12.6108   80.9557   22.6217 H   0  0  0  0  0
    9.9969   85.9814   24.9130 H   0  0  0  0  0
   11.9448   84.3546   28.3979 H   0  0  0  0  0
   10.6584   85.9922   29.8035 H   0  0  0  0  0
   12.9536   80.5663   20.1829 H   0  0  0  0  0
   13.0910   82.4993   18.6354 H   0  0  0  0  0
  1 12  3  0  0  0
 14  1  1  0  0  0
  2 11  4  0  0  0
 16  2  4  0  0  0
  7  3  4  0  0  0
  3 14  4  0  0  0
  7  4  4  0  0  0
  4 18  4  0  0  0
  8  5  1  0  0  0
  5 13  4  0  0  0
  5 15  4  0  0  0
  6  7  1  0  0  0
 13  6  4  0  0  0
  6 17  4  0  0  0
  9  8  4  0  0  0
  8 10  4  0  0  0
  9 16  4  0  0  0
 10 11  4  0  0  0
 14 19  4  0  0  0
 15 17  4  0  0  0
 18 19  4  0  0  0
  2 20  1  0  0  0
  3 21  1  0  0  0
  4 22  1  0  0  0
  9 23  1  0  0  0
 10 24  1  0  0  0
 11 25  1  0  0  0
 18 26  1  0  0  0
 19 27  1  0  0  0
M  END
$$$$
