4rhx_ligand
  -I-interpret- 

 61 62  0  0  0  0  0  0  0  0999 V2000
   -3.4260    7.6880  124.3960 O   0  0  0  0  0
   -4.1380    7.2190  123.1640 P   0  0  0  0  0
   -3.8360    5.7620  122.9330 O   0  0  0  0  0
   -5.6130    7.4050  123.3410 O   0  0  0  0  0
   -3.5740    8.2230  121.7060 C   0  0  0  0  0
   -3.9470    9.7430  121.9230 C   0  0  0  0  0
   -3.1430   10.6390  121.0550 N   0  3  0  0  0
   -3.0980   10.1000  119.6630 C   0  0  0  0  0
   -4.4330   10.3710  118.9460 C   0  0  0  0  0
   -5.3300    9.4990  118.9430 O   0  0  0  0  0
   -3.7500   11.9650  121.0700 C   0  0  0  0  0
   -3.5520   12.5980  122.4850 C   0  0  0  0  0
   -4.7010   13.4190  122.8740 N   0  3  0  0  0
   -4.5330   14.7310  122.3740 C   0  0  0  0  0
   -5.8770   15.3510  122.0520 C   0  0  0  0  0
   -5.7170   17.0350  121.2580 P   0  0  0  0  0
   -5.2720   16.8640  119.8310 O   0  0  0  0  0
   -7.0640   17.7400  121.2940 O   0  0  0  0  0
   -4.6950   17.8680  121.9950 O   0  0  0  0  0
   -4.7770   13.4530  124.3410 C   0  0  0  0  0
   -3.6050   14.2780  124.9360 C   0  0  0  0  0
   -3.9520   14.7350  126.3150 N   0  0  0  0  0
   -3.9860   13.9550  127.4320 C   0  0  0  0  0
   -3.7450   12.6280  127.7230 N   0  0  0  0  0
   -3.8620   12.1540  128.9460 C   0  0  0  0  0
   -3.6030   10.7790  129.1860 N   0  0  0  0  0
   -4.2310   12.9510  130.0020 N   0  0  0  0  0
   -4.4860   14.2400  129.8360 C   0  0  0  0  0
   -4.8640   15.0490  130.9260 O   0  0  0  0  0
   -4.3640   14.7970  128.4930 C   0  0  0  0  0
   -4.5400   16.0460  127.9470 N   0  0  0  0  0
   -4.2930   16.0000  126.6530 C   0  0  0  0  0
   -2.4802    7.5688  124.2826 H   0  0  0  0  0
   -2.8897    5.6465  122.8200 H   0  0  0  0  0
   -4.0668    7.8570  120.8053 H   0  0  0  0  0
   -2.4930    8.1295  121.6017 H   0  0  0  0  0
   -3.7428   10.0002  122.9623 H   0  0  0  0  0
   -4.9990    9.8763  121.6708 H   0  0  0  0  0
   -2.1858   10.6962  121.4027 H   0  0  0  0  0
   -2.9252    9.0245  119.7018 H   0  0  0  0  0
   -2.2927   10.5902  119.1159 H   0  0  0  0  0
   -4.5967   11.3229  118.4408 H   0  0  0  0  0
   -4.8142   11.8850  120.8483 H   0  0  0  0  0
   -3.2776   12.5945  120.3159 H   0  0  0  0  0
   -2.6677   13.2346  122.4568 H   0  0  0  0  0
   -3.4432   11.7920  123.2107 H   0  0  0  0  0
   -5.5604   13.0249  122.4912 H   0  0  0  0  0
   -3.9345   14.6896  121.4640 H   0  0  0  0  0
   -4.0349   15.3375  123.1303 H   0  0  0  0  0
   -6.4246   15.4708  122.9868 H   0  0  0  0  0
   -6.3899   14.6951  121.3486 H   0  0  0  0  0
   -7.3437   17.8468  122.2061 H   0  0  0  0  0
   -4.9733   17.9809  122.9068 H   0  0  0  0  0
   -4.7155   12.4326  124.7194 H   0  0  0  0  0
   -5.7181   13.9191  124.6330 H   0  0  0  0  0
   -3.4215   15.1477  124.3051 H   0  0  0  0  0
   -2.7121   13.6543  124.9785 H   0  0  0  0  0
   -3.3295   10.1694  128.4153 H   0  0  0  0  0
   -3.6904   10.4006  130.1292 H   0  0  0  0  0
   -4.3103   12.5418  130.9330 H   0  0  0  0  0
   -4.3536   16.8444  125.9664 H   0  0  0  0  0
  1  2  1  0  0  0
  2  3  1  0  0  0
  2  4  2  0  0  0
  2  5  1  0  0  0
  5  6  1  0  0  0
  6  7  1  0  0  0
  7  8  1  0  0  0
  7 11  1  0  0  0
  8  9  1  0  0  0
  9 10  2  0  0  0
 11 12  1  0  0  0
 12 13  1  0  0  0
 13 14  1  0  0  0
 13 20  1  0  0  0
 14 15  1  0  0  0
 15 16  1  0  0  0
 16 17  2  0  0  0
 16 18  1  0  0  0
 16 19  1  0  0  0
 20 21  1  0  0  0
 21 22  1  0  0  0
 22 23  4  0  0  0
 22 32  4  0  0  0
 23 24  1  0  0  0
 23 30  4  0  0  0
 24 25  2  0  0  0
 25 26  1  0  0  0
 25 27  1  0  0  0
 27 28  1  0  0  0
 28 29  2  0  0  0
 28 30  1  0  0  0
 30 31  4  0  0  0
 31 32  4  0  0  0
  1 33  1  0  0  0
  3 34  1  0  0  0
  5 35  1  0  0  0
  5 36  1  0  0  0
  6 37  1  0  0  0
  6 38  1  0  0  0
  7 39  1  0  0  0
  8 40  1  0  0  0
  8 41  1  0  0  0
  9 42  1  0  0  0
 11 43  1  0  0  0
 11 44  1  0  0  0
 12 45  1  0  0  0
 12 46  1  0  0  0
 13 47  1  0  0  0
 14 48  1  0  0  0
 14 49  1  0  0  0
 15 50  1  0  0  0
 15 51  1  0  0  0
 18 52  1  0  0  0
 19 53  1  0  0  0
 20 54  1  0  0  0
 20 55  1  0  0  0
 21 56  1  0  0  0
 21 57  1  0  0  0
 26 58  1  0  0  0
 26 59  1  0  0  0
 27 60  1  0  0  0
 32 61  1  0  0  0
M  END
$$$$
