4nhx_ligand
  -I-interpret- 

 15 14  0  0  0  0  0  0  0  0999 V2000
  -16.0880    1.1000   65.0120 C   0  0  0  0  0
  -17.1890    1.5200   64.0780 C   0  0  0  0  0
  -19.3930    2.5260   63.7250 C   0  0  0  0  0
  -20.3790    3.4140   64.4610 C   0  0  0  0  0
  -16.0810    1.5020   66.2090 O   0  0  0  0  0
  -15.1790    0.3400   64.5830 O   0  0  0  0  0
  -17.0820    1.3080   62.8810 O   0  0  0  0  0
  -21.4350    3.8210   63.8900 O   0  0  0  0  0
  -18.3520    2.1360   64.6090 N   0  0  0  0  0
  -20.1550    3.7460   65.6530 O   0  0  0  0  0
  -18.9681    3.0750   62.8847 H   0  0  0  0  0
  -19.9085    1.6384   63.3582 H   0  0  0  0  0
  -16.8420    2.0675   66.3599 H   0  0  0  0  0
  -21.4610    3.4853   62.9910 H   0  0  0  0  0
  -18.4392    2.2966   65.6125 H   0  0  0  0  0
  2  1  1  0  0  0
  1  5  1  0  0  0
  1  6  2  0  0  0
  2  7  2  0  0  0
  9  2  1  0  0  0
  3  4  1  0  0  0
  3  9  1  0  0  0
  4  8  1  0  0  0
  4 10  2  0  0  0
  3 11  1  0  0  0
  3 12  1  0  0  0
  5 13  1  0  0  0
  8 14  1  0  0  0
  9 15  1  0  0  0
M  END
$$$$
