5lgu_ligand
  -I-interpret- 

 61 65  0  0  0  0  0  0  0  0999 V2000
   -8.2770   53.2620   80.6010 N   0  0  0  0  0
   -8.1950   54.5790   80.7800 C   0  0  0  0  0
   -3.8010   52.6090   85.1740 O   0  0  0  0  0
   -9.7090   53.1310   78.6230 C   0  0  0  0  0
  -10.3540   50.9560   77.8230 C   0  0  0  0  0
   -9.6420   50.3740   78.8620 C   0  0  0  0  0
   -8.9540   51.1610   79.7770 C   0  0  0  0  0
   -8.1690   50.4880   80.8910 C   0  0  0  0  0
   -6.0200   51.2650   81.8830 C   0  0  0  0  0
   -8.6120   55.4910   80.0700 O   0  0  0  0  0
   -7.6220   54.9440   82.0810 C   0  0  0  0  0
   -7.9350   54.3300   83.3090 C   0  0  0  0  0
   -7.2120   55.0150   84.2500 C   0  0  0  0  0
   -6.5050   55.9830   83.6620 C   0  0  0  0  0
   -5.7110   56.7580   84.4990 C   0  0  0  0  0
   -5.8480   56.3030   85.8180 C   0  0  0  0  0
   -6.9720   54.9730   85.9020 S   0  0  0  0  0
   -6.7600   55.9480   82.3050 N   0  0  0  0  0
   -6.0940   56.9350   81.4380 C   0  0  0  0  0
   -8.9750   52.5530   79.6650 C   0  0  0  0  0
  -10.3890   52.3340   77.7040 C   0  0  0  0  0
   -6.7630   50.8260   80.7950 O   0  0  0  0  0
   -6.1270   50.6500   83.1330 C   0  0  0  0  0
   -5.3810   51.1040   84.2120 C   0  0  0  0  0
   -4.5160   52.1820   84.0720 C   0  0  0  0  0
   -4.4090   52.8020   82.8240 C   0  0  0  0  0
   -5.1550   52.3490   81.7400 C   0  0  0  0  0
   -3.0470   53.8200   85.1710 C   0  0  0  0  0
   -2.4710   54.1270   86.5440 C   0  0  0  0  0
   -1.6180   52.9900   87.0700 C   0  0  0  0  0
   -0.3850   53.5640   87.6390 N   0  3  0  0  0
   -0.1600   54.8660   86.9970 C   0  0  0  0  0
   -1.5170   55.3020   86.4600 C   0  0  0  0  0
   -7.7391   52.6995   81.2603 H   0  0  0  0  0
   -9.7493   54.2162   78.5292 H   0  0  0  0  0
  -10.8832   50.3306   77.1040 H   0  0  0  0  0
   -9.6223   49.2887   78.9613 H   0  0  0  0  0
   -8.2810   49.4075   80.8010 H   0  0  0  0  0
   -8.5516   50.8316   81.8521 H   0  0  0  0  0
   -8.6086   53.4893   83.4754 H   0  0  0  0  0
   -5.0811   57.5885   84.1802 H   0  0  0  0  0
   -5.3227   56.7240   86.6753 H   0  0  0  0  0
   -5.4824   56.4150   80.7007 H   0  0  0  0  0
   -6.8472   57.5359   80.9284 H   0  0  0  0  0
   -5.4612   57.5820   82.0455 H   0  0  0  0  0
  -10.9487   52.7965   76.8910 H   0  0  0  0  0
   -6.8033   49.8050   83.2622 H   0  0  0  0  0
   -5.4749   50.6097   85.1789 H   0  0  0  0  0
   -3.7344   53.6489   82.6984 H   0  0  0  0  0
   -5.0625   52.8446   80.7736 H   0  0  0  0  0
   -3.7102   54.6368   84.8863 H   0  0  0  0  0
   -2.2207   53.7084   84.4690 H   0  0  0  0  0
   -3.3293   54.3138   87.1894 H   0  0  0  0  0
   -1.3723   52.3011   86.2619 H   0  0  0  0  0
   -2.1618   52.4368   87.8357 H   0  0  0  0  0
    0.4064   52.9433   87.4692 H   0  0  0  0  0
   -0.4796   53.6778   88.6482 H   0  0  0  0  0
    0.5782   54.7927   86.1984 H   0  0  0  0  0
    0.2398   55.5933   87.7035 H   0  0  0  0  0
   -1.9000   56.1339   87.0511 H   0  0  0  0  0
   -1.4191   55.6271   85.4242 H   0  0  0  0  0
  1  2  1  0  0  0
 20  1  1  0  0  0
  2 10  2  0  0  0
  2 11  1  0  0  0
 25  3  1  0  0  0
  3 28  1  0  0  0
 20  4  4  0  0  0
  4 21  4  0  0  0
  6  5  4  0  0  0
  5 21  4  0  0  0
  7  6  4  0  0  0
  8  7  1  0  0  0
  7 20  4  0  0  0
 22  8  1  0  0  0
  9 22  1  0  0  0
 23  9  4  0  0  0
  9 27  4  0  0  0
 11 12  4  0  0  0
 11 18  4  0  0  0
 12 13  4  0  0  0
 14 13  4  0  0  0
 13 17  4  0  0  0
 14 15  4  0  0  0
 18 14  4  0  0  0
 15 16  4  0  0  0
 17 16  4  0  0  0
 18 19  1  0  0  0
 24 23  4  0  0  0
 24 25  4  0  0  0
 25 26  4  0  0  0
 26 27  4  0  0  0
 28 29  1  0  0  0
 29 30  1  0  0  0
 29 33  1  0  0  0
 30 31  1  0  0  0
 31 32  1  0  0  0
 32 33  1  0  0  0
  1 34  1  0  0  0
  4 35  1  0  0  0
  5 36  1  0  0  0
  6 37  1  0  0  0
  8 38  1  0  0  0
  8 39  1  0  0  0
 12 40  1  0  0  0
 15 41  1  0  0  0
 16 42  1  0  0  0
 19 43  1  0  0  0
 19 44  1  0  0  0
 19 45  1  0  0  0
 21 46  1  0  0  0
 23 47  1  0  0  0
 24 48  1  0  0  0
 26 49  1  0  0  0
 27 50  1  0  0  0
 28 51  1  0  0  0
 28 52  1  0  0  0
 29 53  1  0  0  0
 30 54  1  0  0  0
 30 55  1  0  0  0
 31 56  1  0  0  0
 31 57  1  0  0  0
 32 58  1  0  0  0
 32 59  1  0  0  0
 33 60  1  0  0  0
 33 61  1  0  0  0
M  END
$$$$
