6hhp_ligand
  -I-interpret- 

 83 84  0  0  0  0  0  0  0  0999 V2000
   13.0430    7.9320   14.3620 N   0  3  0  0  0
   13.9080    9.1080   14.3730 C   0  0  0  0  0
   13.2100   10.3310   13.7600 C   0  0  0  0  0
   12.3650   10.1880   12.8690 O   0  0  0  0  0
   15.2210    8.8130   13.6310 C   0  0  0  0  0
   15.0330    8.2000   12.2700 C   0  0  0  0  0
   14.9130    9.0000   11.1410 C   0  0  0  0  0
   14.9880    6.8200   12.1150 C   0  0  0  0  0
   14.7390    8.4300    9.8840 C   0  0  0  0  0
   14.8140    6.2490   10.8640 C   0  0  0  0  0
   14.6930    7.0510    9.7500 C   0  0  0  0  0
   13.5580   11.5260   14.2380 N   0  0  0  0  0
   12.9700   12.7460   13.6750 C   0  0  0  0  0
   13.5780   13.0750   12.3200 C   0  0  0  0  0
   14.6530   12.5970   11.9530 O   0  0  0  0  0
   13.3150   13.8150   14.7150 C   0  0  0  0  0
   14.6150   13.3430   15.2880 C   0  0  0  0  0
   14.5190   11.8250   15.3180 C   0  0  0  0  0
   12.8650   13.9060   11.5630 N   0  0  0  0  0
   13.2950   14.2400   10.2150 C   0  0  0  0  0
   14.4100   15.2850   10.2130 C   0  0  0  0  0
   14.3550   16.2520   10.9620 O   0  0  0  0  0
   12.1150   14.7310    9.3900 C   0  0  0  0  0
   15.4170   15.0610    9.3710 N   0  0  0  0  0
   16.4890   16.0230    9.0910 C   0  0  0  0  0
   17.7830   15.6530    9.8350 C   0  0  0  0  0
   17.6080   15.8650   11.3440 C   0  0  0  0  0
   17.9840   14.2810    9.4960 O   0  0  0  0  0
   19.4420   13.6990    9.8690 P   0  0  0  0  0
   19.5710   12.3660    8.9930 O   0  0  0  0  0
   19.4460   13.3310   11.3000 O   0  0  0  0  0
   20.6050   14.7430    9.5160 O   0  0  0  0  0
   16.7170   16.0210    7.5830 C   0  0  0  0  0
   16.3900   15.0360    6.9170 O   0  0  0  0  0
   17.2500   17.1110    7.0350 N   0  0  0  0  0
   17.5380   17.1780    5.6040 C   0  0  0  0  0
   18.9750   17.5610    5.3610 C   0  0  0  0  0
   19.7240   17.8580    6.2940 O   0  0  0  0  0
   16.6160   18.1730    4.8620 C   0  0  0  0  0
   15.1900   17.7030    4.9040 C   0  0  0  0  0
   16.7620   19.5720    5.4570 C   0  0  0  0  0
   19.4000   17.5940    4.2000 O   0  0  0  0  0
   12.1770    8.1437   14.8576 H   0  0  0  0  0
   12.8305    7.6767   13.3976 H   0  0  0  0  0
   13.5193    7.1568   14.8231 H   0  0  0  0  0
   14.1332    9.3433   15.4132 H   0  0  0  0  0
   15.7779    8.0956   14.2337 H   0  0  0  0  0
   15.7316    9.7653   13.4880 H   0  0  0  0  0
   14.9556   10.0846   11.2408 H   0  0  0  0  0
   15.0910    6.1774   12.9894 H   0  0  0  0  0
   14.6389    9.0671    9.0053 H   0  0  0  0  0
   14.7728    5.1646   10.7613 H   0  0  0  0  0
   14.5614    6.6020    8.7655 H   0  0  0  0  0
   11.8985   12.6595   13.4949 H   0  0  0  0  0
   12.5401   13.9234   15.4739 H   0  0  0  0  0
   13.3890   14.8114   14.2794 H   0  0  0  0  0
   14.7844   13.7521   16.2840 H   0  0  0  0  0
   15.4610   13.6778   14.6877 H   0  0  0  0  0
   15.4836   11.3398   15.1686 H   0  0  0  0  0
   14.1952   11.4434   16.2863 H   0  0  0  0  0
   12.0064   14.3135   11.9333 H   0  0  0  0  0
   13.6950   13.3309    9.7661 H   0  0  0  0  0
   11.3583   13.9481    9.3388 H   0  0  0  0  0
   11.6901   15.6187    9.8585 H   0  0  0  0  0
   12.4541   14.9768    8.3837 H   0  0  0  0  0
   15.4450   14.1623    8.8894 H   0  0  0  0  0
   16.2011   17.0153    9.4383 H   0  0  0  0  0
   18.6408   16.2661    9.5586 H   0  0  0  0  0
   17.3720   16.9114   11.5376 H   0  0  0  0  0
   16.7957   15.2350   11.7063 H   0  0  0  0  0
   18.5324   15.5988   11.8566 H   0  0  0  0  0
   19.5692   12.5956    8.0609 H   0  0  0  0  0
   20.5690   14.9562    8.5807 H   0  0  0  0  0
   17.4615   17.9152    7.6257 H   0  0  0  0  0
   17.3503   16.1800    5.2078 H   0  0  0  0  0
   16.9163   18.2201    3.8152 H   0  0  0  0  0
   15.1162   16.7269    4.4246 H   0  0  0  0  0
   14.8649   17.6251    5.9415 H   0  0  0  0  0
   14.5577   18.4171    4.3764 H   0  0  0  0  0
   16.4864   19.5476    6.5113 H   0  0  0  0  0
   17.7963   19.9014    5.3580 H   0  0  0  0  0
   16.1071   20.2619    4.9248 H   0  0  0  0  0
   18.6989   17.3376    3.5964 H   0  0  0  0  0
  1  2  1  0  0  0
  2  3  1  0  0  0
  2  5  1  0  0  0
  3  4  2  0  0  0
  3 12  1  0  0  0
  5  6  1  0  0  0
  6  7  4  0  0  0
  6  8  4  0  0  0
  7  9  4  0  0  0
  8 10  4  0  0  0
  9 11  4  0  0  0
 10 11  4  0  0  0
 12 13  1  0  0  0
 12 18  1  0  0  0
 13 14  1  0  0  0
 13 16  1  0  0  0
 14 15  2  0  0  0
 14 19  1  0  0  0
 16 17  1  0  0  0
 17 18  1  0  0  0
 19 20  1  0  0  0
 20 21  1  0  0  0
 20 23  1  0  0  0
 21 22  2  0  0  0
 21 24  1  0  0  0
 24 25  1  0  0  0
 25 26  1  0  0  0
 25 33  1  0  0  0
 26 27  1  0  0  0
 26 28  1  0  0  0
 28 29  1  0  0  0
 29 30  1  0  0  0
 29 31  2  0  0  0
 29 32  1  0  0  0
 33 34  2  0  0  0
 33 35  1  0  0  0
 35 36  1  0  0  0
 36 37  1  0  0  0
 36 39  1  0  0  0
 37 38  2  0  0  0
 37 42  1  0  0  0
 39 40  1  0  0  0
 39 41  1  0  0  0
  1 43  1  0  0  0
  1 44  1  0  0  0
  1 45  1  0  0  0
  2 46  1  0  0  0
  5 47  1  0  0  0
  5 48  1  0  0  0
  7 49  1  0  0  0
  8 50  1  0  0  0
  9 51  1  0  0  0
 10 52  1  0  0  0
 11 53  1  0  0  0
 13 54  1  0  0  0
 16 55  1  0  0  0
 16 56  1  0  0  0
 17 57  1  0  0  0
 17 58  1  0  0  0
 18 59  1  0  0  0
 18 60  1  0  0  0
 19 61  1  0  0  0
 20 62  1  0  0  0
 23 63  1  0  0  0
 23 64  1  0  0  0
 23 65  1  0  0  0
 24 66  1  0  0  0
 25 67  1  0  0  0
 26 68  1  0  0  0
 27 69  1  0  0  0
 27 70  1  0  0  0
 27 71  1  0  0  0
 30 72  1  0  0  0
 32 73  1  0  0  0
 35 74  1  0  0  0
 36 75  1  0  0  0
 39 76  1  0  0  0
 40 77  1  0  0  0
 40 78  1  0  0  0
 40 79  1  0  0  0
 41 80  1  0  0  0
 41 81  1  0  0  0
 41 82  1  0  0  0
 42 83  1  0  0  0
M  END
$$$$
