### 
### Created by X-TOOL on Mon Aug  2 16:11:36 2021
### 

@<TRIPOS>MOLECULE
6hhp_ligand
   80    81     1     0     0
SMALL
GAST_HUCK


@<TRIPOS>ATOM
      1 N          13.0430    7.9320   14.3620 N.4       1 PHE         0.2394
      2 CA         13.9080    9.1080   14.3730 C.3       1 PHE         0.0746
      3 C          13.2100   10.3310   13.7600 C.2       1 PHE         0.2313
      4 O          12.3650   10.1880   12.8690 O.2       1 PHE        -0.3903
      5 CB         15.2210    8.8130   13.6310 C.3       1 PHE         0.0416
      6 CG         15.0330    8.2000   12.2700 C.ar      1 PHE        -0.0353
      7 CD1        14.9130    9.0000   11.1410 C.ar      1 PHE        -0.0600
      8 CD2        14.9880    6.8200   12.1150 C.ar      1 PHE        -0.0600
      9 CE1        14.7390    8.4300    9.8840 C.ar      1 PHE        -0.0686
     10 CE2        14.8140    6.2490   10.8640 C.ar      1 PHE        -0.0686
     11 CZ         14.6930    7.0510    9.7500 C.ar      1 PHE        -0.0687
     12 N          13.5580   11.5260   14.2380 N.am      1 PHE        -0.2470
     13 CA         12.9700   12.7460   13.6750 C.3       1 PHE         0.1339
     14 C          13.5780   13.0750   12.3200 C.2       1 PHE         0.2041
     15 O          14.6530   12.5970   11.9530 O.2       1 PHE        -0.3944
     16 CB         13.3150   13.8150   14.7150 C.3       1 PHE        -0.0104
     17 CG         14.6150   13.3430   15.2880 C.3       1 PHE        -0.0281
     18 CD         14.5190   11.8250   15.3180 C.3       1 PHE         0.0371
     19 N          12.8650   13.9060   11.5630 N.am      1 PHE        -0.2640
     20 CA         13.2950   14.2400   10.2150 C.3       1 PHE         0.1282
     21 C          14.4100   15.2850   10.2130 C.2       1 PHE         0.2037
     22 O          14.3550   16.2520   10.9620 O.2       1 PHE        -0.3944
     23 CB         12.1150   14.7310    9.3900 C.3       1 PHE        -0.0244
     24 N          15.4170   15.0610    9.3710 N.am      1 PHE        -0.2611
     25 CA         16.4890   16.0230    9.0910 C.3       1 PHE         0.1611
     26 CB         17.7830   15.6530    9.8350 C.3       1 PHE         0.1262
     27 CG2        17.6080   15.8650   11.3440 C.3       1 PHE        -0.0298
     28 OG1        17.9840   14.2810    9.4960 O.3       1 PHE        -0.2685
     29 P          19.4420   13.6990    9.8690 P.3       1 PHE         0.2014
     30 O1P        19.5710   12.3660    8.9930 O.co2     1 PHE        -0.5537
     31 O2P        19.4460   13.3310   11.3000 O.co2     1 PHE        -0.5537
     32 O3P        20.6050   14.7430    9.5160 O.co2     1 PHE        -0.5537
     33 C          16.7170   16.0210    7.5830 C.2       1 PHE         0.2063
     34 O          16.3900   15.0360    6.9170 O.2       1 PHE        -0.3943
     35 N          17.2500   17.1110    7.0350 N.am      1 PHE        -0.2691
     36 CA         17.5380   17.1780    5.6040 C.3       1 PHE         0.0967
     37 C          18.9750   17.5610    5.3610 C.2       1 PHE         0.0603
     38 O          19.7240   17.8580    6.2940 O.co2     1 PHE        -0.5666
     39 CB         16.6160   18.1730    4.8620 C.3       1 PHE        -0.0118
     40 CG1        15.1900   17.7030    4.9040 C.3       1 PHE        -0.0590
     41 CG2        16.7620   19.5720    5.4570 C.3       1 PHE        -0.0590
     42 OXT        19.4000   17.5940    4.2000 O.co2     1 PHE        -0.5666
     43 H1         13.5324    7.1511   14.7705 H         1 PHE         0.2017
     44 H2         12.7898    7.7100   13.4119 H         1 PHE         0.2017
     45 H3         12.2097    8.1228   14.8960 H         1 PHE         0.2017
     46 H4         14.1491    9.3433   15.4201 H         1 PHE         0.1123
     47 H5         15.8154    8.1189   14.2433 H         1 PHE         0.0507
     48 H6         15.7700    9.7586   13.5111 H         1 PHE         0.0507
     49 H7         14.9553   10.0786   11.2403 H         1 PHE         0.0557
     50 H8         15.0904    6.1809   12.9846 H         1 PHE         0.0557
     51 H9         14.6395    9.0636    9.0101 H         1 PHE         0.0599
     52 H10        14.7731    5.1706   10.7619 H         1 PHE         0.0599
     53 H11        14.5621    6.6045    8.7709 H         1 PHE         0.0559
     54 H12        11.8802   12.6421   13.5680 H         1 PHE         0.0802
     55 H13        12.5398   13.8701   15.4935 H         1 PHE         0.0313
     56 H14        13.4297   14.8011   14.2413 H         1 PHE         0.0313
     57 H15        14.7535   13.7395   16.3046 H         1 PHE         0.0287
     58 H16        15.4539   13.6626   14.6523 H         1 PHE         0.0287
     59 H17        15.4968   11.3640   15.1147 H         1 PHE         0.0524
     60 H18        14.1424   11.4728   16.2897 H         1 PHE         0.0524
     61 H19        12.0232   14.3055   11.9260 H         1 PHE         0.1883
     62 H20        13.6865   13.3246    9.7474 H         1 PHE         0.0797
     63 H21        12.4560   14.9794    8.3741 H         1 PHE         0.0277
     64 H22        11.6852   15.6269    9.8618 H         1 PHE         0.0277
     65 H23        11.3506   13.9418    9.3375 H         1 PHE         0.0277
     66 H24        15.4444   14.1799    8.8988 H         1 PHE         0.1884
     67 H25        16.1719   17.0259    9.4130 H         1 PHE         0.0830
     68 H26        18.6269   16.2633    9.4811 H         1 PHE         0.0695
     69 H27        18.5403   15.5967   11.8625 H         1 PHE         0.0260
     70 H28        16.7885   15.2296   11.7110 H         1 PHE         0.0260
     71 H29        17.3698   16.9207   11.5408 H         1 PHE         0.0260
     72 H30        17.4573   17.8994    7.6141 H         1 PHE         0.1875
     73 H31        17.3697   16.1765    5.1813 H         1 PHE         0.0729
     74 H32        16.9300   18.2150    3.8086 H         1 PHE         0.0336
     75 H33        14.5509   18.4229    4.3718 H         1 PHE         0.0234
     76 H34        14.8606   17.6240    5.9505 H         1 PHE         0.0234
     77 H35        15.1142   16.7179    4.4204 H         1 PHE         0.0234
     78 H36        17.8162   19.8824    5.4095 H         1 PHE         0.0234
     79 H37        16.4299   19.5610    6.5056 H         1 PHE         0.0234
     80 H38        16.1451   20.2802    4.8844 H         1 PHE         0.0234
@<TRIPOS>BOND
     1    1    2 1  
     2    2    3 1  
     3    2    5 1  
     4    3    4 2  
     5    3   12 am 
     6    5    6 1  
     7    6    7 ar 
     8    6    8 ar 
     9    7    9 ar 
    10    8   10 ar 
    11    9   11 ar 
    12   10   11 ar 
    13   12   13 1  
    14   12   18 1  
    15   13   14 1  
    16   13   16 1  
    17   14   15 2  
    18   14   19 am 
    19   16   17 1  
    20   17   18 1  
    21   19   20 1  
    22   20   21 1  
    23   20   23 1  
    24   21   22 2  
    25   21   24 am 
    26   24   25 1  
    27   25   26 1  
    28   25   33 1  
    29   26   27 1  
    30   26   28 1  
    31   28   29 1  
    32   29   30 ar 
    33   29   31 ar 
    34   29   32 ar 
    35   33   34 2  
    36   33   35 am 
    37   35   36 1  
    38   36   37 1  
    39   36   39 1  
    40   37   38 ar 
    41   37   42 ar 
    42   39   40 1  
    43   39   41 1  
    44    1   43 1  
    45    1   44 1  
    46    1   45 1  
    47    2   46 1  
    48    5   47 1  
    49    5   48 1  
    50    7   49 1  
    51    8   50 1  
    52    9   51 1  
    53   10   52 1  
    54   11   53 1  
    55   13   54 1  
    56   16   55 1  
    57   16   56 1  
    58   17   57 1  
    59   17   58 1  
    60   18   59 1  
    61   18   60 1  
    62   19   61 1  
    63   20   62 1  
    64   23   63 1  
    65   23   64 1  
    66   23   65 1  
    67   24   66 1  
    68   25   67 1  
    69   26   68 1  
    70   27   69 1  
    71   27   70 1  
    72   27   71 1  
    73   35   72 1  
    74   36   73 1  
    75   39   74 1  
    76   40   75 1  
    77   40   76 1  
    78   40   77 1  
    79   41   78 1  
    80   41   79 1  
    81   41   80 1  
@<TRIPOS>SUBSTRUCTURE
     1 PHE         1

