5hk1_ligand
  -I-interpret- 

 46 48  0  0  0  0  0  0  0  0999 V2000
   10.8800   36.4230  -35.0580 C   0  0  0  0  0
   11.9010   37.1060  -34.3870 C   0  0  0  0  0
   12.3370   36.3390  -33.2030 C   0  0  0  0  0
   13.4280   36.7040  -32.1830 C   0  0  0  0  0
   14.0870   37.9530  -32.1170 C   0  0  0  0  0
   15.0930   38.2640  -31.1700 C   0  0  0  0  0
   15.5410   37.3510  -30.1990 C   0  0  0  0  0
   14.8970   36.1000  -30.2530 C   0  0  0  0  0
   13.8920   35.7960  -31.2020 C   0  0  0  0  0
   16.6200   37.6910  -29.1870 C   0  0  0  0  0
    9.0760   40.7510  -40.8170 C   0  0  0  0  0
    9.9650   39.7690  -40.0900 C   0  0  0  0  0
    9.3380   39.4710  -38.7450 C   0  0  0  0  0
    9.9350   38.1870  -38.2340 N   0  3  0  0  0
    9.0970   37.2400  -38.9840 C   0  0  0  0  0
    9.5990   35.8840  -38.6090 C   0  0  0  0  0
    9.7780   35.6240  -37.1750 C   0  0  0  0  0
   10.0820   36.6650  -36.2390 C   0  0  0  0  0
    9.7360   38.0120  -36.7730 C   0  0  0  0  0
   11.5510   35.2250  -33.2210 N   0  0  0  0  0
   10.7110   35.2650  -34.2830 O   0  0  0  0  0
   12.3149   38.0664  -34.6944 H   0  0  0  0  0
   13.8044   38.7212  -32.8368 H   0  0  0  0  0
   15.5409   39.2574  -31.1950 H   0  0  0  0  0
   15.1846   35.3333  -29.5335 H   0  0  0  0  0
   13.4480   34.8009  -31.1755 H   0  0  0  0  0
   17.5402   37.9484  -29.7115 H   0  0  0  0  0
   16.2956   38.5382  -28.5827 H   0  0  0  0  0
   16.7963   36.8298  -28.5426 H   0  0  0  0  0
    8.0872   40.3127  -40.9524 H   0  0  0  0  0
    8.9920   41.6661  -40.2308 H   0  0  0  0  0
    9.5097   40.9801  -41.7904 H   0  0  0  0  0
   10.9599   40.1930  -39.9543 H   0  0  0  0  0
   10.0629   38.8512  -40.6698 H   0  0  0  0  0
    8.2570   39.3726  -38.8446 H   0  0  0  0  0
    9.5352   40.2845  -38.0468 H   0  0  0  0  0
   10.9441   38.1036  -38.3572 H   0  0  0  0  0
    9.1649   37.4092  -40.0586 H   0  0  0  0  0
    8.0415   37.3582  -38.7390 H   0  0  0  0  0
   10.5884   35.7942  -39.0575 H   0  0  0  0  0
    8.8430   35.1774  -38.9514 H   0  0  0  0  0
   10.6620   34.9872  -37.1415 H   0  0  0  0  0
    8.7956   35.2757  -36.8562 H   0  0  0  0  0
    9.5562   36.6155  -35.2855 H   0  0  0  0  0
    8.6727   38.1587  -36.5835 H   0  0  0  0  0
   10.4001   38.7224  -36.2807 H   0  0  0  0  0
  1  2  4  0  0  0
 18  1  1  0  0  0
  1 21  4  0  0  0
  2  3  4  0  0  0
  3  4  1  0  0  0
  3 20  4  0  0  0
  4  5  4  0  0  0
  4  9  4  0  0  0
  5  6  4  0  0  0
  6  7  4  0  0  0
  8  7  4  0  0  0
  7 10  1  0  0  0
  9  8  4  0  0  0
 12 11  1  0  0  0
 13 12  1  0  0  0
 14 13  1  0  0  0
 15 14  1  0  0  0
 14 19  1  0  0  0
 16 15  1  0  0  0
 17 16  1  0  0  0
 17 18  1  0  0  0
 18 19  1  0  0  0
 20 21  4  0  0  0
  2 22  1  0  0  0
  5 23  1  0  0  0
  6 24  1  0  0  0
  8 25  1  0  0  0
  9 26  1  0  0  0
 10 27  1  0  0  0
 10 28  1  0  0  0
 10 29  1  0  0  0
 11 30  1  0  0  0
 11 31  1  0  0  0
 11 32  1  0  0  0
 12 33  1  0  0  0
 12 34  1  0  0  0
 13 35  1  0  0  0
 13 36  1  0  0  0
 14 37  1  0  0  0
 15 38  1  0  0  0
 15 39  1  0  0  0
 16 40  1  0  0  0
 16 41  1  0  0  0
 17 42  1  0  0  0
 17 43  1  0  0  0
 18 44  1  0  0  0
 19 45  1  0  0  0
 19 46  1  0  0  0
M  END
$$$$
