1doj_ligand
  -I-interpret- 

 80 83  0  0  0  0  0  0  0  0999 V2000
    9.2080   25.9000   -9.8540 C   0  0  0  0  0
    9.8060   25.3970   -8.5820 N   0  3  0  0  0
   10.9020   26.3160   -8.1460 C   0  0  0  0  0
   11.4970   25.8040   -6.8370 C   0  0  0  0  0
   11.8400   24.6260   -6.7230 O   0  0  0  0  0
   11.9810   26.3700   -9.2310 C   0  0  0  0  0
   12.9500   27.5190   -9.0370 C   0  0  0  0  0
   12.4810   28.8260   -9.0200 C   0  0  0  0  0
   14.3040   27.2650   -8.8800 C   0  0  0  0  0
   13.3790   29.8780   -8.8450 C   0  0  0  0  0
   15.1900   28.3250   -8.7050 C   0  0  0  0  0
   14.7260   29.6280   -8.6880 C   0  0  0  0  0
   11.6410   26.6880   -5.8340 N   0  0  0  0  0
   12.1980   26.2640   -4.5430 C   0  0  0  0  0
   11.3190   25.1920   -3.9100 C   0  0  0  0  0
   10.0970   25.2250   -4.0440 O   0  0  0  0  0
   12.2130   27.5460   -3.7080 C   0  0  0  0  0
   12.1150   28.6570   -4.6980 C   0  0  0  0  0
   11.3150   28.1250   -5.8470 C   0  0  0  0  0
   11.9440   24.2430   -3.2240 N   0  0  0  0  0
   11.2070   23.1720   -2.5740 C   0  0  0  0  0
   11.7770   21.8170   -2.9930 C   0  0  0  0  0
   11.3090   21.4110   -4.3760 C   0  0  0  0  0
   12.1300   20.2820   -4.9720 C   0  0  0  0  0
   11.4600   19.7380   -6.1480 N   0  0  0  0  0
   11.7870   18.5980   -6.7450 C   0  0  0  0  0
   12.7890   17.8600   -6.2820 N   0  0  0  0  0
   11.1010   18.1940   -7.8010 N   0  0  0  0  0
   11.0870   25.6900   -0.1830 N   0  0  0  0  0
    8.7900   24.6430   -0.6100 S   0  0  0  0  0
   10.4860   24.5400   -0.6150 C   0  0  0  0  0
   10.2150   26.6720    0.1570 C   0  0  0  0  0
    8.8440   26.2860   -0.0110 C   0  0  0  0  0
    7.8240   27.1730    0.2940 C   0  0  0  0  0
    8.1250   28.4420    0.7640 C   0  0  0  0  0
    9.4520   28.8430    0.9360 C   0  0  0  0  0
   10.4900   27.9550    0.6300 C   0  0  0  0  0
    7.0990   29.2950    1.1230 C   0  0  0  0  0
    7.3430   30.2350    1.9090 O   0  0  0  0  0
    5.9420   29.0480    0.7230 O   0  0  0  0  0
   10.5460   22.2290   -0.4730 O   0  0  0  0  0
   11.2510   23.3080   -1.0710 C   0  0  0  0  0
    8.8020   26.8987   -9.6931 H   0  0  0  0  0
    9.9773   25.9391  -10.6252 H   0  0  0  0  0
    8.4096   25.2282  -10.1692 H   0  0  0  0  0
   10.1865   24.4627   -8.7323 H   0  0  0  0  0
    9.0864   25.3608   -7.8600 H   0  0  0  0  0
   10.5055   27.3192   -7.9896 H   0  0  0  0  0
   11.4834   26.5107  -10.1906 H   0  0  0  0  0
   12.5498   25.4414   -9.1834 H   0  0  0  0  0
   11.4170   29.0282   -9.1428 H   0  0  0  0  0
   14.6735   26.2396   -8.8935 H   0  0  0  0  0
   13.0139   30.9050   -8.8322 H   0  0  0  0  0
   16.2546   28.1269   -8.5808 H   0  0  0  0  0
   15.4230   30.4547   -8.5509 H   0  0  0  0  0
   13.1899   25.8204   -4.6290 H   0  0  0  0  0
   13.1175   27.6230   -3.1047 H   0  0  0  0  0
   11.3908   27.5703   -2.9928 H   0  0  0  0  0
   13.1035   28.9804   -5.0243 H   0  0  0  0  0
   11.6371   29.5328   -4.2591 H   0  0  0  0  0
   10.2471   28.3188   -5.7463 H   0  0  0  0  0
   11.5595   28.6070   -6.7935 H   0  0  0  0  0
   12.9612   24.2657   -3.1516 H   0  0  0  0  0
   10.1655   23.2402   -2.8881 H   0  0  0  0  0
   11.4329   21.0664   -2.2815 H   0  0  0  0  0
   12.8642   21.8934   -3.0086 H   0  0  0  0  0
   11.4122   22.2774   -5.0292 H   0  0  0  0  0
   10.2796   21.0633   -4.2895 H   0  0  0  0  0
   12.2433   19.4926   -4.2290 H   0  0  0  0  0
   13.1069   20.6671   -5.2643 H   0  0  0  0  0
   10.6843   20.2719   -6.5400 H   0  0  0  0  0
   13.0297   16.9814   -6.7408 H   0  0  0  0  0
   13.3180   18.1717   -5.4675 H   0  0  0  0  0
   10.3263   18.7571   -8.1518 H   0  0  0  0  0
    6.7842   26.8727    0.1643 H   0  0  0  0  0
    9.6782   29.8427    1.3068 H   0  0  0  0  0
   11.5250   28.2698    0.7629 H   0  0  0  0  0
    8.2846   30.2591    2.0947 H   0  0  0  0  0
   10.5761   22.3188    0.4823 H   0  0  0  0  0
   12.3034   23.3480   -0.7900 H   0  0  0  0  0
  2  1  1  0  0  0
  3  2  1  0  0  0
  4  3  1  0  0  0
  3  6  1  0  0  0
  4  5  2  0  0  0
 13  4  1  0  0  0
  6  7  1  0  0  0
  7  8  4  0  0  0
  7  9  4  0  0  0
  8 10  4  0  0  0
  9 11  4  0  0  0
 10 12  4  0  0  0
 11 12  4  0  0  0
 14 13  1  0  0  0
 13 19  1  0  0  0
 15 14  1  0  0  0
 14 17  1  0  0  0
 15 16  2  0  0  0
 20 15  1  0  0  0
 17 18  1  0  0  0
 18 19  1  0  0  0
 21 20  1  0  0  0
 21 22  1  0  0  0
 42 21  1  0  0  0
 22 23  1  0  0  0
 23 24  1  0  0  0
 24 25  1  0  0  0
 25 26  1  0  0  0
 26 27  1  0  0  0
 26 28  2  0  0  0
 31 29  4  0  0  0
 29 32  4  0  0  0
 31 30  4  0  0  0
 30 33  4  0  0  0
 31 42  1  0  0  0
 32 33  4  0  0  0
 32 37  4  0  0  0
 33 34  4  0  0  0
 34 35  4  0  0  0
 35 36  4  0  0  0
 35 38  1  0  0  0
 36 37  4  0  0  0
 38 39  1  0  0  0
 38 40  2  0  0  0
 42 41  1  0  0  0
  1 43  1  0  0  0
  1 44  1  0  0  0
  1 45  1  0  0  0
  2 46  1  0  0  0
  2 47  1  0  0  0
  3 48  1  0  0  0
  6 49  1  0  0  0
  6 50  1  0  0  0
  8 51  1  0  0  0
  9 52  1  0  0  0
 10 53  1  0  0  0
 11 54  1  0  0  0
 12 55  1  0  0  0
 14 56  1  0  0  0
 17 57  1  0  0  0
 17 58  1  0  0  0
 18 59  1  0  0  0
 18 60  1  0  0  0
 19 61  1  0  0  0
 19 62  1  0  0  0
 20 63  1  0  0  0
 21 64  1  0  0  0
 22 65  1  0  0  0
 22 66  1  0  0  0
 23 67  1  0  0  0
 23 68  1  0  0  0
 24 69  1  0  0  0
 24 70  1  0  0  0
 25 71  1  0  0  0
 27 72  1  0  0  0
 27 73  1  0  0  0
 28 74  1  0  0  0
 34 75  1  0  0  0
 36 76  1  0  0  0
 37 77  1  0  0  0
 39 78  1  0  0  0
 41 79  1  0  0  0
 42 80  1  0  0  0
M  END
$$$$
