6ma5_ligand
  -I-interpret- 

 60 63  0  0  0  0  0  0  0  0999 V2000
    1.8900  -44.1550   16.2110 N   0  0  0  0  0
    0.6820  -44.7730   16.8090 C   0  0  0  0  0
   -0.2960  -49.4290   17.3760 C   0  0  0  0  0
   -1.8520  -46.4460   16.6800 C   0  0  0  0  0
   -2.5320  -45.8890   15.4000 C   0  0  0  0  0
   -2.7700  -44.5880   14.9960 C   0  0  0  0  0
   -3.7090  -45.6700   13.1570 C   0  0  0  0  0
   -0.3820  -43.5740   18.8040 C   0  0  0  0  0
    0.0520  -49.5170    9.4060 O   0  0  0  0  0
    0.0640  -48.5280   10.1160 C   0  0  0  0  0
    1.2020  -48.2760   10.8920 N   0  0  0  0  0
    1.3770  -47.1890   11.7520 C   0  0  0  0  0
    0.3160  -46.2330   11.8760 C   0  0  0  0  0
   -0.8800  -46.4930   11.0680 C   0  0  0  0  0
   -1.0200  -47.5490   10.2440 C   0  0  0  0  0
    0.5290  -45.1340   12.7770 C   0  0  0  0  0
    1.6790  -44.8810   13.5300 C   0  0  0  0  0
    1.8470  -43.4810   14.6950 S   0  0  0  0  0
    0.6990  -42.6680   14.5480 O   0  0  0  0  0
    0.6680  -46.3230   16.4800 C   0  0  0  0  0
   -0.5300  -47.0800   16.4350 N   0  0  0  0  0
   -0.4980  -48.5320   16.1010 C   0  0  0  0  0
   -0.4200  -48.8780   18.4770 O   0  0  0  0  0
   -0.0220  -50.6130   17.1330 O   0  0  0  0  0
   -3.4410  -44.4610   13.7210 C   0  0  0  0  0
   -3.1640  -46.9110   14.1700 S   0  0  0  0  0
    1.7430  -46.8410   16.2610 O   0  0  0  0  0
    0.6070  -44.4700   18.2980 C   0  0  0  0  0
   -1.2690  -43.0100   17.9100 O   0  0  0  0  0
   -2.4370  -42.3300   18.3560 C   0  0  0  0  0
   -0.4180  -43.2800   20.1760 C   0  0  0  0  0
    0.4900  -43.8600   21.0620 C   0  0  0  0  0
    1.4570  -44.7360   20.5840 C   0  0  0  0  0
    1.5040  -45.0220   19.2150 C   0  0  0  0  0
    3.0850  -42.8210   14.4580 O   0  0  0  0  0
    2.6930  -45.8690   13.3910 C   0  0  0  0  0
    2.5620  -46.9530   12.5450 C   0  0  0  0  0
    2.7619  -44.1439   16.7402 H   0  0  0  0  0
   -0.2183  -44.3419   16.3713 H   0  0  0  0  0
   -2.5090  -47.2148   17.0868 H   0  0  0  0  0
   -1.6871  -45.6033   17.3514 H   0  0  0  0  0
   -2.4747  -43.7248   15.5925 H   0  0  0  0  0
   -4.2014  -45.8171   12.1958 H   0  0  0  0  0
    1.9698  -48.9440   10.8234 H   0  0  0  0  0
   -1.7076  -45.7872   11.1388 H   0  0  0  0  0
   -1.9392  -47.6759    9.6722 H   0  0  0  0  0
   -0.2912  -44.4242   12.8843 H   0  0  0  0  0
   -1.4529  -48.7971   15.6471 H   0  0  0  0  0
    0.3402  -48.7069   15.4265 H   0  0  0  0  0
    0.0054  -50.7454   16.1826 H   0  0  0  0  0
   -3.7021  -43.5063   13.2643 H   0  0  0  0  0
   -3.0601  -43.0176   18.9278 H   0  0  0  0  0
   -2.1479  -41.4894   18.9868 H   0  0  0  0  0
   -2.9943  -41.9640   17.4937 H   0  0  0  0  0
   -1.1684  -42.5865   20.5557 H   0  0  0  0  0
    0.4412  -43.6269   22.1257 H   0  0  0  0  0
    2.1709  -45.1952   21.2678 H   0  0  0  0  0
    2.2721  -45.7035   18.8494 H   0  0  0  0  0
    3.6081  -45.7667   13.9743 H   0  0  0  0  0
    3.3878  -47.6608   12.4724 H   0  0  0  0  0
  2  1  1  0  0  0
  1 18  1  0  0  0
 20  2  1  0  0  0
  2 28  1  0  0  0
 22  3  1  0  0  0
  3 23  2  0  0  0
  3 24  1  0  0  0
  4  5  1  0  0  0
 21  4  1  0  0  0
  5  6  4  0  0  0
  5 26  4  0  0  0
  6 25  4  0  0  0
  7 25  4  0  0  0
 26  7  4  0  0  0
 28  8  4  0  0  0
  8 29  1  0  0  0
  8 31  4  0  0  0
 10  9  2  0  0  0
 11 10  1  0  0  0
 15 10  1  0  0  0
 12 11  1  0  0  0
 13 12  4  0  0  0
 12 37  4  0  0  0
 13 14  1  0  0  0
 16 13  4  0  0  0
 14 15  2  0  0  0
 17 16  4  0  0  0
 18 17  1  0  0  0
 17 36  4  0  0  0
 18 19  2  0  0  0
 18 35  2  0  0  0
 21 20  1  0  0  0
 20 27  2  0  0  0
 21 22  1  0  0  0
 28 34  4  0  0  0
 29 30  1  0  0  0
 31 32  4  0  0  0
 32 33  4  0  0  0
 33 34  4  0  0  0
 36 37  4  0  0  0
  1 38  1  0  0  0
  2 39  1  0  0  0
  4 40  1  0  0  0
  4 41  1  0  0  0
  6 42  1  0  0  0
  7 43  1  0  0  0
 11 44  1  0  0  0
 14 45  1  0  0  0
 15 46  1  0  0  0
 16 47  1  0  0  0
 22 48  1  0  0  0
 22 49  1  0  0  0
 24 50  1  0  0  0
 25 51  1  0  0  0
 30 52  1  0  0  0
 30 53  1  0  0  0
 30 54  1  0  0  0
 31 55  1  0  0  0
 32 56  1  0  0  0
 33 57  1  0  0  0
 34 58  1  0  0  0
 36 59  1  0  0  0
 37 60  1  0  0  0
M  END
$$$$
