2w0d_ligand
  -I-interpret- 

 50 51  0  0  0  0  0  0  0  0999 V2000
  -13.5230   26.0670  -24.3240 N   0  0  0  0  0
  -12.7650   26.2880  -25.5890 C   0  0  0  0  0
  -12.7270   25.9980  -23.0720 C   0  0  0  0  0
  -15.1290   25.7660  -24.2430 S   0  0  0  0  0
  -13.0300   27.6000  -26.3120 C   0  0  0  0  0
  -13.9850   27.6540  -27.3340 C   0  0  0  0  0
  -14.2390   28.8620  -27.9930 C   0  0  0  0  0
  -13.5190   30.0070  -27.6500 C   0  0  0  0  0
  -12.5710   29.9610  -26.6420 N   0  0  0  0  0
  -12.3180   28.7610  -25.9890 C   0  0  0  0  0
  -15.3350   24.0430  -24.5130 C   0  0  0  0  0
  -15.5550   23.5380  -25.7880 C   0  0  0  0  0
  -15.7170   22.1630  -25.9590 C   0  0  0  0  0
  -15.6580   21.3020  -24.8580 C   0  0  0  0  0
  -15.4300   21.8100  -23.5910 C   0  0  0  0  0
  -15.2720   23.1810  -23.4220 C   0  0  0  0  0
  -15.8130   19.9490  -25.0190 O   0  0  0  0  0
  -16.0500   19.3930  -26.3180 C   0  0  0  0  0
  -15.8080   26.4700  -25.2830 O   0  0  0  0  0
  -15.5380   26.0370  -22.8950 O   0  0  0  0  0
  -12.0020   24.6730  -22.9740 C   0  0  0  0  0
  -12.1370   23.9740  -21.8540 N   0  0  0  0  0
  -11.7200   27.1500  -22.9200 C   0  0  0  0  0
  -12.3880   28.5000  -22.6490 C   0  0  0  0  0
  -10.6960   26.8770  -21.8110 C   0  0  0  0  0
  -11.3210   24.2820  -23.9050 O   0  0  0  0  0
  -11.6180   22.6770  -21.7730 O   0  0  0  0  0
  -13.0755   25.4969  -26.2715 H   0  0  0  0  0
  -11.7106   26.3006  -25.3132 H   0  0  0  0  0
  -13.4444   26.0937  -22.2570 H   0  0  0  0  0
  -14.5313   26.7542  -27.6168 H   0  0  0  0  0
  -14.9985   28.9085  -28.7735 H   0  0  0  0  0
  -13.7038   30.9423  -28.1783 H   0  0  0  0  0
  -11.5533   28.7231  -25.2132 H   0  0  0  0  0
  -15.6006   24.2089  -26.6459 H   0  0  0  0  0
  -15.8905   21.7574  -26.9557 H   0  0  0  0  0
  -15.3747   21.1407  -22.7325 H   0  0  0  0  0
  -15.0970   23.5849  -22.4248 H   0  0  0  0  0
  -16.9702   19.8095  -26.7277 H   0  0  0  0  0
  -15.2150   19.6378  -26.9745 H   0  0  0  0  0
  -16.1445   18.3102  -26.2366 H   0  0  0  0  0
  -12.6187   24.3819  -21.0528 H   0  0  0  0  0
  -11.2109   27.2041  -23.8823 H   0  0  0  0  0
  -12.8887   28.4684  -21.6813 H   0  0  0  0  0
  -11.6306   29.2839  -22.6422 H   0  0  0  0  0
  -13.1188   28.7058  -23.4311 H   0  0  0  0  0
   -9.9461   27.6680  -21.8079 H   0  0  0  0  0
  -11.2042   26.8526  -20.8470 H   0  0  0  0  0
  -10.2127   25.9171  -21.9928 H   0  0  0  0  0
  -11.7996   22.3147  -20.9028 H   0  0  0  0  0
  1  2  1  0  0  0
  1  3  1  0  0  0
  1  4  1  0  0  0
  2  5  1  0  0  0
  3 21  1  0  0  0
  3 23  1  0  0  0
  4 11  1  0  0  0
  4 19  2  0  0  0
  4 20  2  0  0  0
  5  6  4  0  0  0
  5 10  4  0  0  0
  6  7  4  0  0  0
  7  8  4  0  0  0
  8  9  4  0  0  0
  9 10  4  0  0  0
 11 12  4  0  0  0
 11 16  4  0  0  0
 12 13  4  0  0  0
 13 14  4  0  0  0
 14 15  4  0  0  0
 14 17  1  0  0  0
 15 16  4  0  0  0
 17 18  1  0  0  0
 21 22  1  0  0  0
 21 26  2  0  0  0
 22 27  1  0  0  0
 23 24  1  0  0  0
 23 25  1  0  0  0
  2 28  1  0  0  0
  2 29  1  0  0  0
  3 30  1  0  0  0
  6 31  1  0  0  0
  7 32  1  0  0  0
  8 33  1  0  0  0
 10 34  1  0  0  0
 12 35  1  0  0  0
 13 36  1  0  0  0
 15 37  1  0  0  0
 16 38  1  0  0  0
 18 39  1  0  0  0
 18 40  1  0  0  0
 18 41  1  0  0  0
 22 42  1  0  0  0
 23 43  1  0  0  0
 24 44  1  0  0  0
 24 45  1  0  0  0
 24 46  1  0  0  0
 25 47  1  0  0  0
 25 48  1  0  0  0
 25 49  1  0  0  0
 27 50  1  0  0  0
M  END
$$$$
