1cqp_ligand
  -I-interpret- 

 65 67  0  0  0  0  0  0  0  0999 V2000
   52.4970   19.0250   23.0520 C   0  0  0  0  0
   52.3930   17.4820   22.9710 C   0  0  0  0  0
   52.3590   16.8340   24.3770 C   0  0  0  0  0
   53.7770   16.4580   24.8570 C   0  0  0  0  0
   51.6980   17.6970   25.4280 C   0  0  0  0  0
   51.2060   18.9180   25.1890 C   0  0  0  0  0
   50.5820   19.6860   26.2740 C   0  0  0  0  0
   50.1060   20.9220   26.0850 C   0  0  0  0  0
   50.1760   21.6320   24.7610 C   0  0  0  0  0
   48.8680   21.5420   23.9490 C   0  0  0  0  0
   51.3640   21.0580   23.9710 C   0  0  0  0  0
   51.2660   19.5320   23.8230 C   0  0  0  0  0
   51.4470   21.6940   22.5800 C   0  0  0  0  0
   51.6710   23.2090   22.7270 C   0  0  0  0  0
   52.1770   23.6960   21.3660 C   0  0  0  0  0
   52.4360   25.2180   21.4380 C   0  0  0  0  0
   51.5990   25.9840   20.4090 C   0  0  0  0  0
   52.1580   25.8210   19.1020 O   0  0  0  0  0
   50.1960   25.3740   20.5210 C   0  0  0  0  0
   50.2820   23.9780   19.9740 C   0  0  0  0  0
   49.4630   23.5850   19.1560 O   0  0  0  0  0
   51.2610   23.1690   20.3890 O   0  0  0  0  0
   53.6780   19.4070   23.7720 O   0  0  0  0  0
   54.7650   19.3950   22.9950 C   0  0  0  0  0
   54.7340   19.1020   21.8090 O   0  0  0  0  0
   56.0300   19.7780   23.7120 C   0  0  0  0  0
   57.0590   18.6370   23.6090 C   0  0  0  0  0
   56.6070   21.0700   23.1160 C   0  0  0  0  0
   55.5920   22.2020   23.3600 C   0  0  0  0  0
   52.5437   19.4479   22.0485 H   0  0  0  0  0
   53.2688   17.1067   22.4416 H   0  0  0  0  0
   51.4680   17.2274   22.4537 H   0  0  0  0  0
   51.7526   15.9360   24.2589 H   0  0  0  0  0
   54.3605   17.3661   25.0089 H   0  0  0  0  0
   53.7076   15.9080   25.7955 H   0  0  0  0  0
   54.2608   15.8354   24.1044 H   0  0  0  0  0
   51.6176   17.3009   26.4403 H   0  0  0  0  0
   50.5043   19.2354   27.2634 H   0  0  0  0  0
   49.6468   21.4376   26.9285 H   0  0  0  0  0
   50.3198   22.6959   24.9493 H   0  0  0  0  0
   48.6375   20.4957   23.7487 H   0  0  0  0  0
   48.0557   21.9915   24.5201 H   0  0  0  0  0
   48.9897   22.0755   23.0063 H   0  0  0  0  0
   52.2654   21.2941   24.5366 H   0  0  0  0  0
   50.3679   19.2550   23.2709 H   0  0  0  0  0
   50.5178   21.5130   22.0397 H   0  0  0  0  0
   52.2766   21.2542   22.0263 H   0  0  0  0  0
   52.3907   23.4265   23.5162 H   0  0  0  0  0
   50.7499   23.7182   23.0106 H   0  0  0  0  0
   53.1541   23.3285   21.0525 H   0  0  0  0  0
   53.4900   25.3976   21.2258 H   0  0  0  0  0
   52.1603   25.5667   22.4332 H   0  0  0  0  0
   51.5751   27.0589   20.5882 H   0  0  0  0  0
   51.6265   26.3045   18.4653 H   0  0  0  0  0
   49.4717   25.9649   19.9604 H   0  0  0  0  0
   49.8610   25.3628   21.5582 H   0  0  0  0  0
   55.8013   19.9520   24.7634 H   0  0  0  0  0
   56.6471   17.7359   24.0632 H   0  0  0  0  0
   57.2842   18.4462   22.5597 H   0  0  0  0  0
   57.9716   18.9242   24.1314 H   0  0  0  0  0
   56.7827   20.9459   22.0474 H   0  0  0  0  0
   57.5594   21.3100   23.5887 H   0  0  0  0  0
   54.6479   21.9524   22.8757 H   0  0  0  0  0
   55.4320   22.3200   24.4317 H   0  0  0  0  0
   55.9801   23.1320   22.9447 H   0  0  0  0  0
  1  2  1  0  0  0
  1 12  1  0  0  0
  1 23  1  0  0  0
  2  3  1  0  0  0
  3  4  1  0  0  0
  3  5  1  0  0  0
  5  6  2  0  0  0
  6  7  1  0  0  0
  6 12  1  0  0  0
  7  8  2  0  0  0
  8  9  1  0  0  0
  9 10  1  0  0  0
  9 11  1  0  0  0
 11 12  1  0  0  0
 11 13  1  0  0  0
 13 14  1  0  0  0
 14 15  1  0  0  0
 15 16  1  0  0  0
 15 22  1  0  0  0
 16 17  1  0  0  0
 17 18  1  0  0  0
 17 19  1  0  0  0
 19 20  1  0  0  0
 20 21  2  0  0  0
 20 22  1  0  0  0
 23 24  1  0  0  0
 24 25  2  0  0  0
 24 26  1  0  0  0
 26 27  1  0  0  0
 26 28  1  0  0  0
 28 29  1  0  0  0
  1 30  1  0  0  0
  2 31  1  0  0  0
  2 32  1  0  0  0
  3 33  1  0  0  0
  4 34  1  0  0  0
  4 35  1  0  0  0
  4 36  1  0  0  0
  5 37  1  0  0  0
  7 38  1  0  0  0
  8 39  1  0  0  0
  9 40  1  0  0  0
 10 41  1  0  0  0
 10 42  1  0  0  0
 10 43  1  0  0  0
 11 44  1  0  0  0
 12 45  1  0  0  0
 13 46  1  0  0  0
 13 47  1  0  0  0
 14 48  1  0  0  0
 14 49  1  0  0  0
 15 50  1  0  0  0
 16 51  1  0  0  0
 16 52  1  0  0  0
 17 53  1  0  0  0
 18 54  1  0  0  0
 19 55  1  0  0  0
 19 56  1  0  0  0
 26 57  1  0  0  0
 27 58  1  0  0  0
 27 59  1  0  0  0
 27 60  1  0  0  0
 28 61  1  0  0  0
 28 62  1  0  0  0
 29 63  1  0  0  0
 29 64  1  0  0  0
 29 65  1  0  0  0
M  END
$$$$
