### 
### Created by X-TOOL on Mon Sep 10 21:13:00 2018
### 

@<TRIPOS>MOLECULE
2w5i_ligand
   43    45     1     0     0
SMALL
GAST_HUCK


@<TRIPOS>ATOM
      1 PG         38.7520   -1.7230   24.7630 P.3       1 ATP         0.1879
      2 O1G        40.0900   -2.1310   25.3460 O.co2     1 ATP        -0.6091
      3 O2G        38.8580   -0.6890   23.6680 O.co2     1 ATP        -0.6091
      4 O3G        37.6370   -1.4520   25.7590 O.co2     1 ATP        -0.6091
      5 PB         37.1220   -3.2250   22.9640 P.3       1 ATP         0.3553
      6 O1B        35.8120   -3.5210   23.6370 O.co2     1 ATP        -0.5652
      7 O2B        37.2400   -2.0440   22.0440 O.co2     1 ATP        -0.5652
      8 O3B        38.2940   -3.1140   24.0620 O.3       1 ATP        -0.1546
      9 PA         39.0190   -4.6980   21.4980 P.3       1 ATP         0.3266
     10 O1A        39.6030   -3.3540   21.1040 O.co2     1 ATP        -0.5692
     11 O2A        39.7710   -5.5720   22.4890 O.co2     1 ATP        -0.5692
     12 O3A        37.5470   -4.5100   22.1170 O.3       1 ATP        -0.1171
     13 O5'        38.6160   -5.5220   20.1650 O.3       1 ATP        -0.2441
     14 C5'        37.9130   -6.7530   20.3350 C.3       1 ATP         0.1131
     15 C4'        37.8280   -7.5550   19.0430 C.3       1 ATP         0.1189
     16 O4'        36.9740   -6.8760   18.1260 O.3       1 ATP        -0.3364
     17 C3'        39.1630   -7.7830   18.3170 C.3       1 ATP         0.1149
     18 O3'        39.5230   -9.1700   18.4320 O.3       1 ATP        -0.3864
     19 C2'        38.9170   -7.4030   16.8580 C.3       1 ATP         0.1385
     20 O2'        39.1260   -8.4690   15.9380 O.3       1 ATP        -0.3836
     21 C1'        37.4190   -7.1850   16.7880 C.3       1 ATP         0.2010
     22 N9         37.0420   -6.1660   15.7600 N.pl3     1 ATP        -0.1919
     23 C8         36.1890   -6.4390   14.7620 C.2       1 ATP         0.1123
     24 N7         35.9820   -5.3570   13.9930 N.2       1 ATP        -0.2958
     25 C5         36.7490   -4.3810   14.4890 C.ar      1 ATP         0.1045
     26 C6         36.9500   -2.9980   14.0980 C.ar      1 ATP         0.1298
     27 N6         36.2890   -2.5630   12.9860 N.pl3     1 ATP        -0.3152
     28 N1         37.7730   -2.2510   14.8740 N.ar      1 ATP        -0.2698
     29 C2         38.4250   -2.7690   15.9570 C.ar      1 ATP         0.0533
     30 N3         38.2740   -4.0510   16.3710 N.ar      1 ATP        -0.2714
     31 C4         37.4420   -4.8870   15.6700 C.ar      1 ATP         0.1613
     32 H1         36.8927   -6.5324   20.6818 H         1 ATP         0.0648
     33 H2         38.4351   -7.3566   21.0920 H         1 ATP         0.0648
     34 H3         37.3975   -8.5375   19.2866 H         1 ATP         0.0651
     35 H4         39.9557   -7.1544   18.7488 H         1 ATP         0.0648
     36 H5         38.8455   -9.7057   18.0363 H         1 ATP         0.2100
     37 H6         39.5011   -6.5142   16.5773 H         1 ATP         0.0676
     38 H7         38.5364   -9.1845   16.1449 H         1 ATP         0.2101
     39 H8         36.9466   -8.1314   16.4861 H         1 ATP         0.0996
     40 H9         35.7250   -7.4102   14.5966 H         1 ATP         0.1349
     41 H10        36.3999   -1.5893   12.6689 H         1 ATP         0.1820
     42 H11        35.6793   -3.2084   12.4639 H         1 ATP         0.1820
     43 H12        39.0958   -2.1235   16.5123 H         1 ATP         0.0996
@<TRIPOS>BOND
     1    1    2 ar 
     2    1    3 ar 
     3    1    4 ar 
     4    8    1 1  
     5    5    6 ar 
     6    5    7 ar 
     7    5    8 1  
     8   12    5 1  
     9    9   10 ar 
    10    9   11 ar 
    11    9   12 1  
    12    9   13 1  
    13   13   14 1  
    14   14   15 1  
    15   15   16 1  
    16   15   17 1  
    17   16   21 1  
    18   17   18 1  
    19   17   19 1  
    20   19   20 1  
    21   19   21 1  
    22   21   22 1  
    23   22   23 1  
    24   22   31 1  
    25   23   24 2  
    26   24   25 1  
    27   25   26 ar 
    28   25   31 ar 
    29   26   27 1  
    30   26   28 ar 
    31   28   29 ar 
    32   29   30 ar 
    33   30   31 ar 
    34   14   32 1  
    35   14   33 1  
    36   15   34 1  
    37   17   35 1  
    38   18   36 1  
    39   19   37 1  
    40   20   38 1  
    41   21   39 1  
    42   23   40 1  
    43   27   41 1  
    44   27   42 1  
    45   29   43 1  
@<TRIPOS>SUBSTRUCTURE
     1 ATP         1

