2w5i_ligand
  -I-interpret- 

 47 49  0  0  0  0  0  0  0  0999 V2000
   38.7520   -1.7230   24.7630 P   0  0  0  0  0
   40.0900   -2.1310   25.3460 O   0  0  0  0  0
   38.8580   -0.6890   23.6680 O   0  0  0  0  0
   37.6370   -1.4520   25.7590 O   0  0  0  0  0
   37.1220   -3.2250   22.9640 P   0  0  0  0  0
   35.8120   -3.5210   23.6370 O   0  0  0  0  0
   37.2400   -2.0440   22.0440 O   0  0  0  0  0
   38.2940   -3.1140   24.0620 O   0  0  0  0  0
   39.0190   -4.6980   21.4980 P   0  0  0  0  0
   39.6030   -3.3540   21.1040 O   0  0  0  0  0
   39.7710   -5.5720   22.4890 O   0  0  0  0  0
   37.5470   -4.5100   22.1170 O   0  0  0  0  0
   38.6160   -5.5220   20.1650 O   0  0  0  0  0
   37.9130   -6.7530   20.3350 C   0  0  0  0  0
   37.8280   -7.5550   19.0430 C   0  0  0  0  0
   36.9740   -6.8760   18.1260 O   0  0  0  0  0
   39.1630   -7.7830   18.3170 C   0  0  0  0  0
   39.5230   -9.1700   18.4320 O   0  0  0  0  0
   38.9170   -7.4030   16.8580 C   0  0  0  0  0
   39.1260   -8.4690   15.9380 O   0  0  0  0  0
   37.4190   -7.1850   16.7880 C   0  0  0  0  0
   37.0420   -6.1660   15.7600 N   0  0  0  0  0
   36.1890   -6.4390   14.7620 C   0  0  0  0  0
   35.9820   -5.3570   13.9930 N   0  0  0  0  0
   36.7490   -4.3810   14.4890 C   0  0  0  0  0
   36.9500   -2.9980   14.0980 C   0  0  0  0  0
   36.2890   -2.5630   12.9860 N   0  0  0  0  0
   37.7730   -2.2510   14.8740 N   0  0  0  0  0
   38.4250   -2.7690   15.9570 C   0  0  0  0  0
   38.2740   -4.0510   16.3710 N   0  0  0  0  0
   37.4420   -4.8870   15.6700 C   0  0  0  0  0
   39.9517   -2.7871   26.0330 H   0  0  0  0  0
   37.6276   -2.1448   26.4235 H   0  0  0  0  0
   35.9053   -4.3026   24.1866 H   0  0  0  0  0
   39.2790   -6.3831   22.6362 H   0  0  0  0  0
   36.8975   -6.5204   20.6554 H   0  0  0  0  0
   38.4527   -7.3514   21.0690 H   0  0  0  0  0
   37.4558   -8.5327   19.3491 H   0  0  0  0  0
   39.9760   -7.1908   18.7370 H   0  0  0  0  0
   40.3567   -9.3215   17.9808 H   0  0  0  0  0
   39.5777   -6.5744   16.6031 H   0  0  0  0  0
   38.9539   -8.1587   15.0460 H   0  0  0  0  0
   36.9066   -8.0842   16.4460 H   0  0  0  0  0
   35.7246   -7.4111   14.5964 H   0  0  0  0  0
   35.6852   -3.2021   12.4690 H   0  0  0  0  0
   36.3988   -1.5988   12.6720 H   0  0  0  0  0
   39.0995   -2.1199   16.5154 H   0  0  0  0  0
  1  2  1  0  0  0
  1  3  2  0  0  0
  1  4  1  0  0  0
  8  1  1  0  0  0
  5  6  1  0  0  0
  5  7  2  0  0  0
  5  8  1  0  0  0
 12  5  1  0  0  0
  9 10  2  0  0  0
  9 11  1  0  0  0
  9 12  1  0  0  0
  9 13  1  0  0  0
 13 14  1  0  0  0
 14 15  1  0  0  0
 15 16  1  0  0  0
 15 17  1  0  0  0
 16 21  1  0  0  0
 17 18  1  0  0  0
 17 19  1  0  0  0
 19 20  1  0  0  0
 19 21  1  0  0  0
 21 22  1  0  0  0
 22 23  4  0  0  0
 22 31  4  0  0  0
 23 24  4  0  0  0
 24 25  4  0  0  0
 25 26  4  0  0  0
 25 31  4  0  0  0
 26 27  1  0  0  0
 26 28  4  0  0  0
 28 29  4  0  0  0
 29 30  4  0  0  0
 30 31  4  0  0  0
  2 32  1  0  0  0
  4 33  1  0  0  0
  6 34  1  0  0  0
 11 35  1  0  0  0
 14 36  1  0  0  0
 14 37  1  0  0  0
 15 38  1  0  0  0
 17 39  1  0  0  0
 18 40  1  0  0  0
 19 41  1  0  0  0
 20 42  1  0  0  0
 21 43  1  0  0  0
 23 44  1  0  0  0
 27 45  1  0  0  0
 27 46  1  0  0  0
 29 47  1  0  0  0
M  END
$$$$
