3q4j_ligand
  -I-interpret- 

 96 96  0  0  0  0  0  0  0  0999 V2000
   27.1780   49.6790   67.4180 C   0  0  0  0  0
   26.6190   48.8100   68.1080 O   0  0  0  0  0
   28.1850   50.6380   68.0250 C   0  0  0  0  0
   26.9200   49.8710   66.1040 N   0  0  0  0  0
   25.9590   49.1140   65.3140 C   0  0  0  0  0
   26.2190   47.6110   65.2690 C   0  0  0  0  0
   27.2240   47.1570   64.7220 O   0  0  0  0  0
   25.7420   49.7260   63.9080 C   0  0  0  0  0
   24.5930   49.0880   63.0860 C   0  0  0  0  0
   23.2240   49.0570   63.7610 C   0  0  0  0  0
   22.6090   48.0050   63.9270 O   0  0  0  0  0
   22.7100   50.1950   64.1700 N   0  0  0  0  0
   25.2800   46.8390   65.8460 N   0  0  0  0  0
   25.3450   45.3760   65.8500 C   0  0  0  0  0
   24.7600   44.8160   64.5350 C   0  0  0  0  0
   23.9810   45.4930   63.8450 O   0  0  0  0  0
   24.6510   44.7670   67.1010 C   0  0  0  0  0
   25.2030   45.1880   68.4770 C   0  0  0  0  0
   24.1350   45.0690   69.5710 C   0  0  0  0  0
   26.4460   44.4100   68.8260 C   0  0  0  0  0
   25.1640   43.5940   64.1820 N   0  0  0  0  0
   24.6990   42.9610   62.9530 C   0  0  0  0  0
   23.6650   41.8710   63.2040 C   0  0  0  0  0
   23.7300   41.1920   64.2390 O   0  0  0  0  0
   25.8910   42.4410   62.1440 C   0  0  0  0  0
   26.5490   43.5130   61.2990 C   0  0  0  0  0
   27.2030   44.4100   61.8830 O   0  0  0  0  0
   26.3860   43.4720   60.0500 O   0  0  0  0  0
   22.6960   41.7180   62.2640 N   0  0  0  0  0
   21.6510   40.6810   62.3320 C   0  0  0  0  0
   22.2330   39.2920   62.0870 C   0  0  0  0  0
   21.6930   38.3120   62.5900 O   0  0  0  0  0
   20.5430   40.9210   61.2930 C   0  0  0  0  0
   19.5180   41.9850   61.5760 C   0  0  0  0  0
   18.6070   42.1230   60.4100 C   0  0  0  0  0
   18.7340   41.6990   62.8480 C   0  0  0  0  0
   23.2910   39.2180   61.2610 N   0  0  0  0  0
   23.9930   38.0050   60.8400 C   0  0  0  0  0
   25.4020   38.3620   60.3080 C   0  0  0  0  0
   25.6360   39.5490   59.9690 O   0  0  0  0  0
   23.1660   37.2470   59.7680 C   0  0  0  0  0
   22.6560   38.1220   58.6500 C   0  0  0  0  0
   23.4500   38.3990   57.5440 C   0  0  0  0  0
   21.3880   38.6910   58.7140 C   0  0  0  0  0
   22.9960   39.2540   56.5370 C   0  0  0  0  0
   20.9410   39.5540   57.7170 C   0  0  0  0  0
   21.7430   39.8230   56.6300 C   0  0  0  0  0
   26.2610   37.4540   60.2120 O   0  0  0  0  0
   27.7048   51.2146   68.8156 H   0  0  0  0  0
   29.0185   50.0722   68.4412 H   0  0  0  0  0
   28.5525   51.3138   67.2527 H   0  0  0  0  0
   27.4416   50.6066   65.6273 H   0  0  0  0  0
   25.0165   49.2095   65.8532 H   0  0  0  0  0
   26.6612   49.5585   63.3466 H   0  0  0  0  0
   25.4780   50.7729   64.0578 H   0  0  0  0  0
   24.8760   48.0485   62.9202 H   0  0  0  0  0
   24.4795   49.7010   62.1919 H   0  0  0  0  0
   21.7981   50.2078   64.6268 H   0  0  0  0  0
   23.2229   51.0656   64.0307 H   0  0  0  0  0
   24.4878   47.2929   66.3008 H   0  0  0  0  0
   26.3927   45.0811   65.9098 H   0  0  0  0  0
   24.8052   43.6901   67.0338 H   0  0  0  0  0
   23.6199   45.1193   67.0720 H   0  0  0  0  0
   25.4820   46.2398   68.4138 H   0  0  0  0  0
   23.2913   45.7138   69.3250 H   0  0  0  0  0
   23.7968   44.0348   69.6359 H   0  0  0  0  0
   24.5604   45.3741   70.5270 H   0  0  0  0  0
   26.2109   43.3461   68.8553 H   0  0  0  0  0
   27.2116   44.5936   68.0722 H   0  0  0  0  0
   26.8112   44.7297   69.8020 H   0  0  0  0  0
   25.8136   43.0906   64.7862 H   0  0  0  0  0
   24.1862   43.7225   62.3655 H   0  0  0  0  0
   25.5218   41.6681   61.4699 H   0  0  0  0  0
   26.6352   42.0727   62.8502 H   0  0  0  0  0
   25.8561   42.7045   59.8226 H   0  0  0  0  0
   22.6915   42.3556   61.4679 H   0  0  0  0  0
   21.2301   40.7386   63.3358 H   0  0  0  0  0
   19.9825   39.9871   61.2509 H   0  0  0  0  0
   21.0609   41.2540   60.3936 H   0  0  0  0  0
   20.0426   42.9269   61.7364 H   0  0  0  0  0
   19.1857   42.4020   59.5294 H   0  0  0  0  0
   18.1035   41.1733   60.2295 H   0  0  0  0  0
   17.8660   42.8946   60.6188 H   0  0  0  0  0
   18.2159   40.7453   62.7473 H   0  0  0  0  0
   19.4201   41.6537   63.6937 H   0  0  0  0  0
   18.0062   42.4939   63.0112 H   0  0  0  0  0
   23.6414   40.1005   60.8884 H   0  0  0  0  0
   24.1110   37.3468   61.7008 H   0  0  0  0  0
   24.8534   40.0840   60.1202 H   0  0  0  0  0
   22.2951   36.8265   60.2708 H   0  0  0  0  0
   23.8244   36.5028   59.3199 H   0  0  0  0  0
   24.4373   37.9445   57.4613 H   0  0  0  0  0
   20.7359   38.4581   59.5558 H   0  0  0  0  0
   23.6314   39.4713   55.6784 H   0  0  0  0  0
   19.9571   40.0164   57.7966 H   0  0  0  0  0
   21.3869   40.4866   55.8420 H   0  0  0  0  0
  1  2  2  0  0  0
  1  3  1  0  0  0
  1  4  1  0  0  0
  4  5  1  0  0  0
  5  6  1  0  0  0
  5  8  1  0  0  0
  6  7  2  0  0  0
  6 13  1  0  0  0
  8  9  1  0  0  0
  9 10  1  0  0  0
 10 11  2  0  0  0
 10 12  1  0  0  0
 13 14  1  0  0  0
 14 15  1  0  0  0
 14 17  1  0  0  0
 15 16  2  0  0  0
 15 21  1  0  0  0
 17 18  1  0  0  0
 18 19  1  0  0  0
 18 20  1  0  0  0
 21 22  1  0  0  0
 22 23  1  0  0  0
 22 25  1  0  0  0
 23 24  2  0  0  0
 23 29  1  0  0  0
 25 26  1  0  0  0
 26 27  2  0  0  0
 26 28  1  0  0  0
 29 30  1  0  0  0
 30 31  1  0  0  0
 30 33  1  0  0  0
 31 32  2  0  0  0
 31 37  1  0  0  0
 33 34  1  0  0  0
 34 35  1  0  0  0
 34 36  1  0  0  0
 37 38  1  0  0  0
 38 39  1  0  0  0
 38 41  1  0  0  0
 39 40  1  0  0  0
 39 48  2  0  0  0
 41 42  1  0  0  0
 42 43  4  0  0  0
 42 44  4  0  0  0
 43 45  4  0  0  0
 44 46  4  0  0  0
 45 47  4  0  0  0
 46 47  4  0  0  0
  3 49  1  0  0  0
  3 50  1  0  0  0
  3 51  1  0  0  0
  4 52  1  0  0  0
  5 53  1  0  0  0
  8 54  1  0  0  0
  8 55  1  0  0  0
  9 56  1  0  0  0
  9 57  1  0  0  0
 12 58  1  0  0  0
 12 59  1  0  0  0
 13 60  1  0  0  0
 14 61  1  0  0  0
 17 62  1  0  0  0
 17 63  1  0  0  0
 18 64  1  0  0  0
 19 65  1  0  0  0
 19 66  1  0  0  0
 19 67  1  0  0  0
 20 68  1  0  0  0
 20 69  1  0  0  0
 20 70  1  0  0  0
 21 71  1  0  0  0
 22 72  1  0  0  0
 25 73  1  0  0  0
 25 74  1  0  0  0
 28 75  1  0  0  0
 29 76  1  0  0  0
 30 77  1  0  0  0
 33 78  1  0  0  0
 33 79  1  0  0  0
 34 80  1  0  0  0
 35 81  1  0  0  0
 35 82  1  0  0  0
 35 83  1  0  0  0
 36 84  1  0  0  0
 36 85  1  0  0  0
 36 86  1  0  0  0
 37 87  1  0  0  0
 38 88  1  0  0  0
 40 89  1  0  0  0
 41 90  1  0  0  0
 41 91  1  0  0  0
 43 92  1  0  0  0
 44 93  1  0  0  0
 45 94  1  0  0  0
 46 95  1  0  0  0
 47 96  1  0  0  0
M  END
$$$$
