### 
### Created by X-TOOL on Mon Sep 10 21:13:07 2018
### 

@<TRIPOS>MOLECULE
3q4j_ligand
   94    94     1     0     0
SMALL
GAST_HUCK


@<TRIPOS>ATOM
      1 C          27.1780   49.6790   67.4180 C.2       1 ACE         0.1751
      2 O          26.6190   48.8100   68.1080 O.2       1 ACE        -0.3972
      3 CH3        28.1850   50.6380   68.0250 C.3       1 ACE         0.0258
      4 N          26.9200   49.8710   66.1040 N.am      1 GLN        -0.2657
      5 CA         25.9590   49.1140   65.3140 C.3       1 GLN         0.1329
      6 C          26.2190   47.6110   65.2690 C.2       1 GLN         0.2040
      7 O          27.2240   47.1570   64.7220 O.2       1 GLN        -0.3944
      8 CB         25.7420   49.7260   63.9080 C.3       1 GLN         0.0045
      9 CG         24.5930   49.0880   63.0860 C.3       1 GLN         0.0412
     10 CD         23.2240   49.0570   63.7610 C.2       1 GLN         0.1737
     11 OE1        22.6090   48.0050   63.9270 O.2       1 GLN        -0.3973
     12 NE2        22.7100   50.1950   64.1700 N.am      1 GLN        -0.3009
     13 N          25.2800   46.8390   65.8460 N.am      1 LEU        -0.2637
     14 CA         25.3450   45.3760   65.8500 C.3       1 LEU         0.1312
     15 C          24.7600   44.8160   64.5350 C.2       1 LEU         0.2040
     16 O          23.9810   45.4930   63.8450 O.2       1 LEU        -0.3944
     17 CB         24.6510   44.7670   67.1010 C.3       1 LEU        -0.0101
     18 CG         25.2030   45.1880   68.4770 C.3       1 LEU        -0.0425
     19 CD1        24.1350   45.0690   69.5710 C.3       1 LEU        -0.0625
     20 CD2        26.4460   44.4100   68.8260 C.3       1 LEU        -0.0625
     21 N          25.1640   43.5940   64.1820 N.am      1 ASP        -0.2622
     22 CA         24.6990   42.9610   62.9530 C.3       1 ASP         0.1423
     23 C          23.6650   41.8710   63.2040 C.2       1 ASP         0.2056
     24 O          23.7300   41.1920   64.2390 O.2       1 ASP        -0.3943
     25 CB         25.8910   42.4410   62.1440 C.3       1 ASP         0.0406
     26 CG         26.5490   43.5130   61.2990 C.2       1 ASP         0.0393
     27 OD1        27.2030   44.4100   61.8830 O.co2     1 ASP        -0.5688
     28 OD2        26.3860   43.4720   60.0500 O.co2     1 ASP        -0.5688
     29 N          22.6960   41.7180   62.2640 N.am      1 LEU        -0.2636
     30 CA         21.6510   40.6810   62.3320 C.3       1 LEU         0.1312
     31 C          22.2330   39.2920   62.0870 C.2       1 LEU         0.2035
     32 O          21.6930   38.3120   62.5900 O.2       1 LEU        -0.3944
     33 CB         20.5430   40.9210   61.2930 C.3       1 LEU        -0.0101
     34 CG         19.5180   41.9850   61.5760 C.3       1 LEU        -0.0425
     35 CD1        18.6070   42.1230   60.4100 C.3       1 LEU        -0.0625
     36 CD2        18.7340   41.6990   62.8480 C.3       1 LEU        -0.0625
     37 N          23.2910   39.2180   61.2610 N.am      1 PHE        -0.2677
     38 CA         23.9930   38.0050   60.8400 C.3       1 PHE         0.1039
     39 C          25.4020   38.3620   60.3080 C.2       1 PHE         0.0621
     40 O          25.6360   39.5490   59.9690 O.co2     1 PHE        -0.5664
     41 CB         23.1660   37.2470   59.7680 C.3       1 PHE         0.0159
     42 CG         22.6560   38.1220   58.6500 C.ar      1 PHE        -0.0392
     43 CD1        23.4500   38.3990   57.5440 C.ar      1 PHE        -0.0602
     44 CD2        21.3880   38.6910   58.7140 C.ar      1 PHE        -0.0602
     45 CE1        22.9960   39.2540   56.5370 C.ar      1 PHE        -0.0686
     46 CE2        20.9410   39.5540   57.7170 C.ar      1 PHE        -0.0686
     47 CZ         21.7430   39.8230   56.6300 C.ar      1 PHE        -0.0687
     48 OXT        26.2610   37.4540   60.2120 O.co2     1 PHE        -0.5664
     49 H1         28.5566   51.3206   67.2465 H         1 ACE         0.0467
     50 H2         29.0268   50.0682   68.4453 H         1 ACE         0.0467
     51 H3         27.7016   51.2206   68.8231 H         1 ACE         0.0467
     52 H4         27.4313   50.5922   65.6366 H         1 GLN         0.1883
     53 H5         24.9987   49.2260   65.8386 H         1 GLN         0.0801
     54 H6         26.6752   49.6095   63.3374 H         1 GLN         0.0337
     55 H7         25.5193   50.7960   64.0322 H         1 GLN         0.0337
     56 H8         24.8788   48.0508   62.8570 H         1 GLN         0.0504
     57 H9         24.4935   49.6562   62.1494 H         1 GLN         0.0504
     58 H10        21.8150   50.2078   64.6158 H         1 GLN         0.1814
     59 H11        23.2139   51.0482   64.0355 H         1 GLN         0.1814
     60 H12        24.5033   47.2840   66.2918 H         1 LEU         0.1883
     61 H13        26.4060   45.0889   65.8924 H         1 LEU         0.0800
     62 H14        24.7364   43.6727   67.0291 H         1 LEU         0.0315
     63 H15        23.5900   45.0551   67.0660 H         1 LEU         0.0315
     64 H16        25.4864   46.2486   68.4087 H         1 LEU         0.0298
     65 H17        24.5632   45.3767   70.5364 H         1 LEU         0.0232
     66 H18        23.7929   44.0257   69.6375 H         1 LEU         0.0232
     67 H19        23.2829   45.7193   69.3239 H         1 LEU         0.0232
     68 H20        27.1859   44.5199   68.0195 H         1 LEU         0.0232
     69 H21        26.1912   43.3468   68.9474 H         1 LEU         0.0232
     70 H22        26.8681   44.7955   69.7658 H         1 LEU         0.0232
     71 H23        25.8008   43.1005   64.7744 H         1 ASP         0.1884
     72 H24        24.2056   43.7385   62.3514 H         1 ASP         0.0819
     73 H25        25.5395   41.6381   61.4794 H         1 ASP         0.0478
     74 H26        26.6390   42.0377   62.8425 H         1 ASP         0.0478
     75 H27        22.6916   42.3431   61.4835 H         1 LEU         0.1883
     76 H28        21.2059   40.7084   63.3376 H         1 LEU         0.0800
     77 H29        20.0012   39.9717   61.1695 H         1 LEU         0.0315
     78 H30        21.0362   41.1876   60.3466 H         1 LEU         0.0315
     79 H31        20.0470   42.9394   61.7150 H         1 LEU         0.0298
     80 H32        17.8586   42.9015   60.6195 H         1 LEU         0.0232
     81 H33        18.0982   41.1651   60.2268 H         1 LEU         0.0232
     82 H34        19.1898   42.4046   59.5206 H         1 LEU         0.0232
     83 H35        19.4304   41.6016   63.6939 H         1 LEU         0.0232
     84 H36        18.1696   40.7625   62.7281 H         1 LEU         0.0232
     85 H37        18.0352   42.5261   63.0418 H         1 LEU         0.0232
     86 H38        23.6346   40.0832   60.8957 H         1 PHE         0.1877
     87 H39        24.1094   37.3480   61.7145 H         1 PHE         0.0749
     88 H40        22.3015   36.7818   60.2641 H         1 PHE         0.0467
     89 H41        23.8028   36.4640   59.3305 H         1 PHE         0.0467
     90 H42        24.4318   37.9470   57.4617 H         1 PHE         0.0557
     91 H43        20.7395   38.4594   59.5512 H         1 PHE         0.0557
     92 H44        23.6279   39.4701   55.6832 H         1 PHE         0.0599
     93 H45        19.9626   40.0138   57.7962 H         1 PHE         0.0599
     94 H46        21.3889   40.4830   55.8463 H         1 PHE         0.0559
@<TRIPOS>BOND
     1    1    2 2  
     2    1    3 1  
     3    1    4 am 
     4    4    5 1  
     5    5    6 1  
     6    5    8 1  
     7    6    7 2  
     8    6   13 am 
     9    8    9 1  
    10    9   10 1  
    11   10   11 2  
    12   10   12 am 
    13   13   14 1  
    14   14   15 1  
    15   14   17 1  
    16   15   16 2  
    17   15   21 am 
    18   17   18 1  
    19   18   19 1  
    20   18   20 1  
    21   21   22 1  
    22   22   23 1  
    23   22   25 1  
    24   23   24 2  
    25   23   29 am 
    26   25   26 1  
    27   26   27 ar 
    28   26   28 ar 
    29   29   30 1  
    30   30   31 1  
    31   30   33 1  
    32   31   32 2  
    33   31   37 am 
    34   33   34 1  
    35   34   35 1  
    36   34   36 1  
    37   37   38 1  
    38   38   39 1  
    39   38   41 1  
    40   39   40 ar 
    41   39   48 ar 
    42   41   42 1  
    43   42   43 ar 
    44   42   44 ar 
    45   43   45 ar 
    46   44   46 ar 
    47   45   47 ar 
    48   46   47 ar 
    49    3   49 1  
    50    3   50 1  
    51    3   51 1  
    52    4   52 1  
    53    5   53 1  
    54    8   54 1  
    55    8   55 1  
    56    9   56 1  
    57    9   57 1  
    58   12   58 1  
    59   12   59 1  
    60   13   60 1  
    61   14   61 1  
    62   17   62 1  
    63   17   63 1  
    64   18   64 1  
    65   19   65 1  
    66   19   66 1  
    67   19   67 1  
    68   20   68 1  
    69   20   69 1  
    70   20   70 1  
    71   21   71 1  
    72   22   72 1  
    73   25   73 1  
    74   25   74 1  
    75   29   75 1  
    76   30   76 1  
    77   33   77 1  
    78   33   78 1  
    79   34   79 1  
    80   35   80 1  
    81   35   81 1  
    82   35   82 1  
    83   36   83 1  
    84   36   84 1  
    85   36   85 1  
    86   37   86 1  
    87   38   87 1  
    88   41   88 1  
    89   41   89 1  
    90   43   90 1  
    91   44   91 1  
    92   45   92 1  
    93   46   93 1  
    94   47   94 1  
@<TRIPOS>SUBSTRUCTURE
     1 ACE         1

