2imd_ligand
  -I-interpret- 

 34 33  0  0  0  0  0  0  0  0999 V2000
   33.4030   38.1000   36.9290 N   0  3  0  0  0
   32.1120   38.7410   36.7510 C   0  0  0  0  0
   31.1180   38.7640   37.8130 C   0  0  0  0  0
   30.0580   39.4960   37.7650 O   0  0  0  0  0
   31.3100   37.8490   38.6120 O   0  0  0  0  0
   31.6660   38.7140   35.2840 C   0  0  0  0  0
   30.5690   39.6370   34.7740 C   0  0  0  0  0
   30.2630   39.4020   33.3110 C   0  0  0  0  0
   30.8080   38.3950   32.6740 O   0  0  0  0  0
   29.4230   40.2410   32.6720 N   0  0  0  0  0
   29.0850   40.1590   31.2680 C   0  0  0  0  0
   29.7980   41.2540   30.5330 C   0  0  0  0  0
   29.7590   42.5490   31.0260 O   0  0  0  0  0
   30.4670   40.9510   29.4190 N   0  0  0  0  0
   31.2280   42.0350   28.8560 C   0  0  0  0  0
   32.7040   41.6720   28.8630 C   0  0  0  0  0
   33.5060   42.5800   28.5020 O   0  0  0  0  0
   33.1190   40.5140   29.1740 O   0  0  0  0  0
   33.6666   38.1367   37.9137 H   0  0  0  0  0
   33.3427   37.1273   36.6280 H   0  0  0  0  0
   34.1032   38.5874   36.3699 H   0  0  0  0  0
   32.3125   39.7840   36.9959 H   0  0  0  0  0
   30.1464   40.1391   37.0578 H   0  0  0  0  0
   31.2486   37.7153   35.1556 H   0  0  0  0  0
   32.5522   39.0323   34.7350 H   0  0  0  0  0
   30.9092   40.6661   34.8894 H   0  0  0  0  0
   29.6634   39.4384   35.3472 H   0  0  0  0  0
   28.9946   40.9881   33.2186 H   0  0  0  0  0
   28.0081   40.2699   31.1408 H   0  0  0  0  0
   29.3888   39.1902   30.8715 H   0  0  0  0  0
   30.4410   40.0220   28.9986 H   0  0  0  0  0
   31.0718   42.9361   29.4490 H   0  0  0  0  0
   30.9021   42.2152   27.8316 H   0  0  0  0  0
   32.3723   39.9631   29.4201 H   0  0  0  0  0
  1  2  1  0  0  0
  2  3  1  0  0  0
  2  6  1  0  0  0
  3  4  1  0  0  0
  3  5  2  0  0  0
  6  7  1  0  0  0
  7  8  1  0  0  0
  8  9  2  0  0  0
  8 10  1  0  0  0
 10 11  1  0  0  0
 11 12  1  0  0  0
 12 13  2  0  0  0
 12 14  1  0  0  0
 14 15  1  0  0  0
 15 16  1  0  0  0
 16 17  2  0  0  0
 16 18  1  0  0  0
  1 19  1  0  0  0
  1 20  1  0  0  0
  1 21  1  0  0  0
  2 22  1  0  0  0
  4 23  1  0  0  0
  6 24  1  0  0  0
  6 25  1  0  0  0
  7 26  1  0  0  0
  7 27  1  0  0  0
 10 28  1  0  0  0
 11 29  1  0  0  0
 11 30  1  0  0  0
 14 31  1  0  0  0
 15 32  1  0  0  0
 15 33  1  0  0  0
 18 34  1  0  0  0
M  END
$$$$
