6cve_ligand
  -I-interpret- 

 47 48  0  0  0  0  0  0  0  0999 V2000
  -12.9730  -36.8420   24.4450 N   0  0  0  0  0
  -14.3660  -37.3850   24.3780 C   0  0  0  0  0
  -15.5190  -36.4620   24.2580 N   0  0  0  0  0
  -15.3490  -35.0470   24.2150 C   0  0  0  0  0
  -13.9740  -34.4790   24.2850 C   0  0  0  0  0
  -12.8020  -35.3980   24.4110 C   0  0  0  0  0
  -14.5940  -38.5430   24.4080 O   0  0  0  0  0
  -16.5390  -34.2060   24.0800 N   0  0  0  0  0
  -11.9010  -37.6500   24.5900 C   0  0  0  0  0
  -11.1620  -37.9900   23.2890 C   0  0  0  0  0
  -11.7370  -39.2170   22.7030 O   0  0  0  0  0
   -9.9060  -38.2000   23.6710 C   0  0  0  0  0
   -9.6370  -37.1620   24.9170 C   0  0  0  0  0
  -10.7950  -36.9150   25.4670 O   0  0  0  0  0
   -9.7670  -39.5620   24.1220 O   0  0  0  0  0
   -9.0300  -35.8440   24.4790 C   0  0  0  0  0
   -9.7390  -35.2820   23.4060 O   0  0  0  0  0
   -8.8550  -34.8320   22.0550 P   0  0  0  0  0
   -9.8110  -34.3860   20.9760 O   0  0  0  0  0
   -7.9720  -35.9450   21.5440 O   0  0  0  0  0
   -7.9150  -33.5960   22.6060 O   0  0  0  0  0
   -6.7500  -32.8570   21.7090 P   0  0  0  0  0
   -7.0240  -33.1500   20.2510 O   0  0  0  0  0
   -6.8060  -31.3760   22.0170 O   0  0  0  0  0
   -5.2610  -33.3650   22.1390 O   0  0  0  0  0
   -3.9720  -33.4420   21.1090 P   0  0  0  0  0
   -4.4040  -33.4480   19.6420 O   0  0  0  0  0
   -3.0150  -32.2800   21.3740 O   0  0  0  0  0
   -3.3140  -34.7560   21.4490 O   0  0  0  0  0
  -16.4609  -36.8499   24.2047 H   0  0  0  0  0
  -13.8234  -33.4002   24.2446 H   0  0  0  0  0
  -12.2334  -35.2234   23.4976 H   0  0  0  0  0
  -12.3877  -35.1606   25.3909 H   0  0  0  0  0
  -16.4437  -33.1917   24.0304 H   0  0  0  0  0
  -17.4637  -34.6342   24.0355 H   0  0  0  0  0
  -12.3154  -38.5582   25.0277 H   0  0  0  0  0
  -11.2372  -37.2063   22.5351 H   0  0  0  0  0
  -11.2741  -39.4289   21.8891 H   0  0  0  0  0
   -9.1967  -38.0389   22.8592 H   0  0  0  0  0
   -8.9272  -37.6285   25.6001 H   0  0  0  0  0
   -8.8605  -39.7155   24.3983 H   0  0  0  0  0
   -8.0046  -36.0263   24.1574 H   0  0  0  0  0
   -9.0683  -35.1504   25.3190 H   0  0  0  0  0
   -7.3695  -36.2189   22.2394 H   0  0  0  0  0
   -6.6268  -31.2373   22.9499 H   0  0  0  0  0
   -4.8222  -32.6105   19.4293 H   0  0  0  0  0
   -3.4489  -31.4527   21.1527 H   0  0  0  0  0
  1  2  1  0  0  0
  1  6  1  0  0  0
  1  9  1  0  0  0
  2  3  1  0  0  0
  2  7  2  0  0  0
  3  4  1  0  0  0
  4  5  2  0  0  0
  4  8  1  0  0  0
  5  6  1  0  0  0
  9 10  1  0  0  0
  9 14  1  0  0  0
 10 11  1  0  0  0
 10 12  1  0  0  0
 12 13  1  0  0  0
 12 15  1  0  0  0
 13 14  1  0  0  0
 13 16  1  0  0  0
 16 17  1  0  0  0
 17 18  1  0  0  0
 18 19  2  0  0  0
 18 20  1  0  0  0
 18 21  1  0  0  0
 21 22  1  0  0  0
 22 23  2  0  0  0
 22 24  1  0  0  0
 22 25  1  0  0  0
 25 26  1  0  0  0
 26 27  1  0  0  0
 26 28  1  0  0  0
 26 29  2  0  0  0
  3 30  1  0  0  0
  5 31  1  0  0  0
  6 32  1  0  0  0
  6 33  1  0  0  0
  8 34  1  0  0  0
  8 35  1  0  0  0
  9 36  1  0  0  0
 10 37  1  0  0  0
 11 38  1  0  0  0
 12 39  1  0  0  0
 13 40  1  0  0  0
 15 41  1  0  0  0
 16 42  1  0  0  0
 16 43  1  0  0  0
 20 44  1  0  0  0
 24 45  1  0  0  0
 27 46  1  0  0  0
 28 47  1  0  0  0
M  END
$$$$
