### 
### Created by X-TOOL on Wed Jan  1 15:39:37 2020
### 

@<TRIPOS>MOLECULE
6cve_ligand
   43    44     1     0     0
SMALL
GAST_HUCK


@<TRIPOS>ATOM
      1 N1        -12.9730  -36.8420   24.4450 N.am      1 CTP        -0.2274
      2 C2        -14.3660  -37.3850   24.3780 C.2       1 CTP         0.2929
      3 N3        -15.5190  -36.4620   24.2580 N.am      1 CTP        -0.2085
      4 C4        -15.3490  -35.0470   24.2150 C.2       1 CTP         0.1080
      5 C5        -13.9740  -34.4790   24.2850 C.2       1 CTP        -0.0745
      6 C6        -12.8020  -35.3980   24.4110 C.3       1 CTP         0.0272
      7 O2        -14.5940  -38.5430   24.4080 O.2       1 CTP        -0.3905
      8 N4        -16.5390  -34.2060   24.0800 N.pl3     1 CTP        -0.3235
      9 C1'       -11.9010  -37.6500   24.5900 C.3       1 CTP         0.1753
     10 C2'       -11.1620  -37.9900   23.2890 C.3       1 CTP         0.1309
     11 O2'       -11.7370  -39.2170   22.7030 O.3       1 CTP        -0.3844
     12 C3'        -9.9060  -38.2000   23.6710 C.3       1 CTP         0.1141
     13 C4'        -9.6370  -37.1620   24.9170 C.3       1 CTP         0.1181
     14 O4'       -10.7950  -36.9150   25.4670 O.3       1 CTP        -0.3431
     15 O3'        -9.7670  -39.5620   24.1220 O.3       1 CTP        -0.3864
     16 C5'        -9.0300  -35.8440   24.4790 C.3       1 CTP         0.1131
     17 O5'        -9.7390  -35.2820   23.4060 O.3       1 CTP        -0.2441
     18 PA         -8.8550  -34.8320   22.0550 P.3       1 CTP         0.3266
     19 O1A        -9.8110  -34.3860   20.9760 O.co2     1 CTP        -0.5692
     20 O2A        -7.9720  -35.9450   21.5440 O.co2     1 CTP        -0.5692
     21 O3A        -7.9150  -33.5960   22.6060 O.3       1 CTP        -0.1171
     22 PB         -6.7500  -32.8570   21.7090 P.3       1 CTP         0.3553
     23 O1B        -7.0240  -33.1500   20.2510 O.co2     1 CTP        -0.5652
     24 O2B        -6.8060  -31.3760   22.0170 O.co2     1 CTP        -0.5652
     25 O3B        -5.2610  -33.3650   22.1390 O.3       1 CTP        -0.1546
     26 PG         -3.9720  -33.4420   21.1090 P.3       1 CTP         0.1879
     27 O1G        -4.4040  -33.4480   19.6420 O.co2     1 CTP        -0.6091
     28 O2G        -3.0150  -32.2800   21.3740 O.co2     1 CTP        -0.6091
     29 O3G        -3.3140  -34.7560   21.4490 O.co2     1 CTP        -0.6091
     30 H1        -16.4424  -36.8423   24.2057 H         1 CTP         0.2267
     31 H2        -13.8235  -33.4012   24.2446 H         1 CTP        -0.0093
     32 H3        -12.1446  -35.1826   23.5558 H         1 CTP         0.0511
     33 H4        -12.2904  -35.1232   25.3452 H         1 CTP         0.0511
     34 H5        -16.4441  -33.1809   24.0465 H         1 CTP         0.1728
     35 H6        -17.4715  -34.6391   24.0185 H         1 CTP         0.1728
     36 H7        -12.2303  -38.5786   25.0790 H         1 CTP         0.0896
     37 H8        -11.2228  -37.1626   22.5667 H         1 CTP         0.0668
     38 H9        -11.2789  -39.4267   21.8977 H         1 CTP         0.2101
     39 H10        -9.2072  -38.0043   22.8443 H         1 CTP         0.0648
     40 H11        -8.9651  -37.6394   25.6455 H         1 CTP         0.0651
     41 H12        -9.9243  -40.1528   23.3949 H         1 CTP         0.2100
     42 H13        -7.9888  -36.0157   24.1684 H         1 CTP         0.0648
     43 H14        -9.0490  -35.1427   25.3262 H         1 CTP         0.0648
@<TRIPOS>BOND
     1    1    2 am 
     2    1    6 1  
     3    1    9 1  
     4    2    3 am 
     5    2    7 2  
     6    3    4 1  
     7    4    5 2  
     8    4    8 1  
     9    5    6 1  
    10    9   10 1  
    11    9   14 1  
    12   10   11 1  
    13   10   12 1  
    14   12   13 1  
    15   12   15 1  
    16   13   14 1  
    17   13   16 1  
    18   16   17 1  
    19   17   18 1  
    20   18   19 ar 
    21   18   20 ar 
    22   18   21 1  
    23   21   22 1  
    24   22   23 ar 
    25   22   24 ar 
    26   22   25 1  
    27   25   26 1  
    28   26   27 ar 
    29   26   28 ar 
    30   26   29 ar 
    31    3   30 1  
    32    5   31 1  
    33    6   32 1  
    34    6   33 1  
    35    8   34 1  
    36    8   35 1  
    37    9   36 1  
    38   10   37 1  
    39   11   38 1  
    40   12   39 1  
    41   13   40 1  
    42   15   41 1  
    43   16   42 1  
    44   16   43 1  
@<TRIPOS>SUBSTRUCTURE
     1 CTP         1

