### 
### Created by X-TOOL on Mon Sep 10 21:13:12 2018
### 

@<TRIPOS>MOLECULE
4k5n_ligand
   29    29     1     0     0
SMALL
GAST_HUCK


@<TRIPOS>ATOM
      1 O1         13.6560   12.4090   10.4350 O.co2     1 1OU        -0.5550
      2 P          13.0930   11.7280   11.6170 P.3       1 1OU         0.1413
      3 O2         12.1370   10.5790   10.9550 O.co2     1 1OU        -0.5550
      4 O3         14.2650   11.1580   12.6060 O.co2     1 1OU        -0.5550
      5 C6         12.1770   12.9740   12.5360 C.3       1 1OU         0.1146
      6 N4         10.8360   12.8800   11.9380 N.4       1 1OU         0.2618
      7 C5         12.2730   12.6590   14.0000 C.ar      1 1OU         0.1025
      8 C7         11.3570   11.7810   14.5540 C.ar      1 1OU         0.0231
      9 C8         11.3400   11.4740   15.9240 C.ar      1 1OU         0.0453
     10 C2         12.3100   12.0010   16.7810 C.ar      1 1OU         0.1556
     11 C3         13.2170   12.9080   16.2230 C.ar      1 1OU         0.0453
     12 C4         13.2310   13.2280   14.8540 C.ar      1 1OU         0.0231
     13 N3         12.3140   11.6580   18.1380 N.pl3     1 1OU        -0.2414
     14 C1         12.5420   10.4130   18.6130 C.cat     1 1OU         0.1642
     15 N1         13.0570    9.5150   17.8430 N.pl3     1 1OU        -0.3494
     16 N2         12.2030   10.0970   19.9060 N.pl3     1 1OU        -0.3494
     17 H1         12.5896   13.9796   12.3672 H         1 1OU         0.1455
     18 H2         10.2227   13.5453   12.3821 H         1 1OU         0.2047
     19 H3         10.4737   11.9487   12.0702 H         1 1OU         0.2047
     20 H4         10.8929   13.0816   10.9520 H         1 1OU         0.2047
     21 H5         10.6253   11.3129   13.9055 H         1 1OU         0.0863
     22 H6         10.5687   10.8233   16.3199 H         1 1OU         0.0932
     23 H7         13.9405   13.3849   16.8743 H         1 1OU         0.0932
     24 H8         13.9765   13.9095   14.4606 H         1 1OU         0.0863
     25 H9         12.1305   12.4059   18.8220 H         1 1OU         0.2425
     26 H10        13.2313    8.5660   18.2034 H         1 1OU         0.1668
     27 H11        13.2938    9.7471   16.8678 H         1 1OU         0.1668
     28 H12        11.7919   10.8141   20.5205 H         1 1OU         0.1668
     29 H13        12.3599    9.1429   20.2611 H         1 1OU         0.1668
@<TRIPOS>BOND
     1    1    2 ar 
     2    2    3 ar 
     3    2    4 ar 
     4    2    5 1  
     5    5    6 1  
     6    5    7 1  
     7    7    8 ar 
     8    7   12 ar 
     9    8    9 ar 
    10    9   10 ar 
    11   10   11 ar 
    12   10   13 1  
    13   11   12 ar 
    14   13   14 ar 
    15   14   15 ar 
    16   14   16 ar 
    17    5   17 1  
    18    6   18 1  
    19    6   19 1  
    20    6   20 1  
    21    8   21 1  
    22    9   22 1  
    23   11   23 1  
    24   12   24 1  
    25   13   25 1  
    26   15   26 1  
    27   15   27 1  
    28   16   28 1  
    29   16   29 1  
@<TRIPOS>SUBSTRUCTURE
     1 1OU         1

