4k5n_ligand
  -I-interpret- 

 30 30  0  0  0  0  0  0  0  0999 V2000
   13.6560   12.4090   10.4350 O   0  0  0  0  0
   13.0930   11.7280   11.6170 P   0  0  0  0  0
   12.1370   10.5790   10.9550 O   0  0  0  0  0
   14.2650   11.1580   12.6060 O   0  0  0  0  0
   12.1770   12.9740   12.5360 C   0  0  0  0  0
   10.8360   12.8800   11.9380 N   0  3  0  0  0
   12.2730   12.6590   14.0000 C   0  0  0  0  0
   11.3570   11.7810   14.5540 C   0  0  0  0  0
   11.3400   11.4740   15.9240 C   0  0  0  0  0
   12.3100   12.0010   16.7810 C   0  0  0  0  0
   13.2170   12.9080   16.2230 C   0  0  0  0  0
   13.2310   13.2280   14.8540 C   0  0  0  0  0
   12.3140   11.6580   18.1380 N   0  0  0  0  0
   12.5420   10.4130   18.6130 C   0  0  0  0  0
   13.0570    9.5150   17.8430 N   0  0  0  0  0
   12.2030   10.0970   19.9060 N   0  0  0  0  0
   11.7173   10.0719   11.6538 H   0  0  0  0  0
   13.8616   10.7231   13.3608 H   0  0  0  0  0
   12.5365   14.0011   12.4740 H   0  0  0  0  0
   10.8900   13.1137   10.9466 H   0  0  0  0  0
   10.4829   11.9291   12.0457 H   0  0  0  0  0
   10.2087   13.5322   12.4086 H   0  0  0  0  0
   10.6212   11.3103   13.9020 H   0  0  0  0  0
   10.5644   10.8197   16.3221 H   0  0  0  0  0
   13.9445   13.3875   16.8779 H   0  0  0  0  0
   13.9806   13.9133   14.4584 H   0  0  0  0  0
   12.1323   12.3986   18.8154 H   0  0  0  0  0
   13.2915    9.7448   16.8773 H   0  0  0  0  0
   12.3584    9.1522   20.2576 H   0  0  0  0  0
   11.7959   10.8071   20.5146 H   0  0  0  0  0
  1  2  2  0  0  0
  2  3  1  0  0  0
  2  4  1  0  0  0
  2  5  1  0  0  0
  5  6  1  0  0  0
  5  7  1  0  0  0
  7  8  4  0  0  0
  7 12  4  0  0  0
  8  9  4  0  0  0
  9 10  4  0  0  0
 10 11  4  0  0  0
 10 13  1  0  0  0
 11 12  4  0  0  0
 13 14  1  0  0  0
 14 15  2  0  0  0
 14 16  1  0  0  0
  3 17  1  0  0  0
  4 18  1  0  0  0
  5 19  1  0  0  0
  6 20  1  0  0  0
  6 21  1  0  0  0
  6 22  1  0  0  0
  8 23  1  0  0  0
  9 24  1  0  0  0
 11 25  1  0  0  0
 12 26  1  0  0  0
 13 27  1  0  0  0
 15 28  1  0  0  0
 16 29  1  0  0  0
 16 30  1  0  0  0
M  END
$$$$
