1f28_ligand
  -I-interpret- 

 61 65  0  0  0  0  0  0  0  0999 V2000
    0.3970  -14.1130   24.4100 C   0  0  0  0  0
    1.0510  -14.2760   25.4420 O   0  0  0  0  0
   -0.8650  -13.5540   24.5860 N   0  0  0  0  0
   -1.7460  -13.2970   23.5590 C   0  0  0  0  0
   -3.0930  -12.6900   23.8250 C   0  0  0  0  0
   -1.3580  -13.6110   22.2720 N   0  0  0  0  0
   -0.1270  -14.1720   21.9690 C   0  0  0  0  0
    0.1620  -14.4590   20.5660 C   0  0  0  0  0
    1.4270  -15.0550   20.1700 C   0  0  0  0  0
    2.4350  -15.3620   21.1760 C   0  0  0  0  0
    3.6860  -15.9530   20.7380 C   0  0  0  0  0
    4.7080  -16.2820   21.7100 C   0  0  0  0  0
    4.5020  -16.0220   23.1450 C   0  0  0  0  0
    3.2550  -15.4310   23.6040 C   0  0  0  0  0
    2.1780  -15.0780   22.6550 C   0  0  0  0  0
    0.8680  -14.4710   23.0510 C   0  0  0  0  0
    5.5550  -16.3760   24.1510 C   0  0  0  0  0
    6.1880  -17.7040   23.8980 N   0  0  0  0  0
    5.5940  -19.0330   24.1660 C   0  0  0  0  0
    4.2400  -19.2060   24.7600 C   0  0  0  0  0
    3.7290  -20.5470   24.9800 C   0  0  0  0  0
    4.4940  -21.7080   24.6340 C   0  0  0  0  0
    5.8400  -21.5620   24.0430 C   0  0  0  0  0
    6.3840  -20.2160   23.8140 C   0  0  0  0  0
    2.4470  -20.9720   25.5470 C   0  0  0  0  0
    3.7260  -22.9080   24.9600 C   0  0  0  0  0
    3.8720  -24.0070   24.4090 O   0  0  0  0  0
    2.5380  -22.4470   25.4950 N   0  0  0  0  0
    1.1800  -23.0730   25.8130 C   0  0  0  0  0
    1.1650  -23.8410   27.1880 C   0  0  0  0  0
    2.0120  -24.7230   27.3980 O   0  0  0  0  0
    0.3610  -23.5160   28.0800 O   0  0  0  0  0
    0.5810  -23.9540   24.6510 C   0  0  0  0  0
    0.2920  -23.2340   23.3210 C   0  0  0  0  0
   -1.1280  -22.6250   23.1820 C   0  0  0  0  0
   -1.4420  -21.6790   23.9250 O   0  0  0  0  0
   -1.8140  -22.8880   22.1870 O   0  0  0  0  0
   -1.1559  -13.3199   25.5352 H   0  0  0  0  0
   -3.1746  -11.7424   23.2925 H   0  0  0  0  0
   -3.8713  -13.3705   23.4797 H   0  0  0  0  0
   -3.2076  -12.5179   24.8952 H   0  0  0  0  0
   -0.5819  -14.2227   19.8052 H   0  0  0  0  0
    1.6216  -15.2724   19.1198 H   0  0  0  0  0
    3.8561  -16.1489   19.6793 H   0  0  0  0  0
    5.6439  -16.7288   21.3744 H   0  0  0  0  0
    3.1117  -15.2447   24.6684 H   0  0  0  0  0
    5.0758  -16.4197   25.1290 H   0  0  0  0  0
    6.3378  -15.6201   24.0894 H   0  0  0  0  0
    7.1268  -17.6946   23.4993 H   0  0  0  0  0
    3.6394  -18.3363   25.0266 H   0  0  0  0  0
    6.4239  -22.4438   23.7794 H   0  0  0  0  0
    7.3774  -20.0974   23.3813 H   0  0  0  0  0
    1.5902  -20.5804   24.9987 H   0  0  0  0  0
    2.2828  -20.5926   26.5555 H   0  0  0  0  0
    0.5106  -22.2182   25.9098 H   0  0  0  0  0
   -0.2186  -22.8253   27.7506 H   0  0  0  0  0
   -0.3811  -24.3167   25.0128 H   0  0  0  0  0
    1.3335  -24.7101   24.4273 H   0  0  0  0  0
    0.3844  -23.9850   22.5365 H   0  0  0  0  0
    0.9927  -22.4012   23.2617 H   0  0  0  0  0
   -0.8087  -21.6141   24.6436 H   0  0  0  0  0
  1  2  2  0  0  0
  1  3  1  0  0  0
  1 16  1  0  0  0
  3  4  1  0  0  0
  4  5  1  0  0  0
  4  6  2  0  0  0
  6  7  1  0  0  0
  7  8  4  0  0  0
  7 16  4  0  0  0
  8  9  4  0  0  0
  9 10  4  0  0  0
 10 11  4  0  0  0
 10 15  4  0  0  0
 11 12  4  0  0  0
 12 13  4  0  0  0
 13 14  4  0  0  0
 13 17  1  0  0  0
 14 15  4  0  0  0
 15 16  4  0  0  0
 17 18  1  0  0  0
 18 19  1  0  0  0
 19 20  4  0  0  0
 19 24  4  0  0  0
 20 21  4  0  0  0
 21 22  4  0  0  0
 21 25  1  0  0  0
 22 23  4  0  0  0
 22 26  1  0  0  0
 23 24  4  0  0  0
 25 28  1  0  0  0
 26 27  2  0  0  0
 26 28  1  0  0  0
 28 29  1  0  0  0
 29 30  1  0  0  0
 29 33  1  0  0  0
 30 31  2  0  0  0
 30 32  1  0  0  0
 33 34  1  0  0  0
 34 35  1  0  0  0
 35 36  1  0  0  0
 35 37  2  0  0  0
  3 38  1  0  0  0
  5 39  1  0  0  0
  5 40  1  0  0  0
  5 41  1  0  0  0
  8 42  1  0  0  0
  9 43  1  0  0  0
 11 44  1  0  0  0
 12 45  1  0  0  0
 14 46  1  0  0  0
 17 47  1  0  0  0
 17 48  1  0  0  0
 18 49  1  0  0  0
 20 50  1  0  0  0
 23 51  1  0  0  0
 24 52  1  0  0  0
 25 53  1  0  0  0
 25 54  1  0  0  0
 29 55  1  0  0  0
 32 56  1  0  0  0
 33 57  1  0  0  0
 33 58  1  0  0  0
 34 59  1  0  0  0
 34 60  1  0  0  0
 36 61  1  0  0  0
M  END
$$$$
