### 
### Created by X-TOOL on Mon Sep 10 21:13:30 2018
### 

@<TRIPOS>MOLECULE
5kam_ligand
   34    36     1     0     0
SMALL
GAST_HUCK


@<TRIPOS>ATOM
      1 P          18.0340  103.0020   38.9870 P.3       1 IMP         0.2008
      2 O1P        17.0390  103.7020   38.0920 O.co2     1 IMP        -0.5537
      3 O2P        18.0160  101.4920   39.0260 O.co2     1 IMP        -0.5537
      4 O3P        19.4210  103.4510   38.5940 O.co2     1 IMP        -0.5537
      5 O5'        17.7380  103.4990   40.4710 O.3       1 IMP        -0.2734
      6 C5'        17.4790  104.8730   40.7460 C.3       1 IMP         0.1072
      7 C4'        16.2150  105.0460   41.5520 C.3       1 IMP         0.1182
      8 O4'        16.4270  104.5430   42.9000 O.3       1 IMP        -0.3360
      9 C3'        15.7190  106.4860   41.7040 C.3       1 IMP         0.1149
     10 O3'        14.2930  106.5000   41.6580 O.3       1 IMP        -0.3864
     11 C2'        16.1850  106.8570   43.1090 C.3       1 IMP         0.1390
     12 O2'        15.4300  107.8780   43.7270 O.3       1 IMP        -0.3835
     13 C1'        16.0390  105.5260   43.8360 C.3       1 IMP         0.2027
     14 N9         16.8920  105.4000   45.0200 N.pl3     1 IMP        -0.1837
     15 C8         18.1880  105.8270   45.1550 C.2       1 IMP         0.0991
     16 N7         18.6140  105.5150   46.4010 N.2       1 IMP        -0.3232
     17 C5         17.6130  104.8870   47.0580 C.2       1 IMP         0.1016
     18 C6         17.5160  104.3610   48.3400 C.2       1 IMP         0.1461
     19 O6         18.3900  104.6050   49.1720 O.2       1 IMP        -0.4217
     20 N1         16.3380  103.7640   48.7400 N.2       1 IMP        -0.2575
     21 C2         15.2670  103.6930   47.8720 C.2       1 IMP         0.1280
     22 N3         15.3730  104.2190   46.6010 N.pl3     1 IMP        -0.2068
     23 C4         16.5260  104.8060   46.2000 C.2       1 IMP         0.2141
     24 H1         17.3732  105.4144   39.7944 H         1 IMP         0.0639
     25 H2         18.3245  105.2898   41.3130 H         1 IMP         0.0639
     26 H3         15.4242  104.4595   41.0615 H         1 IMP         0.0650
     27 H4         16.1414  107.1531   40.9381 H         1 IMP         0.0648
     28 H5         13.9830  107.3931   41.7522 H         1 IMP         0.2100
     29 H6         17.2378  107.1751   43.0872 H         1 IMP         0.0677
     30 H7         14.5244  107.6004   43.8004 H         1 IMP         0.2101
     31 H8         14.9901  105.3839   44.1352 H         1 IMP         0.1002
     32 H9         18.7751  106.3318   44.3892 H         1 IMP         0.1177
     33 H10        14.3383  103.2218   48.1905 H         1 IMP         0.1570
     34 H11        14.5727  104.1652   45.9548 H         1 IMP         0.2411
@<TRIPOS>BOND
     1    1    2 ar 
     2    1    3 ar 
     3    1    4 ar 
     4    1    5 1  
     5    5    6 1  
     6    6    7 1  
     7    7    8 1  
     8    7    9 1  
     9    8   13 1  
    10    9   10 1  
    11    9   11 1  
    12   11   12 1  
    13   11   13 1  
    14   13   14 1  
    15   14   15 1  
    16   14   23 1  
    17   15   16 2  
    18   16   17 1  
    19   17   18 1  
    20   17   23 2  
    21   18   19 2  
    22   18   20 1  
    23   20   21 2  
    24   21   22 1  
    25   22   23 1  
    26    6   24 1  
    27    6   25 1  
    28    7   26 1  
    29    9   27 1  
    30   10   28 1  
    31   11   29 1  
    32   12   30 1  
    33   13   31 1  
    34   15   32 1  
    35   21   33 1  
    36   22   34 1  
@<TRIPOS>SUBSTRUCTURE
     1 IMP         1

