5kam_ligand
  -I-interpret- 

 36 38  0  0  0  0  0  0  0  0999 V2000
   18.0340  103.0020   38.9870 P   0  0  0  0  0
   17.0390  103.7020   38.0920 O   0  0  0  0  0
   18.0160  101.4920   39.0260 O   0  0  0  0  0
   19.4210  103.4510   38.5940 O   0  0  0  0  0
   17.7380  103.4990   40.4710 O   0  0  0  0  0
   17.4790  104.8730   40.7460 C   0  0  0  0  0
   16.2150  105.0460   41.5520 C   0  0  0  0  0
   16.4270  104.5430   42.9000 O   0  0  0  0  0
   15.7190  106.4860   41.7040 C   0  0  0  0  0
   14.2930  106.5000   41.6580 O   0  0  0  0  0
   16.1850  106.8570   43.1090 C   0  0  0  0  0
   15.4300  107.8780   43.7270 O   0  0  0  0  0
   16.0390  105.5260   43.8360 C   0  0  0  0  0
   16.8920  105.4000   45.0200 N   0  0  0  0  0
   18.1880  105.8270   45.1550 C   0  0  0  0  0
   18.6140  105.5150   46.4010 N   0  0  0  0  0
   17.6130  104.8870   47.0580 C   0  0  0  0  0
   17.5160  104.3610   48.3400 C   0  0  0  0  0
   18.3900  104.6050   49.1720 O   0  0  0  0  0
   16.3380  103.7640   48.7400 N   0  0  0  0  0
   15.2670  103.6930   47.8720 C   0  0  0  0  0
   15.3730  104.2190   46.6010 N   0  0  0  0  0
   16.5260  104.8060   46.2000 C   0  0  0  0  0
   16.1498  103.4279   38.3281 H   0  0  0  0  0
   17.1394  101.1899   39.2748 H   0  0  0  0  0
   17.3594  105.3985   39.7986 H   0  0  0  0  0
   18.3135  105.2735   41.3216 H   0  0  0  0  0
   15.4606  104.4965   40.9890 H   0  0  0  0  0
   16.0822  107.1613   40.9293 H   0  0  0  0  0
   13.9797  107.4024   41.7532 H   0  0  0  0  0
   17.1897  107.2797   43.1154 H   0  0  0  0  0
   15.7846  108.0516   44.6021 H   0  0  0  0  0
   15.0138  105.4279   44.1929 H   0  0  0  0  0
   18.7756  106.3322   44.3885 H   0  0  0  0  0
   14.3375  103.2213   48.1908 H   0  0  0  0  0
   14.5805  104.1657   45.9611 H   0  0  0  0  0
  1  2  1  0  0  0
  1  3  1  0  0  0
  1  4  2  0  0  0
  1  5  1  0  0  0
  5  6  1  0  0  0
  6  7  1  0  0  0
  7  8  1  0  0  0
  7  9  1  0  0  0
  8 13  1  0  0  0
  9 10  1  0  0  0
  9 11  1  0  0  0
 11 12  1  0  0  0
 11 13  1  0  0  0
 13 14  1  0  0  0
 14 15  4  0  0  0
 14 23  4  0  0  0
 15 16  4  0  0  0
 16 17  4  0  0  0
 17 18  1  0  0  0
 17 23  4  0  0  0
 18 19  2  0  0  0
 18 20  1  0  0  0
 20 21  2  0  0  0
 21 22  1  0  0  0
 22 23  1  0  0  0
  2 24  1  0  0  0
  3 25  1  0  0  0
  6 26  1  0  0  0
  6 27  1  0  0  0
  7 28  1  0  0  0
  9 29  1  0  0  0
 10 30  1  0  0  0
 11 31  1  0  0  0
 12 32  1  0  0  0
 13 33  1  0  0  0
 15 34  1  0  0  0
 21 35  1  0  0  0
 22 36  1  0  0  0
M  END
$$$$
