2wmw_ligand
  -I-interpret- 

 32 34  0  0  0  0  0  0  0  0999 V2000
   19.6460   -2.3340    9.6560 Br  0  0  0  0  0
   17.9080   -1.6170    9.5880 C   0  0  0  0  0
   17.6890   -0.4450    8.8800 C   0  0  0  0  0
   16.4900    0.0960    8.8040 N   0  0  0  0  0
   15.4490   -0.4750    9.4140 C   0  0  0  0  0
   14.1730   -0.1460    9.4980 N   0  0  0  0  0
   13.5770   -0.9800   10.1750 N   0  0  0  0  0
   14.4080   -1.9270   10.5930 C   0  0  0  0  0
   15.6080   -1.6400   10.1290 C   0  0  0  0  0
   16.8530   -2.2350   10.2350 C   0  0  0  0  0
   17.0150   -3.4240   10.9590 N   0  0  0  0  0
   18.0540   -3.6090   12.0000 C   0  0  0  0  0
   16.0820   -4.5360   10.7040 C   0  0  0  0  0
   15.7630   -5.3090   11.9820 C   0  0  0  0  0
   16.9530   -5.5350   12.7210 O   0  0  0  0  0
   17.3830   -4.2830   13.2180 C   0  0  0  0  0
   18.1480   -4.5350   14.5460 C   0  0  0  0  0
   19.6070   -4.5450   14.3670 N   0  3  0  0  0
   18.5258    0.0386    8.3761 H   0  0  0  0  0
   14.1454   -2.7871   11.2090 H   0  0  0  0  0
   18.4806   -2.6475   12.2856 H   0  0  0  0  0
   18.8647   -4.2312   11.6208 H   0  0  0  0  0
   16.5486   -5.2206    9.9956 H   0  0  0  0  0
   15.1531   -4.1222   10.3117 H   0  0  0  0  0
   15.3158   -6.2678   11.7195 H   0  0  0  0  0
   15.0683   -4.7283   12.5889 H   0  0  0  0  0
   16.6437   -3.5569   13.5560 H   0  0  0  0  0
   17.8504   -5.5134   14.9233 H   0  0  0  0  0
   17.9007   -3.7261   15.2334 H   0  0  0  0  0
   20.0575   -4.7138   15.2664 H   0  0  0  0  0
   19.8630   -5.2847   13.7130 H   0  0  0  0  0
   19.9092   -3.6435   13.9978 H   0  0  0  0  0
  1  2  1  0  0  0
  2  3  4  0  0  0
  2 10  4  0  0  0
  3  4  4  0  0  0
  4  5  4  0  0  0
  5  6  4  0  0  0
  5  9  4  0  0  0
  6  7  4  0  0  0
  7  8  4  0  0  0
  8  9  4  0  0  0
  9 10  4  0  0  0
 10 11  1  0  0  0
 11 12  1  0  0  0
 11 13  1  0  0  0
 12 16  1  0  0  0
 13 14  1  0  0  0
 14 15  1  0  0  0
 15 16  1  0  0  0
 16 17  1  0  0  0
 17 18  1  0  0  0
  3 19  1  0  0  0
  8 20  1  0  0  0
 12 21  1  0  0  0
 12 22  1  0  0  0
 13 23  1  0  0  0
 13 24  1  0  0  0
 14 25  1  0  0  0
 14 26  1  0  0  0
 16 27  1  0  0  0
 17 28  1  0  0  0
 17 29  1  0  0  0
 18 30  1  0  0  0
 18 31  1  0  0  0
 18 32  1  0  0  0
M  END
$$$$
