4fck_ligand
  -I-interpret- 

 21 20  0  0  0  0  0  0  0  0999 V2000
   25.8790   -9.2960   -3.9350 N   0  3  0  0  0
   25.6360   -9.3620   -5.3640 C   0  0  0  0  0
   24.1500   -9.2060   -5.6600 C   0  0  0  0  0
   23.2320   -9.0550   -4.8560 O   0  0  0  0  0
   23.9030   -9.2250   -6.9860 O   0  0  0  0  0
   26.1190  -10.7150   -5.9690 C   0  0  0  0  0
   25.4250  -11.8170   -5.3020 N   0  0  0  0  0
   25.4660  -13.0920   -5.9130 C   0  0  0  0  0
   24.5950  -14.0060   -5.3170 N   0  0  0  0  0
   26.1830  -13.5100   -6.9200 N   0  0  0  0  0
   25.5508   -8.3992   -3.5766 H   0  0  0  0  0
   25.3775  -10.0532   -3.4707 H   0  0  0  0  0
   26.8790   -9.3893   -3.7567 H   0  0  0  0  0
   26.1996   -8.5475   -5.8191 H   0  0  0  0  0
   24.7270   -9.3510   -7.4621 H   0  0  0  0  0
   27.1941  -10.8179   -5.8217 H   0  0  0  0  0
   25.8986  -10.7372   -7.0363 H   0  0  0  0  0
   24.9272  -11.6703   -4.4239 H   0  0  0  0  0
   24.5368  -14.9607   -5.6714 H   0  0  0  0  0
   24.0169  -13.7191   -4.5272 H   0  0  0  0  0
   26.0949  -14.4732   -7.2438 H   0  0  0  0  0
  1  2  1  0  0  0
  2  3  1  0  0  0
  2  6  1  0  0  0
  3  4  2  0  0  0
  3  5  1  0  0  0
  6  7  1  0  0  0
  7  8  1  0  0  0
  8  9  1  0  0  0
  8 10  2  0  0  0
  1 11  1  0  0  0
  1 12  1  0  0  0
  1 13  1  0  0  0
  2 14  1  0  0  0
  5 15  1  0  0  0
  6 16  1  0  0  0
  6 17  1  0  0  0
  7 18  1  0  0  0
  9 19  1  0  0  0
  9 20  1  0  0  0
 10 21  1  0  0  0
M  END
$$$$
