5qaq_ligand
  -I-interpret- 

 32 33  0  0  0  0  0  0  0  0999 V2000
   96.2570  236.4380   -4.2240 N   0  0  0  0  0
   97.0030  238.1790   -2.7350 C   0  0  0  0  0
   98.4790  236.8890   -4.1010 O   0  0  0  0  0
   97.3270  237.1190   -3.7460 C   0  0  0  0  0
   95.6260  230.7920   -9.7420 C   0  0  0  0  0
   95.9060  229.5590   -9.1840 C   0  0  0  0  0
   96.2830  229.4650   -7.8510 C   0  0  0  0  0
   96.3740  230.6230   -7.0830 C   0  0  0  0  0
   96.5710  228.1400   -7.2400 C   0  0  0  0  0
   96.2460  235.3420   -5.1160 C   0  0  0  0  0
   97.3410  234.4950   -5.2150 C   0  0  0  0  0
   97.2930  233.3880   -6.0430 C   0  0  0  0  0
   96.1580  233.0960   -6.7950 C   0  0  0  0  0
   95.0740  233.9670   -6.7000 C   0  0  0  0  0
   95.1140  235.0750   -5.8740 C   0  0  0  0  0
   96.0870  231.8730   -7.6320 C   0  0  0  0  0
   95.7140  231.9400   -8.9740 C   0  0  0  0  0
   96.9120  228.0310   -6.0690 O   0  0  0  0  0
   96.4310  227.1250   -8.0470 O   0  0  0  0  0
   95.3444  236.7569   -3.8988 H   0  0  0  0  0
   97.5065  237.9496   -1.7959 H   0  0  0  0  0
   97.3425  239.1469   -3.1038 H   0  0  0  0  0
   95.9254  238.2079   -2.5734 H   0  0  0  0  0
   95.3350  230.8605  -10.7902 H   0  0  0  0  0
   95.8306  228.6576   -9.7922 H   0  0  0  0  0
   96.6739  230.5517   -6.0375 H   0  0  0  0  0
   98.2422  234.7029   -4.6381 H   0  0  0  0  0
   98.1606  232.7314   -6.1081 H   0  0  0  0  0
   94.1775  233.7709   -7.2882 H   0  0  0  0  0
   94.2534  235.7415   -5.8177 H   0  0  0  0  0
   95.4892  232.9074   -9.4232 H   0  0  0  0  0
   96.1587  227.4404   -8.9118 H   0  0  0  0  0
  1  4  1  0  0  0
 10  1  1  0  0  0
  4  2  1  0  0  0
  4  3  2  0  0  0
  6  5  4  0  0  0
  5 17  4  0  0  0
  7  6  4  0  0  0
  8  7  4  0  0  0
  7  9  1  0  0  0
 16  8  4  0  0  0
  9 18  2  0  0  0
  9 19  1  0  0  0
 11 10  4  0  0  0
 10 15  4  0  0  0
 12 11  4  0  0  0
 13 12  4  0  0  0
 13 14  4  0  0  0
 13 16  1  0  0  0
 14 15  4  0  0  0
 16 17  4  0  0  0
  1 20  1  0  0  0
  2 21  1  0  0  0
  2 22  1  0  0  0
  2 23  1  0  0  0
  5 24  1  0  0  0
  6 25  1  0  0  0
  8 26  1  0  0  0
 11 27  1  0  0  0
 12 28  1  0  0  0
 14 29  1  0  0  0
 15 30  1  0  0  0
 17 31  1  0  0  0
 19 32  1  0  0  0
M  END
$$$$
