### 
### Created by X-TOOL on Wed Jan  1 15:39:36 2020
### 

@<TRIPOS>MOLECULE
6f8g_ligand
  145   145     1     0     0
SMALL
GAST_HUCK


@<TRIPOS>ATOM
      1 N           5.2090  -21.5900  -27.7590 N.4       1 PRO         0.2461
      2 CA          5.1480  -22.2030  -26.4170 C.3       1 PRO         0.0670
      3 C           6.3250  -21.8550  -25.4800 C.2       1 PRO         0.2268
      4 O           6.7740  -22.6920  -24.6980 O.2       1 PRO        -0.3907
      5 CB          5.0970  -23.7030  -26.7420 C.3       1 PRO         0.0127
      6 CG          4.3000  -23.7400  -28.0170 C.3       1 PRO        -0.0053
      7 CD          4.6840  -22.5010  -28.7960 C.3       1 PRO        -0.0313
      8 N           6.8140  -20.6240  -25.5570 N.am      1 GLU        -0.2609
      9 CA          7.7160  -20.0860  -24.5310 C.3       1 GLU         0.1326
     10 C           6.9740  -19.7370  -23.2290 C.2       1 GLU         0.2040
     11 O           7.6100  -19.6820  -22.1750 O.2       1 GLU        -0.3944
     12 CB          8.4520  -18.8510  -25.0340 C.3       1 GLU        -0.0008
     13 CG          7.5700  -17.6430  -25.2270 C.3       1 GLU         0.0044
     14 CD          7.8230  -16.9320  -26.5240 C.2       1 GLU         0.0350
     15 OE1         7.4660  -17.5030  -27.5690 O.co2     1 GLU        -0.5690
     16 OE2         8.3460  -15.8020  -26.4920 O.co2     1 GLU        -0.5690
     17 N           5.6620  -19.4560  -23.3390 N.am      1 GLN        -0.2636
     18 CA          4.7680  -19.1840  -22.2080 C.3       1 GLN         0.1330
     19 C           3.5020  -20.0300  -22.3300 C.2       1 GLN         0.2041
     20 O           3.0030  -20.2620  -23.4510 O.2       1 GLN        -0.3944
     21 CB          4.3580  -17.7160  -22.2220 C.3       1 GLN         0.0045
     22 CG          5.4740  -16.6810  -22.2420 C.3       1 GLN         0.0412
     23 CD          4.9790  -15.3010  -21.9020 C.2       1 GLN         0.1737
     24 OE1         4.5010  -14.5580  -22.7740 O.2       1 GLN        -0.3973
     25 NE2         5.0470  -14.9410  -20.6200 N.am      1 GLN        -0.3009
     26 N           2.9670  -20.4930  -21.1960 N.am      1 ASP        -0.2622
     27 CA          1.6870  -21.1630  -21.1850 C.3       1 ASP         0.1423
     28 C           0.6840  -20.4280  -20.3020 C.2       1 ASP         0.2057
     29 O           1.0090  -20.0680  -19.1830 O.2       1 ASP        -0.3943
     30 CB          1.8130  -22.6050  -20.7240 C.3       1 ASP         0.0406
     31 CG          0.6340  -23.4230  -21.1390 C.2       1 ASP         0.0393
     32 OD1        -0.4920  -23.2090  -20.6090 O.co2     1 ASP        -0.5688
     33 OD2         0.8310  -24.2670  -22.0370 O.co2     1 ASP        -0.5688
     34 N          -0.5350  -20.2600  -20.8070 N.am      1 SER        -0.2615
     35 CA         -1.5280  -19.3700  -20.1970 C.3       1 SER         0.1539
     36 C          -2.4010  -19.9870  -19.1310 C.2       1 SER         0.2062
     37 O          -3.2490  -19.3140  -18.5790 O.2       1 SER        -0.3943
     38 CB         -2.4380  -18.8150  -21.2850 C.3       1 SER         0.0843
     39 OG         -3.3530  -19.7990  -21.7820 O.3       1 SER        -0.3903
     40 N          -2.2300  -21.2760  -18.8510 N.am      1 ALA        -0.2639
     41 CA         -3.0670  -21.9540  -17.8640 C.3       1 ALA         0.1282
     42 C          -2.7810  -21.3740  -16.4300 C.2       1 ALA         0.2036
     43 O          -1.6220  -21.1520  -16.0380 O.2       1 ALA        -0.3944
     44 CB         -2.8250  -23.4530  -17.9320 C.3       1 ALA        -0.0244
     45 N          -3.8610  -21.0770  -15.7090 N.am      1 VAL        -0.2635
     46 CA         -3.7790  -20.5470  -14.3710 C.3       1 VAL         0.1333
     47 C          -4.1400  -21.6280  -13.3960 C.2       1 VAL         0.2042
     48 O          -5.1910  -22.2460  -13.5150 O.2       1 VAL        -0.3944
     49 CB         -4.7350  -19.3620  -14.1700 C.3       1 VAL        -0.0063
     50 CG1        -4.8290  -18.9980  -12.6840 C.3       1 VAL        -0.0584
     51 CG2        -4.3020  -18.1950  -15.0290 C.3       1 VAL        -0.0584
     52 N          -3.2680  -21.7850  -12.4070 N.am      1 THR        -0.2613
     53 CA         -3.4630  -22.6780  -11.3040 C.3       1 THR         0.1565
     54 C          -3.0620  -22.0190   -9.9890 C.2       1 THR         0.2065
     55 O          -2.3590  -20.9660   -9.9700 O.2       1 THR        -0.3943
     56 CB         -2.6170  -23.9580  -11.4840 C.3       1 THR         0.0924
     57 OG1        -1.2380  -23.6130  -11.6810 O.3       1 THR        -0.3874
     58 CG2        -3.1290  -24.7660  -12.6740 C.3       1 THR        -0.0346
     59 N          -3.5570  -22.6280   -8.9020 N.am      1 SER        -0.2615
     60 CA         -3.2040  -22.2610   -7.5230 C.3       1 SER         0.1539
     61 C          -2.0410  -23.1170   -7.0540 C.2       1 SER         0.2060
     62 O          -1.6340  -24.0730   -7.7250 O.2       1 SER        -0.3943
     63 CB         -4.4000  -22.4430   -6.5990 C.3       1 SER         0.0843
     64 OG         -4.0540  -22.2340   -5.2380 O.3       1 SER        -0.3903
     65 N          -1.4870  -22.7660   -5.9090 N.am      1 GLY        -0.2663
     66 CA         -0.1940  -23.3100   -5.4830 C.3       1 GLY         0.1201
     67 C          -0.2920  -24.7470   -5.0790 C.2       1 GLY         0.2002
     68 O          -0.9190  -25.0550   -4.0720 O.2       1 GLY        -0.3947
     69 N           0.3550  -25.6090   -5.8650 N.am      1 GLU        -0.2696
     70 CA          0.0560  -27.0470   -5.9290 C.3       1 GLU         0.0958
     71 C           1.2900  -27.8970   -5.6140 C.2       1 GLU         0.0602
     72 O           2.2110  -27.4590   -4.9150 O.co2     1 GLU        -0.5666
     73 CB         -0.4850  -27.3940   -7.3330 C.3       1 GLU        -0.0064
     74 CG         -1.9930  -27.1800   -7.5220 C.3       1 GLU         0.0038
     75 CD         -2.4390  -27.2380   -8.9860 C.2       1 GLU         0.0350
     76 OE1        -1.7010  -27.8130   -9.8310 O.co2     1 GLU        -0.5690
     77 OE2        -3.5470  -26.7340   -9.2990 O.co2     1 GLU        -0.5690
     78 OXT         1.4050  -29.0490   -6.0480 O.co2     1 GLU        -0.5666
     79 H1          6.1684  -21.3676  -27.9740 H         1 PRO         0.2035
     80 H2          4.6602  -20.7445  -27.7579 H         1 PRO         0.2035
     81 H3          4.2199  -21.8928  -25.9147 H         1 PRO         0.1099
     82 H4          4.5919  -24.2648  -25.9425 H         1 PRO         0.0347
     83 H5          6.1075  -24.1101  -26.8943 H         1 PRO         0.0347
     84 H6          3.2231  -23.7301  -27.7931 H         1 PRO         0.0320
     85 H7          4.5464  -24.6437  -28.5938 H         1 PRO         0.0320
     86 H8          5.4563  -22.7311  -29.5447 H         1 PRO         0.0814
     87 H9          3.8073  -22.0637  -29.2961 H         1 PRO         0.0814
     88 H10         6.5616  -20.0475  -26.3342 H         1 GLU         0.1885
     89 H11         8.4613  -20.8619  -24.3017 H         1 GLU         0.0801
     90 H12         8.9177  -19.0962  -25.9999 H         1 GLU         0.0330
     91 H13         9.2342  -18.5942  -24.3044 H         1 GLU         0.0330
     92 H14         7.7528  -16.9402  -24.4008 H         1 GLU         0.0433
     93 H15         6.5197  -17.9691  -25.2054 H         1 GLU         0.0433
     94 H16         5.2684  -19.4309  -24.2579 H         1 GLN         0.1883
     95 H17         5.2848  -19.4194  -21.2660 H         1 GLN         0.0801
     96 H18         3.7534  -17.5329  -21.3215 H         1 GLN         0.0337
     97 H19         3.7404  -17.5537  -23.1177 H         1 GLN         0.0337
     98 H20         5.9186  -16.6595  -23.2479 H         1 GLN         0.0504
     99 H21         6.2402  -16.9726  -21.5086 H         1 GLN         0.0504
    100 H22         4.7318  -14.0349  -20.3377 H         1 GLN         0.1814
    101 H23         5.4132  -15.5771  -19.9408 H         1 GLN         0.1814
    102 H24         3.4636  -20.3730  -20.3363 H         1 ASP         0.1884
    103 H25         1.3003  -21.1658  -22.2148 H         1 ASP         0.0819
    104 H26         1.8908  -22.6230  -19.6269 H         1 ASP         0.0478
    105 H27         2.7221  -23.0415  -21.1633 H         1 ASP         0.0478
    106 H28        -0.7843  -20.7607  -21.6359 H         1 SER         0.1884
    107 H29        -0.9789  -18.5371  -19.7337 H         1 SER         0.0823
    108 H30        -1.8156  -18.4576  -22.1186 H         1 SER         0.0606
    109 H31        -3.0134  -17.9743  -20.8702 H         1 SER         0.0606
    110 H32        -3.8987  -19.4107  -22.4559 H         1 SER         0.2097
    111 H33        -1.5153  -21.7905  -19.3248 H         1 ALA         0.1883
    112 H34        -4.1228  -21.7641  -18.1072 H         1 ALA         0.0797
    113 H35        -3.4565  -23.9605  -17.1879 H         1 ALA         0.0277
    114 H36        -1.7665  -23.6636  -17.7193 H         1 ALA         0.0277
    115 H37        -3.0769  -23.8199  -18.9379 H         1 ALA         0.0277
    116 H38        -4.7639  -21.2276  -16.1117 H         1 VAL         0.1883
    117 H39        -2.7486  -20.2111  -14.1827 H         1 VAL         0.0802
    118 H40        -5.7375  -19.6692  -14.5027 H         1 VAL         0.0343
    119 H41        -5.5166  -18.1488  -12.5573 H         1 VAL         0.0234
    120 H42        -3.8320  -18.7214  -12.3104 H         1 VAL         0.0234
    121 H43        -5.2059  -19.8625  -12.1178 H         1 VAL         0.0234
    122 H44        -4.2520  -18.5127  -16.0809 H         1 VAL         0.0234
    123 H45        -3.3103  -17.8480  -14.7033 H         1 VAL         0.0234
    124 H46        -5.0288  -17.3755  -14.9277 H         1 VAL         0.0234
    125 H47        -2.4249  -21.2478  -12.4338 H         1 THR         0.1884
    126 H48        -4.5272  -22.9525  -11.2584 H         1 THR         0.0826
    127 H49        -2.7037  -24.5713  -10.5750 H         1 THR         0.0639
    128 H50        -1.1559  -23.0722  -12.4577 H         1 THR         0.2101
    129 H51        -2.5186  -25.6736  -12.7908 H         1 THR         0.0257
    130 H52        -3.0595  -24.1574  -13.5876 H         1 THR         0.0257
    131 H53        -4.1777  -25.0492  -12.5009 H         1 THR         0.0257
    132 H54        -4.2055  -23.3771   -9.0375 H         1 SER         0.1884
    133 H55        -2.9001  -21.2040   -7.5027 H         1 SER         0.0823
    134 H56        -4.7863  -23.4664   -6.7146 H         1 SER         0.0606
    135 H57        -5.1811  -21.7221   -6.8821 H         1 SER         0.0606
    136 H58        -3.7244  -21.3497   -5.1284 H         1 SER         0.2097
    137 H59        -1.9605  -22.1132   -5.3176 H         1 GLY         0.1881
    138 H60         0.1716  -22.7251   -4.6261 H         1 GLY         0.0763
    139 H61         0.5186  -23.2240   -6.3165 H         1 GLY         0.0763
    140 H62         1.0881  -25.2555   -6.4461 H         1 GLU         0.1875
    141 H63        -0.7203  -27.2752   -5.1838 H         1 GLU         0.0727
    142 H64        -0.2639  -28.4532   -7.5310 H         1 GLU         0.0323
    143 H65         0.0425  -26.7661   -8.0661 H         1 GLU         0.0323
    144 H66        -2.2582  -26.1927   -7.1160 H         1 GLU         0.0432
    145 H67        -2.5284  -27.9620   -6.9636 H         1 GLU         0.0432
@<TRIPOS>BOND
     1    1    2 1  
     2    1    7 1  
     3    2    3 1  
     4    2    5 1  
     5    3    4 2  
     6    3    8 am 
     7    5    6 1  
     8    6    7 1  
     9    8    9 1  
    10    9   10 1  
    11    9   12 1  
    12   10   11 2  
    13   10   17 am 
    14   12   13 1  
    15   13   14 1  
    16   14   15 ar 
    17   14   16 ar 
    18   17   18 1  
    19   18   19 1  
    20   18   21 1  
    21   19   20 2  
    22   19   26 am 
    23   21   22 1  
    24   22   23 1  
    25   23   24 2  
    26   23   25 am 
    27   26   27 1  
    28   27   28 1  
    29   27   30 1  
    30   28   29 2  
    31   28   34 am 
    32   30   31 1  
    33   31   32 ar 
    34   31   33 ar 
    35   34   35 1  
    36   35   36 1  
    37   35   38 1  
    38   36   37 2  
    39   36   40 am 
    40   38   39 1  
    41   40   41 1  
    42   41   42 1  
    43   41   44 1  
    44   42   43 2  
    45   42   45 am 
    46   45   46 1  
    47   46   47 1  
    48   46   49 1  
    49   47   48 2  
    50   47   52 am 
    51   49   50 1  
    52   49   51 1  
    53   52   53 1  
    54   53   54 1  
    55   53   56 1  
    56   54   55 2  
    57   54   59 am 
    58   56   57 1  
    59   56   58 1  
    60   59   60 1  
    61   60   61 1  
    62   60   63 1  
    63   61   62 2  
    64   61   65 am 
    65   63   64 1  
    66   65   66 1  
    67   66   67 1  
    68   67   68 2  
    69   67   69 am 
    70   69   70 1  
    71   70   71 1  
    72   70   73 1  
    73   71   72 ar 
    74   71   78 ar 
    75   73   74 1  
    76   74   75 1  
    77   75   76 ar 
    78   75   77 ar 
    79    1   79 1  
    80    1   80 1  
    81    2   81 1  
    82    5   82 1  
    83    5   83 1  
    84    6   84 1  
    85    6   85 1  
    86    7   86 1  
    87    7   87 1  
    88    8   88 1  
    89    9   89 1  
    90   12   90 1  
    91   12   91 1  
    92   13   92 1  
    93   13   93 1  
    94   17   94 1  
    95   18   95 1  
    96   21   96 1  
    97   21   97 1  
    98   22   98 1  
    99   22   99 1  
   100   25  100 1  
   101   25  101 1  
   102   26  102 1  
   103   27  103 1  
   104   30  104 1  
   105   30  105 1  
   106   34  106 1  
   107   35  107 1  
   108   38  108 1  
   109   38  109 1  
   110   39  110 1  
   111   40  111 1  
   112   41  112 1  
   113   44  113 1  
   114   44  114 1  
   115   44  115 1  
   116   45  116 1  
   117   46  117 1  
   118   49  118 1  
   119   50  119 1  
   120   50  120 1  
   121   50  121 1  
   122   51  122 1  
   123   51  123 1  
   124   51  124 1  
   125   52  125 1  
   126   53  126 1  
   127   56  127 1  
   128   57  128 1  
   129   58  129 1  
   130   58  130 1  
   131   58  131 1  
   132   59  132 1  
   133   60  133 1  
   134   63  134 1  
   135   63  135 1  
   136   64  136 1  
   137   65  137 1  
   138   66  138 1  
   139   66  139 1  
   140   69  140 1  
   141   70  141 1  
   142   73  142 1  
   143   73  143 1  
   144   74  144 1  
   145   74  145 1  
@<TRIPOS>SUBSTRUCTURE
     1 PRO         1

