6f8g_ligand
  -I-interpret- 

149149  0  0  0  0  0  0  0  0999 V2000
    5.2090  -21.5900  -27.7590 N   0  3  0  0  0
    5.1480  -22.2030  -26.4170 C   0  0  0  0  0
    6.3250  -21.8550  -25.4800 C   0  0  0  0  0
    6.7740  -22.6920  -24.6980 O   0  0  0  0  0
    5.0970  -23.7030  -26.7420 C   0  0  0  0  0
    4.3000  -23.7400  -28.0170 C   0  0  0  0  0
    4.6840  -22.5010  -28.7960 C   0  0  0  0  0
    6.8140  -20.6240  -25.5570 N   0  0  0  0  0
    7.7160  -20.0860  -24.5310 C   0  0  0  0  0
    6.9740  -19.7370  -23.2290 C   0  0  0  0  0
    7.6100  -19.6820  -22.1750 O   0  0  0  0  0
    8.4520  -18.8510  -25.0340 C   0  0  0  0  0
    7.5700  -17.6430  -25.2270 C   0  0  0  0  0
    7.8230  -16.9320  -26.5240 C   0  0  0  0  0
    7.4660  -17.5030  -27.5690 O   0  0  0  0  0
    8.3460  -15.8020  -26.4920 O   0  0  0  0  0
    5.6620  -19.4560  -23.3390 N   0  0  0  0  0
    4.7680  -19.1840  -22.2080 C   0  0  0  0  0
    3.5020  -20.0300  -22.3300 C   0  0  0  0  0
    3.0030  -20.2620  -23.4510 O   0  0  0  0  0
    4.3580  -17.7160  -22.2220 C   0  0  0  0  0
    5.4740  -16.6810  -22.2420 C   0  0  0  0  0
    4.9790  -15.3010  -21.9020 C   0  0  0  0  0
    4.5010  -14.5580  -22.7740 O   0  0  0  0  0
    5.0470  -14.9410  -20.6200 N   0  0  0  0  0
    2.9670  -20.4930  -21.1960 N   0  0  0  0  0
    1.6870  -21.1630  -21.1850 C   0  0  0  0  0
    0.6840  -20.4280  -20.3020 C   0  0  0  0  0
    1.0090  -20.0680  -19.1830 O   0  0  0  0  0
    1.8130  -22.6050  -20.7240 C   0  0  0  0  0
    0.6340  -23.4230  -21.1390 C   0  0  0  0  0
   -0.4920  -23.2090  -20.6090 O   0  0  0  0  0
    0.8310  -24.2670  -22.0370 O   0  0  0  0  0
   -0.5350  -20.2600  -20.8070 N   0  0  0  0  0
   -1.5280  -19.3700  -20.1970 C   0  0  0  0  0
   -2.4010  -19.9870  -19.1310 C   0  0  0  0  0
   -3.2490  -19.3140  -18.5790 O   0  0  0  0  0
   -2.4380  -18.8150  -21.2850 C   0  0  0  0  0
   -3.3530  -19.7990  -21.7820 O   0  0  0  0  0
   -2.2300  -21.2760  -18.8510 N   0  0  0  0  0
   -3.0670  -21.9540  -17.8640 C   0  0  0  0  0
   -2.7810  -21.3740  -16.4300 C   0  0  0  0  0
   -1.6220  -21.1520  -16.0380 O   0  0  0  0  0
   -2.8250  -23.4530  -17.9320 C   0  0  0  0  0
   -3.8610  -21.0770  -15.7090 N   0  0  0  0  0
   -3.7790  -20.5470  -14.3710 C   0  0  0  0  0
   -4.1400  -21.6280  -13.3960 C   0  0  0  0  0
   -5.1910  -22.2460  -13.5150 O   0  0  0  0  0
   -4.7350  -19.3620  -14.1700 C   0  0  0  0  0
   -4.8290  -18.9980  -12.6840 C   0  0  0  0  0
   -4.3020  -18.1950  -15.0290 C   0  0  0  0  0
   -3.2680  -21.7850  -12.4070 N   0  0  0  0  0
   -3.4630  -22.6780  -11.3040 C   0  0  0  0  0
   -3.0620  -22.0190   -9.9890 C   0  0  0  0  0
   -2.3590  -20.9660   -9.9700 O   0  0  0  0  0
   -2.6170  -23.9580  -11.4840 C   0  0  0  0  0
   -1.2380  -23.6130  -11.6810 O   0  0  0  0  0
   -3.1290  -24.7660  -12.6740 C   0  0  0  0  0
   -3.5570  -22.6280   -8.9020 N   0  0  0  0  0
   -3.2040  -22.2610   -7.5230 C   0  0  0  0  0
   -2.0410  -23.1170   -7.0540 C   0  0  0  0  0
   -1.6340  -24.0730   -7.7250 O   0  0  0  0  0
   -4.4000  -22.4430   -6.5990 C   0  0  0  0  0
   -4.0540  -22.2340   -5.2380 O   0  0  0  0  0
   -1.4870  -22.7660   -5.9090 N   0  0  0  0  0
   -0.1940  -23.3100   -5.4830 C   0  0  0  0  0
   -0.2920  -24.7470   -5.0790 C   0  0  0  0  0
   -0.9190  -25.0550   -4.0720 O   0  0  0  0  0
    0.3550  -25.6090   -5.8650 N   0  0  0  0  0
    0.0560  -27.0470   -5.9290 C   0  0  0  0  0
    1.2900  -27.8970   -5.6140 C   0  0  0  0  0
    2.2110  -27.4590   -4.9150 O   0  0  0  0  0
   -0.4850  -27.3940   -7.3330 C   0  0  0  0  0
   -1.9930  -27.1800   -7.5220 C   0  0  0  0  0
   -2.4390  -27.2380   -8.9860 C   0  0  0  0  0
   -1.7010  -27.8130   -9.8310 O   0  0  0  0  0
   -3.5470  -26.7340   -9.2990 O   0  0  0  0  0
    1.4050  -29.0490   -6.0480 O   0  0  0  0  0
    6.1841  -21.3830  -27.9751 H   0  0  0  0  0
    4.6386  -20.7444  -27.7537 H   0  0  0  0  0
    4.2956  -21.8309  -25.8486 H   0  0  0  0  0
    4.6491  -24.2953  -25.9441 H   0  0  0  0  0
    6.0862  -24.1486  -26.8466 H   0  0  0  0  0
    3.2301  -23.7559  -27.8095 H   0  0  0  0  0
    4.5157  -24.6435  -28.5874 H   0  0  0  0  0
    5.4145  -22.7090  -29.5778 H   0  0  0  0  0
    3.8426  -22.0728  -29.3408 H   0  0  0  0  0
    6.5566  -20.0360  -26.3497 H   0  0  0  0  0
    8.4368  -20.8749  -24.3161 H   0  0  0  0  0
    8.8729  -19.1013  -26.0078 H   0  0  0  0  0
    9.1953  -18.5900  -24.2807 H   0  0  0  0  0
    7.7835  -16.9439  -24.4184 H   0  0  0  0  0
    6.5352  -17.9855  -25.2329 H   0  0  0  0  0
    8.5372  -15.5648  -25.5816 H   0  0  0  0  0
    5.2605  -19.4304  -24.2763 H   0  0  0  0  0
    5.2930  -19.4246  -21.2836 H   0  0  0  0  0
    3.8185  -17.5509  -21.2893 H   0  0  0  0  0
    3.8051  -17.5724  -23.1503 H   0  0  0  0  0
    5.8908  -16.6524  -23.2488 H   0  0  0  0  0
    6.2149  -16.9680  -21.4958 H   0  0  0  0  0
    4.6993  -14.0278  -20.3276 H   0  0  0  0  0
    5.4467  -15.5788  -19.9317 H   0  0  0  0  0
    3.4735  -20.3706  -20.3191 H   0  0  0  0  0
    1.3217  -21.1588  -22.2119 H   0  0  0  0  0
    1.8709  -22.6137  -19.6356 H   0  0  0  0  0
    2.7058  -23.0341  -21.1788 H   0  0  0  0  0
   -0.4065  -22.5204  -19.9456 H   0  0  0  0  0
   -0.7893  -20.7707  -21.6525 H   0  0  0  0  0
   -0.9395  -18.6012  -19.6962 H   0  0  0  0  0
   -1.8120  -18.4856  -22.1143 H   0  0  0  0  0
   -3.0191  -17.9986  -20.8562 H   0  0  0  0  0
   -3.9044  -19.4066  -22.4629 H   0  0  0  0  0
   -1.5010  -21.8008  -19.3343 H   0  0  0  0  0
   -4.1198  -21.7772  -18.0843 H   0  0  0  0  0
   -3.0750  -23.8152  -18.9292 H   0  0  0  0  0
   -1.7759  -23.6603  -17.7211 H   0  0  0  0  0
   -3.4512  -23.9547  -17.1943 H   0  0  0  0  0
   -4.7819  -21.2306  -16.1197 H   0  0  0  0  0
   -2.7600  -20.1961  -14.2079 H   0  0  0  0  0
   -5.7382  -19.6432  -14.4903 H   0  0  0  0  0
   -5.2025  -19.8554  -12.1241 H   0  0  0  0  0
   -3.8405  -18.7242  -12.3151 H   0  0  0  0  0
   -5.5105  -18.1565  -12.5598 H   0  0  0  0  0
   -3.2929  -17.8935  -14.7482 H   0  0  0  0  0
   -4.3151  -18.4927  -16.0775 H   0  0  0  0  0
   -4.9870  -17.3607  -14.8783 H   0  0  0  0  0
   -2.4081  -21.2371  -12.4343 H   0  0  0  0  0
   -4.5226  -22.9321  -11.2772 H   0  0  0  0  0
   -2.7047  -24.5656  -10.5833 H   0  0  0  0  0
   -0.7214  -24.4146  -11.7917 H   0  0  0  0  0
   -4.1682  -25.0460  -12.5013 H   0  0  0  0  0
   -3.0597  -24.1618  -13.5786 H   0  0  0  0  0
   -2.5234  -25.6650  -12.7887 H   0  0  0  0  0
   -4.2184  -23.3921   -9.0402 H   0  0  0  0  0
   -2.9117  -21.2112   -7.4980 H   0  0  0  0  0
   -4.7625  -23.4653   -6.7064 H   0  0  0  0  0
   -5.1595  -21.7115   -6.8748 H   0  0  0  0  0
   -4.8316  -22.3573   -4.6887 H   0  0  0  0  0
   -1.9700  -22.1002   -5.3058 H   0  0  0  0  0
    0.1476  -22.7375   -4.6207 H   0  0  0  0  0
    0.4971  -23.2399   -6.3230 H   0  0  0  0  0
    1.1027  -25.2485   -6.4577 H   0  0  0  0  0
   -0.6973  -27.2737   -5.1745 H   0  0  0  0  0
    2.0050  -26.5621   -4.6416 H   0  0  0  0  0
   -0.2974  -28.4566   -7.4874 H   0  0  0  0  0
    0.0165  -26.7283   -8.0355 H   0  0  0  0  0
   -2.2327  -26.1856   -7.1455 H   0  0  0  0  0
   -2.5069  -27.9812   -6.9908 H   0  0  0  0  0
   -0.9046  -28.1278   -9.3970 H   0  0  0  0  0
  1  2  1  0  0  0
  1  7  1  0  0  0
  2  3  1  0  0  0
  2  5  1  0  0  0
  3  4  2  0  0  0
  3  8  1  0  0  0
  5  6  1  0  0  0
  6  7  1  0  0  0
  8  9  1  0  0  0
  9 10  1  0  0  0
  9 12  1  0  0  0
 10 11  2  0  0  0
 10 17  1  0  0  0
 12 13  1  0  0  0
 13 14  1  0  0  0
 14 15  2  0  0  0
 14 16  1  0  0  0
 17 18  1  0  0  0
 18 19  1  0  0  0
 18 21  1  0  0  0
 19 20  2  0  0  0
 19 26  1  0  0  0
 21 22  1  0  0  0
 22 23  1  0  0  0
 23 24  2  0  0  0
 23 25  1  0  0  0
 26 27  1  0  0  0
 27 28  1  0  0  0
 27 30  1  0  0  0
 28 29  2  0  0  0
 28 34  1  0  0  0
 30 31  1  0  0  0
 31 32  1  0  0  0
 31 33  2  0  0  0
 34 35  1  0  0  0
 35 36  1  0  0  0
 35 38  1  0  0  0
 36 37  2  0  0  0
 36 40  1  0  0  0
 38 39  1  0  0  0
 40 41  1  0  0  0
 41 42  1  0  0  0
 41 44  1  0  0  0
 42 43  2  0  0  0
 42 45  1  0  0  0
 45 46  1  0  0  0
 46 47  1  0  0  0
 46 49  1  0  0  0
 47 48  2  0  0  0
 47 52  1  0  0  0
 49 50  1  0  0  0
 49 51  1  0  0  0
 52 53  1  0  0  0
 53 54  1  0  0  0
 53 56  1  0  0  0
 54 55  2  0  0  0
 54 59  1  0  0  0
 56 57  1  0  0  0
 56 58  1  0  0  0
 59 60  1  0  0  0
 60 61  1  0  0  0
 60 63  1  0  0  0
 61 62  2  0  0  0
 61 65  1  0  0  0
 63 64  1  0  0  0
 65 66  1  0  0  0
 66 67  1  0  0  0
 67 68  2  0  0  0
 67 69  1  0  0  0
 69 70  1  0  0  0
 70 71  1  0  0  0
 70 73  1  0  0  0
 71 72  1  0  0  0
 71 78  2  0  0  0
 73 74  1  0  0  0
 74 75  1  0  0  0
 75 76  1  0  0  0
 75 77  2  0  0  0
  1 79  1  0  0  0
  1 80  1  0  0  0
  2 81  1  0  0  0
  5 82  1  0  0  0
  5 83  1  0  0  0
  6 84  1  0  0  0
  6 85  1  0  0  0
  7 86  1  0  0  0
  7 87  1  0  0  0
  8 88  1  0  0  0
  9 89  1  0  0  0
 12 90  1  0  0  0
 12 91  1  0  0  0
 13 92  1  0  0  0
 13 93  1  0  0  0
 16 94  1  0  0  0
 17 95  1  0  0  0
 18 96  1  0  0  0
 21 97  1  0  0  0
 21 98  1  0  0  0
 22 99  1  0  0  0
 22100  1  0  0  0
 25101  1  0  0  0
 25102  1  0  0  0
 26103  1  0  0  0
 27104  1  0  0  0
 30105  1  0  0  0
 30106  1  0  0  0
 32107  1  0  0  0
 34108  1  0  0  0
 35109  1  0  0  0
 38110  1  0  0  0
 38111  1  0  0  0
 39112  1  0  0  0
 40113  1  0  0  0
 41114  1  0  0  0
 44115  1  0  0  0
 44116  1  0  0  0
 44117  1  0  0  0
 45118  1  0  0  0
 46119  1  0  0  0
 49120  1  0  0  0
 50121  1  0  0  0
 50122  1  0  0  0
 50123  1  0  0  0
 51124  1  0  0  0
 51125  1  0  0  0
 51126  1  0  0  0
 52127  1  0  0  0
 53128  1  0  0  0
 56129  1  0  0  0
 57130  1  0  0  0
 58131  1  0  0  0
 58132  1  0  0  0
 58133  1  0  0  0
 59134  1  0  0  0
 60135  1  0  0  0
 63136  1  0  0  0
 63137  1  0  0  0
 64138  1  0  0  0
 65139  1  0  0  0
 66140  1  0  0  0
 66141  1  0  0  0
 69142  1  0  0  0
 70143  1  0  0  0
 72144  1  0  0  0
 73145  1  0  0  0
 73146  1  0  0  0
 74147  1  0  0  0
 74148  1  0  0  0
 76149  1  0  0  0
M  END
$$$$
