2b9a_ligand
  -I-interpret- 

 25 26  0  0  0  0  0  0  0  0999 V2000
   22.7340   82.8840   59.9470 F   0  0  0  0  0
   22.0950   83.8580   59.2630 C   0  0  0  0  0
   21.4220   84.8600   59.9560 C   0  0  0  0  0
   20.7760   85.8670   59.2660 C   0  0  0  0  0
   20.1340   86.8450   59.9490 F   0  0  0  0  0
   20.7900   85.8590   57.8660 C   0  0  0  0  0
   22.0990   83.8580   57.8580 C   0  0  0  0  0
   21.4450   84.8600   57.1350 C   0  0  0  0  0
   21.4350   84.8890   55.7250 C   0  0  0  0  0
   21.4260   86.1190   55.0720 C   0  0  0  0  0
   21.4250   86.2080   53.6830 C   0  0  0  0  0
   21.4240   83.7290   54.9180 C   0  0  0  0  0
   21.3970   83.8130   53.5140 C   0  0  0  0  0
   21.4070   85.0670   52.8960 C   0  0  0  0  0
   21.4230   85.2230   51.3940 C   0  0  0  0  0
   20.4420   85.7630   50.8460 O   0  0  0  0  0
   22.3720   84.7990   50.6870 O   0  0  0  0  0
   21.4047   84.8499   61.0458 H   0  0  0  0  0
   20.2751   86.6551   57.3282 H   0  0  0  0  0
   22.6203   83.0641   57.3232 H   0  0  0  0  0
   21.4196   87.0347   55.6633 H   0  0  0  0  0
   21.4386   87.1887   53.2074 H   0  0  0  0  0
   21.4367   82.7483   55.3935 H   0  0  0  0  0
   21.3684   82.9053   52.9112 H   0  0  0  0  0
   23.0444   84.4137   51.2536 H   0  0  0  0  0
  1  2  1  0  0  0
  2  3  4  0  0  0
  2  7  4  0  0  0
  3  4  4  0  0  0
  4  5  1  0  0  0
  4  6  4  0  0  0
  6  8  4  0  0  0
  7  8  4  0  0  0
  8  9  1  0  0  0
  9 10  4  0  0  0
  9 12  4  0  0  0
 10 11  4  0  0  0
 11 14  4  0  0  0
 12 13  4  0  0  0
 13 14  4  0  0  0
 14 15  1  0  0  0
 15 16  2  0  0  0
 15 17  1  0  0  0
  3 18  1  0  0  0
  6 19  1  0  0  0
  7 20  1  0  0  0
 10 21  1  0  0  0
 11 22  1  0  0  0
 12 23  1  0  0  0
 13 24  1  0  0  0
 17 25  1  0  0  0
M  END
$$$$
