4e5d_ligand
  -I-interpret- 

 28 30  0  0  0  0  0  0  0  0999 V2000
   13.2550   35.5320    9.9970 F   0  0  0  0  0
   12.9370   35.3730    8.7130 C   0  0  0  0  0
   12.7610   34.1000    8.1730 C   0  0  0  0  0
   12.4510   33.9520    6.8290 C   0  0  0  0  0
   12.2960   35.0840    6.0440 C   0  0  0  0  0
   12.4550   36.3520    6.5800 C   0  0  0  0  0
   12.7670   36.4990    7.9150 C   0  0  0  0  0
   13.0070   37.8590    8.4730 C   0  0  0  0  0
   13.2990   38.3550   10.0920 S   0  0  0  0  0
   13.5330   40.0440    9.7190 C   0  0  0  0  0
   13.1460   38.9390    7.6850 N   0  0  0  0  0
   13.4010   40.1560    8.3320 C   0  0  0  0  0
   13.5370   41.4060    7.6680 C   0  0  0  0  0
   13.8180   42.5620    8.3970 C   0  0  0  0  0
   13.9640   42.4720    9.7940 C   0  0  0  0  0
   13.8260   41.2190   10.4410 C   0  0  0  0  0
   14.2310   43.6200   10.5140 O   0  0  0  0  0
   14.8160   43.5540   11.7600 C   0  0  0  0  0
   12.8671   33.2200    8.8074 H   0  0  0  0  0
   12.3309   32.9589    6.3960 H   0  0  0  0  0
   12.0452   34.9750    4.9889 H   0  0  0  0  0
   12.3337   37.2314    5.9475 H   0  0  0  0  0
   13.4213   41.4613    6.5856 H   0  0  0  0  0
   13.9230   43.5219    7.8914 H   0  0  0  0  0
   13.9493   41.1622   11.5225 H   0  0  0  0  0
   14.1787   42.9757   12.4290 H   0  0  0  0  0
   15.7903   43.0722   11.6775 H   0  0  0  0  0
   14.9401   44.5621   12.1556 H   0  0  0  0  0
  1  2  1  0  0  0
  2  3  4  0  0  0
  2  7  4  0  0  0
  3  4  4  0  0  0
  4  5  4  0  0  0
  5  6  4  0  0  0
  6  7  4  0  0  0
  7  8  1  0  0  0
  8  9  4  0  0  0
  8 11  4  0  0  0
  9 10  4  0  0  0
 10 12  4  0  0  0
 10 16  4  0  0  0
 11 12  4  0  0  0
 12 13  4  0  0  0
 13 14  4  0  0  0
 14 15  4  0  0  0
 15 16  4  0  0  0
 15 17  1  0  0  0
 17 18  1  0  0  0
  3 19  1  0  0  0
  4 20  1  0  0  0
  5 21  1  0  0  0
  6 22  1  0  0  0
 13 23  1  0  0  0
 14 24  1  0  0  0
 16 25  1  0  0  0
 18 26  1  0  0  0
 18 27  1  0  0  0
 18 28  1  0  0  0
M  END
$$$$
