6hd4_ligand
  -I-interpret- 

 50 53  0  0  0  0  0  0  0  0999 V2000
   17.1120   38.7440   49.9850 C   0  0  0  0  0
   23.3430   47.8730   59.9750 C   0  0  0  0  0
   21.8540   47.7960   60.3800 C   0  0  0  0  0
   21.5310   46.3370   59.9640 C   0  0  0  0  0
   19.0900   42.4130   52.7240 C   0  0  0  0  0
   17.7100   42.1250   52.7730 C   0  0  0  0  0
   17.1220   41.4020   51.7240 C   0  0  0  0  0
   20.9480   43.4140   54.0070 C   0  0  0  0  0
   21.2980   44.0880   55.3010 C   0  0  0  0  0
   22.2560   45.1030   55.3460 C   0  0  0  0  0
   21.9270   45.3750   57.6990 C   0  0  0  0  0
   20.8770   44.4080   57.6990 C   0  0  0  0  0
   20.6100   43.7420   56.4910 C   0  0  0  0  0
   20.1980   43.8850   58.9260 C   0  0  0  0  0
   20.9740   43.2960   59.9460 C   0  0  0  0  0
   16.3750   38.5670   51.1050 F   0  0  0  0  0
   18.3190   38.1390   50.2000 F   0  0  0  0  0
   16.4470   38.2230   48.9200 F   0  0  0  0  0
   17.2690   40.1370   49.6940 O   0  0  0  0  0
   17.8980   40.9300   50.6650 C   0  0  0  0  0
   19.2880   41.1380   50.6690 C   0  0  0  0  0
   19.8820   41.8790   51.6880 C   0  0  0  0  0
   19.6420   43.1060   53.8120 N   0  0  0  0  0
   21.8250   43.2820   53.1710 O   0  0  0  0  0
   22.5710   45.6270   56.5370 N   0  0  0  0  0
   20.3780   42.8050   61.0600 N   0  0  0  0  0
   19.0330   42.8130   61.1980 C   0  0  0  0  0
   18.2660   43.3540   60.2330 N   0  0  0  0  0
   18.8080   43.8690   59.0970 C   0  0  0  0  0
   22.2650   46.2420   58.7060 N   0  0  0  0  0
   23.2800   47.2970   58.5450 C   0  0  0  0  0
   24.1260   47.0050   60.8180 O   0  0  0  0  0
   23.7891   48.8646   60.0521 H   0  0  0  0  0
   21.2214   48.5475   59.9076 H   0  0  0  0  0
   21.6631   48.0155   61.4305 H   0  0  0  0  0
   20.4651   46.1287   59.8715 H   0  0  0  0  0
   21.8218   45.5910   60.7037 H   0  0  0  0  0
   17.1069   42.4605   53.6167 H   0  0  0  0  0
   16.0496   41.2074   51.7366 H   0  0  0  0  0
   22.7353   45.4597   54.4343 H   0  0  0  0  0
   19.8634   42.9482   56.4686 H   0  0  0  0  0
   22.0569   43.2354   59.8380 H   0  0  0  0  0
   19.9027   40.7184   49.8727 H   0  0  0  0  0
   20.9592   42.0457   51.6840 H   0  0  0  0  0
   18.9901   43.4112   54.5347 H   0  0  0  0  0
   18.5716   42.3831   62.0871 H   0  0  0  0  0
   18.1594   44.2701   58.3181 H   0  0  0  0  0
   24.2384   46.9317   58.1761 H   0  0  0  0  0
   23.0283   48.0362   57.7845 H   0  0  0  0  0
   24.1610   47.3691   61.7056 H   0  0  0  0  0
  1 16  1  0  0  0
  1 17  1  0  0  0
  1 18  1  0  0  0
 19  1  1  0  0  0
  3  2  1  0  0  0
  2 31  1  0  0  0
  2 32  1  0  0  0
  4  3  1  0  0  0
 30  4  1  0  0  0
  6  5  4  0  0  0
  5 22  4  0  0  0
  5 23  1  0  0  0
  7  6  4  0  0  0
 20  7  4  0  0  0
  8  9  1  0  0  0
 23  8  1  0  0  0
  8 24  2  0  0  0
  9 10  4  0  0  0
  9 13  4  0  0  0
 10 25  4  0  0  0
 12 11  4  0  0  0
 25 11  4  0  0  0
 11 30  1  0  0  0
 13 12  4  0  0  0
 12 14  1  0  0  0
 14 15  4  0  0  0
 14 29  4  0  0  0
 15 26  4  0  0  0
 19 20  1  0  0  0
 20 21  4  0  0  0
 21 22  4  0  0  0
 26 27  4  0  0  0
 27 28  4  0  0  0
 28 29  4  0  0  0
 30 31  1  0  0  0
  2 33  1  0  0  0
  3 34  1  0  0  0
  3 35  1  0  0  0
  4 36  1  0  0  0
  4 37  1  0  0  0
  6 38  1  0  0  0
  7 39  1  0  0  0
 10 40  1  0  0  0
 13 41  1  0  0  0
 15 42  1  0  0  0
 21 43  1  0  0  0
 22 44  1  0  0  0
 23 45  1  0  0  0
 27 46  1  0  0  0
 29 47  1  0  0  0
 31 48  1  0  0  0
 31 49  1  0  0  0
 32 50  1  0  0  0
M  END
$$$$
