5os0_ligand
  -I-interpret- 

 31 32  0  0  0  0  0  0  0  0999 V2000
  -11.6610   10.3880  -13.4770 C   0  0  0  0  0
  -11.7190   10.2120  -15.0080 C   0  0  0  0  0
  -12.9270   13.2850  -16.6920 C   0  0  0  0  0
  -12.8350   12.0170  -15.8380 C   0  0  0  0  0
  -10.7150   11.4220  -16.7010 C   0  0  0  0  0
  -10.5990   12.6990  -17.4770 C   0  0  0  0  0
  -10.0160   15.1770  -18.1980 C   0  0  0  0  0
   -9.6670   16.3630  -18.8010 C   0  0  0  0  0
  -10.7590   17.3570  -19.2430 C   0  0  0  0  0
  -11.4740   14.8460  -17.9560 C   0  0  0  0  0
  -12.4680   15.7230  -18.3600 C   0  0  0  0  0
  -12.0860   17.0530  -19.0330 C   0  0  0  0  0
   -7.9860   16.6230  -19.0110 Cl  0  0  0  0  0
  -11.7130   13.5950  -17.3400 N   0  0  0  0  0
  -11.5430   11.5300  -15.5640 N   0  3  0  0  0
  -11.7340   10.4770  -12.3340 N   0  0  0  0  0
  -12.6671    9.7742  -15.3203 H   0  0  0  0  0
  -10.9450    9.5286  -15.3573 H   0  0  0  0  0
  -13.1751   14.1158  -16.0315 H   0  0  0  0  0
  -13.6824   13.1171  -17.4596 H   0  0  0  0  0
  -13.3355   11.2345  -16.4084 H   0  0  0  0  0
  -13.2695   12.2741  -14.8720 H   0  0  0  0  0
   -9.7160   11.1557  -16.3556 H   0  0  0  0  0
  -11.1585   10.6761  -17.3606 H   0  0  0  0  0
  -10.5440   12.4236  -18.5302 H   0  0  0  0  0
   -9.7242   13.2230  -17.0921 H   0  0  0  0  0
   -9.2411   14.4735  -17.8935 H   0  0  0  0  0
  -10.4821   18.2971  -19.7200 H   0  0  0  0  0
  -13.5167   15.4716  -18.2016 H   0  0  0  0  0
  -12.8628   17.7522  -19.3425 H   0  0  0  0  0
  -11.0808   12.1882  -14.9366 H   0  0  0  0  0
  2  1  1  0  0  0
  1 16  3  0  0  0
 15  2  1  0  0  0
  3  4  1  0  0  0
 14  3  1  0  0  0
  4 15  1  0  0  0
  6  5  1  0  0  0
  5 15  1  0  0  0
 14  6  1  0  0  0
  7  8  4  0  0  0
 10  7  4  0  0  0
  8  9  4  0  0  0
  8 13  1  0  0  0
  9 12  4  0  0  0
 10 11  4  0  0  0
 10 14  1  0  0  0
 11 12  4  0  0  0
  2 17  1  0  0  0
  2 18  1  0  0  0
  3 19  1  0  0  0
  3 20  1  0  0  0
  4 21  1  0  0  0
  4 22  1  0  0  0
  5 23  1  0  0  0
  5 24  1  0  0  0
  6 25  1  0  0  0
  6 26  1  0  0  0
  7 27  1  0  0  0
  9 28  1  0  0  0
 11 29  1  0  0  0
 12 30  1  0  0  0
 15 31  1  0  0  0
M  END
$$$$
