4jp9_ligand
  -I-interpret- 

 46 49  0  0  0  0  0  0  0  0999 V2000
   27.0420   15.4980    9.4360 C   0  0  0  0  0
   27.7630   14.2880    9.2620 C   0  0  0  0  0
   27.1010   13.1180    8.8140 C   0  0  0  0  0
   25.7150   13.1520    8.5350 C   0  0  0  0  0
   24.9890   14.3580    8.7100 C   0  0  0  0  0
   25.6520   15.5280    9.1550 C   0  0  0  0  0
   25.0880   12.0020    8.1080 O   0  0  0  0  0
   23.6700   11.8330    8.2050 C   0  0  0  0  0
   22.9730   13.1160    7.7050 C   0  0  0  0  0
   23.4960   14.4050    8.3800 C   0  0  0  0  0
   27.6960   16.6790    9.8590 C   0  0  0  0  0
   23.2920   10.6440    7.3000 C   0  0  0  0  0
   23.2920   11.5200    9.6740 C   0  0  0  0  0
   23.2490   15.6100    7.4590 C   0  0  0  0  0
   22.4430   16.4760    8.1070 N   0  0  0  0  0
   22.1420   15.9280    9.3200 C   0  0  0  0  0
   22.6900   14.7790    9.5310 N   0  0  0  0  0
   21.3320   16.6140   10.2000 N   0  0  0  0  0
   23.8040   15.7700    6.3670 O   0  0  0  0  0
   22.0060   17.7630    7.5660 C   0  0  0  0  0
   27.0300   17.6060   10.6970 C   0  0  0  0  0
   27.6840   18.8010   11.0830 C   0  0  0  0  0
   29.0030   19.0810   10.6400 C   0  0  0  0  0
   29.6680   18.1570    9.7970 C   0  0  0  0  0
   29.0130   16.9630    9.4040 C   0  0  0  0  0
   26.8560   19.9110   12.0980 Cl  0  0  0  0  0
   28.8318   14.2585    9.4741 H   0  0  0  0  0
   27.6602   12.1914    8.6844 H   0  0  0  0  0
   25.0921   16.4546    9.2819 H   0  0  0  0  0
   21.9133   13.0277    7.9443 H   0  0  0  0  0
   23.1718   13.2018    6.6367 H   0  0  0  0  0
   23.5840   10.8635    6.2730 H   0  0  0  0  0
   23.8105    9.7487    7.6430 H   0  0  0  0  0
   22.2151   10.4819    7.3462 H   0  0  0  0  0
   23.7920   10.6042    9.9892 H   0  0  0  0  0
   23.6066   12.3455   10.3126 H   0  0  0  0  0
   22.2124   11.3909    9.7504 H   0  0  0  0  0
   22.5754   14.2189   10.3757 H   0  0  0  0  0
   20.9596   17.5283    9.9436 H   0  0  0  0  0
   20.9177   17.7808    7.5086 H   0  0  0  0  0
   22.3499   18.5656    8.2185 H   0  0  0  0  0
   22.4260   17.8982    6.5693 H   0  0  0  0  0
   26.0173   17.4003   11.0437 H   0  0  0  0  0
   29.5010   20.0009   10.9464 H   0  0  0  0  0
   30.6809   18.3637    9.4514 H   0  0  0  0  0
   29.5226   16.2572    8.7481 H   0  0  0  0  0
  1  2  4  0  0  0
  1  6  4  0  0  0
  1 11  1  0  0  0
  2  3  4  0  0  0
  3  4  4  0  0  0
  4  5  4  0  0  0
  4  7  1  0  0  0
  5  6  4  0  0  0
  5 10  1  0  0  0
  7  8  1  0  0  0
  8  9  1  0  0  0
  8 12  1  0  0  0
  8 13  1  0  0  0
  9 10  1  0  0  0
 10 14  1  0  0  0
 10 17  1  0  0  0
 11 21  4  0  0  0
 11 25  4  0  0  0
 14 15  1  0  0  0
 14 19  2  0  0  0
 15 16  4  0  0  0
 15 20  1  0  0  0
 16 17  1  0  0  0
 16 18  2  0  0  0
 21 22  4  0  0  0
 22 23  4  0  0  0
 22 26  1  0  0  0
 23 24  4  0  0  0
 24 25  4  0  0  0
  2 27  1  0  0  0
  3 28  1  0  0  0
  6 29  1  0  0  0
  9 30  1  0  0  0
  9 31  1  0  0  0
 12 32  1  0  0  0
 12 33  1  0  0  0
 12 34  1  0  0  0
 13 35  1  0  0  0
 13 36  1  0  0  0
 13 37  1  0  0  0
 17 38  1  0  0  0
 18 39  1  0  0  0
 20 40  1  0  0  0
 20 41  1  0  0  0
 20 42  1  0  0  0
 21 43  1  0  0  0
 23 44  1  0  0  0
 24 45  1  0  0  0
 25 46  1  0  0  0
M  END
$$$$
