6s7k_ligand
  -I-interpret- 

 46 48  0  0  0  0  0  0  0  0999 V2000
  169.4510  -13.0180   31.3040 O   0  0  0  0  0
  171.2450   -7.1390   31.3730 C   0  0  0  0  0
  169.3170  -10.2030   31.8910 C   0  0  0  0  0
  165.3300  -10.8840   33.5760 O   0  0  0  0  0
  170.4160  -12.4080   31.7590 C   0  0  0  0  0
  171.5490  -15.4950   32.3110 N   0  0  0  0  0
  171.6610  -13.1270   32.2180 C   0  0  0  0  0
  171.8490  -14.4740   31.5870 C   0  0  0  0  0
  171.6280  -16.7780   31.7000 N   0  0  0  0  0
  171.9510  -17.0560   30.4550 C   0  0  0  0  0
  172.2840  -15.9070   29.6220 C   0  0  0  0  0
  172.6310  -16.0850   28.2750 C   0  0  0  0  0
  172.9690  -14.9870   27.5010 C   0  0  0  0  0
  164.9300  -11.1550   31.1810 N   0  0  0  0  0
  172.9230  -13.7020   28.0490 C   0  0  0  0  0
  172.5750  -13.5130   29.3750 C   0  0  0  0  0
  172.2510  -14.6160   30.1760 C   0  0  0  0  0
  165.3200  -10.1390   32.3610 S   0  0  0  0  0
  164.4690   -9.0010   32.2460 O   0  0  0  0  0
  165.2530  -12.5680   31.3580 C   0  0  0  0  0
  166.9780   -9.6490   32.0230 C   0  0  0  0  0
  167.9850  -10.6040   32.0450 C   0  0  0  0  0
  169.5920   -8.8350   31.6780 C   0  0  0  0  0
  170.9080   -8.5350   31.4860 O   0  0  0  0  0
  168.5670   -7.9060   31.6430 C   0  0  0  0  0
  167.2550   -8.3140   31.8260 C   0  0  0  0  0
  170.4330  -11.0620   31.9210 N   0  0  0  0  0
  172.0560  -18.2160   30.0640 O   0  0  0  0  0
  170.7158   -6.7064   30.5240 H   0  0  0  0  0
  170.9535   -6.6211   32.2867 H   0  0  0  0  0
  172.3198   -7.0370   31.2231 H   0  0  0  0  0
  171.5695  -13.2815   33.2931 H   0  0  0  0  0
  172.5150  -12.5125   31.9331 H   0  0  0  0  0
  171.4086  -17.5754   32.2971 H   0  0  0  0  0
  172.6347  -17.0838   27.8386 H   0  0  0  0  0
  173.2713  -15.1253   26.4629 H   0  0  0  0  0
  164.4703  -10.8235   30.3329 H   0  0  0  0  0
  173.1635  -12.8405   27.4260 H   0  0  0  0  0
  172.5530  -12.5077   29.7956 H   0  0  0  0  0
  166.3298  -12.6801   31.4848 H   0  0  0  0  0
  164.7403  -12.9487   32.2413 H   0  0  0  0  0
  164.9292  -13.1262   30.4796 H   0  0  0  0  0
  167.7405  -11.6575   32.1811 H   0  0  0  0  0
  168.7914   -6.8532   31.4715 H   0  0  0  0  0
  166.4469   -7.5826   31.8141 H   0  0  0  0  0
  171.3428  -10.6291   32.0801 H   0  0  0  0  0
  5  1  2  0  0  0
 24  2  1  0  0  0
  3 22  4  0  0  0
 23  3  4  0  0  0
  3 27  1  0  0  0
 18  4  2  0  0  0
  5  7  1  0  0  0
 27  5  1  0  0  0
  8  6  2  0  0  0
  6  9  1  0  0  0
  7  8  1  0  0  0
  8 17  1  0  0  0
  9 10  1  0  0  0
 11 10  1  0  0  0
 10 28  2  0  0  0
 11 12  4  0  0  0
 17 11  4  0  0  0
 12 13  4  0  0  0
 15 13  4  0  0  0
 18 14  1  0  0  0
 14 20  1  0  0  0
 16 15  4  0  0  0
 17 16  4  0  0  0
 18 19  2  0  0  0
 21 18  1  0  0  0
 22 21  4  0  0  0
 21 26  4  0  0  0
 23 24  1  0  0  0
 23 25  4  0  0  0
 25 26  4  0  0  0
  2 29  1  0  0  0
  2 30  1  0  0  0
  2 31  1  0  0  0
  7 32  1  0  0  0
  7 33  1  0  0  0
  9 34  1  0  0  0
 12 35  1  0  0  0
 13 36  1  0  0  0
 14 37  1  0  0  0
 15 38  1  0  0  0
 16 39  1  0  0  0
 20 40  1  0  0  0
 20 41  1  0  0  0
 20 42  1  0  0  0
 22 43  1  0  0  0
 25 44  1  0  0  0
 26 45  1  0  0  0
 27 46  1  0  0  0
M  END
$$$$
