5efb_ligand
  -I-interpret- 

 38 39  0  0  0  0  0  0  0  0999 V2000
   82.4430   19.4790   18.6850 O   0  0  0  0  0
   81.3750   18.5160   18.7930 S   0  0  0  0  0
   81.2040   17.9620   20.3640 N   0  0  0  0  0
   82.3710   17.6650   21.1980 C   0  0  0  0  0
   83.5340   18.3880   20.9970 C   0  0  0  0  0
   84.6910   18.1750   21.7300 C   0  0  0  0  0
   85.9130   19.0000   21.4140 C   0  0  0  0  0
   86.8740   19.6660   21.1910 C   0  0  0  0  0
   88.0720   20.5240   20.8340 C   0  0  0  0  0
   89.3180   20.0610   21.0650 C   0  0  0  0  0
   90.4280   21.0980   20.9320 C   0  0  0  0  0
   91.4740   21.0850   21.9190 N   0  0  0  0  0
   92.5120   21.9860   21.8990 O   0  0  0  0  0
   90.3810   21.9140   20.0170 O   0  0  0  0  0
   84.7200   17.1970   22.7000 C   0  0  0  0  0
   83.5690   16.4540   22.9230 C   0  0  0  0  0
   82.4050   16.6810   22.1810 C   0  0  0  0  0
   81.8530   17.2110   17.6700 C   0  0  0  0  0
   81.0290   16.5190   16.7640 C   0  0  0  0  0
   81.6200   15.5200   15.9650 C   0  0  0  0  0
   82.9900   15.2660   16.0990 C   0  0  0  0  0
   83.7850   15.9770   16.9970 C   0  0  0  0  0
   83.2040   16.9580   17.7800 C   0  0  0  0  0
   80.2430   19.2200   18.2970 O   0  0  0  0  0
   80.2684   17.8287   20.7479 H   0  0  0  0  0
   83.5403   19.1599   20.2274 H   0  0  0  0  0
   87.9273   21.5102   20.3928 H   0  0  0  0  0
   89.5166   19.0219   21.3274 H   0  0  0  0  0
   91.4446   20.3835   22.6589 H   0  0  0  0  0
   93.1003   21.8112   22.6372 H   0  0  0  0  0
   85.6250   17.0112   23.2784 H   0  0  0  0  0
   83.5721   15.6797   23.6901 H   0  0  0  0  0
   81.5159   16.0810   22.3749 H   0  0  0  0  0
   79.9665   16.7484   16.6825 H   0  0  0  0  0
   81.0194   14.9536   15.2533 H   0  0  0  0  0
   83.4479   14.4910   15.4844 H   0  0  0  0  0
   84.8504   15.7626   17.0809 H   0  0  0  0  0
   83.8120   17.5291   18.4816 H   0  0  0  0  0
  1  2  2  0  0  0
  2  3  1  0  0  0
  2 18  1  0  0  0
  2 24  2  0  0  0
  3  4  1  0  0  0
  4  5  4  0  0  0
  4 17  4  0  0  0
  5  6  4  0  0  0
  6  7  1  0  0  0
  6 15  4  0  0  0
  7  8  3  0  0  0
  8  9  1  0  0  0
  9 10  2  0  0  0
 10 11  1  0  0  0
 11 12  1  0  0  0
 11 14  2  0  0  0
 12 13  1  0  0  0
 15 16  4  0  0  0
 16 17  4  0  0  0
 18 19  4  0  0  0
 18 23  4  0  0  0
 19 20  4  0  0  0
 20 21  4  0  0  0
 21 22  4  0  0  0
 22 23  4  0  0  0
  3 25  1  0  0  0
  5 26  1  0  0  0
  9 27  1  0  0  0
 10 28  1  0  0  0
 12 29  1  0  0  0
 13 30  1  0  0  0
 15 31  1  0  0  0
 16 32  1  0  0  0
 17 33  1  0  0  0
 19 34  1  0  0  0
 20 35  1  0  0  0
 21 36  1  0  0  0
 22 37  1  0  0  0
 23 38  1  0  0  0
M  END
$$$$
