5es1_ligand
  -I-interpret- 

 53 56  0  0  0  0  0  0  0  0999 V2000
  -41.2170  -24.2330   -6.4610 C   0  0  0  0  0
  -41.4150  -23.4560   -4.1250 C   0  0  0  0  0
  -43.6930  -23.1650    0.6140 C   0  0  0  0  0
  -41.5140  -23.5770   -7.8250 C   0  0  0  0  0
  -42.8860  -23.9990   -8.3510 C   0  0  0  0  0
  -43.0090  -25.5170   -8.4720 C   0  0  0  0  0
  -49.7730  -20.2030   -5.7000 F   0  0  0  0  0
  -42.8060  -26.2100   -7.1260 C   0  0  0  0  0
  -41.5100  -25.7870   -6.4960 C   0  0  0  0  0
  -43.4840  -22.2460   -3.0820 C   0  0  0  0  0
  -42.2430  -22.8370   -3.0700 C   0  0  0  0  0
  -47.6350  -21.0420   -1.8100 N   0  0  0  0  0
  -46.5650  -21.6520   -2.4590 C   0  0  0  0  0
  -45.4920  -21.6700   -1.5740 C   0  0  0  0  0
  -45.9850  -21.0400   -0.4180 C   0  0  0  0  0
  -47.3010  -20.6400   -0.5190 N   0  0  0  0  0
  -48.8160  -20.8590   -2.4430 C   0  0  0  0  0
  -48.8910  -21.2860   -3.7890 C   0  0  0  0  0
  -47.7960  -21.9100   -4.3540 C   0  0  0  0  0
  -46.6350  -22.0990   -3.7200 N   0  0  0  0  0
  -44.1340  -22.2610   -1.7990 C   0  0  0  0  0
  -41.8670  -23.4190   -1.4800 S   0  0  0  0  0
  -43.3800  -22.8760   -0.8240 C   0  0  0  0  0
  -41.9420  -23.6100   -5.3540 N   0  0  0  0  0
  -40.4810  -26.4510   -7.0850 F   0  0  0  0  0
  -40.2530  -23.7740   -3.8670 O   0  0  0  0  0
  -41.4450  -26.2670   -5.2280 F   0  0  0  0  0
  -41.3930  -22.1120   -7.8010 N   0  3  0  0  0
  -50.0910  -20.9650   -4.6310 C   0  0  0  0  0
  -50.6540  -22.0720   -5.1530 F   0  0  0  0  0
  -51.0610  -20.3040   -3.9530 F   0  0  0  0  0
  -43.5490  -24.6200    0.9950 C   0  0  0  0  0
  -40.1542  -24.0734   -6.2790 H   0  0  0  0  0
  -44.7345  -22.8894    0.7795 H   0  0  0  0  0
  -42.9829  -22.6010    1.2187 H   0  0  0  0  0
  -40.7478  -23.9402   -8.5099 H   0  0  0  0  0
  -43.0196  -23.5657   -9.3422 H   0  0  0  0  0
  -43.6429  -23.6502   -7.6485 H   0  0  0  0  0
  -42.2400  -25.8699   -9.1591 H   0  0  0  0  0
  -44.0106  -25.7526   -8.8317 H   0  0  0  0  0
  -42.7825  -27.2879   -7.2865 H   0  0  0  0  0
  -43.6252  -25.9337   -6.4622 H   0  0  0  0  0
  -43.9311  -21.8094   -3.9751 H   0  0  0  0  0
  -45.3823  -20.8821    0.4764 H   0  0  0  0  0
  -49.6692  -20.4041   -1.9398 H   0  0  0  0  0
  -47.8842  -22.2701   -5.3790 H   0  0  0  0  0
  -42.8914  -23.2766   -5.5211 H   0  0  0  0  0
  -40.4717  -21.8539   -7.4474 H   0  0  0  0  0
  -41.5103  -21.7468   -8.7461 H   0  0  0  0  0
  -42.1133  -21.7225   -7.1929 H   0  0  0  0  0
  -44.2280  -25.2214    0.3906 H   0  0  0  0  0
  -42.5223  -24.9406    0.8183 H   0  0  0  0  0
  -43.7932  -24.7439    2.0501 H   0  0  0  0  0
  1  4  1  0  0  0
  1  9  1  0  0  0
 24  1  1  0  0  0
 11  2  1  0  0  0
  2 24  1  0  0  0
  2 26  2  0  0  0
 23  3  1  0  0  0
  3 32  1  0  0  0
  4  5  1  0  0  0
  4 28  1  0  0  0
  5  6  1  0  0  0
  8  6  1  0  0  0
 29  7  1  0  0  0
  9  8  1  0  0  0
  9 25  1  0  0  0
  9 27  1  0  0  0
 10 11  4  0  0  0
 21 10  4  0  0  0
 11 22  4  0  0  0
 13 12  4  0  0  0
 16 12  4  0  0  0
 12 17  4  0  0  0
 14 13  4  0  0  0
 13 20  4  0  0  0
 14 15  4  0  0  0
 21 14  1  0  0  0
 15 16  4  0  0  0
 17 18  4  0  0  0
 19 18  4  0  0  0
 18 29  1  0  0  0
 20 19  4  0  0  0
 21 23  4  0  0  0
 22 23  4  0  0  0
 29 30  1  0  0  0
 29 31  1  0  0  0
  1 33  1  0  0  0
  3 34  1  0  0  0
  3 35  1  0  0  0
  4 36  1  0  0  0
  5 37  1  0  0  0
  5 38  1  0  0  0
  6 39  1  0  0  0
  6 40  1  0  0  0
  8 41  1  0  0  0
  8 42  1  0  0  0
 10 43  1  0  0  0
 15 44  1  0  0  0
 17 45  1  0  0  0
 19 46  1  0  0  0
 24 47  1  0  0  0
 28 48  1  0  0  0
 28 49  1  0  0  0
 28 50  1  0  0  0
 32 51  1  0  0  0
 32 52  1  0  0  0
 32 53  1  0  0  0
M  END
$$$$
