5wzs_ligand
  -I-interpret- 

 51 54  0  0  0  0  0  0  0  0999 V2000
  -19.6090  -15.9710   11.2380 O   0  0  0  0  0
  -18.7460  -16.1040   12.1360 C   0  0  0  0  0
  -18.9960  -16.2800   13.3460 O   0  0  0  0  0
  -17.2550  -15.9950   11.7370 C   0  0  0  0  0
  -16.4430  -16.8590   12.5730 O   0  0  0  0  0
  -16.0910  -18.1420   12.2180 C   0  0  0  0  0
  -16.7980  -18.8450   11.2260 C   0  0  0  0  0
  -16.4080  -20.1300   10.9080 C   0  0  0  0  0
  -15.3340  -20.6770   11.5990 C   0  0  0  0  0
  -14.6760  -19.9850   12.5470 C   0  0  0  0  0
  -15.0340  -18.7150   12.8740 C   0  0  0  0  0
  -14.1810  -18.3240   13.8590 C   0  0  0  0  0
  -14.1620  -17.1280   14.5100 C   0  0  0  0  0
  -13.1740  -16.3950   14.5730 O   0  0  0  0  0
  -15.4360  -16.6650   15.2310 C   0  0  0  0  0
  -16.4650  -17.3330   15.2440 O   0  0  0  0  0
  -15.3620  -15.4680   15.7710 N   0  0  0  0  0
  -13.3380  -19.3330   14.0900 C   0  0  0  0  0
  -12.1970  -19.3170   15.1250 C   0  0  0  0  0
  -13.6240  -20.3680   13.2830 N   0  0  0  0  0
  -12.9640  -21.7430   13.1590 C   0  0  0  0  0
  -12.1380  -21.8110   11.9610 C   0  0  0  0  0
  -12.0960  -22.8800   10.9950 C   0  0  0  0  0
  -12.8960  -24.0400   11.0540 C   0  0  0  0  0
  -12.8260  -25.0460   10.0750 C   0  0  0  0  0
  -11.9500  -24.9360    8.9940 C   0  0  0  0  0
  -11.1430  -23.8080    8.8970 C   0  0  0  0  0
  -11.2170  -22.8030    9.8760 C   0  0  0  0  0
  -10.3890  -21.7110    9.7060 C   0  0  0  0  0
  -10.4160  -20.6850   10.6340 C   0  0  0  0  0
  -11.2640  -20.7340   11.7370 C   0  0  0  0  0
  -19.1724  -15.8485   10.3918 H   0  0  0  0  0
  -16.9270  -14.9638   11.8682 H   0  0  0  0  0
  -17.1428  -16.3002   10.6966 H   0  0  0  0  0
  -17.6421  -18.3814   10.7155 H   0  0  0  0  0
  -16.9275  -20.6992   10.1371 H   0  0  0  0  0
  -15.0160  -21.6935   11.3671 H   0  0  0  0  0
  -16.1807  -15.0610   16.2232 H   0  0  0  0  0
  -14.4859  -14.9467   15.7376 H   0  0  0  0  0
  -11.5026  -18.5116   14.8859 H   0  0  0  0  0
  -12.6127  -19.1567   16.1198 H   0  0  0  0  0
  -11.6712  -20.2715   15.0991 H   0  0  0  0  0
  -13.7425  -22.5032   13.0941 H   0  0  0  0  0
  -12.3334  -21.9114   14.0320 H   0  0  0  0  0
  -13.5907  -24.1602   11.8853 H   0  0  0  0  0
  -13.4651  -25.9248   10.1612 H   0  0  0  0  0
  -11.8994  -25.7206    8.2391 H   0  0  0  0  0
  -10.4521  -23.7032    8.0605 H   0  0  0  0  0
   -9.7194  -21.6577    8.8475 H   0  0  0  0  0
   -9.7620  -19.8235   10.4991 H   0  0  0  0  0
  -11.2494  -19.9098   12.4502 H   0  0  0  0  0
  1  2  1  0  0  0
  2  3  2  0  0  0
  2  4  1  0  0  0
  4  5  1  0  0  0
  5  6  1  0  0  0
  6  7  4  0  0  0
  6 11  4  0  0  0
  7  8  4  0  0  0
  8  9  4  0  0  0
  9 10  4  0  0  0
 10 11  4  0  0  0
 10 20  4  0  0  0
 11 12  4  0  0  0
 12 13  1  0  0  0
 12 18  4  0  0  0
 13 14  2  0  0  0
 13 15  1  0  0  0
 15 16  2  0  0  0
 15 17  1  0  0  0
 18 19  1  0  0  0
 18 20  4  0  0  0
 20 21  1  0  0  0
 21 22  1  0  0  0
 22 23  4  0  0  0
 22 31  4  0  0  0
 23 24  4  0  0  0
 23 28  4  0  0  0
 24 25  4  0  0  0
 25 26  4  0  0  0
 26 27  4  0  0  0
 27 28  4  0  0  0
 28 29  4  0  0  0
 29 30  4  0  0  0
 30 31  4  0  0  0
  1 32  1  0  0  0
  4 33  1  0  0  0
  4 34  1  0  0  0
  7 35  1  0  0  0
  8 36  1  0  0  0
  9 37  1  0  0  0
 17 38  1  0  0  0
 17 39  1  0  0  0
 19 40  1  0  0  0
 19 41  1  0  0  0
 19 42  1  0  0  0
 21 43  1  0  0  0
 21 44  1  0  0  0
 24 45  1  0  0  0
 25 46  1  0  0  0
 26 47  1  0  0  0
 27 48  1  0  0  0
 29 49  1  0  0  0
 30 50  1  0  0  0
 31 51  1  0  0  0
M  END
$$$$
