### 
### Created by X-TOOL on Mon Sep 10 21:13:25 2018
### 

@<TRIPOS>MOLECULE
5svy_ligand
  188   187     1     0     0
SMALL
GAST_HUCK


@<TRIPOS>ATOM
      1 N         -28.0060    4.8630   33.0200 N.4       1 ALA         0.2377
      2 CA        -26.7750    5.0580   32.2250 C.3       1 ALA         0.0621
      3 C         -25.8050    3.9320   32.5260 C.2       1 ALA         0.2264
      4 O         -25.8840    3.3110   33.5790 O.2       1 ALA        -0.3907
      5 CB        -26.1540    6.3870   32.5640 C.3       1 ALA        -0.0040
      6 N         -24.8960    3.6860   31.5940 N.am      1 ARG        -0.2610
      7 CA        -23.8510    2.6910   31.7870 C.3       1 ARG         0.1312
      8 C         -22.6720    3.3320   32.4910 C.2       1 ARG         0.2040
      9 O         -22.1210    4.3080   32.0030 O.2       1 ARG        -0.3944
     10 CB        -23.4120    2.1210   30.4530 C.3       1 ARG        -0.0092
     11 CG        -22.5240    0.9590   30.6000 C.3       1 ARG        -0.0156
     12 CD        -21.9810    0.5870   29.2800 C.3       1 ARG         0.0627
     13 NE        -21.2780   -0.6740   29.3520 N.pl3     1 ARG        -0.2723
     14 CZ        -20.7550   -1.2460   28.3040 C.cat     1 ARG         0.2882
     15 NH1       -20.9310   -0.6660   27.1250 N.pl3     1 ARG        -0.2849
     16 NH2       -20.1640   -2.4230   28.4140 N.pl3     1 ARG        -0.2849
     17 N         -22.3020    2.7920   33.6560 N.am      1 THR        -0.2613
     18 CA        -21.2160    3.3460   34.4330 C.3       1 THR         0.1565
     19 C         -20.1960    2.2730   34.7980 C.2       1 THR         0.2065
     20 O         -20.4520    1.0610   34.6890 O.2       1 THR        -0.3943
     21 CB        -21.7150    4.0250   35.7260 C.3       1 THR         0.0924
     22 OG1       -22.3670    3.0490   36.5360 O.3       1 THR        -0.3874
     23 CG2       -22.6400    5.1870   35.4340 C.3       1 THR        -0.0346
     24 N         -19.0290    2.7360   35.2260 N.am      1 MLZ        -0.2637
     25 CA        -18.0060    1.8840   35.7510 C.3       1 MLZ         0.1310
     26 CB        -17.0520    1.3580   34.6730 C.3       1 MLZ        -0.0122
     27 CG        -16.1760    2.4420   34.0610 C.3       1 MLZ        -0.0440
     28 CD        -15.2320    1.9180   32.9910 C.3       1 MLZ        -0.0124
     29 CE        -14.3490    3.0180   32.4320 C.3       1 MLZ        -0.0339
     30 NZ        -13.2360    2.5130   31.6240 N.4       1 MLZ         0.2248
     31 CM        -13.6660    1.8070   30.4490 C.3       1 MLZ        -0.0449
     32 C         -17.2150    2.6500   36.7750 C.2       1 MLZ         0.2039
     33 O         -17.2390    3.8860   36.7980 O.2       1 MLZ        -0.3944
     34 N         -16.4720    1.9190   37.5970 N.am      1 GLN        -0.2636
     35 CA        -15.5030    2.4950   38.5050 C.3       1 GLN         0.1330
     36 C         -14.1070    2.0000   38.1570 C.2       1 GLN         0.2041
     37 O         -13.9260    0.8470   37.7560 O.2       1 GLN        -0.3944
     38 CB        -15.8110    2.1340   39.9490 C.3       1 GLN         0.0045
     39 CG        -16.9340    2.9610   40.5560 C.3       1 GLN         0.0412
     40 CD        -18.3200    2.6260   40.0350 C.2       1 GLN         0.1737
     41 OE1       -18.6950    1.4600   39.8980 O.2       1 GLN        -0.3973
     42 NE2       -19.1000    3.6620   39.7650 N.am      1 GLN        -0.3009
     43 N         -13.1270    2.8840   38.3120 N.am      1 THR        -0.2613
     44 CA        -11.7200    2.5340   38.1720 C.3       1 THR         0.1565
     45 C         -10.9340    3.0350   39.3760 C.2       1 THR         0.2065
     46 O         -11.3090    4.0000   40.0360 O.2       1 THR        -0.3943
     47 CB        -11.1010    3.1100   36.8970 C.3       1 THR         0.0924
     48 OG1       -11.1800    4.5340   36.9350 O.3       1 THR        -0.3874
     49 CG2       -11.8200    2.6040   35.6730 C.3       1 THR        -0.0346
     50 N          -9.8350    2.3510   39.6570 N.am      1 ALA        -0.2639
     51 CA         -8.9400    2.7310   40.7410 C.3       1 ALA         0.1282
     52 C          -8.3850    4.1340   40.5660 C.2       1 ALA         0.2036
     53 O          -8.0110    4.5190   39.4690 O.2       1 ALA        -0.3944
     54 CB         -7.7950    1.7470   40.8310 C.3       1 ALA        -0.0244
     55 N          -8.3470    4.8900   41.6620 N.am      1 ARG        -0.2637
     56 CA         -7.7800    6.2390   41.6910 C.3       1 ARG         0.1311
     57 C          -6.8130    6.3340   42.8840 C.2       1 ARG         0.2039
     58 O          -7.2240    6.5570   44.0250 O.2       1 ARG        -0.3944
     59 CB         -8.9140    7.2750   41.7850 C.3       1 ARG        -0.0092
     60 CG         -8.5050    8.7280   41.5830 C.3       1 ARG        -0.0156
     61 CD         -9.7440    9.6220   41.5560 C.3       1 ARG         0.0627
     62 NE        -10.5200    9.4830   42.7810 N.pl3     1 ARG        -0.2723
     63 CZ        -11.7990    9.8260   42.9280 C.cat     1 ARG         0.2882
     64 NH1       -12.5020   10.3600   41.9330 N.pl3     1 ARG        -0.2849
     65 NH2       -12.3710    9.6540   44.1180 N.pl3     1 ARG        -0.2849
     66 N          -5.5210    6.1870   42.5980 N.am      1 LYS        -0.2637
     67 CA         -4.5010    6.0480   43.6350 C.3       1 LYS         0.1310
     68 C          -4.3900    7.3120   44.4810 C.2       1 LYS         0.2040
     69 O          -4.0540    7.2500   45.6650 O.2       1 LYS        -0.3944
     70 CB         -3.1290    5.7210   43.0260 C.3       1 LYS        -0.0122
     71 CG         -3.1460    4.8170   41.7920 C.3       1 LYS        -0.0440
     72 CD         -3.3440    5.6070   40.4960 C.3       1 LYS        -0.0124
     73 CE         -2.4380    5.1220   39.3810 C.3       1 LYS        -0.0354
     74 NZ         -1.2090    5.9500   39.3230 N.4       1 LYS         0.2185
     75 N          -4.6680    8.4580   43.8650 N.am      1 SER        -0.2616
     76 CA         -4.6040    9.7320   44.5750 C.3       1 SER         0.1539
     77 C          -5.6380    9.7970   45.7030 C.2       1 SER         0.2057
     78 O          -5.5910   10.6970   46.5390 O.2       1 SER        -0.3943
     79 CB         -4.8120   10.8980   43.6070 C.3       1 SER         0.0843
     80 OG         -6.1580   10.9590   43.1630 O.3       1 SER        -0.3903
     81 N          -6.5700    8.8460   45.7120 N.am      1 THR        -0.2669
     82 CA         -7.5640    8.7480   46.7730 C.3       1 THR         0.1198
     83 C          -7.7240    7.2970   47.2050 C.2       1 THR         0.0626
     84 O          -6.7630    6.5240   47.1680 O.co2     1 THR        -0.5665
     85 CB         -8.9270    9.2880   46.3100 C.3       1 THR         0.0869
     86 OG1        -9.4510    8.4520   45.2660 O.3       1 THR        -0.3880
     87 CG2        -8.7910   10.7160   45.8040 C.3       1 THR        -0.0352
     88 OXT        -8.8160    6.8780   47.5970 O.co2     1 THR        -0.5665
     89 H1        -28.6545    5.6092   32.8235 H         1 ALA         0.2015
     90 H2        -27.7763    4.8672   34.0015 H         1 ALA         0.2015
     91 H3        -28.4265    3.9797   32.7770 H         1 ALA         0.2015
     92 H4        -27.0272    5.0418   31.1544 H         1 ALA         0.1095
     93 H5        -25.2389    6.5264   31.9697 H         1 ALA         0.0310
     94 H6        -25.9031    6.4121   33.6347 H         1 ALA         0.0310
     95 H7        -26.8661    7.1935   32.3352 H         1 ALA         0.0310
     96 H8        -24.9286    4.1974   30.7352 H         1 ARG         0.1884
     97 H9        -24.2433    1.8749   32.4115 H         1 ARG         0.0800
     98 H10       -22.8784    2.9037   29.8938 H         1 ARG         0.0313
     99 H11       -24.3055    1.8127   29.8903 H         1 ARG         0.0313
    100 H12       -23.0920    0.1132   31.0147 H         1 ARG         0.0301
    101 H13       -21.6965    1.2130   31.2788 H         1 ARG         0.0301
    102 H14       -21.2851    1.3692   28.9426 H         1 ARG         0.0689
    103 H15       -22.8090    0.4979   28.5613 H         1 ARG         0.0689
    104 H16       -21.1868   -1.1385   30.2668 H         1 ARG         0.2642
    105 H17       -20.5309   -1.0918   26.2767 H         1 ARG         0.2615
    106 H18       -21.4678    0.2104   27.0572 H         1 ARG         0.2615
    107 H19       -20.0395   -2.8520   29.3421 H         1 ARG         0.2615
    108 H20       -19.8279   -2.9112   27.5716 H         1 ARG         0.2615
    109 H21       -22.7870    1.9870   33.9978 H         1 THR         0.1884
    110 H22       -20.7148    4.1065   33.8162 H         1 THR         0.0826
    111 H23       -20.8437    4.4125   36.2743 H         1 THR         0.0639
    112 H24       -22.6777    3.4585   37.3349 H         1 THR         0.2101
    113 H25       -22.9702    5.6396   36.3806 H         1 THR         0.0257
    114 H26       -23.5160    4.8268   34.8746 H         1 THR         0.0257
    115 H27       -22.1061    5.9391   34.8346 H         1 THR         0.0257
    116 H28       -18.8571    3.7200   35.1800 H         1 MLZ         0.1883
    117 H29       -18.4876    1.0227   36.2369 H         1 MLZ         0.0800
    118 H30       -17.6499    0.8991   33.8718 H         1 MLZ         0.0312
    119 H31       -16.3997    0.5967   35.1257 H         1 MLZ         0.0312
    120 H32       -15.5767    2.9002   34.8615 H         1 MLZ         0.0269
    121 H33       -16.8278    3.2041   33.6089 H         1 MLZ         0.0269
    122 H34       -15.8262    1.4873   32.1716 H         1 MLZ         0.0317
    123 H35       -14.5935    1.1375   33.4305 H         1 MLZ         0.0317
    124 H36       -13.9365    3.5956   33.2723 H         1 MLZ         0.0814
    125 H37       -14.9667    3.6759   31.8030 H         1 MLZ         0.0814
    126 H38       -12.6864    1.8866   32.1912 H         1 MLZ         0.2011
    127 H39       -12.6669    3.2943   31.3382 H         1 MLZ         0.2011
    128 H40       -12.7863    1.4559   29.8897 H         1 MLZ         0.0777
    129 H41       -14.2598    2.4803   29.8134 H         1 MLZ         0.0777
    130 H42       -14.2811    0.9441   30.7442 H         1 MLZ         0.0777
    131 H43       -16.5869    0.9257   37.5886 H         1 GLN         0.1883
    132 H44       -15.5323    3.5896   38.4003 H         1 GLN         0.0801
    133 H45       -14.9016    2.2893   40.5481 H         1 GLN         0.0337
    134 H46       -16.0995    1.0733   39.9886 H         1 GLN         0.0337
    135 H47       -16.7339    4.0211   40.3410 H         1 GLN         0.0504
    136 H48       -16.9287    2.8001   41.6442 H         1 GLN         0.0504
    137 H49       -20.0262    3.5136   39.4183 H         1 GLN         0.1814
    138 H50       -18.7627    4.5925   39.9079 H         1 GLN         0.1814
    139 H51       -13.3655    3.8294   38.5341 H         1 THR         0.1884
    140 H52       -11.6425    1.4376   38.1295 H         1 THR         0.0826
    141 H53       -10.0453    2.8058   36.8430 H         1 THR         0.0639
    142 H54       -10.7060    4.8562   37.6925 H         1 THR         0.2101
    143 H55       -11.3563    3.0322   34.7721 H         1 THR         0.0257
    144 H56       -12.8774    2.9036   35.7188 H         1 THR         0.0257
    145 H57       -11.7511    1.5068   35.6346 H         1 THR         0.0257
    146 H58        -9.6125    1.5466   39.1062 H         1 ALA         0.1883
    147 H59        -9.5084    2.6997   41.6822 H         1 ALA         0.0797
    148 H60        -7.1234    2.0400   41.6514 H         1 ALA         0.0277
    149 H61        -7.2370    1.7459   39.8830 H         1 ALA         0.0277
    150 H62        -8.1917    0.7394   41.0241 H         1 ALA         0.0277
    151 H63        -8.7255    4.5165   42.5089 H         1 ARG         0.1883
    152 H64        -7.2177    6.4175   40.7626 H         1 ARG         0.0800
    153 H65        -9.3681    7.1882   42.7831 H         1 ARG         0.0313
    154 H66        -9.6627    7.0259   41.0186 H         1 ARG         0.0313
    155 H67        -7.9652    8.8251   40.6295 H         1 ARG         0.0301
    156 H68        -7.8491    9.0398   42.4091 H         1 ARG         0.0301
    157 H69       -10.3725    9.3385   40.6989 H         1 ARG         0.0689
    158 H70        -9.4281   10.6701   41.4483 H         1 ARG         0.0689
    159 H71       -10.0400    9.0866   43.6016 H         1 ARG         0.2642
    160 H72       -13.4894   10.6145   42.0787 H         1 ARG         0.2615
    161 H73       -12.0590   10.5190   41.0168 H         1 ARG         0.2615
    162 H74       -11.8329    9.2411   44.8932 H         1 ARG         0.2615
    163 H75       -13.3516    9.9338   44.2634 H         1 ARG         0.2615
    164 H76        -5.2385    6.1711   41.6389 H         1 LYS         0.1883
    165 H77        -4.7960    5.2165   44.2919 H         1 LYS         0.0800
    166 H78        -2.5261    5.2238   43.8001 H         1 LYS         0.0312
    167 H79        -2.6509    6.6702   42.7422 H         1 LYS         0.0312
    168 H80        -3.9684    4.0938   41.8946 H         1 LYS         0.0269
    169 H81        -2.1888    4.2781   41.7350 H         1 LYS         0.0269
    170 H82        -3.1271    6.6675   40.6917 H         1 LYS         0.0317
    171 H83        -4.3901    5.5002   40.1732 H         1 LYS         0.0317
    172 H84        -2.9712    5.1954   38.4217 H         1 LYS         0.0813
    173 H85        -2.1614    4.0738   39.5675 H         1 LYS         0.0813
    174 H86        -0.6153    5.6184   38.5789 H         1 LYS         0.1994
    175 H87        -0.7171    5.8832   40.2003 H         1 LYS         0.1994
    176 H88        -1.4592    6.9111   39.1503 H         1 LYS         0.1994
    177 H89        -4.9253    8.4465   42.8987 H         1 SER         0.1884
    178 H90        -3.6026    9.8252   45.0205 H         1 SER         0.0823
    179 H91        -4.1524   10.7647   42.7369 H         1 SER         0.0606
    180 H92        -4.5593   11.8387   44.1180 H         1 SER         0.0606
    181 H93        -6.2601   11.6898   42.5646 H         1 SER         0.2097
    182 H94        -6.5883    8.1785   44.9677 H         1 THR         0.1876
    183 H95        -7.2204    9.3426   47.6323 H         1 THR         0.0752
    184 H96        -9.6226    9.2768   47.1621 H         1 THR         0.0632
    185 H97        -9.5577    7.5669   45.5942 H         1 THR         0.2100
    186 H98        -9.7747   11.0846   45.4777 H         1 THR         0.0256
    187 H99        -8.0909   10.7394   44.9559 H         1 THR         0.0256
    188 H100       -8.4091   11.3567   46.6125 H         1 THR         0.0256
@<TRIPOS>BOND
     1    1    2 1  
     2    2    3 1  
     3    2    5 1  
     4    3    4 2  
     5    3    6 am 
     6    6    7 1  
     7    7    8 1  
     8    7   10 1  
     9    8    9 2  
    10    8   17 am 
    11   10   11 1  
    12   11   12 1  
    13   12   13 1  
    14   13   14 ar 
    15   14   15 ar 
    16   14   16 ar 
    17   17   18 1  
    18   18   19 1  
    19   18   21 1  
    20   19   20 2  
    21   19   24 am 
    22   21   22 1  
    23   21   23 1  
    24   24   25 1  
    25   25   26 1  
    26   25   32 1  
    27   26   27 1  
    28   27   28 1  
    29   28   29 1  
    30   29   30 1  
    31   30   31 1  
    32   32   33 2  
    33   32   34 am 
    34   34   35 1  
    35   35   36 1  
    36   35   38 1  
    37   36   37 2  
    38   36   43 am 
    39   38   39 1  
    40   39   40 1  
    41   40   41 2  
    42   40   42 am 
    43   43   44 1  
    44   44   45 1  
    45   44   47 1  
    46   45   46 2  
    47   45   50 am 
    48   47   48 1  
    49   47   49 1  
    50   50   51 1  
    51   51   52 1  
    52   51   54 1  
    53   52   53 2  
    54   52   55 am 
    55   55   56 1  
    56   56   57 1  
    57   56   59 1  
    58   57   58 2  
    59   57   66 am 
    60   59   60 1  
    61   60   61 1  
    62   61   62 1  
    63   62   63 ar 
    64   63   64 ar 
    65   63   65 ar 
    66   66   67 1  
    67   67   68 1  
    68   67   70 1  
    69   68   69 2  
    70   68   75 am 
    71   70   71 1  
    72   71   72 1  
    73   72   73 1  
    74   73   74 1  
    75   75   76 1  
    76   76   77 1  
    77   76   79 1  
    78   77   78 2  
    79   77   81 am 
    80   79   80 1  
    81   81   82 1  
    82   82   83 1  
    83   82   85 1  
    84   83   84 ar 
    85   83   88 ar 
    86   85   86 1  
    87   85   87 1  
    88    1   89 1  
    89    1   90 1  
    90    1   91 1  
    91    2   92 1  
    92    5   93 1  
    93    5   94 1  
    94    5   95 1  
    95    6   96 1  
    96    7   97 1  
    97   10   98 1  
    98   10   99 1  
    99   11  100 1  
   100   11  101 1  
   101   12  102 1  
   102   12  103 1  
   103   13  104 1  
   104   15  105 1  
   105   15  106 1  
   106   16  107 1  
   107   16  108 1  
   108   17  109 1  
   109   18  110 1  
   110   21  111 1  
   111   22  112 1  
   112   23  113 1  
   113   23  114 1  
   114   23  115 1  
   115   24  116 1  
   116   25  117 1  
   117   26  118 1  
   118   26  119 1  
   119   27  120 1  
   120   27  121 1  
   121   28  122 1  
   122   28  123 1  
   123   29  124 1  
   124   29  125 1  
   125   30  126 1  
   126   30  127 1  
   127   31  128 1  
   128   31  129 1  
   129   31  130 1  
   130   34  131 1  
   131   35  132 1  
   132   38  133 1  
   133   38  134 1  
   134   39  135 1  
   135   39  136 1  
   136   42  137 1  
   137   42  138 1  
   138   43  139 1  
   139   44  140 1  
   140   47  141 1  
   141   48  142 1  
   142   49  143 1  
   143   49  144 1  
   144   49  145 1  
   145   50  146 1  
   146   51  147 1  
   147   54  148 1  
   148   54  149 1  
   149   54  150 1  
   150   55  151 1  
   151   56  152 1  
   152   59  153 1  
   153   59  154 1  
   154   60  155 1  
   155   60  156 1  
   156   61  157 1  
   157   61  158 1  
   158   62  159 1  
   159   64  160 1  
   160   64  161 1  
   161   65  162 1  
   162   65  163 1  
   163   66  164 1  
   164   67  165 1  
   165   70  166 1  
   166   70  167 1  
   167   71  168 1  
   168   71  169 1  
   169   72  170 1  
   170   72  171 1  
   171   73  172 1  
   172   73  173 1  
   173   74  174 1  
   174   74  175 1  
   175   74  176 1  
   176   75  177 1  
   177   76  178 1  
   178   79  179 1  
   179   79  180 1  
   180   80  181 1  
   181   81  182 1  
   182   82  183 1  
   183   85  184 1  
   184   86  185 1  
   185   87  186 1  
   186   87  187 1  
   187   87  188 1  
@<TRIPOS>SUBSTRUCTURE
     1 ALA         1

