5svy_ligand
  -I-interpret- 

187186  0  0  0  0  0  0  0  0999 V2000
  -28.0060    4.8630   33.0200 N   0  3  0  0  0
  -26.7750    5.0580   32.2250 C   0  0  0  0  0
  -25.8050    3.9320   32.5260 C   0  0  0  0  0
  -25.8840    3.3110   33.5790 O   0  0  0  0  0
  -26.1540    6.3870   32.5640 C   0  0  0  0  0
  -24.8960    3.6860   31.5940 N   0  0  0  0  0
  -23.8510    2.6910   31.7870 C   0  0  0  0  0
  -22.6720    3.3320   32.4910 C   0  0  0  0  0
  -22.1210    4.3080   32.0030 O   0  0  0  0  0
  -23.4120    2.1210   30.4530 C   0  0  0  0  0
  -22.5240    0.9590   30.6000 C   0  0  0  0  0
  -21.9810    0.5870   29.2800 C   0  0  0  0  0
  -21.2780   -0.6740   29.3520 N   0  0  0  0  0
  -20.7550   -1.2460   28.3040 C   0  0  0  0  0
  -20.9310   -0.6660   27.1250 N   0  0  0  0  0
  -20.1640   -2.4230   28.4140 N   0  0  0  0  0
  -22.3020    2.7920   33.6560 N   0  0  0  0  0
  -21.2160    3.3460   34.4330 C   0  0  0  0  0
  -20.1960    2.2730   34.7980 C   0  0  0  0  0
  -20.4520    1.0610   34.6890 O   0  0  0  0  0
  -21.7150    4.0250   35.7260 C   0  0  0  0  0
  -22.3670    3.0490   36.5360 O   0  0  0  0  0
  -22.6400    5.1870   35.4340 C   0  0  0  0  0
  -19.0290    2.7360   35.2260 N   0  0  0  0  0
  -18.0060    1.8840   35.7510 C   0  0  0  0  0
  -17.0520    1.3580   34.6730 C   0  0  0  0  0
  -16.1760    2.4420   34.0610 C   0  0  0  0  0
  -15.2320    1.9180   32.9910 C   0  0  0  0  0
  -14.3490    3.0180   32.4320 C   0  0  0  0  0
  -13.2360    2.5130   31.6240 N   0  3  0  0  0
  -13.6660    1.8070   30.4490 C   0  0  0  0  0
  -17.2150    2.6500   36.7750 C   0  0  0  0  0
  -17.2390    3.8860   36.7980 O   0  0  0  0  0
  -16.4720    1.9190   37.5970 N   0  0  0  0  0
  -15.5030    2.4950   38.5050 C   0  0  0  0  0
  -14.1070    2.0000   38.1570 C   0  0  0  0  0
  -13.9260    0.8470   37.7560 O   0  0  0  0  0
  -15.8110    2.1340   39.9490 C   0  0  0  0  0
  -16.9340    2.9610   40.5560 C   0  0  0  0  0
  -18.3200    2.6260   40.0350 C   0  0  0  0  0
  -18.6950    1.4600   39.8980 O   0  0  0  0  0
  -19.1000    3.6620   39.7650 N   0  0  0  0  0
  -13.1270    2.8840   38.3120 N   0  0  0  0  0
  -11.7200    2.5340   38.1720 C   0  0  0  0  0
  -10.9340    3.0350   39.3760 C   0  0  0  0  0
  -11.3090    4.0000   40.0360 O   0  0  0  0  0
  -11.1010    3.1100   36.8970 C   0  0  0  0  0
  -11.1800    4.5340   36.9350 O   0  0  0  0  0
  -11.8200    2.6040   35.6730 C   0  0  0  0  0
   -9.8350    2.3510   39.6570 N   0  0  0  0  0
   -8.9400    2.7310   40.7410 C   0  0  0  0  0
   -8.3850    4.1340   40.5660 C   0  0  0  0  0
   -8.0110    4.5190   39.4690 O   0  0  0  0  0
   -7.7950    1.7470   40.8310 C   0  0  0  0  0
   -8.3470    4.8900   41.6620 N   0  0  0  0  0
   -7.7800    6.2390   41.6910 C   0  0  0  0  0
   -6.8130    6.3340   42.8840 C   0  0  0  0  0
   -7.2240    6.5570   44.0250 O   0  0  0  0  0
   -8.9140    7.2750   41.7850 C   0  0  0  0  0
   -8.5050    8.7280   41.5830 C   0  0  0  0  0
   -9.7440    9.6220   41.5560 C   0  0  0  0  0
  -10.5200    9.4830   42.7810 N   0  0  0  0  0
  -11.7990    9.8260   42.9280 C   0  0  0  0  0
  -12.5020   10.3600   41.9330 N   0  0  0  0  0
  -12.3710    9.6540   44.1180 N   0  0  0  0  0
   -5.5210    6.1870   42.5980 N   0  0  0  0  0
   -4.5010    6.0480   43.6350 C   0  0  0  0  0
   -4.3900    7.3120   44.4810 C   0  0  0  0  0
   -4.0540    7.2500   45.6650 O   0  0  0  0  0
   -3.1290    5.7210   43.0260 C   0  0  0  0  0
   -3.1460    4.8170   41.7920 C   0  0  0  0  0
   -3.3440    5.6070   40.4960 C   0  0  0  0  0
   -2.4380    5.1220   39.3810 C   0  0  0  0  0
   -1.2090    5.9500   39.3230 N   0  3  0  0  0
   -4.6680    8.4580   43.8650 N   0  0  0  0  0
   -4.6040    9.7320   44.5750 C   0  0  0  0  0
   -5.6380    9.7970   45.7030 C   0  0  0  0  0
   -5.5910   10.6970   46.5390 O   0  0  0  0  0
   -4.8120   10.8980   43.6070 C   0  0  0  0  0
   -6.1580   10.9590   43.1630 O   0  0  0  0  0
   -6.5700    8.8460   45.7120 N   0  0  0  0  0
   -7.5640    8.7480   46.7730 C   0  0  0  0  0
   -7.7240    7.2970   47.2050 C   0  0  0  0  0
   -6.7630    6.5240   47.1680 O   0  0  0  0  0
   -8.9270    9.2880   46.3100 C   0  0  0  0  0
   -9.4510    8.4520   45.2660 O   0  0  0  0  0
   -8.7910   10.7160   45.8040 C   0  0  0  0  0
   -8.8160    6.8780   47.5970 O   0  0  0  0  0
  -28.4214    3.9614   32.7856 H   0  0  0  0  0
  -27.7748    4.8843   34.0132 H   0  0  0  0  0
  -28.6682    5.6092   32.8077 H   0  0  0  0  0
  -27.0175    5.0489   31.1624 H   0  0  0  0  0
  -25.9007    6.4084   33.6239 H   0  0  0  0  0
  -25.2506    6.5264   31.9703 H   0  0  0  0  0
  -26.8627    7.1849   32.3423 H   0  0  0  0  0
  -24.9293    4.2076   30.7181 H   0  0  0  0  0
  -24.2409    1.8769   32.3980 H   0  0  0  0  0
  -22.8630    2.8977   29.9206 H   0  0  0  0  0
  -24.3038    1.7961   29.9171 H   0  0  0  0  0
  -23.0865    0.1209   31.0114 H   0  0  0  0  0
  -21.7043    1.2103   31.2730 H   0  0  0  0  0
  -21.2845    1.3601   28.9555 H   0  0  0  0  0
  -22.8064    0.4899   28.5747 H   0  0  0  0  0
  -21.1877   -1.1340   30.2579 H   0  0  0  0  0
  -20.6072   -1.1287   26.2756 H   0  0  0  0  0
  -21.3902    0.2430   27.0673 H   0  0  0  0  0
  -20.1160   -2.8868   29.3212 H   0  0  0  0  0
  -22.7967    1.9709   34.0047 H   0  0  0  0  0
  -20.7432    4.1002   33.8039 H   0  0  0  0  0
  -20.8573    4.4356   36.2588 H   0  0  0  0  0
  -22.6810    3.4628   37.3433 H   0  0  0  0  0
  -22.1098    5.9314   34.8401 H   0  0  0  0  0
  -23.5075    4.8288   34.8797 H   0  0  0  0  0
  -22.9665    5.6346   36.3727 H   0  0  0  0  0
  -18.8537    3.7397   35.1790 H   0  0  0  0  0
  -18.4990    1.0184   36.1934 H   0  0  0  0  0
  -17.6603    0.9362   33.8730 H   0  0  0  0  0
  -16.3925    0.6295   35.1446 H   0  0  0  0  0
  -15.5668    2.8640   34.8603 H   0  0  0  0  0
  -16.8348    3.1720   33.5907 H   0  0  0  0  0
  -15.8300    1.5107   32.1757 H   0  0  0  0  0
  -14.5914    1.1593   33.4406 H   0  0  0  0  0
  -13.9237    3.5603   33.2765 H   0  0  0  0  0
  -14.9680    3.6417   31.7870 H   0  0  0  0  0
  -12.7060    1.8598   32.2010 H   0  0  0  0  0
  -12.6858    3.3158   31.3188 H   0  0  0  0  0
  -14.2754    0.9523   30.7428 H   0  0  0  0  0
  -14.2543    2.4752   29.8201 H   0  0  0  0  0
  -12.7935    1.4597   29.8957 H   0  0  0  0  0
  -16.5892    0.9058   37.5884 H   0  0  0  0  0
  -15.5543    3.5786   38.3990 H   0  0  0  0  0
  -14.9110    2.3255   40.5333 H   0  0  0  0  0
  -16.1271    1.0910   39.9652 H   0  0  0  0  0
  -16.7393    4.0012   40.2949 H   0  0  0  0  0
  -16.9383    2.7540   41.6261 H   0  0  0  0  0
  -20.0513    3.5104   39.4296 H   0  0  0  0  0
  -18.7493    4.6113   39.8925 H   0  0  0  0  0
  -13.3703    3.8483   38.5386 H   0  0  0  0  0
  -11.6681    1.4470   38.1106 H   0  0  0  0  0
  -10.0597    2.7923   36.8438 H   0  0  0  0  0
  -10.7918    4.8964   36.1353 H   0  0  0  0  0
  -11.7510    1.5168   35.6361 H   0  0  0  0  0
  -12.8676    2.9015   35.7196 H   0  0  0  0  0
  -11.3596    3.0290   34.7811 H   0  0  0  0  0
   -9.6080    1.5305   39.0952 H   0  0  0  0  0
   -9.5241    2.7171   41.6612 H   0  0  0  0  0
   -8.1894    0.7490   41.0223 H   0  0  0  0  0
   -7.2430    1.7469   39.8911 H   0  0  0  0  0
   -7.1303    2.0384   41.6442 H   0  0  0  0  0
   -8.7331    4.5090   42.5258 H   0  0  0  0  0
   -7.2248    6.4481   40.7766 H   0  0  0  0  0
   -9.3105    7.2054   42.7979 H   0  0  0  0  0
   -9.6135    7.0384   40.9832 H   0  0  0  0  0
   -7.9745    8.8224   40.6355 H   0  0  0  0  0
   -7.8590    9.0359   42.4052 H   0  0  0  0  0
  -10.3684    9.3263   40.7129 H   0  0  0  0  0
   -9.4228   10.6594   41.4632 H   0  0  0  0  0
  -10.0447    9.0905   43.5937 H   0  0  0  0  0
  -12.0633   10.5175   41.0257 H   0  0  0  0  0
  -13.3420    9.9311   44.2619 H   0  0  0  0  0
  -11.8382    9.2452   44.8857 H   0  0  0  0  0
   -5.2328    6.1708   41.6197 H   0  0  0  0  0
   -4.8119    5.2224   44.2751 H   0  0  0  0  0
   -2.5720    5.1835   43.7934 H   0  0  0  0  0
   -2.7004    6.6706   42.7057 H   0  0  0  0  0
   -3.9784    4.1208   41.8942 H   0  0  0  0  0
   -2.1847    4.3065   41.7334 H   0  0  0  0  0
   -3.1034    6.6510   40.6967 H   0  0  0  0  0
   -4.3768    5.4742   40.1739 H   0  0  0  0  0
   -2.9670    5.2016   38.4313 H   0  0  0  0  0
   -2.1610    4.0852   39.5718 H   0  0  0  0  0
   -0.6091    5.6136   38.5698 H   0  0  0  0  0
   -1.4634    6.9222   39.1483 H   0  0  0  0  0
   -0.7122    5.8817   40.2112 H   0  0  0  0  0
   -4.9304    8.4463   42.8794 H   0  0  0  0  0
   -3.6117    9.8109   45.0191 H   0  0  0  0  0
   -4.1654   10.7526   42.7416 H   0  0  0  0  0
   -4.5726   11.8274   44.1237 H   0  0  0  0  0
   -6.2612   11.6975   42.5583 H   0  0  0  0  0
   -6.5887    8.1651   44.9528 H   0  0  0  0  0
   -7.2156    9.3499   47.6123 H   0  0  0  0  0
   -5.9897    6.9918   46.8443 H   0  0  0  0  0
   -9.6110    9.2818   47.1587 H   0  0  0  0  0
  -10.3017    8.7935   44.9808 H   0  0  0  0  0
   -8.4125   11.3498   46.6060 H   0  0  0  0  0
   -8.0971   10.7378   44.9637 H   0  0  0  0  0
   -9.7663   11.0801   45.4810 H   0  0  0  0  0
  1  2  1  0  0  0
  2  3  1  0  0  0
  2  5  1  0  0  0
  3  4  2  0  0  0
  3  6  1  0  0  0
  6  7  1  0  0  0
  7  8  1  0  0  0
  7 10  1  0  0  0
  8  9  2  0  0  0
  8 17  1  0  0  0
 10 11  1  0  0  0
 11 12  1  0  0  0
 12 13  1  0  0  0
 13 14  1  0  0  0
 14 15  1  0  0  0
 14 16  2  0  0  0
 17 18  1  0  0  0
 18 19  1  0  0  0
 18 21  1  0  0  0
 19 20  2  0  0  0
 19 24  1  0  0  0
 21 22  1  0  0  0
 21 23  1  0  0  0
 24 25  1  0  0  0
 25 26  1  0  0  0
 25 32  1  0  0  0
 26 27  1  0  0  0
 27 28  1  0  0  0
 28 29  1  0  0  0
 29 30  1  0  0  0
 30 31  1  0  0  0
 32 33  2  0  0  0
 32 34  1  0  0  0
 34 35  1  0  0  0
 35 36  1  0  0  0
 35 38  1  0  0  0
 36 37  2  0  0  0
 36 43  1  0  0  0
 38 39  1  0  0  0
 39 40  1  0  0  0
 40 41  2  0  0  0
 40 42  1  0  0  0
 43 44  1  0  0  0
 44 45  1  0  0  0
 44 47  1  0  0  0
 45 46  2  0  0  0
 45 50  1  0  0  0
 47 48  1  0  0  0
 47 49  1  0  0  0
 50 51  1  0  0  0
 51 52  1  0  0  0
 51 54  1  0  0  0
 52 53  2  0  0  0
 52 55  1  0  0  0
 55 56  1  0  0  0
 56 57  1  0  0  0
 56 59  1  0  0  0
 57 58  2  0  0  0
 57 66  1  0  0  0
 59 60  1  0  0  0
 60 61  1  0  0  0
 61 62  1  0  0  0
 62 63  1  0  0  0
 63 64  2  0  0  0
 63 65  1  0  0  0
 66 67  1  0  0  0
 67 68  1  0  0  0
 67 70  1  0  0  0
 68 69  2  0  0  0
 68 75  1  0  0  0
 70 71  1  0  0  0
 71 72  1  0  0  0
 72 73  1  0  0  0
 73 74  1  0  0  0
 75 76  1  0  0  0
 76 77  1  0  0  0
 76 79  1  0  0  0
 77 78  2  0  0  0
 77 81  1  0  0  0
 79 80  1  0  0  0
 81 82  1  0  0  0
 82 83  1  0  0  0
 82 85  1  0  0  0
 83 84  1  0  0  0
 83 88  2  0  0  0
 85 86  1  0  0  0
 85 87  1  0  0  0
  1 89  1  0  0  0
  1 90  1  0  0  0
  1 91  1  0  0  0
  2 92  1  0  0  0
  5 93  1  0  0  0
  5 94  1  0  0  0
  5 95  1  0  0  0
  6 96  1  0  0  0
  7 97  1  0  0  0
 10 98  1  0  0  0
 10 99  1  0  0  0
 11100  1  0  0  0
 11101  1  0  0  0
 12102  1  0  0  0
 12103  1  0  0  0
 13104  1  0  0  0
 15105  1  0  0  0
 15106  1  0  0  0
 16107  1  0  0  0
 17108  1  0  0  0
 18109  1  0  0  0
 21110  1  0  0  0
 22111  1  0  0  0
 23112  1  0  0  0
 23113  1  0  0  0
 23114  1  0  0  0
 24115  1  0  0  0
 25116  1  0  0  0
 26117  1  0  0  0
 26118  1  0  0  0
 27119  1  0  0  0
 27120  1  0  0  0
 28121  1  0  0  0
 28122  1  0  0  0
 29123  1  0  0  0
 29124  1  0  0  0
 30125  1  0  0  0
 30126  1  0  0  0
 31127  1  0  0  0
 31128  1  0  0  0
 31129  1  0  0  0
 34130  1  0  0  0
 35131  1  0  0  0
 38132  1  0  0  0
 38133  1  0  0  0
 39134  1  0  0  0
 39135  1  0  0  0
 42136  1  0  0  0
 42137  1  0  0  0
 43138  1  0  0  0
 44139  1  0  0  0
 47140  1  0  0  0
 48141  1  0  0  0
 49142  1  0  0  0
 49143  1  0  0  0
 49144  1  0  0  0
 50145  1  0  0  0
 51146  1  0  0  0
 54147  1  0  0  0
 54148  1  0  0  0
 54149  1  0  0  0
 55150  1  0  0  0
 56151  1  0  0  0
 59152  1  0  0  0
 59153  1  0  0  0
 60154  1  0  0  0
 60155  1  0  0  0
 61156  1  0  0  0
 61157  1  0  0  0
 62158  1  0  0  0
 64159  1  0  0  0
 65160  1  0  0  0
 65161  1  0  0  0
 66162  1  0  0  0
 67163  1  0  0  0
 70164  1  0  0  0
 70165  1  0  0  0
 71166  1  0  0  0
 71167  1  0  0  0
 72168  1  0  0  0
 72169  1  0  0  0
 73170  1  0  0  0
 73171  1  0  0  0
 74172  1  0  0  0
 74173  1  0  0  0
 74174  1  0  0  0
 75175  1  0  0  0
 76176  1  0  0  0
 79177  1  0  0  0
 79178  1  0  0  0
 80179  1  0  0  0
 81180  1  0  0  0
 82181  1  0  0  0
 84182  1  0  0  0
 85183  1  0  0  0
 86184  1  0  0  0
 87185  1  0  0  0
 87186  1  0  0  0
 87187  1  0  0  0
M  END
$$$$
