4wyz_ligand
  -I-interpret- 

 34 35  0  0  0  0  0  0  0  0999 V2000
    5.1780  -24.4380  -27.4100 N   0  0  0  0  0
    6.1160  -24.2740  -26.3400 C   0  0  0  0  0
    6.4320  -25.3990  -25.5110 N   0  0  0  0  0
    5.8490  -26.6530  -25.7290 C   0  0  0  0  0
    4.8610  -26.8210  -26.8290 C   0  0  0  0  0
    4.5440  -25.7340  -27.6300 C   0  0  0  0  0
    6.6640  -23.1970  -26.1430 O   0  0  0  0  0
    6.1610  -27.5820  -24.9770 O   0  0  0  0  0
    4.8850  -20.7700  -31.9700 P   0  0  0  0  0
    5.2430  -19.3180  -31.9730 O   0  0  0  0  0
    3.7250  -20.8970  -32.9280 O   0  0  0  0  0
    6.0160  -21.4380  -32.6710 O   0  0  0  0  0
    2.4420  -25.0270  -30.1490 O   0  0  0  0  0
    1.9920  -23.7350  -30.1340 C   0  0  0  0  0
    3.0570  -22.8310  -29.5380 C   0  0  0  0  0
    3.4120  -23.3030  -28.2520 O   0  0  0  0  0
    4.2800  -22.7080  -30.4020 C   0  0  0  0  0
    4.5890  -21.3610  -30.5530 O   0  0  0  0  0
    5.2790  -23.4980  -29.6680 C   0  0  0  0  0
    6.5500  -23.0310  -29.8360 O   0  0  0  0  0
    4.8060  -23.3480  -28.2630 C   0  0  0  0  0
    7.0961  -25.2838  -24.7454 H   0  0  0  0  0
    4.3910  -27.7889  -27.0035 H   0  0  0  0  0
    3.8143  -25.8488  -28.4316 H   0  0  0  0  0
    4.5518  -18.8182  -31.5325 H   0  0  0  0  0
    2.9476  -20.4851  -32.5438 H   0  0  0  0  0
    1.7666  -25.5955  -30.5262 H   0  0  0  0  0
    1.0863  -23.6741  -29.5306 H   0  0  0  0  0
    1.7748  -23.4154  -31.1532 H   0  0  0  0  0
    2.6278  -21.8315  -29.4687 H   0  0  0  0  0
    4.1871  -23.0777  -31.4232 H   0  0  0  0  0
    5.3481  -24.5320  -30.0060 H   0  0  0  0  0
    7.1599  -23.5801  -29.3379 H   0  0  0  0  0
    5.2709  -22.4358  -27.8890 H   0  0  0  0  0
  1  2  1  0  0  0
  1  6  1  0  0  0
 21  1  1  0  0  0
  2  3  1  0  0  0
  2  7  2  0  0  0
  3  4  1  0  0  0
  5  4  1  0  0  0
  4  8  2  0  0  0
  6  5  2  0  0  0
  9 10  1  0  0  0
  9 11  1  0  0  0
  9 12  2  0  0  0
 18  9  1  0  0  0
 14 13  1  0  0  0
 15 14  1  0  0  0
 15 16  1  0  0  0
 17 15  1  0  0  0
 16 21  1  0  0  0
 17 18  1  0  0  0
 17 19  1  0  0  0
 19 20  1  0  0  0
 19 21  1  0  0  0
  3 22  1  0  0  0
  5 23  1  0  0  0
  6 24  1  0  0  0
 10 25  1  0  0  0
 11 26  1  0  0  0
 13 27  1  0  0  0
 14 28  1  0  0  0
 14 29  1  0  0  0
 15 30  1  0  0  0
 17 31  1  0  0  0
 19 32  1  0  0  0
 20 33  1  0  0  0
 21 34  1  0  0  0
M  END
$$$$
