### 
### Created by X-TOOL on Mon Sep 10 21:13:20 2018
### 

@<TRIPOS>MOLECULE
4wyz_ligand
   32    33     1     0     0
SMALL
GAST_HUCK


@<TRIPOS>ATOM
      1 N1          5.1780  -24.4380  -27.4100 N.am      1 U3P        -0.1592
      2 C2          6.1160  -24.2740  -26.3400 C.2       1 U3P         0.3328
      3 N3          6.4320  -25.3990  -25.5110 N.am      1 U3P        -0.1865
      4 C4          5.8490  -26.6530  -25.7290 C.2       1 U3P         0.1822
      5 C5          4.8610  -26.8210  -26.8290 C.2       1 U3P         0.0062
      6 C6          4.5440  -25.7340  -27.6300 C.2       1 U3P         0.0591
      7 O2          6.6640  -23.1970  -26.1430 O.2       1 U3P        -0.3815
      8 O4          6.1610  -27.5820  -24.9770 O.2       1 U3P        -0.4124
      9 P           4.8850  -20.7700  -31.9700 P.3       1 U3P         0.2013
     10 O1P         5.2430  -19.3180  -31.9730 O.co2     1 U3P        -0.5537
     11 O2P         3.7250  -20.8970  -32.9280 O.co2     1 U3P        -0.5537
     12 O3P         6.0160  -21.4380  -32.6710 O.co2     1 U3P        -0.5537
     13 O5'         2.4420  -25.0270  -30.1490 O.3       1 U3P        -0.3924
     14 C5'         1.9920  -23.7350  -30.1340 C.3       1 U3P         0.0734
     15 C4'         3.0570  -22.8310  -29.5380 C.3       1 U3P         0.1182
     16 O4'         3.4120  -23.3030  -28.2520 O.3       1 U3P        -0.3363
     17 C3'         4.2800  -22.7080  -30.4020 C.3       1 U3P         0.1483
     18 O3'         4.5890  -21.3610  -30.5530 O.3       1 U3P        -0.2675
     19 C2'         5.2790  -23.4980  -29.6680 C.3       1 U3P         0.1433
     20 O2'         6.5500  -23.0310  -29.8360 O.3       1 U3P        -0.3833
     21 C1'         4.8060  -23.3480  -28.2630 C.3       1 U3P         0.2062
     22 H1          7.0831  -25.2860  -24.7604 H         1 U3P         0.2259
     23 H2          4.3915  -27.7880  -27.0034 H         1 U3P         0.0258
     24 H3          3.8150  -25.8487  -28.4308 H         1 U3P         0.1178
     25 H4          3.2317  -25.0800  -30.6743 H         1 U3P         0.2095
     26 H5          1.0773  -23.6730  -29.5261 H         1 U3P         0.0584
     27 H6          1.7716  -23.4122  -31.1622 H         1 U3P         0.0584
     28 H7          2.6226  -21.8261  -29.4306 H         1 U3P         0.0650
     29 H8          4.1116  -23.1467  -31.3965 H         1 U3P         0.0704
     30 H9          5.2475  -24.5521  -29.9809 H         1 U3P         0.0680
     31 H10         7.1536  -23.5744  -29.3431 H         1 U3P         0.2101
     32 H11         5.2168  -22.4135  -27.8534 H         1 U3P         0.0997
@<TRIPOS>BOND
     1    1    2 am 
     2    1    6 1  
     3   21    1 1  
     4    2    3 am 
     5    2    7 2  
     6    3    4 am 
     7    5    4 1  
     8    4    8 2  
     9    6    5 2  
    10    9   10 ar 
    11    9   11 ar 
    12    9   12 ar 
    13   18    9 1  
    14   14   13 1  
    15   15   14 1  
    16   15   16 1  
    17   17   15 1  
    18   16   21 1  
    19   17   18 1  
    20   17   19 1  
    21   19   20 1  
    22   19   21 1  
    23    3   22 1  
    24    5   23 1  
    25    6   24 1  
    26   13   25 1  
    27   14   26 1  
    28   14   27 1  
    29   15   28 1  
    30   17   29 1  
    31   19   30 1  
    32   20   31 1  
    33   21   32 1  
@<TRIPOS>SUBSTRUCTURE
     1 U3P         1

