4an3_ligand
  -I-interpret- 

 40 41  0  0  0  0  0  0  0  0999 V2000
    6.2150   36.5940    4.7370 C   0  0  0  0  0
    6.4510   37.0640    3.4270 C   0  0  0  0  0
    6.5590   38.4070    3.2160 C   0  0  0  0  0
    6.4600   39.3620    4.2380 C   0  0  0  0  0
    6.1990   38.8580    5.5300 C   0  0  0  0  0
    6.0880   37.5050    5.7620 C   0  0  0  0  0
    6.0590   35.2600    5.0130 N   0  0  0  0  0
    5.8600   34.2170    4.1450 C   0  0  0  0  0
    4.8150   33.2800    4.2300 C   0  0  0  0  0
    4.7280   32.2340    3.2850 C   0  0  0  0  0
    5.7040   32.1040    2.2720 C   0  0  0  0  0
    6.7610   33.0200    2.2270 C   0  0  0  0  0
    6.8030   34.0550    3.1290 C   0  0  0  0  0
    3.7900   33.3490    5.2940 C   0  0  0  0  0
    2.6720   32.6270    5.2340 N   0  0  0  0  0
    4.1460   33.8080    6.3810 O   0  0  0  0  0
    1.9310   32.4310    6.4200 O   0  0  0  0  0
    0.7310   31.6420    6.5050 C   0  0  0  0  0
    1.8890   31.0650    8.6560 C   0  0  0  0  0
    0.0600   29.6710    7.8380 O   0  0  0  0  0
    1.8540   32.4070    9.1130 O   0  0  0  0  0
    0.5740   31.0130    7.9020 C   0  0  0  0  0
    6.6610   41.4760    3.9960 I   0  0  0  0  0
    5.8470   37.0860    7.0340 F   0  0  0  0  0
    7.8250   34.9090    3.0170 F   0  0  0  0  0
    7.7560   32.9830    1.3060 F   0  0  0  0  0
    6.5455   36.3641    2.5967 H   0  0  0  0  0
    6.7316   38.7569    2.1982 H   0  0  0  0  0
    6.0829   39.5536    6.3611 H   0  0  0  0  0
    6.0961   35.0085    6.0008 H   0  0  0  0  0
    3.9033   31.5232    3.3376 H   0  0  0  0  0
    5.6348   31.3024    1.5366 H   0  0  0  0  0
    2.3582   32.2246    4.3508 H   0  0  0  0  0
    0.7889   30.8411    5.7679 H   0  0  0  0  0
   -0.1250   32.2903    6.3177 H   0  0  0  0  0
    1.9860   30.3210    9.4467 H   0  0  0  0  0
    2.7639   30.8149    8.0559 H   0  0  0  0  0
   -0.0219   29.3182    8.7270 H   0  0  0  0  0
    2.6468   32.5913    9.6219 H   0  0  0  0  0
   -0.1618   31.6027    8.4487 H   0  0  0  0  0
  1  2  4  0  0  0
  1  6  4  0  0  0
  7  1  1  0  0  0
  2  3  4  0  0  0
  3  4  4  0  0  0
  5  4  4  0  0  0
  4 23  1  0  0  0
  6  5  4  0  0  0
  6 24  1  0  0  0
  8  7  1  0  0  0
  9  8  4  0  0  0
  8 13  4  0  0  0
  9 10  4  0  0  0
 14  9  1  0  0  0
 10 11  4  0  0  0
 11 12  4  0  0  0
 13 12  4  0  0  0
 12 26  1  0  0  0
 13 25  1  0  0  0
 15 14  1  0  0  0
 14 16  2  0  0  0
 17 15  1  0  0  0
 18 17  1  0  0  0
 22 18  1  0  0  0
 19 21  1  0  0  0
 19 22  1  0  0  0
 22 20  1  0  0  0
  2 27  1  0  0  0
  3 28  1  0  0  0
  5 29  1  0  0  0
  7 30  1  0  0  0
 10 31  1  0  0  0
 11 32  1  0  0  0
 15 33  1  0  0  0
 18 34  1  0  0  0
 18 35  1  0  0  0
 19 36  1  0  0  0
 19 37  1  0  0  0
 20 38  1  0  0  0
 21 39  1  0  0  0
 22 40  1  0  0  0
M  END
$$$$
