4qz1_ligand
  -I-interpret- 

 87 89  0  0  0  0  0  0  0  0999 V2000
   59.5780 -134.2350   34.8760 C   0  0  0  0  0
   59.5930 -135.4540   35.0410 O   0  0  0  0  0
   58.4640 -133.5810   34.0480 C   0  0  0  0  0
   57.2960 -133.6770   34.9120 N   0  3  0  0  0
   54.7820 -133.0830   35.8600 O   0  0  0  0  0
   56.1450 -134.2850   34.2200 C   0  0  0  0  0
   56.9480 -132.3620   35.4510 C   0  0  0  0  0
   55.0290 -134.3530   35.1910 C   0  0  0  0  0
   55.9350 -132.5130   36.5160 C   0  0  0  0  0
   60.4730 -133.3910   35.4130 N   0  0  0  0  0
   61.5840 -133.8780   36.2420 C   0  0  0  0  0
   61.1190 -133.9790   37.6890 C   0  0  0  0  0
   60.3620 -133.1310   38.1620 O   0  0  0  0  0
   62.7620 -132.9050   36.1670 C   0  0  0  0  0
   61.6070 -135.0390   38.3540 N   0  0  0  0  0
   61.3030 -135.2860   39.7680 C   0  0  0  0  0
   60.7340 -136.6630   39.9730 C   0  0  0  0  0
   59.3650 -136.5580   39.7530 C   0  0  0  0  0
   58.8420 -136.6810   38.4710 C   0  0  0  0  0
   57.4700 -136.5820   38.2570 C   0  0  0  0  0
   56.6040 -136.3630   39.3400 C   0  0  0  0  0
   55.2410 -136.2410   39.2510 O   0  0  0  0  0
   54.5960 -136.5510   38.0070 C   0  0  0  0  0
   57.1400 -136.2420   40.6160 C   0  0  0  0  0
   58.5070 -136.3390   40.8260 C   0  0  0  0  0
   62.6160 -135.2020   40.5430 C   0  0  0  0  0
   63.7030 -135.3360   39.9740 O   0  0  0  0  0
   62.4500 -135.0050   41.8600 N   0  0  0  0  0
   63.5670 -134.8640   42.7940 C   0  0  0  0  0
   63.4790 -135.9100   43.9220 C   0  0  0  0  0
   62.1650 -135.8870   44.4820 O   0  0  0  0  0
   63.8790 -137.4210   43.5700 C   0  0  0  0  0
   65.0560 -137.4550   42.5510 C   0  0  0  0  0
   62.6560 -138.0890   42.9530 C   0  0  0  0  0
   63.0970 -139.2990   42.3160 O   0  0  0  0  0
   63.4420 -133.4960   43.4560 C   0  0  0  0  0
   64.2010 -132.4790   42.8260 C   0  0  0  0  0
   64.8800 -132.6130   41.6040 C   0  0  0  0  0
   65.5860 -131.5380   41.0670 C   0  0  0  0  0
   65.6200 -130.3140   41.7300 C   0  0  0  0  0
   64.9470 -130.1610   42.9370 C   0  0  0  0  0
   64.2450 -131.2380   43.4740 C   0  0  0  0  0
   58.3141 -134.0734   33.0872 H   0  0  0  0  0
   58.6969 -132.5521   33.7738 H   0  0  0  0  0
   57.5377 -134.2938   35.6876 H   0  0  0  0  0
   56.3991 -135.2820   33.8600 H   0  0  0  0  0
   55.8613 -133.6875   33.3536 H   0  0  0  0  0
   56.5433 -131.7397   34.6528 H   0  0  0  0  0
   57.8407 -131.8933   35.8651 H   0  0  0  0  0
   54.1262 -134.6216   34.6425 H   0  0  0  0  0
   55.2952 -135.0849   35.9536 H   0  0  0  0  0
   56.2932 -133.1485   37.3259 H   0  0  0  0  0
   55.7000 -131.5585   36.9870 H   0  0  0  0  0
   60.3798 -132.3898   35.2418 H   0  0  0  0  0
   61.8999 -134.8552   35.8769 H   0  0  0  0  0
   63.0967 -132.8207   35.1331 H   0  0  0  0  0
   62.4469 -131.9264   36.5292 H   0  0  0  0  0
   63.5788 -133.2770   36.7855 H   0  0  0  0  0
   62.2103 -135.6955   37.8585 H   0  0  0  0  0
   60.5724 -134.5517   40.1073 H   0  0  0  0  0
   60.9420 -137.0267   40.9793 H   0  0  0  0  0
   61.1867 -137.3796   39.2878 H   0  0  0  0  0
   59.5104 -136.8561   37.6279 H   0  0  0  0  0
   57.0680 -136.6746   37.2481 H   0  0  0  0  0
   54.9821 -135.8960   37.2259 H   0  0  0  0  0
   54.7967 -137.5896   37.7441 H   0  0  0  0  0
   53.5211 -136.4020   38.1095 H   0  0  0  0  0
   56.4768 -136.0685   41.4635 H   0  0  0  0  0
   58.9104 -136.2435   41.8341 H   0  0  0  0  0
   61.4999 -134.9510   42.2272 H   0  0  0  0  0
   64.5017 -134.9902   42.2476 H   0  0  0  0  0
   64.2502 -135.5978   44.6262 H   0  0  0  0  0
   62.1067 -136.5378   45.1854 H   0  0  0  0  0
   64.1979 -137.9407   44.4735 H   0  0  0  0  0
   64.7564 -136.9464   41.6347 H   0  0  0  0  0
   65.9218 -136.9515   42.9810 H   0  0  0  0  0
   65.3108 -138.4908   42.3265 H   0  0  0  0  0
   62.1867 -137.4259   42.2262 H   0  0  0  0  0
   61.9161 -138.3119   43.7217 H   0  0  0  0  0
   62.3444 -139.7421   41.9174 H   0  0  0  0  0
   63.8165 -133.5946   44.4749 H   0  0  0  0  0
   62.3942 -133.2020   43.3950 H   0  0  0  0  0
   64.8547 -133.5640   41.0720 H   0  0  0  0  0
   66.1152 -131.6562   40.1215 H   0  0  0  0  0
   66.1732 -129.4773   41.3035 H   0  0  0  0  0
   64.9685 -129.2047   43.4597 H   0  0  0  0  0
   63.7181 -131.1120   44.4198 H   0  0  0  0  0
  1  2  2  0  0  0
  3  1  1  0  0  0
  1 10  1  0  0  0
  4  3  1  0  0  0
  6  4  1  0  0  0
  4  7  1  0  0  0
  8  5  1  0  0  0
  5  9  1  0  0  0
  6  8  1  0  0  0
  7  9  1  0  0  0
 10 11  1  0  0  0
 11 12  1  0  0  0
 11 14  1  0  0  0
 12 13  2  0  0  0
 12 15  1  0  0  0
 15 16  1  0  0  0
 16 17  1  0  0  0
 16 26  1  0  0  0
 17 18  1  0  0  0
 18 19  4  0  0  0
 18 25  4  0  0  0
 19 20  4  0  0  0
 20 21  4  0  0  0
 21 22  1  0  0  0
 21 24  4  0  0  0
 22 23  1  0  0  0
 24 25  4  0  0  0
 26 27  2  0  0  0
 26 28  1  0  0  0
 28 29  1  0  0  0
 29 30  1  0  0  0
 29 36  1  0  0  0
 30 31  1  0  0  0
 30 32  1  0  0  0
 32 33  1  0  0  0
 32 34  1  0  0  0
 34 35  1  0  0  0
 36 37  1  0  0  0
 37 38  4  0  0  0
 37 42  4  0  0  0
 38 39  4  0  0  0
 39 40  4  0  0  0
 40 41  4  0  0  0
 41 42  4  0  0  0
  3 43  1  0  0  0
  3 44  1  0  0  0
  4 45  1  0  0  0
  6 46  1  0  0  0
  6 47  1  0  0  0
  7 48  1  0  0  0
  7 49  1  0  0  0
  8 50  1  0  0  0
  8 51  1  0  0  0
  9 52  1  0  0  0
  9 53  1  0  0  0
 10 54  1  0  0  0
 11 55  1  0  0  0
 14 56  1  0  0  0
 14 57  1  0  0  0
 14 58  1  0  0  0
 15 59  1  0  0  0
 16 60  1  0  0  0
 17 61  1  0  0  0
 17 62  1  0  0  0
 19 63  1  0  0  0
 20 64  1  0  0  0
 23 65  1  0  0  0
 23 66  1  0  0  0
 23 67  1  0  0  0
 24 68  1  0  0  0
 25 69  1  0  0  0
 28 70  1  0  0  0
 29 71  1  0  0  0
 30 72  1  0  0  0
 31 73  1  0  0  0
 32 74  1  0  0  0
 33 75  1  0  0  0
 33 76  1  0  0  0
 33 77  1  0  0  0
 34 78  1  0  0  0
 34 79  1  0  0  0
 35 80  1  0  0  0
 36 81  1  0  0  0
 36 82  1  0  0  0
 38 83  1  0  0  0
 39 84  1  0  0  0
 40 85  1  0  0  0
 41 86  1  0  0  0
 42 87  1  0  0  0
M  END
$$$$
