### 
### Created by X-TOOL on Mon Sep 10 21:12:45 2018
### 

@<TRIPOS>MOLECULE
1tet_ligand
  188   189     1     0     0
SMALL
GAST_HUCK


@<TRIPOS>ATOM
      1 N          48.9650   52.5080   86.3390 N.4       1 VAL         0.2381
      2 CA         48.1100   51.4830   85.7450 C.3       1 VAL         0.0675
      3 C          47.6020   52.3150   84.5640 C.2       1 VAL         0.2295
      4 O          47.0620   53.4050   84.7780 O.2       1 VAL        -0.3905
      5 CB         46.9160   51.0620   86.6810 C.3       1 VAL         0.0139
      6 CG1        46.0520   50.1410   85.8680 C.3       1 VAL        -0.0553
      7 CG2        47.3180   50.2510   87.9380 C.3       1 VAL        -0.0553
      8 N          47.8860   51.9330   83.3230 N.am      1 PRO        -0.2471
      9 CA         47.5300   52.6830   82.1170 C.3       1 PRO         0.1339
     10 C          46.0610   53.0710   82.1250 C.2       1 PRO         0.2039
     11 O          45.2480   52.2330   82.5050 O.2       1 PRO        -0.3944
     12 CB         47.9020   51.7440   80.9780 C.3       1 PRO        -0.0104
     13 CG         49.1080   51.0830   81.5240 C.3       1 PRO        -0.0281
     14 CD         48.6590   50.7550   82.9640 C.3       1 PRO         0.0371
     15 N          45.6690   54.3050   81.7800 N.am      1 GLY        -0.2664
     16 CA         44.2530   54.6520   81.7580 C.3       1 GLY         0.1201
     17 C          43.5740   54.6320   83.1010 C.2       1 GLY         0.2008
     18 O          42.4010   54.3010   83.0840 O.2       1 GLY        -0.3947
     19 N          44.1020   55.0000   84.2740 N.am      1 SER        -0.2618
     20 CA         43.3510   54.7020   85.5000 C.3       1 SER         0.1539
     21 C          43.2050   55.4750   86.8110 C.2       1 SER         0.2062
     22 O          42.2160   55.2310   87.5440 O.2       1 SER        -0.3943
     23 CB         43.7430   53.2550   85.8620 C.3       1 SER         0.0843
     24 OG         43.3630   52.8430   87.1640 O.3       1 SER        -0.3903
     25 N          44.0760   56.3660   87.2140 N.am      1 GLN        -0.2635
     26 CA         44.0750   56.9560   88.5720 C.3       1 GLN         0.1330
     27 C          44.2370   55.9260   89.6930 C.2       1 GLN         0.2042
     28 O          44.1550   56.2550   90.8770 O.2       1 GLN        -0.3944
     29 CB         42.7960   57.7530   88.8990 C.3       1 GLN         0.0045
     30 CG         42.7870   59.1470   88.3480 C.3       1 GLN         0.0412
     31 CD         41.4010   59.5900   88.0120 C.2       1 GLN         0.1737
     32 OE1        41.1600   59.7080   86.8280 O.2       1 GLN        -0.3973
     33 NE2        40.3990   59.8800   88.8410 N.am      1 GLN        -0.3009
     34 N          44.4190   54.6320   89.4180 N.am      1 HIS        -0.2619
     35 CA         44.7400   53.7060   90.4970 C.3       1 HIS         0.1421
     36 C          46.2250   53.3810   90.4290 C.2       1 HIS         0.2060
     37 O          46.9260   53.6800   89.4600 O.2       1 HIS        -0.3942
     38 CB         43.8480   52.4490   90.3840 C.3       1 HIS         0.0427
     39 CG         42.4490   52.9100   90.7070 C.2       1 HIS         0.0561
     40 ND1        41.6240   53.6830   89.9930 N.pl3     1 HIS        -0.2623
     41 CD2        41.8330   52.6390   91.9020 C.2       1 HIS        -0.0276
     42 CE1        40.5510   53.8920   90.7210 C.2       1 HIS         0.0875
     43 NE2        40.6890   53.2600   91.8650 N.2       1 HIS        -0.3437
     44 N          46.6650   52.8330   91.5480 N.am      1 ILE        -0.2633
     45 CA         48.0360   52.5080   91.8730 C.3       1 ILE         0.1335
     46 C          48.1040   50.9760   91.8610 C.2       1 ILE         0.2042
     47 O          47.0700   50.2810   91.9390 O.2       1 ILE        -0.3944
     48 CB         48.2210   53.1960   93.2450 C.3       1 ILE        -0.0037
     49 CG1        48.4070   54.6890   92.9750 C.3       1 ILE        -0.0491
     50 CG2        49.3900   52.6780   94.0390 C.3       1 ILE        -0.0582
     51 CD1        49.7600   55.0850   92.3200 C.3       1 ILE        -0.0648
     52 N          49.3120   50.4390   91.7210 N.am      1 ASP        -0.2622
     53 CA         49.5510   49.0070   91.7310 C.3       1 ASP         0.1423
     54 C          51.0110   48.8450   92.0900 C.2       1 ASP         0.2057
     55 O          51.7570   49.8130   91.9010 O.2       1 ASP        -0.3943
     56 CB         49.3170   48.4150   90.3620 C.3       1 ASP         0.0406
     57 CG         49.0330   46.9260   90.3200 C.2       1 ASP         0.0393
     58 OD1        49.1650   46.2640   91.3490 O.co2     1 ASP        -0.5688
     59 OD2        48.6510   46.4390   89.2460 O.co2     1 ASP        -0.5688
     60 N          51.4580   47.6900   92.6020 N.am      1 SER        -0.2615
     61 CA         52.8730   47.5500   92.9080 C.3       1 SER         0.1539
     62 C          53.6360   46.9410   91.7280 C.2       1 SER         0.2062
     63 O          53.0580   46.2900   90.8550 O.2       1 SER        -0.3943
     64 CB         53.0160   46.6900   94.1670 C.3       1 SER         0.0843
     65 OG         52.1140   45.5690   94.2270 O.3       1 SER        -0.3903
     66 N          54.9430   47.1840   91.6430 N.am      1 GLN        -0.2635
     67 CA         55.7690   46.6150   90.5950 C.3       1 GLN         0.1330
     68 C          56.0460   45.1650   90.9430 C.2       1 GLN         0.2040
     69 O          55.8540   44.7680   92.0970 O.2       1 GLN        -0.3944
     70 CB         57.1110   47.2990   90.4920 C.3       1 GLN         0.0045
     71 CG         57.1020   48.7810   90.2510 C.3       1 GLN         0.0412
     72 CD         58.5520   49.1840   90.1730 C.2       1 GLN         0.1737
     73 OE1        59.0960   49.3010   89.0920 O.2       1 GLN        -0.3973
     74 NE2        59.2780   49.3160   91.2770 N.am      1 GLN        -0.3009
     75 N          56.5930   44.4290   89.9800 N.am      1 LYS        -0.2637
     76 CA         56.9010   43.0290   90.1580 C.3       1 LYS         0.1310
     77 C          58.3300   42.7240   89.7840 C.2       1 LYS         0.2040
     78 O          58.6270   42.8380   88.5910 O.2       1 LYS        -0.3944
     79 CB         55.9820   42.1820   89.3050 C.3       1 LYS        -0.0122
     80 CG         54.7560   41.6740   90.0240 C.3       1 LYS        -0.0440
     81 CD         54.0580   40.6540   89.1180 C.3       1 LYS        -0.0124
     82 CE         54.7080   39.2610   89.0270 C.3       1 LYS        -0.0354
     83 NZ         56.0690   39.1950   88.4900 N.4       1 LYS         0.2185
     84 N          59.1870   42.4170   90.7780 N.am      1 LYS        -0.2650
     85 CA         60.5760   42.0540   90.5060 C.3       1 LYS         0.1128
     86 C          60.6750   40.6830   89.8650 C.2       1 LYS         0.1245
     87 O          61.5490   40.5180   89.0230 O.2       1 LYS        -0.3725
     88 CB         61.4170   42.1040   91.8110 C.3       1 LYS        -0.0135
     89 CG         62.3950   40.9930   92.2250 C.3       1 LYS        -0.0440
     90 CD         61.7410   39.9960   93.1840 C.3       1 LYS        -0.0124
     91 CE         62.6910   38.9100   93.6980 C.3       1 LYS        -0.0354
     92 NZ         62.8690   37.8260   92.7510 N.4       1 LYS         0.2185
     93 H1         49.7088   52.7375   85.6986 H         1 VAL         0.2015
     94 H2         49.3580   52.1604   87.1997 H         1 VAL         0.2015
     95 H3         48.4182   53.3333   86.5284 H         1 VAL         0.2015
     96 H4         48.6744   50.5919   85.4330 H         1 VAL         0.1101
     97 H5         46.3615   51.9609   86.9884 H         1 VAL         0.0376
     98 H6         45.1952   49.8118   86.4742 H         1 VAL         0.0236
     99 H7         46.6402   49.2646   85.5582 H         1 VAL         0.0236
    100 H8         45.6877   50.6720   84.9762 H         1 VAL         0.0236
    101 H9         47.9576   50.8698   88.5845 H         1 VAL         0.0236
    102 H10        47.8690   49.3495   87.6320 H         1 VAL         0.0236
    103 H11        46.4129   49.9579   88.4902 H         1 VAL         0.0236
    104 H12        48.1300   53.6026   82.0509 H         1 PRO         0.0802
    105 H13        48.1306   52.3001   80.0569 H         1 PRO         0.0313
    106 H14        47.1009   51.0172   80.7782 H         1 PRO         0.0313
    107 H15        49.9742   51.7609   81.5186 H         1 PRO         0.0287
    108 H16        49.3537   50.1695   80.9626 H         1 PRO         0.0287
    109 H17        48.0379   49.8475   82.9907 H         1 PRO         0.0524
    110 H18        49.5238   50.6272   83.6316 H         1 PRO         0.0524
    111 H19        46.3525   54.9929   81.5359 H         1 GLY         0.1881
    112 H20        43.7358   53.9353   81.1031 H         1 GLY         0.0763
    113 H21        44.1561   55.6654   81.3414 H         1 GLY         0.0763
    114 H22        44.9857   55.4662   84.3147 H         1 SER         0.1884
    115 H23        42.3129   54.6763   85.1370 H         1 SER         0.0823
    116 H24        44.8364   53.1664   85.7809 H         1 SER         0.0606
    117 H25        43.2656   52.5797   85.1367 H         1 SER         0.0606
    118 H26        43.6406   51.9454   87.3046 H         1 SER         0.2097
    119 H27        44.7801   56.6641   86.5695 H         1 GLN         0.1883
    120 H28        44.9297   57.6470   88.6166 H         1 GLN         0.0801
    121 H29        42.6964   57.8131   89.9928 H         1 GLN         0.0337
    122 H30        41.9347   57.2109   88.4816 H         1 GLN         0.0337
    123 H31        43.4029   59.1760   87.4370 H         1 GLN         0.0504
    124 H32        43.2096   59.8314   89.0983 H         1 GLN         0.0504
    125 H33        39.5140   60.1672   88.4745 H         1 GLN         0.1814
    126 H34        40.5320   59.8105   89.8297 H         1 GLN         0.1814
    127 H35        44.3356   54.3005   88.4782 H         1 HIS         0.1885
    128 H36        44.5325   54.1910   91.4622 H         1 HIS         0.0824
    129 H37        44.1740   51.6817   91.1016 H         1 HIS         0.0491
    130 H38        43.8906   52.0390   89.3642 H         1 HIS         0.0491
    131 H39        41.7981   54.0477   89.0456 H         1 HIS         0.2386
    132 H40        42.2215   52.0288   92.7160 H         1 HIS         0.0324
    133 H41        39.6899   54.4897   90.4257 H         1 HIS         0.1149
    134 H42        45.9779   52.6208   92.2429 H         1 ILE         0.1883
    135 H43        48.7512   52.9158   91.1435 H         1 ILE         0.0803
    136 H44        47.3089   53.0415   93.8402 H         1 ILE         0.0345
    137 H45        48.3265   55.2200   93.9350 H         1 ILE         0.0267
    138 H46        47.5975   55.0162   92.3059 H         1 ILE         0.0267
    139 H47        49.2546   51.6036   94.2324 H         1 ILE         0.0235
    140 H48        49.4517   53.2178   94.9955 H         1 ILE         0.0235
    141 H49        50.3181   52.8339   93.4694 H         1 ILE         0.0235
    142 H50        49.7899   56.1744   92.1703 H         1 ILE         0.0230
    143 H51        49.8592   54.5786   91.3486 H         1 ILE         0.0230
    144 H52        50.5882   54.7824   92.9776 H         1 ILE         0.0230
    145 H53        50.0940   51.0510   91.6031 H         1 ASP         0.1884
    146 H54        48.9049   48.5110   92.4703 H         1 ASP         0.0819
    147 H55        50.2156   48.6031   89.7561 H         1 ASP         0.0478
    148 H56        48.4571   48.9341   89.9136 H         1 ASP         0.0478
    149 H57        50.8263   46.9336   92.7716 H         1 SER         0.1884
    150 H58        53.2918   48.5466   93.1112 H         1 SER         0.0823
    151 H59        52.8298   47.3287   95.0430 H         1 SER         0.0606
    152 H60        54.0458   46.3054   94.2059 H         1 SER         0.0606
    153 H61        52.2627   45.0871   95.0321 H         1 SER         0.2097
    154 H62        55.3691   47.7788   92.3247 H         1 GLN         0.1883
    155 H63        55.2405   46.6870   89.6330 H         1 GLN         0.0801
    156 H64        57.6597   46.8308   89.6615 H         1 GLN         0.0337
    157 H65        57.6488   47.1190   91.4345 H         1 GLN         0.0337
    158 H66        56.6020   49.3025   91.0804 H         1 GLN         0.0504
    159 H67        56.5868   49.0141   89.3075 H         1 GLN         0.0504
    160 H68        60.2394   49.5839   91.2141 H         1 GLN         0.1814
    161 H69        58.8633   49.1475   92.1712 H         1 GLN         0.1814
    162 H70        56.7984   44.8600   89.1014 H         1 LYS         0.1883
    163 H71        56.7491   42.7697   91.2162 H         1 LYS         0.0800
    164 H72        56.5522   41.3142   88.9421 H         1 LYS         0.0312
    165 H73        55.6520   42.7881   88.4484 H         1 LYS         0.0312
    166 H74        54.0748   42.5113   90.2359 H         1 LYS         0.0269
    167 H75        55.0507   41.1930   90.9683 H         1 LYS         0.0269
    168 H76        54.0260   41.0753   88.1024 H         1 LYS         0.0317
    169 H77        53.0322   40.5208   89.4922 H         1 LYS         0.0317
    170 H78        54.0678   38.6376   88.3855 H         1 LYS         0.0813
    171 H79        54.7314   38.8390   90.0425 H         1 LYS         0.0813
    172 H80        56.3808   38.2365   88.4816 H         1 LYS         0.1994
    173 H81        56.6855   39.7438   89.0686 H         1 LYS         0.1994
    174 H82        56.0774   39.5592   87.5502 H         1 LYS         0.1994
    175 H83        58.8645   42.4382   91.7243 H         1 LYS         0.1884
    176 H84        60.9892   42.7907   89.8014 H         1 LYS         0.0790
    177 H85        59.9963   39.8777   90.1423 H         1 LYS         0.1373
    178 H86        60.6925   42.1908   92.6341 H         1 LYS         0.0313
    179 H87        62.0148   43.0253   91.7500 H         1 LYS         0.0313
    180 H88        63.2638   41.4491   92.7221 H         1 LYS         0.0269
    181 H89        62.7277   40.4563   91.3243 H         1 LYS         0.0269
    182 H90        60.9080   39.5062   92.6584 H         1 LYS         0.0317
    183 H91        61.3519   40.5528   94.0492 H         1 LYS         0.0317
    184 H92        62.2811   38.4974   94.6317 H         1 LYS         0.0813
    185 H93        63.6716   39.3665   93.8982 H         1 LYS         0.0813
    186 H94        63.5005   37.1422   93.1379 H         1 LYS         0.1994
    187 H95        63.2522   38.1894   91.8924 H         1 LYS         0.1994
    188 H96        61.9781   37.3930   92.5646 H         1 LYS         0.1994
@<TRIPOS>BOND
     1    1    2 1  
     2    2    3 1  
     3    2    5 1  
     4    3    4 2  
     5    3    8 am 
     6    5    6 1  
     7    5    7 1  
     8    8    9 1  
     9    8   14 1  
    10    9   10 1  
    11    9   12 1  
    12   10   11 2  
    13   10   15 am 
    14   12   13 1  
    15   13   14 1  
    16   15   16 1  
    17   16   17 1  
    18   17   18 2  
    19   17   19 am 
    20   19   20 1  
    21   20   21 1  
    22   20   23 1  
    23   21   22 2  
    24   21   25 am 
    25   23   24 1  
    26   25   26 1  
    27   26   27 1  
    28   26   29 1  
    29   27   28 2  
    30   27   34 am 
    31   29   30 1  
    32   30   31 1  
    33   31   32 2  
    34   31   33 am 
    35   34   35 1  
    36   35   36 1  
    37   35   38 1  
    38   36   37 2  
    39   36   44 am 
    40   38   39 1  
    41   39   40 1  
    42   39   41 2  
    43   40   42 1  
    44   41   43 1  
    45   42   43 2  
    46   44   45 1  
    47   45   46 1  
    48   45   48 1  
    49   46   47 2  
    50   46   52 am 
    51   48   49 1  
    52   48   50 1  
    53   49   51 1  
    54   52   53 1  
    55   53   54 1  
    56   53   56 1  
    57   54   55 2  
    58   54   60 am 
    59   56   57 1  
    60   57   58 ar 
    61   57   59 ar 
    62   60   61 1  
    63   61   62 1  
    64   61   64 1  
    65   62   63 2  
    66   62   66 am 
    67   64   65 1  
    68   66   67 1  
    69   67   68 1  
    70   67   70 1  
    71   68   69 2  
    72   68   75 am 
    73   70   71 1  
    74   71   72 1  
    75   72   73 2  
    76   72   74 am 
    77   75   76 1  
    78   76   77 1  
    79   76   79 1  
    80   77   78 2  
    81   77   84 am 
    82   79   80 1  
    83   80   81 1  
    84   81   82 1  
    85   82   83 1  
    86   84   85 1  
    87   85   86 1  
    88   85   88 1  
    89   86   87 2  
    90   88   89 1  
    91   89   90 1  
    92   90   91 1  
    93   91   92 1  
    94    1   93 1  
    95    1   94 1  
    96    1   95 1  
    97    2   96 1  
    98    5   97 1  
    99    6   98 1  
   100    6   99 1  
   101    6  100 1  
   102    7  101 1  
   103    7  102 1  
   104    7  103 1  
   105    9  104 1  
   106   12  105 1  
   107   12  106 1  
   108   13  107 1  
   109   13  108 1  
   110   14  109 1  
   111   14  110 1  
   112   15  111 1  
   113   16  112 1  
   114   16  113 1  
   115   19  114 1  
   116   20  115 1  
   117   23  116 1  
   118   23  117 1  
   119   24  118 1  
   120   25  119 1  
   121   26  120 1  
   122   29  121 1  
   123   29  122 1  
   124   30  123 1  
   125   30  124 1  
   126   33  125 1  
   127   33  126 1  
   128   34  127 1  
   129   35  128 1  
   130   38  129 1  
   131   38  130 1  
   132   40  131 1  
   133   41  132 1  
   134   42  133 1  
   135   44  134 1  
   136   45  135 1  
   137   48  136 1  
   138   49  137 1  
   139   49  138 1  
   140   50  139 1  
   141   50  140 1  
   142   50  141 1  
   143   51  142 1  
   144   51  143 1  
   145   51  144 1  
   146   52  145 1  
   147   53  146 1  
   148   56  147 1  
   149   56  148 1  
   150   60  149 1  
   151   61  150 1  
   152   64  151 1  
   153   64  152 1  
   154   65  153 1  
   155   66  154 1  
   156   67  155 1  
   157   70  156 1  
   158   70  157 1  
   159   71  158 1  
   160   71  159 1  
   161   74  160 1  
   162   74  161 1  
   163   75  162 1  
   164   76  163 1  
   165   79  164 1  
   166   79  165 1  
   167   80  166 1  
   168   80  167 1  
   169   81  168 1  
   170   81  169 1  
   171   82  170 1  
   172   82  171 1  
   173   83  172 1  
   174   83  173 1  
   175   83  174 1  
   176   84  175 1  
   177   85  176 1  
   178   86  177 1  
   179   88  178 1  
   180   88  179 1  
   181   89  180 1  
   182   89  181 1  
   183   90  182 1  
   184   90  183 1  
   185   91  184 1  
   186   91  185 1  
   187   92  186 1  
   188   92  187 1  
   189   92  188 1  
@<TRIPOS>SUBSTRUCTURE
     1 VAL         1

