1tet_ligand
  -I-interpret- 

188189  0  0  0  0  0  0  0  0999 V2000
   48.9650   52.5080   86.3390 N   0  3  0  0  0
   48.1100   51.4830   85.7450 C   0  0  0  0  0
   47.6020   52.3150   84.5640 C   0  0  0  0  0
   47.0620   53.4050   84.7780 O   0  0  0  0  0
   46.9160   51.0620   86.6810 C   0  0  0  0  0
   46.0520   50.1410   85.8680 C   0  0  0  0  0
   47.3180   50.2510   87.9380 C   0  0  0  0  0
   47.8860   51.9330   83.3230 N   0  0  0  0  0
   47.5300   52.6830   82.1170 C   0  0  0  0  0
   46.0610   53.0710   82.1250 C   0  0  0  0  0
   45.2480   52.2330   82.5050 O   0  0  0  0  0
   47.9020   51.7440   80.9780 C   0  0  0  0  0
   49.1080   51.0830   81.5240 C   0  0  0  0  0
   48.6590   50.7550   82.9640 C   0  0  0  0  0
   45.6690   54.3050   81.7800 N   0  0  0  0  0
   44.2530   54.6520   81.7580 C   0  0  0  0  0
   43.5740   54.6320   83.1010 C   0  0  0  0  0
   42.4010   54.3010   83.0840 O   0  0  0  0  0
   44.1020   55.0000   84.2740 N   0  0  0  0  0
   43.3510   54.7020   85.5000 C   0  0  0  0  0
   43.2050   55.4750   86.8110 C   0  0  0  0  0
   42.2160   55.2310   87.5440 O   0  0  0  0  0
   43.7430   53.2550   85.8620 C   0  0  0  0  0
   43.3630   52.8430   87.1640 O   0  0  0  0  0
   44.0760   56.3660   87.2140 N   0  0  0  0  0
   44.0750   56.9560   88.5720 C   0  0  0  0  0
   44.2370   55.9260   89.6930 C   0  0  0  0  0
   44.1550   56.2550   90.8770 O   0  0  0  0  0
   42.7960   57.7530   88.8990 C   0  0  0  0  0
   42.7870   59.1470   88.3480 C   0  0  0  0  0
   41.4010   59.5900   88.0120 C   0  0  0  0  0
   41.1600   59.7080   86.8280 O   0  0  0  0  0
   40.3990   59.8800   88.8410 N   0  0  0  0  0
   44.4190   54.6320   89.4180 N   0  0  0  0  0
   44.7400   53.7060   90.4970 C   0  0  0  0  0
   46.2250   53.3810   90.4290 C   0  0  0  0  0
   46.9260   53.6800   89.4600 O   0  0  0  0  0
   43.8480   52.4490   90.3840 C   0  0  0  0  0
   42.4490   52.9100   90.7070 C   0  0  0  0  0
   41.6240   53.6830   89.9930 N   0  0  0  0  0
   41.8330   52.6390   91.9020 C   0  0  0  0  0
   40.5510   53.8920   90.7210 C   0  0  0  0  0
   40.6890   53.2600   91.8650 N   0  0  0  0  0
   46.6650   52.8330   91.5480 N   0  0  0  0  0
   48.0360   52.5080   91.8730 C   0  0  0  0  0
   48.1040   50.9760   91.8610 C   0  0  0  0  0
   47.0700   50.2810   91.9390 O   0  0  0  0  0
   48.2210   53.1960   93.2450 C   0  0  0  0  0
   48.4070   54.6890   92.9750 C   0  0  0  0  0
   49.3900   52.6780   94.0390 C   0  0  0  0  0
   49.7600   55.0850   92.3200 C   0  0  0  0  0
   49.3120   50.4390   91.7210 N   0  0  0  0  0
   49.5510   49.0070   91.7310 C   0  0  0  0  0
   51.0110   48.8450   92.0900 C   0  0  0  0  0
   51.7570   49.8130   91.9010 O   0  0  0  0  0
   49.3170   48.4150   90.3620 C   0  0  0  0  0
   49.0330   46.9260   90.3200 C   0  0  0  0  0
   49.1650   46.2640   91.3490 O   0  0  0  0  0
   48.6510   46.4390   89.2460 O   0  0  0  0  0
   51.4580   47.6900   92.6020 N   0  0  0  0  0
   52.8730   47.5500   92.9080 C   0  0  0  0  0
   53.6360   46.9410   91.7280 C   0  0  0  0  0
   53.0580   46.2900   90.8550 O   0  0  0  0  0
   53.0160   46.6900   94.1670 C   0  0  0  0  0
   52.1140   45.5690   94.2270 O   0  0  0  0  0
   54.9430   47.1840   91.6430 N   0  0  0  0  0
   55.7690   46.6150   90.5950 C   0  0  0  0  0
   56.0460   45.1650   90.9430 C   0  0  0  0  0
   55.8540   44.7680   92.0970 O   0  0  0  0  0
   57.1110   47.2990   90.4920 C   0  0  0  0  0
   57.1020   48.7810   90.2510 C   0  0  0  0  0
   58.5520   49.1840   90.1730 C   0  0  0  0  0
   59.0960   49.3010   89.0920 O   0  0  0  0  0
   59.2780   49.3160   91.2770 N   0  0  0  0  0
   56.5930   44.4290   89.9800 N   0  0  0  0  0
   56.9010   43.0290   90.1580 C   0  0  0  0  0
   58.3300   42.7240   89.7840 C   0  0  0  0  0
   58.6270   42.8380   88.5910 O   0  0  0  0  0
   55.9820   42.1820   89.3050 C   0  0  0  0  0
   54.7560   41.6740   90.0240 C   0  0  0  0  0
   54.0580   40.6540   89.1180 C   0  0  0  0  0
   54.7080   39.2610   89.0270 C   0  0  0  0  0
   56.0690   39.1950   88.4900 N   0  3  0  0  0
   59.1870   42.4170   90.7780 N   0  0  0  0  0
   60.5760   42.0540   90.5060 C   0  0  0  0  0
   60.6750   40.6830   89.8650 C   0  0  0  0  0
   61.5490   40.5180   89.0230 O   0  0  0  0  0
   61.4170   42.1040   91.8110 C   0  0  0  0  0
   62.3950   40.9930   92.2250 C   0  0  0  0  0
   61.7410   39.9960   93.1840 C   0  0  0  0  0
   62.6910   38.9100   93.6980 C   0  0  0  0  0
   62.8690   37.8260   92.7510 N   0  3  0  0  0
   49.7173   52.7394   85.6902 H   0  0  0  0  0
   48.4106   53.3425   86.5303 H   0  0  0  0  0
   49.3620   52.1551   87.2098 H   0  0  0  0  0
   48.5996   50.5350   85.5221 H   0  0  0  0  0
   46.4467   51.9838   87.0248 H   0  0  0  0  0
   46.6218   49.2506   85.6023 H   0  0  0  0  0
   45.1784   49.8537   86.4531 H   0  0  0  0  0
   45.7310   50.6527   84.9607 H   0  0  0  0  0
   46.4204   49.9611   88.4842 H   0  0  0  0  0
   47.8638   49.3580   87.6335 H   0  0  0  0  0
   47.9517   50.8652   88.5778 H   0  0  0  0  0
   48.0525   53.6355   82.0290 H   0  0  0  0  0
   48.0747   52.2540   80.0303 H   0  0  0  0  0
   47.1072   51.0486   80.7080 H   0  0  0  0  0
   50.0026   51.7040   81.4782 H   0  0  0  0  0
   49.4188   50.2067   80.9551 H   0  0  0  0  0
   48.0881   49.8292   83.0350 H   0  0  0  0  0
   49.4924   50.5661   83.6407 H   0  0  0  0  0
   46.3662   55.0067   81.5310 H   0  0  0  0  0
   43.7546   53.9039   81.1416 H   0  0  0  0  0
   44.1846   55.6740   81.3853 H   0  0  0  0  0
   45.0034   55.4755   84.3155 H   0  0  0  0  0
   42.3818   55.0342   85.1280 H   0  0  0  0  0
   44.8309   53.2021   85.8187 H   0  0  0  0  0
   43.2244   52.6021   85.1600 H   0  0  0  0  0
   43.6435   51.9360   87.3060 H   0  0  0  0  0
   44.7942   56.6701   86.5566 H   0  0  0  0  0
   44.9395   57.6190   88.5396 H   0  0  0  0  0
   42.7350   57.8344   89.9842 H   0  0  0  0  0
   41.9595   57.2212   88.4456 H   0  0  0  0  0
   43.3864   59.1637   87.4378 H   0  0  0  0  0
   43.1927   59.8206   89.1028 H   0  0  0  0  0
   39.4984   60.1797   88.4674 H   0  0  0  0  0
   40.5325   59.8023   89.8492 H   0  0  0  0  0
   44.3340   54.2939   88.4594 H   0  0  0  0  0
   44.5373   54.1507   91.4713 H   0  0  0  0  0
   44.1761   51.6663   91.0679 H   0  0  0  0  0
   43.9020   52.0120   89.3869 H   0  0  0  0  0
   42.2218   52.0282   92.7168 H   0  0  0  0  0
   39.6891   54.4903   90.4254 H   0  0  0  0  0
   45.9641   52.6166   92.2568 H   0  0  0  0  0
   48.8323   52.8423   91.2080 H   0  0  0  0  0
   47.3406   52.9840   93.8517 H   0  0  0  0  0
   48.3729   55.1870   93.9440 H   0  0  0  0  0
   47.6250   54.9779   92.2728 H   0  0  0  0  0
   49.2554   51.6131   94.2287 H   0  0  0  0  0
   50.3091   52.8344   93.4742 H   0  0  0  0  0
   49.4491   53.2126   94.9870 H   0  0  0  0  0
   50.5798   54.7846   92.9725 H   0  0  0  0  0
   49.8571   54.5826   91.3576 H   0  0  0  0  0
   49.7885   56.1646   92.1722 H   0  0  0  0  0
   50.1096   51.0633   91.6007 H   0  0  0  0  0
   48.8833   48.5035   92.4301 H   0  0  0  0  0
   50.2398   48.5661   89.8019 H   0  0  0  0  0
   48.4294   48.9068   89.9640 H   0  0  0  0  0
   48.6187   47.1271   88.5774 H   0  0  0  0  0
   50.8137   46.9184   92.7750 H   0  0  0  0  0
   53.3074   48.5332   93.0889 H   0  0  0  0  0
   52.7880   47.3301   95.0193 H   0  0  0  0  0
   54.0285   46.2863   94.1654 H   0  0  0  0  0
   52.2642   45.0820   95.0406 H   0  0  0  0  0
   55.3777   47.7907   92.3383 H   0  0  0  0  0
   55.2337   46.7331   89.6529 H   0  0  0  0  0
   57.6043   46.8589   89.6254 H   0  0  0  0  0
   57.5931   47.1571   91.4592 H   0  0  0  0  0
   56.5817   49.3124   91.0478 H   0  0  0  0  0
   56.5670   49.0339   89.3356 H   0  0  0  0  0
   60.2766   49.5126   91.2102 H   0  0  0  0  0
   58.8370   49.2208   92.1918 H   0  0  0  0  0
   56.8025   44.8687   89.0838 H   0  0  0  0  0
   56.7579   42.7952   91.2130 H   0  0  0  0  0
   56.5529   41.3085   88.9900 H   0  0  0  0  0
   55.6345   42.8122   88.4863 H   0  0  0  0  0
   54.0819   42.5013   90.2458 H   0  0  0  0  0
   55.0412   41.2053   90.9659 H   0  0  0  0  0
   54.0922   41.0702   88.1112 H   0  0  0  0  0
   53.0672   40.4983   89.5448 H   0  0  0  0  0
   54.0882   38.6883   88.3371 H   0  0  0  0  0
   54.7750   38.8968   90.0522 H   0  0  0  0  0
   56.3834   38.2247   88.4820 H   0  0  0  0  0
   56.0763   39.5638   87.5391 H   0  0  0  0  0
   56.6919   39.7507   89.0763 H   0  0  0  0  0
   58.8580   42.4386   91.7433 H   0  0  0  0  0
   60.9776   42.7819   89.8011 H   0  0  0  0  0
   59.9957   39.8770   90.1425 H   0  0  0  0  0
   60.6595   42.0700   92.5940 H   0  0  0  0  0
   62.0711   42.9610   91.6501 H   0  0  0  0  0
   63.2438   41.4523   92.7317 H   0  0  0  0  0
   62.7057   40.4559   91.3288 H   0  0  0  0  0
   60.9441   39.4946   92.6348 H   0  0  0  0  0
   61.3960   40.5600   94.0506 H   0  0  0  0  0
   62.2595   38.4917   94.6074 H   0  0  0  0  0
   63.6647   39.3701   93.8661 H   0  0  0  0  0
   63.5082   37.1347   93.1435 H   0  0  0  0  0
   61.9669   37.3887   92.5632 H   0  0  0  0  0
   63.2567   38.1949   91.8827 H   0  0  0  0  0
  1  2  1  0  0  0
  2  3  1  0  0  0
  2  5  1  0  0  0
  3  4  2  0  0  0
  3  8  1  0  0  0
  5  6  1  0  0  0
  5  7  1  0  0  0
  8  9  1  0  0  0
  8 14  1  0  0  0
  9 10  1  0  0  0
  9 12  1  0  0  0
 10 11  2  0  0  0
 10 15  1  0  0  0
 12 13  1  0  0  0
 13 14  1  0  0  0
 15 16  1  0  0  0
 16 17  1  0  0  0
 17 18  2  0  0  0
 17 19  1  0  0  0
 19 20  1  0  0  0
 20 21  1  0  0  0
 20 23  1  0  0  0
 21 22  2  0  0  0
 21 25  1  0  0  0
 23 24  1  0  0  0
 25 26  1  0  0  0
 26 27  1  0  0  0
 26 29  1  0  0  0
 27 28  2  0  0  0
 27 34  1  0  0  0
 29 30  1  0  0  0
 30 31  1  0  0  0
 31 32  2  0  0  0
 31 33  1  0  0  0
 34 35  1  0  0  0
 35 36  1  0  0  0
 35 38  1  0  0  0
 36 37  2  0  0  0
 36 44  1  0  0  0
 38 39  1  0  0  0
 39 40  4  0  0  0
 39 41  4  0  0  0
 40 42  4  0  0  0
 41 43  4  0  0  0
 42 43  4  0  0  0
 44 45  1  0  0  0
 45 46  1  0  0  0
 45 48  1  0  0  0
 46 47  2  0  0  0
 46 52  1  0  0  0
 48 49  1  0  0  0
 48 50  1  0  0  0
 49 51  1  0  0  0
 52 53  1  0  0  0
 53 54  1  0  0  0
 53 56  1  0  0  0
 54 55  2  0  0  0
 54 60  1  0  0  0
 56 57  1  0  0  0
 57 58  2  0  0  0
 57 59  1  0  0  0
 60 61  1  0  0  0
 61 62  1  0  0  0
 61 64  1  0  0  0
 62 63  2  0  0  0
 62 66  1  0  0  0
 64 65  1  0  0  0
 66 67  1  0  0  0
 67 68  1  0  0  0
 67 70  1  0  0  0
 68 69  2  0  0  0
 68 75  1  0  0  0
 70 71  1  0  0  0
 71 72  1  0  0  0
 72 73  2  0  0  0
 72 74  1  0  0  0
 75 76  1  0  0  0
 76 77  1  0  0  0
 76 79  1  0  0  0
 77 78  2  0  0  0
 77 84  1  0  0  0
 79 80  1  0  0  0
 80 81  1  0  0  0
 81 82  1  0  0  0
 82 83  1  0  0  0
 84 85  1  0  0  0
 85 86  1  0  0  0
 85 88  1  0  0  0
 86 87  2  0  0  0
 88 89  1  0  0  0
 89 90  1  0  0  0
 90 91  1  0  0  0
 91 92  1  0  0  0
  1 93  1  0  0  0
  1 94  1  0  0  0
  1 95  1  0  0  0
  2 96  1  0  0  0
  5 97  1  0  0  0
  6 98  1  0  0  0
  6 99  1  0  0  0
  6100  1  0  0  0
  7101  1  0  0  0
  7102  1  0  0  0
  7103  1  0  0  0
  9104  1  0  0  0
 12105  1  0  0  0
 12106  1  0  0  0
 13107  1  0  0  0
 13108  1  0  0  0
 14109  1  0  0  0
 14110  1  0  0  0
 15111  1  0  0  0
 16112  1  0  0  0
 16113  1  0  0  0
 19114  1  0  0  0
 20115  1  0  0  0
 23116  1  0  0  0
 23117  1  0  0  0
 24118  1  0  0  0
 25119  1  0  0  0
 26120  1  0  0  0
 29121  1  0  0  0
 29122  1  0  0  0
 30123  1  0  0  0
 30124  1  0  0  0
 33125  1  0  0  0
 33126  1  0  0  0
 34127  1  0  0  0
 35128  1  0  0  0
 38129  1  0  0  0
 38130  1  0  0  0
 41131  1  0  0  0
 42132  1  0  0  0
 44133  1  0  0  0
 45134  1  0  0  0
 48135  1  0  0  0
 49136  1  0  0  0
 49137  1  0  0  0
 50138  1  0  0  0
 50139  1  0  0  0
 50140  1  0  0  0
 51141  1  0  0  0
 51142  1  0  0  0
 51143  1  0  0  0
 52144  1  0  0  0
 53145  1  0  0  0
 56146  1  0  0  0
 56147  1  0  0  0
 59148  1  0  0  0
 60149  1  0  0  0
 61150  1  0  0  0
 64151  1  0  0  0
 64152  1  0  0  0
 65153  1  0  0  0
 66154  1  0  0  0
 67155  1  0  0  0
 70156  1  0  0  0
 70157  1  0  0  0
 71158  1  0  0  0
 71159  1  0  0  0
 74160  1  0  0  0
 74161  1  0  0  0
 75162  1  0  0  0
 76163  1  0  0  0
 79164  1  0  0  0
 79165  1  0  0  0
 80166  1  0  0  0
 80167  1  0  0  0
 81168  1  0  0  0
 81169  1  0  0  0
 82170  1  0  0  0
 82171  1  0  0  0
 83172  1  0  0  0
 83173  1  0  0  0
 83174  1  0  0  0
 84175  1  0  0  0
 85176  1  0  0  0
 86177  1  0  0  0
 88178  1  0  0  0
 88179  1  0  0  0
 89180  1  0  0  0
 89181  1  0  0  0
 90182  1  0  0  0
 90183  1  0  0  0
 91184  1  0  0  0
 91185  1  0  0  0
 92186  1  0  0  0
 92187  1  0  0  0
 92188  1  0  0  0
M  END
$$$$
