### 
### Created by X-TOOL on Mon Sep 10 21:13:06 2018
### 

@<TRIPOS>MOLECULE
2y2j_ligand
   23    23     1     0     0
SMALL
GAST_HUCK


@<TRIPOS>ATOM
      1 F9          9.8710   10.6580   41.8750 F         1 ZA4        -0.1773
      2 C8         10.1010    9.4830   42.4860 C.ar      1 ZA4         0.1533
      3 C11        10.7360    9.5100   43.7140 C.ar      1 ZA4        -0.0222
      4 C12        11.0160    8.3250   44.3760 C.ar      1 ZA4        -0.0593
      5 C13        10.6690    7.0940   43.8190 C.ar      1 ZA4        -0.0602
      6 C14        10.0300    7.0640   42.5900 C.ar      1 ZA4        -0.0437
      7 C7          9.7900    8.2450   41.9120 C.ar      1 ZA4         0.0808
      8 C5          8.8940    8.1390   40.7590 C.2       1 ZA4         0.1758
      9 O6          8.0090    7.3230   40.7840 O.2       1 ZA4        -0.3895
     10 N4          9.3870    8.8160   39.5730 N.am      1 ZA4        -0.4411
     11 C3          8.7160    8.9280   38.2950 C.3       1 ZA4        -0.2415
     12 B           9.1300   10.2290   37.5270 B         1 ZA4         3.0000
     13 O1          9.0180   11.4190   38.4890 O.3       1 ZA4        -0.8710
     14 O2          8.2260   10.3940   36.2980 O.3       1 ZA4        -0.8710
     15 H          11.0164   10.4635   44.1615 H         1 ZA4         0.0616
     16 H          11.5141    8.3553   45.3450 H         1 ZA4         0.0642
     17 H          10.8978    6.1668   44.3444 H         1 ZA4         0.0595
     18 H           9.7176    6.1128   42.1591 H         1 ZA4         0.0659
     19 H          10.3025    9.2594   39.6481 H         1 ZA4         0.1451
     20 H           7.6418    8.9663   38.4762 H         1 ZA4        -0.1856
     21 H           8.9969    8.0687   37.6861 H         1 ZA4        -0.1856
     22 H           8.1108   11.4992   38.7927 H         1 ZA4        -0.1290
     23 H           8.3258    9.6310   35.7240 H         1 ZA4        -0.1290
@<TRIPOS>BOND
     1    1    2 1  
     2    2    3 ar 
     3    2    7 ar 
     4    3    4 ar 
     5    4    5 ar 
     6    5    6 ar 
     7    6    7 ar 
     8    7    8 1  
     9    8    9 2  
    10    8   10 am 
    11   10   11 1  
    12   11   12 1  
    13   12   13 1  
    14   12   14 1  
    15    3   15 1  
    16    4   16 1  
    17    5   17 1  
    18    6   18 1  
    19   10   19 1  
    20   11   20 1  
    21   11   21 1  
    22   13   22 1  
    23   14   23 1  
@<TRIPOS>SUBSTRUCTURE
     1 ZA4         1

