2y2j_ligand
  -I-interpret- 

 23 23  0  0  0  0  0  0  0  0999 V2000
    9.8710   10.6580   41.8750 F   0  0  0  0  0
   10.1010    9.4830   42.4860 C   0  0  0  0  0
   10.7360    9.5100   43.7140 C   0  0  0  0  0
   11.0160    8.3250   44.3760 C   0  0  0  0  0
   10.6690    7.0940   43.8190 C   0  0  0  0  0
   10.0300    7.0640   42.5900 C   0  0  0  0  0
    9.7900    8.2450   41.9120 C   0  0  0  0  0
    8.8940    8.1390   40.7590 C   0  0  0  0  0
    8.0090    7.3230   40.7840 O   0  0  0  0  0
    9.3870    8.8160   39.5730 N   0  0  0  0  0
    8.7160    8.9280   38.2950 C   0  0  0  0  0
    9.1300   10.2290   37.5270 B   0  0  0  0  0
    9.0180   11.4190   38.4890 O   0  0  0  0  0
    8.2260   10.3940   36.2980 O   0  0  0  0  0
   11.0164   10.4635   44.1615 H   0  0  0  0  0
   11.5141    8.3553   45.3450 H   0  0  0  0  0
   10.8978    6.1668   44.3444 H   0  0  0  0  0
    9.7176    6.1128   42.1591 H   0  0  0  0  0
   10.3025    9.2594   39.6481 H   0  0  0  0  0
    7.6418    8.9663   38.4762 H   0  0  0  0  0
    8.9969    8.0687   37.6861 H   0  0  0  0  0
    9.2692   12.2243   38.0307 H   0  0  0  0  0
    8.4754   11.1903   35.8233 H   0  0  0  0  0
  1  2  1  0  0  0
  2  3  4  0  0  0
  2  7  4  0  0  0
  3  4  4  0  0  0
  4  5  4  0  0  0
  5  6  4  0  0  0
  6  7  4  0  0  0
  7  8  1  0  0  0
  8  9  2  0  0  0
  8 10  1  0  0  0
 10 11  1  0  0  0
 11 12  1  0  0  0
 12 13  1  0  0  0
 12 14  1  0  0  0
  3 15  1  0  0  0
  4 16  1  0  0  0
  5 17  1  0  0  0
  6 18  1  0  0  0
 10 19  1  0  0  0
 11 20  1  0  0  0
 11 21  1  0  0  0
 13 22  1  0  0  0
 14 23  1  0  0  0
M  END
$$$$
