4g2w_ligand
  -I-interpret- 

 64 66  0  0  0  0  0  0  0  0999 V2000
   25.2740  -20.4470   22.7100 C   0  0  0  0  0
   23.9730  -21.1600   22.4980 C   0  0  0  0  0
   23.9090  -21.8460   21.2370 N   0  3  0  0  0
   23.4160  -23.2150   21.2580 C   0  0  0  0  0
   25.0440  -21.5520   20.4150 C   0  0  0  0  0
   26.3350  -21.8740   21.1040 C   0  0  0  0  0
   26.4370  -21.2250   22.3790 N   0  0  0  0  0
   27.9190  -20.6760   22.7910 S   0  0  0  0  0
   28.0710  -20.5790   24.2570 O   0  0  0  0  0
   28.9180  -21.5980   22.2020 O   0  0  0  0  0
   28.0580  -19.0290   22.1340 C   0  0  0  0  0
   28.3690  -18.8750   20.7700 C   0  0  0  0  0
   27.8430  -17.9220   22.9580 C   0  0  0  0  0
   27.9490  -16.6220   22.4100 C   0  0  0  0  0
   28.2580  -16.4580   21.0430 C   0  0  0  0  0
   28.3800  -15.1760   20.4820 O   0  0  0  0  0
   27.5360  -14.1100   20.8610 C   0  0  0  0  0
   27.8670  -12.7420   20.2900 C   0  0  0  0  0
   29.0630  -12.6440   19.3190 C   0  0  0  0  0
   28.4620  -17.5930   20.2330 C   0  0  0  0  0
   28.8330  -17.4900   18.7560 C   0  0  0  0  0
   28.1900  -18.2760   17.8700 N   0  0  0  0  0
   29.8250  -16.6580   18.3710 N   0  0  0  0  0
   30.1790  -16.5700   17.0490 C   0  0  0  0  0
   31.1870  -15.6950   16.6870 O   0  0  0  0  0
   29.5130  -17.3700   16.0870 C   0  0  0  0  0
   29.9060  -17.2930   14.5960 C   0  0  0  0  0
   31.0950  -18.1150   14.1860 C   0  0  0  0  0
   28.4900  -18.2530   16.5540 C   0  0  0  0  0
   27.6830  -19.1590   15.6430 C   0  0  0  0  0
   26.3560  -18.5030   15.2810 C   0  0  0  0  0
   25.3395  -20.2087   23.7716 H   0  0  0  0  0
   25.2732  -19.5769   22.0535 H   0  0  0  0  0
   23.1788  -20.4136   22.5111 H   0  0  0  0  0
   23.8695  -21.9047   23.2872 H   0  0  0  0  0
   23.1209  -21.4380   20.7343 H   0  0  0  0  0
   23.1205  -23.5089   20.2508 H   0  0  0  0  0
   24.2040  -23.8782   21.6149 H   0  0  0  0  0
   22.5555  -23.2798   21.9240 H   0  0  0  0  0
   25.0346  -20.4855   20.1900 H   0  0  0  0  0
   24.9782  -22.1604   19.5130 H   0  0  0  0  0
   27.1542  -21.5242   20.4758 H   0  0  0  0  0
   26.3774  -22.9513   21.2644 H   0  0  0  0  0
   28.5353  -19.7493   20.1407 H   0  0  0  0  0
   27.5964  -18.0581   24.0110 H   0  0  0  0  0
   27.7922  -15.7484   23.0428 H   0  0  0  0  0
   27.6372  -14.0166   21.9423 H   0  0  0  0  0
   26.5455  -14.3619   20.4822 H   0  0  0  0  0
   28.1340  -12.1236   21.1470 H   0  0  0  0  0
   26.9930  -12.4478   19.7089 H   0  0  0  0  0
   29.9699  -12.9713   19.8274 H   0  0  0  0  0
   28.8800  -13.2810   18.4537 H   0  0  0  0  0
   29.1807  -11.6107   18.9927 H   0  0  0  0  0
   31.3239  -15.7413   15.7379 H   0  0  0  0  0
   30.1705  -16.2535   14.4021 H   0  0  0  0  0
   29.0564  -17.6818   14.0347 H   0  0  0  0  0
   31.9707  -17.7905   14.7481 H   0  0  0  0  0
   30.8973  -19.1665   14.3941 H   0  0  0  0  0
   31.2765  -17.9822   13.1195 H   0  0  0  0  0
   27.4854  -20.0977   16.1605 H   0  0  0  0  0
   28.2500  -19.3404   14.7299 H   0  0  0  0  0
   25.7856  -18.3140   16.1904 H   0  0  0  0  0
   26.5462  -17.5606   14.7674 H   0  0  0  0  0
   25.7904  -19.1669   14.6272 H   0  0  0  0  0
  1  2  1  0  0  0
  1  7  1  0  0  0
  2  3  1  0  0  0
  3  4  1  0  0  0
  3  5  1  0  0  0
  5  6  1  0  0  0
  6  7  1  0  0  0
  7  8  1  0  0  0
  8  9  2  0  0  0
  8 10  2  0  0  0
  8 11  1  0  0  0
 11 12  4  0  0  0
 11 13  4  0  0  0
 12 20  4  0  0  0
 13 14  4  0  0  0
 14 15  4  0  0  0
 15 16  1  0  0  0
 15 20  4  0  0  0
 16 17  1  0  0  0
 17 18  1  0  0  0
 18 19  1  0  0  0
 20 21  1  0  0  0
 21 22  4  0  0  0
 21 23  4  0  0  0
 22 29  4  0  0  0
 23 24  4  0  0  0
 24 25  1  0  0  0
 24 26  4  0  0  0
 26 27  1  0  0  0
 26 29  4  0  0  0
 27 28  1  0  0  0
 29 30  1  0  0  0
 30 31  1  0  0  0
  1 32  1  0  0  0
  1 33  1  0  0  0
  2 34  1  0  0  0
  2 35  1  0  0  0
  3 36  1  0  0  0
  4 37  1  0  0  0
  4 38  1  0  0  0
  4 39  1  0  0  0
  5 40  1  0  0  0
  5 41  1  0  0  0
  6 42  1  0  0  0
  6 43  1  0  0  0
 12 44  1  0  0  0
 13 45  1  0  0  0
 14 46  1  0  0  0
 17 47  1  0  0  0
 17 48  1  0  0  0
 18 49  1  0  0  0
 18 50  1  0  0  0
 19 51  1  0  0  0
 19 52  1  0  0  0
 19 53  1  0  0  0
 25 54  1  0  0  0
 27 55  1  0  0  0
 27 56  1  0  0  0
 28 57  1  0  0  0
 28 58  1  0  0  0
 28 59  1  0  0  0
 30 60  1  0  0  0
 30 61  1  0  0  0
 31 62  1  0  0  0
 31 63  1  0  0  0
 31 64  1  0  0  0
M  END
$$$$
