4g90_ligand
  -I-interpret- 

 40 42  0  0  0  0  0  0  0  0999 V2000
   34.7790   -4.4180   12.4780 C   0  0  0  0  0
   35.8220   -4.2520   13.3750 C   0  0  0  0  0
   36.5390   -3.0690   13.3280 C   0  0  0  0  0
   37.0400   -0.9790   12.4450 C   0  0  0  0  0
   36.7230    0.4380   12.6640 C   0  0  0  0  0
   36.8410    1.1730   13.9310 C   0  0  0  0  0
   36.1880   -2.0880   12.4420 N   0  0  0  0  0
   34.4830   -3.4180   11.5870 N   0  0  0  0  0
   34.8580   -1.3830   10.7220 O   0  0  0  0  0
   35.1760   -2.2700   11.5450 C   0  0  0  0  0
   34.0460   -5.6030   12.5030 O   0  0  0  0  0
   36.1210   -5.1930   14.2360 F   0  0  0  0  0
   36.3940    1.3840   11.7060 N   0  0  0  0  0
   36.2550    2.5580   12.3010 N   0  0  0  0  0
   36.4910    2.4760   13.6070 N   0  0  0  0  0
   36.4840    3.5500   14.5910 C   0  0  0  0  0
   36.2700    4.7600   13.9330 O   0  0  0  0  0
   37.5410    5.2470   13.4370 C   0  0  0  0  0
   37.5050    6.7480   13.3070 C   0  0  0  0  0
   38.7990    7.2760   13.0500 O   0  0  0  0  0
   38.5940    4.6810   14.3990 C   0  0  0  0  0
   39.7130    4.1280   13.7250 O   0  0  0  0  0
   37.8380    3.6660   15.2830 C   0  0  0  0  0
   37.6350    4.1820   16.5900 O   0  0  0  0  0
   37.5394   -3.3702   13.0171 H   0  0  0  0  0
   36.3830   -2.6180   14.3080 H   0  0  0  0  0
   37.6377   -1.1891   13.3320 H   0  0  0  0  0
   37.3416   -0.9564   11.3978 H   0  0  0  0  0
   37.1366    0.7829   14.9049 H   0  0  0  0  0
   33.7103   -3.5516   10.9347 H   0  0  0  0  0
   33.3633   -5.5699   11.8289 H   0  0  0  0  0
   35.7053    3.3321   15.3219 H   0  0  0  0  0
   37.7866    4.9147   12.4284 H   0  0  0  0  0
   37.1388    7.1684   14.2436 H   0  0  0  0  0
   36.8526    7.0082   12.4735 H   0  0  0  0  0
   38.7440    8.2313   12.9725 H   0  0  0  0  0
   39.0411    5.4647   15.0106 H   0  0  0  0  0
   40.3385    3.7897   14.3699 H   0  0  0  0  0
   38.3772    2.7246   15.3884 H   0  0  0  0  0
   38.4810    4.2600   17.0370 H   0  0  0  0  0
  2  1  2  0  0  0
  1  8  1  0  0  0
  1 11  1  0  0  0
  3  2  1  0  0  0
  2 12  1  0  0  0
  7  3  1  0  0  0
  4  5  1  0  0  0
  4  7  1  0  0  0
  5  6  4  0  0  0
  5 13  4  0  0  0
  6 15  4  0  0  0
  7 10  1  0  0  0
  8 10  1  0  0  0
 10  9  2  0  0  0
 13 14  4  0  0  0
 14 15  4  0  0  0
 15 16  1  0  0  0
 16 17  1  0  0  0
 16 23  1  0  0  0
 17 18  1  0  0  0
 18 19  1  0  0  0
 18 21  1  0  0  0
 19 20  1  0  0  0
 21 22  1  0  0  0
 21 23  1  0  0  0
 23 24  1  0  0  0
  3 25  1  0  0  0
  3 26  1  0  0  0
  4 27  1  0  0  0
  4 28  1  0  0  0
  6 29  1  0  0  0
  8 30  1  0  0  0
 11 31  1  0  0  0
 16 32  1  0  0  0
 18 33  1  0  0  0
 19 34  1  0  0  0
 19 35  1  0  0  0
 20 36  1  0  0  0
 21 37  1  0  0  0
 22 38  1  0  0  0
 23 39  1  0  0  0
 24 40  1  0  0  0
M  END
$$$$
