6aad_ligand
  -I-interpret- 

 47 48  0  0  0  0  0  0  0  0999 V2000
   78.6630   25.9000   11.8840 C   0  0  0  0  0
   76.5750   25.0650   14.1420 C   0  0  0  0  0
   73.8930   25.5080   15.4430 C   0  0  0  0  0
   72.8910   27.8980   17.1840 C   0  0  0  0  0
   72.3550   28.8190   18.2880 C   0  0  0  0  0
   79.1120   26.0390    9.5010 C   0  0  0  0  0
   77.3800   29.9410    9.4840 N   0  0  0  0  0
   78.6160   30.0300    9.1600 N   0  0  0  0  0
   78.3670   29.5110   10.4970 C   0  0  0  0  0
   78.7080   30.3840   11.7040 C   0  0  0  0  0
   79.2400   29.7260   12.7550 F   0  0  0  0  0
   77.5980   31.0080   12.1070 F   0  0  0  0  0
   79.5690   31.3050   11.2720 F   0  0  0  0  0
   78.5880   28.0100   10.7030 C   0  0  0  0  0
   78.4530   27.2780   11.9130 C   0  0  0  0  0
   78.6570   24.8480   13.0280 C   0  0  0  0  0
   77.9770   25.1990   14.2530 O   0  0  0  0  0
   76.1270   23.9680   14.1500 O   0  0  0  0  0
   75.6430   26.1600   13.9720 N   0  0  0  0  0
   74.2340   25.7930   13.9980 C   0  0  0  0  0
   72.4580   25.8680   15.8090 C   0  0  0  0  0
   72.4600   26.4350   17.2310 C   0  0  0  0  0
   74.3710   28.0140   17.1860 N   0  3  0  0  0
   72.7540   28.6240   19.5770 O   0  0  0  0  0
   71.5270   29.8550   17.9390 O   0  0  0  0  0
   78.9960   25.3410   10.6780 C   0  0  0  0  0
   78.8940   27.3830    9.5400 C   0  0  0  0  0
   74.5523   26.1163   16.0622 H   0  0  0  0  0
   74.0141   24.4368   15.6039 H   0  0  0  0  0
   72.4394   28.2448   16.2545 H   0  0  0  0  0
   79.3693   25.5356    8.5691 H   0  0  0  0  0
   78.1911   27.7823   12.8431 H   0  0  0  0  0
   79.7024   24.7072   13.3027 H   0  0  0  0  0
   78.1206   23.9861   12.6312 H   0  0  0  0  0
   75.9524   27.1233   13.8428 H   0  0  0  0  0
   73.6134   26.5964   13.6011 H   0  0  0  0  0
   74.0458   24.9204   13.3725 H   0  0  0  0  0
   71.8231   24.9835   15.7573 H   0  0  0  0  0
   72.0651   26.6063   15.1099 H   0  0  0  0  0
   71.4594   26.3608   17.6569 H   0  0  0  0  0
   73.1541   25.8678   17.8511 H   0  0  0  0  0
   74.6337   28.9991   17.1542 H   0  0  0  0  0
   74.7430   27.5889   18.0353 H   0  0  0  0  0
   74.7496   27.5334   16.3698 H   0  0  0  0  0
   71.3606   29.8257   16.9940 H   0  0  0  0  0
   79.1818   24.2673   10.6510 H   0  0  0  0  0
   78.9667   27.9644    8.6209 H   0  0  0  0  0
  1 15  4  0  0  0
 16  1  1  0  0  0
  1 26  4  0  0  0
  2 17  1  0  0  0
  2 18  2  0  0  0
 19  2  1  0  0  0
  3 20  1  0  0  0
 21  3  1  0  0  0
  4  5  1  0  0  0
 22  4  1  0  0  0
  4 23  1  0  0  0
  5 24  2  0  0  0
  5 25  1  0  0  0
 26  6  4  0  0  0
  6 27  4  0  0  0
  8  7  2  0  0  0
  9  7  1  0  0  0
  9  8  1  0  0  0
  9 10  1  0  0  0
 14  9  1  0  0  0
 10 11  1  0  0  0
 10 12  1  0  0  0
 10 13  1  0  0  0
 15 14  4  0  0  0
 14 27  4  0  0  0
 17 16  1  0  0  0
 20 19  1  0  0  0
 21 22  1  0  0  0
  3 28  1  0  0  0
  3 29  1  0  0  0
  4 30  1  0  0  0
  6 31  1  0  0  0
 15 32  1  0  0  0
 16 33  1  0  0  0
 16 34  1  0  0  0
 19 35  1  0  0  0
 20 36  1  0  0  0
 20 37  1  0  0  0
 21 38  1  0  0  0
 21 39  1  0  0  0
 22 40  1  0  0  0
 22 41  1  0  0  0
 23 42  1  0  0  0
 23 43  1  0  0  0
 23 44  1  0  0  0
 25 45  1  0  0  0
 26 46  1  0  0  0
 27 47  1  0  0  0
M  END
$$$$
