5zms_ligand
  -I-interpret- 

 95 95  0  0  0  0  0  0  0  0999 V2000
   -5.2360   32.6730  -10.6000 C   0  0  0  0  0
   -4.3520   34.7680   -4.7520 N   0  0  0  0  0
   -5.6380   30.4300   -9.8340 O   0  0  0  0  0
   -5.7660   31.2400  -10.7500 C   0  0  0  0  0
   -2.6900   36.3810   -4.5630 N   0  0  0  0  0
   -5.3160   33.0600   -9.2650 C   0  0  0  0  0
   -4.5020   36.7420   -5.9740 N   0  0  0  0  0
   -4.2140   32.9340   -8.4230 C   0  0  0  0  0
   -6.5090   33.5750   -8.7720 C   0  0  0  0  0
   -4.3070   33.3180   -7.0890 C   0  0  0  0  0
   -5.5010   33.8350   -6.5970 C   0  0  0  0  0
   -6.6000   33.9600   -7.4400 C   0  0  0  0  0
   -5.6180   34.2230   -5.2660 C   0  0  0  0  0
   -3.8500   35.9640   -5.0960 C   0  0  0  0  0
   -6.3520   30.9690  -11.9340 N   0  0  0  0  0
   -6.9270   29.6540  -12.2920 C   0  0  0  0  0
   -5.8430   28.5810  -12.1770 C   0  0  0  0  0
   -6.0920   27.4490  -11.7670 O   0  0  0  0  0
   -8.1020   29.3340  -11.3670 C   0  0  0  0  0
   -9.0750   30.5160  -11.3570 C   0  0  0  0  0
   -9.5090   30.8400  -12.7880 C   0  0  0  0  0
  -10.5310   29.8080  -13.2590 C   0  0  0  0  0
  -10.7990   29.9550  -14.6960 N   0  3  0  0  0
   -4.6380   29.0060  -12.5710 N   0  0  0  0  0
   -3.4040   28.2140  -12.5180 C   0  0  0  0  0
   -2.3760   29.1690  -11.9050 C   0  0  0  0  0
   -2.3590   30.3420  -12.2730 O   0  0  0  0  0
   -2.9540   27.8460  -13.9340 C   0  0  0  0  0
   -4.0770   27.1650  -14.7240 C   0  0  0  0  0
   -3.7430   27.2280  -16.2180 C   0  0  0  0  0
   -4.7080   26.3410  -17.0070 C   0  0  0  0  0
   -4.5880   26.5870  -18.4520 N   0  3  0  0  0
   -1.5480   28.7100  -10.9490 N   0  0  0  0  0
   -1.4750   27.3370  -10.4340 C   0  0  0  0  0
   -2.4660   27.1220   -9.2720 C   0  0  0  0  0
   -2.0720   27.9240   -8.0290 C   0  0  0  0  0
   -2.7660   29.2810   -8.0160 C   0  0  0  0  0
   -3.3480   29.4870   -6.6850 N   0  0  0  0  0
   -4.5970   29.9120   -6.4900 C   0  0  0  0  0
   -5.0700   30.0740   -5.2500 N   0  0  0  0  0
   -5.3700   30.1810   -7.5460 N   0  0  0  0  0
   -0.0200   27.1130   -9.9880 C   0  0  0  0  0
    0.8560   27.7380  -10.6210 O   0  0  0  0  0
    0.1990   26.3130   -9.0530 O   0  0  0  0  0
   -5.8358   33.3480  -11.2105 H   0  0  0  0  0
   -4.1973   32.7124  -10.9281 H   0  0  0  0  0
   -3.8214   34.2001   -4.0914 H   0  0  0  0  0
   -2.3051   37.2884   -4.8255 H   0  0  0  0  0
   -2.1939   35.7903   -3.8957 H   0  0  0  0  0
   -4.1164   37.6492   -6.2360 H   0  0  0  0  0
   -3.2768   32.5338   -8.8098 H   0  0  0  0  0
   -7.3724   33.6768   -9.4295 H   0  0  0  0  0
   -3.4450   33.2138   -6.4300 H   0  0  0  0  0
   -7.5369   34.3618   -7.0541 H   0  0  0  0  0
   -6.3815   34.9979   -5.1974 H   0  0  0  0  0
   -5.8843   33.3482   -4.6728 H   0  0  0  0  0
   -6.4018   31.7172  -12.6255 H   0  0  0  0  0
   -7.2933   29.6782  -13.3183 H   0  0  0  0  0
   -7.7331   29.1566  -10.3568 H   0  0  0  0  0
   -8.6156   28.4418  -11.7251 H   0  0  0  0  0
   -8.5817   31.3860  -10.9237 H   0  0  0  0  0
   -9.9519   30.2567  -10.7638 H   0  0  0  0  0
   -8.6395   30.8147  -13.4448 H   0  0  0  0  0
   -9.9581   31.8328  -12.8144 H   0  0  0  0  0
  -11.4611   29.9599  -12.7113 H   0  0  0  0  0
  -10.1317   28.8103  -13.0768 H   0  0  0  0  0
  -11.4831   29.2563  -14.9863 H   0  0  0  0  0
  -11.1667   30.8888  -14.8783 H   0  0  0  0  0
   -9.9327   29.8216  -15.2176 H   0  0  0  0  0
   -4.5714   29.9556  -12.9373 H   0  0  0  0  0
   -3.5286   27.2886  -11.9557 H   0  0  0  0  0
   -2.1160   27.1529  -13.8598 H   0  0  0  0  0
   -2.6729   28.7614  -14.4547 H   0  0  0  0  0
   -5.0213   27.6759  -14.5361 H   0  0  0  0  0
   -4.1689   26.1250  -14.4109 H   0  0  0  0  0
   -2.7233   26.8754  -16.3729 H   0  0  0  0  0
   -3.8375   28.2574  -16.5638 H   0  0  0  0  0
   -5.7273   26.5706  -16.6966 H   0  0  0  0  0
   -4.4652   25.2971  -16.8086 H   0  0  0  0  0
   -5.2405   25.9845  -18.9536 H   0  0  0  0  0
   -4.8057   27.5639  -18.6486 H   0  0  0  0  0
   -3.6349   26.3826  -18.7525 H   0  0  0  0  0
   -0.9038   29.3864  -10.5393 H   0  0  0  0  0
   -1.7562   26.6163  -11.2019 H   0  0  0  0  0
   -2.4619   26.0637   -9.0111 H   0  0  0  0  0
   -3.4510   27.4573   -9.5967 H   0  0  0  0  0
   -0.9935   28.0815   -8.0404 H   0  0  0  0  0
   -2.3737   27.3671   -7.1419 H   0  0  0  0  0
   -3.5481   29.3087   -8.7748 H   0  0  0  0  0
   -2.0479   30.0707   -8.2367 H   0  0  0  0  0
   -2.7683   29.2956   -5.8679 H   0  0  0  0  0
   -6.0245   30.4042   -5.1073 H   0  0  0  0  0
   -4.4764   29.8674   -4.4467 H   0  0  0  0  0
   -5.0034   30.0608   -8.4902 H   0  0  0  0  0
   -0.6349   25.9632   -8.7307 H   0  0  0  0  0
  1  4  1  0  0  0
  6  1  1  0  0  0
 13  2  1  0  0  0
  2 14  1  0  0  0
  4  3  2  0  0  0
  4 15  1  0  0  0
 14  5  1  0  0  0
  8  6  4  0  0  0
  9  6  4  0  0  0
 14  7  2  0  0  0
 10  8  4  0  0  0
 12  9  4  0  0  0
 11 10  4  0  0  0
 11 12  4  0  0  0
 11 13  1  0  0  0
 15 16  1  0  0  0
 16 17  1  0  0  0
 16 19  1  0  0  0
 17 18  2  0  0  0
 17 24  1  0  0  0
 19 20  1  0  0  0
 20 21  1  0  0  0
 21 22  1  0  0  0
 22 23  1  0  0  0
 24 25  1  0  0  0
 25 26  1  0  0  0
 25 28  1  0  0  0
 26 27  2  0  0  0
 26 33  1  0  0  0
 28 29  1  0  0  0
 29 30  1  0  0  0
 30 31  1  0  0  0
 31 32  1  0  0  0
 33 34  1  0  0  0
 34 35  1  0  0  0
 34 42  1  0  0  0
 35 36  1  0  0  0
 36 37  1  0  0  0
 37 38  1  0  0  0
 38 39  1  0  0  0
 39 40  1  0  0  0
 39 41  2  0  0  0
 42 43  2  0  0  0
 42 44  1  0  0  0
  1 45  1  0  0  0
  1 46  1  0  0  0
  2 47  1  0  0  0
  5 48  1  0  0  0
  5 49  1  0  0  0
  7 50  1  0  0  0
  8 51  1  0  0  0
  9 52  1  0  0  0
 10 53  1  0  0  0
 12 54  1  0  0  0
 13 55  1  0  0  0
 13 56  1  0  0  0
 15 57  1  0  0  0
 16 58  1  0  0  0
 19 59  1  0  0  0
 19 60  1  0  0  0
 20 61  1  0  0  0
 20 62  1  0  0  0
 21 63  1  0  0  0
 21 64  1  0  0  0
 22 65  1  0  0  0
 22 66  1  0  0  0
 23 67  1  0  0  0
 23 68  1  0  0  0
 23 69  1  0  0  0
 24 70  1  0  0  0
 25 71  1  0  0  0
 28 72  1  0  0  0
 28 73  1  0  0  0
 29 74  1  0  0  0
 29 75  1  0  0  0
 30 76  1  0  0  0
 30 77  1  0  0  0
 31 78  1  0  0  0
 31 79  1  0  0  0
 32 80  1  0  0  0
 32 81  1  0  0  0
 32 82  1  0  0  0
 33 83  1  0  0  0
 34 84  1  0  0  0
 35 85  1  0  0  0
 35 86  1  0  0  0
 36 87  1  0  0  0
 36 88  1  0  0  0
 37 89  1  0  0  0
 37 90  1  0  0  0
 38 91  1  0  0  0
 40 92  1  0  0  0
 40 93  1  0  0  0
 41 94  1  0  0  0
 44 95  1  0  0  0
M  END
$$$$
