### 
### Created by X-TOOL on Wed Jan  1 15:39:37 2020
### 

@<TRIPOS>MOLECULE
5zms_ligand
   96    96     1     0     0
SMALL
GAST_HUCK


@<TRIPOS>ATOM
      1 C1         -5.2360   32.6730  -10.6000 C.3       1 2UE         0.0674
      2 N1         -4.3520   34.7680   -4.7520 N.pl3     1 2UE        -0.2619
      3 O1         -5.6380   30.4300   -9.8340 O.2       1 2UE        -0.3942
      4 C2         -5.7660   31.2400  -10.7500 C.2       1 2UE         0.1887
      5 N2         -2.6900   36.3810   -4.5630 N.pl3     1 2UE        -0.2847
      6 C3         -5.3160   33.0600   -9.2650 C.ar      1 2UE        -0.0310
      7 N3         -4.5020   36.7420   -5.9740 N.pl3     1 2UE        -0.2847
      8 C4         -4.2140   32.9340   -8.4230 C.ar      1 2UE        -0.0643
      9 C5         -6.5090   33.5750   -8.7720 C.ar      1 2UE        -0.0643
     10 C6         -4.3070   33.3180   -7.0890 C.ar      1 2UE        -0.0631
     11 C7         -5.5010   33.8350   -6.5970 C.ar      1 2UE        -0.0134
     12 C8         -6.6000   33.9600   -7.4400 C.ar      1 2UE        -0.0631
     13 C9         -5.6180   34.2230   -5.2660 C.3       1 2UE         0.0933
     14 C10        -3.8500   35.9640   -5.0960 C.cat     1 2UE         0.2900
     15 N          -6.3520   30.9690  -11.9340 N.am      1 DLY        -0.2641
     16 CA         -6.9270   29.6540  -12.2920 C.3       1 DLY         0.1310
     17 C          -5.8430   28.5810  -12.1770 C.2       1 DLY         0.2039
     18 O          -6.0920   27.4490  -11.7670 O.2       1 DLY        -0.3944
     19 CB         -8.1020   29.3340  -11.3670 C.3       1 DLY        -0.0122
     20 CG         -9.0750   30.5160  -11.3570 C.3       1 DLY        -0.0440
     21 CD         -9.5090   30.8400  -12.7880 C.3       1 DLY        -0.0124
     22 CE        -10.5310   29.8080  -13.2590 C.3       1 DLY        -0.0354
     23 NZ        -10.7990   29.9550  -14.6960 N.4       1 DLY         0.2185
     24 N          -4.6380   29.0060  -12.5710 N.am      1 LYS        -0.2637
     25 CA         -3.4040   28.2140  -12.5180 C.3       1 LYS         0.1309
     26 C          -2.3760   29.1690  -11.9050 C.2       1 LYS         0.2033
     27 O          -2.3590   30.3420  -12.2730 O.2       1 LYS        -0.3944
     28 CB         -2.9540   27.8460  -13.9340 C.3       1 LYS        -0.0122
     29 CG         -4.0770   27.1650  -14.7240 C.3       1 LYS        -0.0440
     30 CD         -3.7430   27.2280  -16.2180 C.3       1 LYS        -0.0124
     31 CE         -4.7080   26.3410  -17.0070 C.3       1 LYS        -0.0354
     32 NZ         -4.5880   26.5870  -18.4520 N.4       1 LYS         0.2185
     33 N          -1.5480   28.7100  -10.9490 N.am      1 DAR        -0.2695
     34 CA         -1.4750   27.3370  -10.4340 C.3       1 DAR         0.0945
     35 CB         -2.4660   27.1220   -9.2720 C.3       1 DAR        -0.0148
     36 CG         -2.0720   27.9240   -8.0290 C.3       1 DAR        -0.0162
     37 CD         -2.7660   29.2810   -8.0160 C.3       1 DAR         0.0627
     38 NE         -3.3480   29.4870   -6.6850 N.pl3     1 DAR        -0.2723
     39 CZ         -4.5970   29.9120   -6.4900 C.cat     1 DAR         0.2882
     40 NH1        -5.0700   30.0740   -5.2500 N.pl3     1 DAR        -0.2849
     41 NH2        -5.3700   30.1810   -7.5460 N.pl3     1 DAR        -0.2849
     42 C          -0.0200   27.1130   -9.9880 C.2       1 DAR         0.0601
     43 O           0.8560   27.7380  -10.6210 O.co2     1 DAR        -0.5666
     44 OXT         0.1990   26.3130   -9.0530 O.co2     1 DAR        -0.5666
     45 H1         -5.8413   33.3542  -11.2161 H         1 2UE         0.0646
     46 H2         -4.1878   32.7128  -10.9311 H         1 2UE         0.0646
     47 H3         -3.8162   34.1945   -4.0849 H         1 2UE         0.2664
     48 H4         -2.3029   37.2987   -4.8257 H         1 2UE         0.2615
     49 H5         -2.1874   35.7832   -3.8915 H         1 2UE         0.2615
     50 H6         -5.3917   36.4229   -6.3833 H         1 2UE         0.2615
     51 H7         -4.1127   37.6581   -6.2386 H         1 2UE         0.2615
     52 H8         -3.2820   32.5360   -8.8077 H         1 2UE         0.0544
     53 H9         -7.3676   33.6762   -9.4259 H         1 2UE         0.0544
     54 H10        -3.4498   33.2144   -6.4336 H         1 2UE         0.0542
     55 H11        -7.5317   34.3596   -7.0562 H         1 2UE         0.0542
     56 H12        -6.3984   34.9940   -5.1854 H         1 2UE         0.0842
     57 H13        -5.9025   33.3487   -4.6622 H         1 2UE         0.0842
     58 H14        -6.4008   31.7025  -12.6119 H         1 DLY         0.1884
     59 H15        -7.2892   29.6881  -13.3301 H         1 DLY         0.0800
     60 H16        -7.7292   29.1565  -10.3475 H         1 DLY         0.0312
     61 H17        -8.6207   28.4343  -11.7297 H         1 DLY         0.0312
     62 H18        -8.5789   31.3941  -10.9179 H         1 DLY         0.0269
     63 H19        -9.9595   30.2563  -10.7568 H         1 DLY         0.0269
     64 H20        -8.6317   30.8155  -13.4511 H         1 DLY         0.0317
     65 H21        -9.9615   31.8422  -12.8154 H         1 DLY         0.0317
     66 H22       -11.4686   29.9489  -12.7014 H         1 DLY         0.0813
     67 H23       -10.1384   28.7985  -13.0671 H         1 DLY         0.0813
     68 H24       -11.4750   29.2649  -14.9840 H         1 DLY         0.1994
     69 H25        -9.9435   29.8233  -15.2126 H         1 DLY         0.1994
     70 H26       -11.1625   30.8775  -14.8774 H         1 DLY         0.1994
     71 H27        -4.5727   29.9370  -12.9301 H         1 LYS         0.1883
     72 H28        -3.5331   27.3083  -11.9073 H         1 LYS         0.0800
     73 H29        -2.0966   27.1600  -13.8691 H         1 LYS         0.0312
     74 H30        -2.6513   28.7624  -14.4618 H         1 LYS         0.0312
     75 H31        -5.0280   27.6849  -14.5363 H         1 LYS         0.0269
     76 H32        -4.1650   26.1146  -14.4095 H         1 LYS         0.0269
     77 H33        -2.7128   26.8764  -16.3763 H         1 LYS         0.0317
     78 H34        -3.8338   28.2668  -16.5682 H         1 LYS         0.0317
     79 H35        -5.7383   26.5589  -16.6894 H         1 LYS         0.0813
     80 H36        -4.4763   25.2855  -16.8014 H         1 LYS         0.0813
     81 H37        -5.2324   25.9920  -18.9488 H         1 LYS         0.1994
     82 H38        -3.6465   26.3853  -18.7501 H         1 LYS         0.1994
     83 H39        -4.8029   27.5522  -18.6475 H         1 LYS         0.1994
     84 H40        -0.9164   29.3732  -10.5473 H         1 DAR         0.1875
     85 H41        -1.7232   26.6297  -11.2390 H         1 DAR         0.0726
     86 H42        -2.4848   26.0529   -9.0140 H         1 DAR         0.0307
     87 H43        -3.4683   27.4386   -9.5963 H         1 DAR         0.0307
     88 H44        -0.9826   28.0764   -8.0289 H         1 DAR         0.0301
     89 H45        -2.3637   27.3615   -7.1298 H         1 DAR         0.0301
     90 H46        -3.5605   29.3000   -8.7765 H         1 DAR         0.0689
     91 H47        -2.0351   30.0749   -8.2294 H         1 DAR         0.0689
     92 H48        -2.7626   29.2937   -5.8599 H         1 DAR         0.2642
     93 H49        -6.0355   30.4025   -5.1059 H         1 DAR         0.2615
     94 H50        -4.4689   29.8703   -4.4388 H         1 DAR         0.2615
     95 H51        -5.0015   30.0548   -8.4995 H         1 DAR         0.2615
     96 H52        -6.3345   30.5146   -7.4066 H         1 DAR         0.2615
@<TRIPOS>BOND
     1    1    4 1  
     2    6    1 1  
     3   13    2 1  
     4    2   14 ar 
     5    4    3 2  
     6    4   15 am 
     7   14    5 ar 
     8    8    6 ar 
     9    9    6 ar 
    10   14    7 ar 
    11   10    8 ar 
    12   12    9 ar 
    13   11   10 ar 
    14   11   12 ar 
    15   11   13 1  
    16   15   16 1  
    17   16   17 1  
    18   16   19 1  
    19   17   18 2  
    20   17   24 am 
    21   19   20 1  
    22   20   21 1  
    23   21   22 1  
    24   22   23 1  
    25   24   25 1  
    26   25   26 1  
    27   25   28 1  
    28   26   27 2  
    29   26   33 am 
    30   28   29 1  
    31   29   30 1  
    32   30   31 1  
    33   31   32 1  
    34   33   34 1  
    35   34   35 1  
    36   34   42 1  
    37   35   36 1  
    38   36   37 1  
    39   37   38 1  
    40   38   39 ar 
    41   39   40 ar 
    42   39   41 ar 
    43   42   43 ar 
    44   42   44 ar 
    45    1   45 1  
    46    1   46 1  
    47    2   47 1  
    48    5   48 1  
    49    5   49 1  
    50    7   50 1  
    51    7   51 1  
    52    8   52 1  
    53    9   53 1  
    54   10   54 1  
    55   12   55 1  
    56   13   56 1  
    57   13   57 1  
    58   15   58 1  
    59   16   59 1  
    60   19   60 1  
    61   19   61 1  
    62   20   62 1  
    63   20   63 1  
    64   21   64 1  
    65   21   65 1  
    66   22   66 1  
    67   22   67 1  
    68   23   68 1  
    69   23   69 1  
    70   23   70 1  
    71   24   71 1  
    72   25   72 1  
    73   28   73 1  
    74   28   74 1  
    75   29   75 1  
    76   29   76 1  
    77   30   77 1  
    78   30   78 1  
    79   31   79 1  
    80   31   80 1  
    81   32   81 1  
    82   32   82 1  
    83   32   83 1  
    84   33   84 1  
    85   34   85 1  
    86   35   86 1  
    87   35   87 1  
    88   36   88 1  
    89   36   89 1  
    90   37   90 1  
    91   37   91 1  
    92   38   92 1  
    93   40   93 1  
    94   40   94 1  
    95   41   95 1  
    96   41   96 1  
@<TRIPOS>SUBSTRUCTURE
     1 2UE         1

