### 
### Created by X-TOOL on Mon Sep 10 21:13:30 2018
### 

@<TRIPOS>MOLECULE
5n2x_ligand
   64    64     1     0     0
SMALL
GAST_HUCK


@<TRIPOS>ATOM
      1 C10         8.1470   44.3850   -1.5530 C.3       1 8KN        -0.0352
      2 C11         8.3960   42.6610   -5.5430 C.2       1 8KN         0.0601
      3 C12        12.1430   40.0590   -6.8560 C.3       1 8KN         0.1132
      4 C13        12.7970   40.3930   -9.2290 C.2       1 8KN         0.3229
      5 C14        13.7890   40.3440  -11.4120 C.3       1 8KN         0.1113
      6 C15        15.3030   40.5170  -11.5300 C.ar      1 8KN        -0.0130
      7 C16        15.9970   39.9130  -12.5760 C.ar      1 8KN        -0.0578
      8 C19        17.3820   41.4010  -10.7100 C.ar      1 8KN        -0.0685
      9 C20        16.0150   41.2480  -10.5950 C.ar      1 8KN        -0.0578
     10 O01        10.1200   38.2090   -6.5570 O.co2     1 8KN        -0.6057
     11 P01        11.4750   38.5910   -5.9930 P.3       1 8KN         0.0870
     12 N01        11.2320   39.1090   -4.4140 N.am      1 8KN        -0.2736
     13 C01        10.0960   38.6420   -3.6280 C.3       1 8KN         0.1229
     14 C02        10.4510   38.7110   -2.1420 C.3       1 8KN        -0.0136
     15 C03         9.3860   38.1610   -1.2030 C.3       1 8KN        -0.0429
     16 C04         9.2410   36.6450   -1.3330 C.3       1 8KN        -0.0625
     17 C05         9.6720   38.5720    0.2320 C.3       1 8KN        -0.0625
     18 C06         8.8450   39.4550   -3.8880 C.2       1 8KN         0.1994
     19 N02         9.0950   40.8130   -4.1480 N.am      1 8KN        -0.2698
     20 C07         8.0060   41.7280   -4.4090 C.3       1 8KN         0.0945
     21 O02         7.5020   43.4150   -6.0090 O.co2     1 8KN        -0.5666
     22 O03         9.5840   42.6530   -5.9800 O.co2     1 8KN        -0.5666
     23 O04         7.7340   39.0030   -3.8460 O.2       1 8KN        -0.3949
     24 O05        12.4390   37.4370   -6.1230 O.co2     1 8KN        -0.6057
     25 N04        12.7810   39.6140   -8.0530 N.am      1 8KN        -0.2448
     26 O06        13.4660   39.6900  -10.2160 O.3       1 8KN        -0.2506
     27 C17        17.3780   40.0530  -12.6950 C.ar      1 8KN        -0.0685
     28 C18        18.0770   40.8160  -11.7650 C.ar      1 8KN        -0.0687
     29 O07        12.3320   41.4820   -9.3300 O.2       1 8KN        -0.3774
     30 C08         7.6070   42.4940   -3.1410 C.3       1 8KN        -0.0131
     31 C09         8.6540   43.5270   -2.7260 C.3       1 8KN        -0.0090
     32 N03         8.9960   45.5680   -1.3340 N.4       1 8KN         0.2185
     33 H1          8.1460   43.7733   -0.6388 H         1 8KN         0.0813
     34 H2          7.1219   44.7181   -1.7725 H         1 8KN         0.0813
     35 H3         12.8732   40.5707   -6.2118 H         1 8KN         0.0743
     36 H4         11.3246   40.7508   -7.1041 H         1 8KN         0.0743
     37 H5         13.4246   39.7477  -12.2614 H         1 8KN         0.0776
     38 H6         13.3086   41.3334  -11.4257 H         1 8KN         0.0776
     39 H7         15.4546   39.3255  -13.3080 H         1 8KN         0.0557
     40 H8         17.9203   41.9830   -9.9707 H         1 8KN         0.0599
     41 H9         15.4930   41.7058   -9.7625 H         1 8KN         0.0557
     42 H10        11.8799   39.7511   -4.0043 H         1 8KN         0.1669
     43 H11         9.8919   37.5956   -3.8991 H         1 8KN         0.0753
     44 H12        10.6255   39.7652   -1.8808 H         1 8KN         0.0311
     45 H13        11.3755   38.1362   -1.9843 H         1 8KN         0.0311
     46 H14         8.4243   38.6095   -1.4927 H         1 8KN         0.0298
     47 H15         8.4641   36.2902   -0.6397 H         1 8KN         0.0232
     48 H16        10.1988   36.1627   -1.0882 H         1 8KN         0.0232
     49 H17         8.9556   36.3910   -2.3645 H         1 8KN         0.0232
     50 H18         9.7699   39.6662    0.2874 H         1 8KN         0.0232
     51 H19        10.6083   38.1027    0.5682 H         1 8KN         0.0232
     52 H20         8.8448   38.2447    0.8790 H         1 8KN         0.0232
     53 H21        10.0363   41.1505   -4.1526 H         1 8KN         0.1875
     54 H22         7.1337   41.1419   -4.7338 H         1 8KN         0.0726
     55 H23        13.2312   38.7211   -8.0580 H         1 8KN         0.1884
     56 H24        17.9058   39.5694  -13.5090 H         1 8KN         0.0599
     57 H25        19.1480   40.9531  -11.8605 H         1 8KN         0.0559
     58 H26         7.4778   41.7736   -2.3199 H         1 8KN         0.0307
     59 H27         6.6549   43.0124   -3.3272 H         1 8KN         0.0307
     60 H28         9.5725   43.0051   -2.4194 H         1 8KN         0.0319
     61 H29         8.8727   44.1817   -3.5825 H         1 8KN         0.0319
     62 H30         8.6335   46.1032   -0.5605 H         1 8KN         0.1994
     63 H31         8.9986   46.1382   -2.1652 H         1 8KN         0.1994
     64 H32         9.9370   45.2725   -1.1263 H         1 8KN         0.1994
@<TRIPOS>BOND
     1   31    1 1  
     2    1   32 1  
     3   20    2 1  
     4    2   21 ar 
     5    2   22 ar 
     6   11    3 1  
     7    3   25 1  
     8   25    4 am 
     9    4   26 1  
    10    4   29 2  
    11    5    6 1  
    12   26    5 1  
    13    6    7 ar 
    14    6    9 ar 
    15    7   27 ar 
    16    9    8 ar 
    17    8   28 ar 
    18   11   10 ar 
    19   12   11 am 
    20   11   24 ar 
    21   13   12 1  
    22   13   14 1  
    23   18   13 1  
    24   14   15 1  
    25   15   16 1  
    26   15   17 1  
    27   19   18 am 
    28   18   23 2  
    29   20   19 1  
    30   30   20 1  
    31   27   28 ar 
    32   30   31 1  
    33    1   33 1  
    34    1   34 1  
    35    3   35 1  
    36    3   36 1  
    37    5   37 1  
    38    5   38 1  
    39    7   39 1  
    40    8   40 1  
    41    9   41 1  
    42   12   42 1  
    43   13   43 1  
    44   14   44 1  
    45   14   45 1  
    46   15   46 1  
    47   16   47 1  
    48   16   48 1  
    49   16   49 1  
    50   17   50 1  
    51   17   51 1  
    52   17   52 1  
    53   19   53 1  
    54   20   54 1  
    55   25   55 1  
    56   27   56 1  
    57   28   57 1  
    58   30   58 1  
    59   30   59 1  
    60   31   60 1  
    61   31   61 1  
    62   32   62 1  
    63   32   63 1  
    64   32   64 1  
@<TRIPOS>SUBSTRUCTURE
     1 8KN         1

