5n2x_ligand
  -I-interpret- 

 66 66  0  0  0  0  0  0  0  0999 V2000
    8.1470   44.3850   -1.5530 C   0  0  0  0  0
    8.3960   42.6610   -5.5430 C   0  0  0  0  0
   12.1430   40.0590   -6.8560 C   0  0  0  0  0
   12.7970   40.3930   -9.2290 C   0  0  0  0  0
   13.7890   40.3440  -11.4120 C   0  0  0  0  0
   15.3030   40.5170  -11.5300 C   0  0  0  0  0
   15.9970   39.9130  -12.5760 C   0  0  0  0  0
   17.3820   41.4010  -10.7100 C   0  0  0  0  0
   16.0150   41.2480  -10.5950 C   0  0  0  0  0
   10.1200   38.2090   -6.5570 O   0  0  0  0  0
   11.4750   38.5910   -5.9930 P   0  0  0  0  0
   11.2320   39.1090   -4.4140 N   0  0  0  0  0
   10.0960   38.6420   -3.6280 C   0  0  0  0  0
   10.4510   38.7110   -2.1420 C   0  0  0  0  0
    9.3860   38.1610   -1.2030 C   0  0  0  0  0
    9.2410   36.6450   -1.3330 C   0  0  0  0  0
    9.6720   38.5720    0.2320 C   0  0  0  0  0
    8.8450   39.4550   -3.8880 C   0  0  0  0  0
    9.0950   40.8130   -4.1480 N   0  0  0  0  0
    8.0060   41.7280   -4.4090 C   0  0  0  0  0
    7.5020   43.4150   -6.0090 O   0  0  0  0  0
    9.5840   42.6530   -5.9800 O   0  0  0  0  0
    7.7340   39.0030   -3.8460 O   0  0  0  0  0
   12.4390   37.4370   -6.1230 O   0  0  0  0  0
   12.7810   39.6140   -8.0530 N   0  0  0  0  0
   13.4660   39.6900  -10.2160 O   0  0  0  0  0
   17.3780   40.0530  -12.6950 C   0  0  0  0  0
   18.0770   40.8160  -11.7650 C   0  0  0  0  0
   12.3320   41.4820   -9.3300 O   0  0  0  0  0
    7.6070   42.4940   -3.1410 C   0  0  0  0  0
    8.6540   43.5270   -2.7260 C   0  0  0  0  0
    8.9960   45.5680   -1.3340 N   0  3  0  0  0
    8.1678   43.7762   -0.6491 H   0  0  0  0  0
    7.1387   44.7257   -1.7884 H   0  0  0  0  0
   12.8585   40.5779   -6.2181 H   0  0  0  0  0
   11.3384   40.7547   -7.0941 H   0  0  0  0  0
   13.4326   39.7470  -12.2515 H   0  0  0  0  0
   13.3170   41.3265  -11.4190 H   0  0  0  0  0
   15.4516   39.3223  -13.3120 H   0  0  0  0  0
   17.9233   41.9863   -9.9667 H   0  0  0  0  0
   15.4901   41.7083   -9.7579 H   0  0  0  0  0
    9.5170   38.9507   -6.4683 H   0  0  0  0  0
   11.8929   39.7640   -3.9961 H   0  0  0  0  0
    9.8852   37.6147   -3.9251 H   0  0  0  0  0
   10.5752   39.7655   -1.8956 H   0  0  0  0  0
   11.3422   38.0994   -2.0015 H   0  0  0  0  0
    8.4300   38.5954   -1.4954 H   0  0  0  0  0
    8.9582   36.3947   -2.3555 H   0  0  0  0  0
   10.1907   36.1683   -1.0903 H   0  0  0  0  0
    8.4710   36.2947   -0.6456 H   0  0  0  0  0
   10.6442   38.1819    0.5334 H   0  0  0  0  0
    9.6777   39.6597    0.3028 H   0  0  0  0  0
    8.8986   38.1681    0.8853 H   0  0  0  0  0
   10.0552   41.1572   -4.1527 H   0  0  0  0  0
    7.1253   41.1634   -4.7152 H   0  0  0  0  0
   10.1000   42.0091   -5.4893 H   0  0  0  0  0
   13.2402   38.7032   -8.0581 H   0  0  0  0  0
   17.9087   39.5667  -13.5135 H   0  0  0  0  0
   19.1540   40.9539  -11.8611 H   0  0  0  0  0
    7.5073   41.7724   -2.3301 H   0  0  0  0  0
    6.6765   43.0230   -3.3470 H   0  0  0  0  0
    9.5568   43.0033   -2.4118 H   0  0  0  0  0
    8.8570   44.1799   -3.5749 H   0  0  0  0  0
    8.6283   46.1087   -0.5512 H   0  0  0  0  0
    9.9479   45.2677   -1.1240 H   0  0  0  0  0
    8.9979   46.1442   -2.1757 H   0  0  0  0  0
 31  1  1  0  0  0
  1 32  1  0  0  0
 20  2  1  0  0  0
  2 21  2  0  0  0
  2 22  1  0  0  0
 11  3  1  0  0  0
  3 25  1  0  0  0
 25  4  1  0  0  0
  4 26  1  0  0  0
  4 29  2  0  0  0
  5  6  1  0  0  0
 26  5  1  0  0  0
  6  7  4  0  0  0
  6  9  4  0  0  0
  7 27  4  0  0  0
  9  8  4  0  0  0
  8 28  4  0  0  0
 11 10  1  0  0  0
 12 11  1  0  0  0
 11 24  2  0  0  0
 13 12  1  0  0  0
 13 14  1  0  0  0
 18 13  1  0  0  0
 14 15  1  0  0  0
 15 16  1  0  0  0
 15 17  1  0  0  0
 19 18  1  0  0  0
 18 23  2  0  0  0
 20 19  1  0  0  0
 30 20  1  0  0  0
 27 28  4  0  0  0
 30 31  1  0  0  0
  1 33  1  0  0  0
  1 34  1  0  0  0
  3 35  1  0  0  0
  3 36  1  0  0  0
  5 37  1  0  0  0
  5 38  1  0  0  0
  7 39  1  0  0  0
  8 40  1  0  0  0
  9 41  1  0  0  0
 10 42  1  0  0  0
 12 43  1  0  0  0
 13 44  1  0  0  0
 14 45  1  0  0  0
 14 46  1  0  0  0
 15 47  1  0  0  0
 16 48  1  0  0  0
 16 49  1  0  0  0
 16 50  1  0  0  0
 17 51  1  0  0  0
 17 52  1  0  0  0
 17 53  1  0  0  0
 19 54  1  0  0  0
 20 55  1  0  0  0
 22 56  1  0  0  0
 25 57  1  0  0  0
 27 58  1  0  0  0
 28 59  1  0  0  0
 30 60  1  0  0  0
 30 61  1  0  0  0
 31 62  1  0  0  0
 31 63  1  0  0  0
 32 64  1  0  0  0
 32 65  1  0  0  0
 32 66  1  0  0  0
M  END
$$$$
