3iw6_ligand
  -I-interpret- 

 61 63  0  0  0  0  0  0  0  0999 V2000
  -27.3760    0.2050    6.2160 C   0  0  0  0  0
  -24.6350   -3.5520    5.0890 C   0  0  0  0  0
  -20.5200    0.5160    5.4200 C   0  0  0  0  0
  -21.4380   -4.2950    6.9290 C   0  0  0  0  0
  -23.5060    0.9790    4.9150 O   0  0  0  0  0
  -18.6560   -2.3790    7.4650 O   0  0  0  0  0
  -12.5870   -6.0680    2.3600 C   0  0  0  0  0
  -13.6040   -6.8870    2.8680 C   0  0  0  0  0
  -12.9130   -4.7890    1.8950 C   0  0  0  0  0
  -14.9240   -6.4280    2.9100 C   0  0  0  0  0
  -14.2390   -4.3260    1.9250 C   0  0  0  0  0
  -26.1300    0.4040    5.3190 C   0  0  0  0  0
  -24.0790   -2.9870    6.4260 C   0  0  0  0  0
  -18.3530   -3.1080    2.9830 C   0  0  0  0  0
  -16.5360   -3.6280    4.5980 C   0  0  0  0  0
  -18.7910   -1.9620    3.8940 C   0  0  0  0  0
  -16.8560   -2.4260    5.4380 C   0  0  0  0  0
  -16.7110   -4.6870    2.4710 C   0  0  0  0  0
  -25.0430   -0.4830    5.7380 O   0  0  0  0  0
  -23.7510   -0.0900    5.4800 C   0  0  0  0  0
  -19.1130   -2.1750    6.3470 C   0  0  0  0  0
  -15.2380   -5.1530    2.4410 C   0  0  0  0  0
  -21.2360   -0.7740    5.8190 C   0  0  0  0  0
  -21.6140   -2.8590    6.4690 C   0  0  0  0  0
  -20.6110   -1.9380    6.2110 C   0  0  0  0  0
  -22.6080   -1.0350    5.8570 C   0  0  0  0  0
  -16.9090   -3.4180    3.1820 N   0  3  0  0  0
  -18.3010   -2.1800    5.2700 N   0  0  0  0  0
  -22.7880   -2.3010    6.2440 N   0  0  0  0  0
  -27.7150   -0.8282    6.1408 H   0  0  0  0  0
  -27.1168    0.4292    7.2507 H   0  0  0  0  0
  -28.1704    0.8743    5.8859 H   0  0  0  0  0
  -24.7811   -2.7343    4.3833 H   0  0  0  0  0
  -23.9249   -4.2681    4.6754 H   0  0  0  0  0
  -25.5876   -4.0485    5.2740 H   0  0  0  0  0
  -19.9177    0.8695    6.2569 H   0  0  0  0  0
  -19.8751    0.3219    4.5630 H   0  0  0  0  0
  -21.2584    1.2733    5.1566 H   0  0  0  0  0
  -20.8575   -4.8441    6.1876 H   0  0  0  0  0
  -20.9139   -4.3074    7.8846 H   0  0  0  0  0
  -22.4167   -4.7609    7.0439 H   0  0  0  0  0
  -11.5566   -6.4220    2.3275 H   0  0  0  0  0
  -13.3651   -7.8863    3.2320 H   0  0  0  0  0
  -12.1270   -4.1429    1.5040 H   0  0  0  0  0
  -15.7097   -7.0686    3.3105 H   0  0  0  0  0
  -14.4848   -3.3326    1.5497 H   0  0  0  0  0
  -25.7947    1.4375    5.4062 H   0  0  0  0  0
  -26.3972    0.1710    4.2883 H   0  0  0  0  0
  -23.9269   -3.8215    7.1105 H   0  0  0  0  0
  -24.7964   -2.2638    6.8138 H   0  0  0  0  0
  -18.5099   -2.8126    1.9456 H   0  0  0  0  0
  -18.9399   -3.9941    3.2250 H   0  0  0  0  0
  -17.1028   -4.4766    4.9811 H   0  0  0  0  0
  -15.4620   -3.8071    4.6482 H   0  0  0  0  0
  -19.8800   -1.9171    3.9085 H   0  0  0  0  0
  -18.3761   -1.0285    3.5137 H   0  0  0  0  0
  -16.2710   -1.5610    5.1256 H   0  0  0  0  0
  -16.6058   -2.5998    6.4846 H   0  0  0  0  0
  -17.2855   -5.4500    2.9962 H   0  0  0  0  0
  -17.0285   -4.5375    1.4390 H   0  0  0  0  0
  -16.3408   -2.6384    2.8506 H   0  0  0  0  0
 12  1  1  0  0  0
 13  2  1  0  0  0
 23  3  1  0  0  0
 24  4  1  0  0  0
 20  5  2  0  0  0
 21  6  2  0  0  0
  8  7  4  0  0  0
  9  7  4  0  0  0
 10  8  4  0  0  0
 11  9  4  0  0  0
 22 10  4  0  0  0
 22 11  4  0  0  0
 19 12  1  0  0  0
 29 13  1  0  0  0
 16 14  1  0  0  0
 14 27  1  0  0  0
 17 15  1  0  0  0
 15 27  1  0  0  0
 28 16  1  0  0  0
 28 17  1  0  0  0
 18 22  1  0  0  0
 27 18  1  0  0  0
 20 19  1  0  0  0
 26 20  1  0  0  0
 25 21  1  0  0  0
 21 28  1  0  0  0
 25 23  4  0  0  0
 23 26  4  0  0  0
 24 25  4  0  0  0
 24 29  4  0  0  0
 26 29  4  0  0  0
  1 30  1  0  0  0
  1 31  1  0  0  0
  1 32  1  0  0  0
  2 33  1  0  0  0
  2 34  1  0  0  0
  2 35  1  0  0  0
  3 36  1  0  0  0
  3 37  1  0  0  0
  3 38  1  0  0  0
  4 39  1  0  0  0
  4 40  1  0  0  0
  4 41  1  0  0  0
  7 42  1  0  0  0
  8 43  1  0  0  0
  9 44  1  0  0  0
 10 45  1  0  0  0
 11 46  1  0  0  0
 12 47  1  0  0  0
 12 48  1  0  0  0
 13 49  1  0  0  0
 13 50  1  0  0  0
 14 51  1  0  0  0
 14 52  1  0  0  0
 15 53  1  0  0  0
 15 54  1  0  0  0
 16 55  1  0  0  0
 16 56  1  0  0  0
 17 57  1  0  0  0
 17 58  1  0  0  0
 18 59  1  0  0  0
 18 60  1  0  0  0
 27 61  1  0  0  0
M  END
$$$$
