1y2e_ligand
  -I-interpret- 

 36 37  0  0  0  0  0  0  0  0999 V2000
   15.8030    6.2830    9.2350 O   0  0  0  0  0
   14.7570    6.1880    9.8330 C   0  0  0  0  0
   13.5730    6.1710    9.2210 O   0  0  0  0  0
   13.5660    6.1920    7.7790 C   0  0  0  0  0
   12.1200    6.1870    7.2560 C   0  0  0  0  0
   14.7650    6.0150   11.3240 C   0  0  0  0  0
   15.8680    5.8750   12.1690 C   0  0  0  0  0
   15.4380    5.7210   13.4260 N   0  0  0  0  0
   17.3540    5.8900   11.8430 C   0  0  0  0  0
   13.6560    5.9230   12.1670 C   0  0  0  0  0
   12.1890    6.0150   11.7690 C   0  0  0  0  0
   14.1120    5.7550   13.4150 N   0  0  0  0  0
   13.3590    5.5870   14.5120 C   0  0  0  0  0
   13.0510    6.6300   15.4060 C   0  0  0  0  0
   12.2660    6.3540   16.5370 C   0  0  0  0  0
   12.8850    4.2850   14.7510 C   0  0  0  0  0
   12.0930    4.0190   15.8650 C   0  0  0  0  0
   11.7790    5.0400   16.7580 C   0  0  0  0  0
   11.0150    4.7430   17.8250 N   0  0  0  0  0
   14.0837    5.3081    7.4064 H   0  0  0  0  0
   14.0680    7.0953    7.4325 H   0  0  0  0  0
   11.6125    5.2870    7.6032 H   0  0  0  0  0
   11.5970    7.0675    7.6292 H   0  0  0  0  0
   12.1291    6.2030    6.1662 H   0  0  0  0  0
   17.5799    5.0832   11.1457 H   0  0  0  0  0
   17.6158    6.8466   11.3909 H   0  0  0  0  0
   17.9272    5.7509   12.7596 H   0  0  0  0  0
   11.9991    6.9842   11.3079 H   0  0  0  0  0
   11.9560    5.2215   11.0589 H   0  0  0  0  0
   11.5655    5.9049   12.6563 H   0  0  0  0  0
   13.4176    7.6399   15.2224 H   0  0  0  0  0
   12.0309    7.1489   17.2448 H   0  0  0  0  0
   13.1387    3.4802   14.0611 H   0  0  0  0  0
   11.7184    3.0101   16.0381 H   0  0  0  0  0
   10.7735    5.4707   18.4977 H   0  0  0  0  0
   10.6774    3.7902   17.9611 H   0  0  0  0  0
  1  2  2  0  0  0
  2  3  1  0  0  0
  2  6  1  0  0  0
  3  4  1  0  0  0
  4  5  1  0  0  0
  6  7  4  0  0  0
  6 10  4  0  0  0
  7  8  4  0  0  0
  7  9  1  0  0  0
  8 12  4  0  0  0
 10 11  1  0  0  0
 10 12  4  0  0  0
 12 13  1  0  0  0
 13 14  4  0  0  0
 13 16  4  0  0  0
 14 15  4  0  0  0
 15 18  4  0  0  0
 16 17  4  0  0  0
 17 18  4  0  0  0
 18 19  1  0  0  0
  4 20  1  0  0  0
  4 21  1  0  0  0
  5 22  1  0  0  0
  5 23  1  0  0  0
  5 24  1  0  0  0
  9 25  1  0  0  0
  9 26  1  0  0  0
  9 27  1  0  0  0
 11 28  1  0  0  0
 11 29  1  0  0  0
 11 30  1  0  0  0
 14 31  1  0  0  0
 15 32  1  0  0  0
 16 33  1  0  0  0
 17 34  1  0  0  0
 19 35  1  0  0  0
 19 36  1  0  0  0
M  END
$$$$
