6mh1_ligand
  -I-interpret- 

 61 65  0  0  0  0  0  0  0  0999 V2000
   -1.0270   38.5950   19.8700 C   0  0  0  0  0
   -0.8950   38.8190   24.1110 C   0  0  0  0  0
    0.4520   40.5330   25.3490 C   0  0  0  0  0
   -4.4410   39.8360   26.3650 C   0  0  0  0  0
   -3.2590   38.4660   24.5760 C   0  0  0  0  0
   -1.1260   37.4970   18.9970 C   0  0  0  0  0
   -2.0870   41.3030   21.0100 C   0  0  0  0  0
   -4.3200   42.2910   21.7800 C   0  0  0  0  0
    3.8260   37.3810   15.2110 F   0  0  0  0  0
    2.9880   38.0350   15.9780 C   0  0  0  0  0
    2.4310   39.2530   15.5370 C   0  0  0  0  0
    1.5480   39.9650   16.3410 C   0  0  0  0  0
    1.1340   39.4670   17.5910 C   0  0  0  0  0
    1.6950   38.2570   18.0370 C   0  0  0  0  0
    2.6080   37.5330   17.2340 C   0  0  0  0  0
    0.2820   40.2410   18.4100 C   0  0  0  0  0
   -0.6220   39.8910   19.4400 C   0  0  0  0  0
   -1.4170   38.3910   21.1710 N   0  0  0  0  0
   -1.8620   37.1970   21.6230 C   0  0  0  0  0
   -2.2320   37.1540   22.9060 N   0  0  0  0  0
   -2.0920   38.1370   23.8450 C   0  0  0  0  0
   -0.8340   39.8290   25.1080 C   0  0  0  0  0
   -2.0130   40.1380   25.8280 C   0  0  0  0  0
   -3.2370   39.4590   25.5750 C   0  0  0  0  0
   -1.9350   36.1330   20.7890 N   0  0  0  0  0
   -1.5470   36.2480   19.4980 C   0  0  0  0  0
   -1.1060   41.0710   19.9430 N   0  0  0  0  0
   -3.3730   42.0610   20.5760 C   0  0  0  0  0
   -3.6410   43.0490   22.8500 N   0  3  0  0  0
   -2.4150   42.3510   23.2990 C   0  0  0  0  0
   -1.4120   42.0940   22.1460 C   0  0  0  0  0
   -0.4990   42.0840   19.2710 C   0  0  0  0  0
    0.3530   41.5850   18.3350 N   0  0  0  0  0
    0.0019   38.5700   23.5439 H   0  0  0  0  0
    1.2104   39.8094   25.6480 H   0  0  0  0  0
    0.7672   41.0345   24.4340 H   0  0  0  0  0
    0.3185   41.2697   26.1412 H   0  0  0  0  0
   -5.2178   40.1971   25.6910 H   0  0  0  0  0
   -4.8056   38.9639   26.9077 H   0  0  0  0  0
   -4.1781   40.6222   27.0727 H   0  0  0  0  0
   -4.1905   37.9419   24.3621 H   0  0  0  0  0
   -0.8792   37.6105   17.9414 H   0  0  0  0  0
   -2.4152   40.3126   21.3253 H   0  0  0  0  0
   -4.6234   41.3220   22.1764 H   0  0  0  0  0
   -5.1842   42.8623   21.4411 H   0  0  0  0  0
    2.6960   39.6412   14.5535 H   0  0  0  0  0
    1.1690   40.9273   15.9969 H   0  0  0  0  0
    1.4217   37.8700   19.0186 H   0  0  0  0  0
    3.0160   36.5868   17.5895 H   0  0  0  0  0
   -2.6692   36.2879   23.2209 H   0  0  0  0  0
   -1.9822   40.9135   26.5933 H   0  0  0  0  0
   -1.5598   35.3752   18.8452 H   0  0  0  0  0
   -3.8961   41.4612   19.8312 H   0  0  0  0  0
   -3.0852   43.0304   20.1692 H   0  0  0  0  0
   -4.2767   43.1365   23.6429 H   0  0  0  0  0
   -3.3810   43.9660   22.4869 H   0  0  0  0  0
   -2.7117   41.3837   23.7044 H   0  0  0  0  0
   -1.9211   42.9852   24.0352 H   0  0  0  0  0
   -1.0688   43.0519   21.7551 H   0  0  0  0  0
   -0.5719   41.5152   22.5299 H   0  0  0  0  0
   -0.6701   43.1446   19.4554 H   0  0  0  0  0
  1  6  4  0  0  0
  1 17  1  0  0  0
 18  1  4  0  0  0
 21  2  4  0  0  0
  2 22  4  0  0  0
 22  3  1  0  0  0
 24  4  1  0  0  0
 21  5  4  0  0  0
  5 24  4  0  0  0
  6 26  4  0  0  0
 27  7  1  0  0  0
  7 28  1  0  0  0
  7 31  1  0  0  0
 28  8  1  0  0  0
  8 29  1  0  0  0
 10  9  1  0  0  0
 11 10  4  0  0  0
 15 10  4  0  0  0
 12 11  4  0  0  0
 13 12  4  0  0  0
 13 14  4  0  0  0
 16 13  1  0  0  0
 14 15  4  0  0  0
 17 16  4  0  0  0
 16 33  4  0  0  0
 17 27  4  0  0  0
 19 18  4  0  0  0
 20 19  1  0  0  0
 19 25  4  0  0  0
 20 21  1  0  0  0
 22 23  4  0  0  0
 23 24  4  0  0  0
 25 26  4  0  0  0
 27 32  4  0  0  0
 29 30  1  0  0  0
 30 31  1  0  0  0
 32 33  4  0  0  0
  2 34  1  0  0  0
  3 35  1  0  0  0
  3 36  1  0  0  0
  3 37  1  0  0  0
  4 38  1  0  0  0
  4 39  1  0  0  0
  4 40  1  0  0  0
  5 41  1  0  0  0
  6 42  1  0  0  0
  7 43  1  0  0  0
  8 44  1  0  0  0
  8 45  1  0  0  0
 11 46  1  0  0  0
 12 47  1  0  0  0
 14 48  1  0  0  0
 15 49  1  0  0  0
 20 50  1  0  0  0
 23 51  1  0  0  0
 26 52  1  0  0  0
 28 53  1  0  0  0
 28 54  1  0  0  0
 29 55  1  0  0  0
 29 56  1  0  0  0
 30 57  1  0  0  0
 30 58  1  0  0  0
 31 59  1  0  0  0
 31 60  1  0  0  0
 32 61  1  0  0  0
M  END
$$$$
