4aac_ligand
  -I-interpret- 

 58 62  0  0  0  0  0  0  0  0999 V2000
   -1.3550    4.3410   28.7110 C   0  0  0  0  0
   -1.3390    3.6250   27.4340 N   0  3  0  0  0
   -1.5470    2.1630   27.7190 C   0  0  0  0  0
   -1.6820    1.3900   26.3920 C   0  0  0  0  0
   -2.6900    2.0010   25.4850 N   0  0  0  0  0
   -2.3690    3.4190   25.1930 C   0  0  0  0  0
   -2.3940    4.1700   26.5420 C   0  0  0  0  0
   -2.8050    1.2250   24.3120 C   0  0  0  0  0
   -2.8240   -0.1850   24.4250 C   0  0  0  0  0
   -2.9610   -1.0100   23.3360 C   0  0  0  0  0
   -3.0640   -0.4160   22.0710 C   0  0  0  0  0
   -3.2070   -1.1900   20.9550 N   0  0  0  0  0
   -3.3930   -0.6730   19.7690 C   0  0  0  0  0
   -3.3990    0.6830   19.5600 N   0  0  0  0  0
   -3.6030    1.1900   18.2760 C   0  0  0  0  0
   -2.5290    1.5860   17.4710 C   0  0  0  0  0
   -2.7860    2.1000   16.1950 C   0  0  0  0  0
   -2.1810    3.2720   14.1690 N   0  0  0  0  0
   -1.7600    2.5280   15.1910 C   0  0  0  0  0
   -0.5740    2.2130   15.1870 O   0  0  0  0  0
   -1.3220    4.8510   12.3900 C   0  0  0  0  0
   -0.2530    4.7390   11.5590 C   0  0  0  0  0
    0.3530    3.5680   11.8350 O   0  0  0  0  0
   -1.2710    3.6680   13.1700 C   0  0  0  0  0
   -4.1280    2.2000   15.8030 C   0  0  0  0  0
   -5.1860    1.8530   16.6170 C   0  0  0  0  0
   -4.9340    1.3230   17.8570 C   0  0  0  0  0
   -6.1270    0.9280   18.7100 C   0  0  0  0  0
   -0.2220    2.9800   12.7370 N   0  0  0  0  0
   -3.2030    1.5650   20.5840 C   0  0  0  0  0
   -2.9280    1.8280   23.0550 C   0  0  0  0  0
   -3.2060    2.7730   20.3910 O   0  0  0  0  0
   -3.0430    1.0060   21.9400 C   0  0  0  0  0
   -1.1684    5.4003   28.5345 H   0  0  0  0  0
   -2.3291    4.2162   29.1839 H   0  0  0  0  0
   -0.5793    3.9377   29.3620 H   0  0  0  0  0
   -0.4464    3.7456   26.9552 H   0  0  0  0  0
   -2.4562    2.0348   28.3063 H   0  0  0  0  0
   -0.6931    1.7781   28.2765 H   0  0  0  0  0
   -2.0049    0.3748   26.6226 H   0  0  0  0  0
   -0.7158    1.4109   25.8879 H   0  0  0  0  0
   -3.0936    3.8451   24.4991 H   0  0  0  0  0
   -1.3908    3.5051   24.7200 H   0  0  0  0  0
   -2.2110    5.2307   26.3699 H   0  0  0  0  0
   -3.3689    4.0394   27.0116 H   0  0  0  0  0
   -2.7262   -0.6333   25.4137 H   0  0  0  0  0
   -2.9888   -2.0935   23.4519 H   0  0  0  0  0
   -3.5480   -1.3393   18.9204 H   0  0  0  0  0
   -1.5050    1.4952   17.8333 H   0  0  0  0  0
   -3.1595    3.5539   14.1104 H   0  0  0  0  0
   -2.0491    5.6612   12.4444 H   0  0  0  0  0
    0.0575    5.4640   10.8066 H   0  0  0  0  0
   -4.3471    2.5716   14.8020 H   0  0  0  0  0
   -6.2119    1.9984   16.2785 H   0  0  0  0  0
   -6.0675   -0.1345   18.9459 H   0  0  0  0  0
   -6.1197    1.5075   19.6332 H   0  0  0  0  0
   -7.0470    1.1285   18.1609 H   0  0  0  0  0
   -2.9335    2.9132   22.9531 H   0  0  0  0  0
  2  1  1  0  0  0
  3  2  1  0  0  0
  7  2  1  0  0  0
  4  3  1  0  0  0
  5  4  1  0  0  0
  5  6  1  0  0  0
  8  5  1  0  0  0
  6  7  1  0  0  0
  9  8  4  0  0  0
  8 31  4  0  0  0
 10  9  4  0  0  0
 11 10  4  0  0  0
 12 11  1  0  0  0
 11 33  4  0  0  0
 13 12  2  0  0  0
 14 13  1  0  0  0
 15 14  1  0  0  0
 14 30  1  0  0  0
 16 15  4  0  0  0
 15 27  4  0  0  0
 17 16  4  0  0  0
 19 17  1  0  0  0
 17 25  4  0  0  0
 18 19  1  0  0  0
 24 18  1  0  0  0
 19 20  2  0  0  0
 21 22  4  0  0  0
 21 24  4  0  0  0
 22 23  4  0  0  0
 23 29  4  0  0  0
 24 29  4  0  0  0
 25 26  4  0  0  0
 26 27  4  0  0  0
 27 28  1  0  0  0
 30 32  2  0  0  0
 30 33  1  0  0  0
 31 33  4  0  0  0
  1 34  1  0  0  0
  1 35  1  0  0  0
  1 36  1  0  0  0
  2 37  1  0  0  0
  3 38  1  0  0  0
  3 39  1  0  0  0
  4 40  1  0  0  0
  4 41  1  0  0  0
  6 42  1  0  0  0
  6 43  1  0  0  0
  7 44  1  0  0  0
  7 45  1  0  0  0
  9 46  1  0  0  0
 10 47  1  0  0  0
 13 48  1  0  0  0
 16 49  1  0  0  0
 18 50  1  0  0  0
 21 51  1  0  0  0
 22 52  1  0  0  0
 25 53  1  0  0  0
 26 54  1  0  0  0
 28 55  1  0  0  0
 28 56  1  0  0  0
 28 57  1  0  0  0
 31 58  1  0  0  0
M  END
$$$$
