4l3o_ligand
  -I-interpret- 

264270  0  0  0  0  0  0  0  0999 V2000
  -11.4080   77.3440   91.6570 C   0  0  0  0  0
  -11.3760   76.1280   91.8510 O   0  0  0  0  0
  -12.7010   78.1140   91.8010 C   0  0  0  0  0
  -10.3450   78.0630   91.3090 N   0  0  0  0  0
   -9.0270   77.4770   91.0710 C   0  0  0  0  0
   -9.0060   76.4400   89.9430 C   0  0  0  0  0
   -8.1650   76.5130   89.0550 O   0  0  0  0  0
   -8.4000   76.9530   92.3840 C   0  0  0  0  0
   -8.1100   75.4700   92.4470 C   0  0  0  0  0
   -6.9450   74.9450   91.9040 C   0  0  0  0  0
   -8.9890   74.5980   93.0770 C   0  0  0  0  0
   -6.6730   73.5820   91.9670 C   0  0  0  0  0
   -8.7270   73.2400   93.1480 C   0  0  0  0  0
   -7.5690   72.7370   92.5930 C   0  0  0  0  0
   -7.3060   71.3880   92.6630 O   0  0  0  0  0
   -9.9410   75.4960   89.9730 N   0  0  0  0  0
  -10.0130   74.4520   88.9600 C   0  0  0  0  0
  -11.1120   74.7260   87.9380 C   0  0  0  0  0
  -11.3660   73.9070   87.0540 O   0  0  0  0  0
  -10.2560   73.0900   89.6100 C   0  0  0  0  0
  -11.6180   72.9480   90.2140 C   0  0  0  0  0
  -11.9920   73.6000   91.3680 N   0  0  0  0  0
  -12.6980   72.2330   89.8180 C   0  0  0  0  0
  -13.2440   73.2940   91.6590 C   0  0  0  0  0
  -13.6950   72.4650   90.7350 N   0  0  0  0  0
  -11.7630   75.8780   88.0600 N   0  0  0  0  0
  -12.9280   76.1880   87.2350 C   0  0  0  0  0
  -12.6690   77.2620   86.1830 C   0  0  0  0  0
  -13.5320   78.1030   85.9340 O   0  0  0  0  0
  -14.1190   76.6500   88.0990 C   0  0  0  0  0
  -13.7800   77.8710   88.7690 O   0  0  0  0  0
  -14.4810   75.5860   89.1310 C   0  0  0  0  0
  -11.4920   77.2330   85.5620 N   0  0  0  0  0
  -11.1630   78.2080   84.5240 C   0  0  0  0  0
  -12.1370   78.1510   83.3510 C   0  0  0  0  0
  -12.4900   79.1800   82.7730 O   0  0  0  0  0
   -9.7340   78.0120   84.0130 C   0  0  0  0  0
   -9.4400   78.8110   82.7610 C   0  0  0  0  0
   -9.2710   80.1870   82.8190 C   0  0  0  0  0
   -9.3460   78.1900   81.5220 C   0  0  0  0  0
   -9.0070   80.9240   81.6800 C   0  0  0  0  0
   -9.0840   78.9180   80.3770 C   0  0  0  0  0
   -8.9160   80.2850   80.4620 C   0  0  0  0  0
   -8.6570   81.0170   79.3270 O   0  0  0  0  0
  -12.5680   76.9430   83.0120 N   0  0  0  0  0
  -13.4510   76.7210   81.8750 C   0  0  0  0  0
  -14.8800   77.1860   82.1470 C   0  0  0  0  0
  -15.7170   77.2040   81.2450 O   0  0  0  0  0
  -13.4480   75.2390   81.4960 C   0  0  0  0  0
  -13.8790   74.3320   82.6060 C   0  0  0  0  0
  -15.0380   73.5870   82.5520 N   0  0  0  0  0
  -13.3100   74.0520   83.8030 C   0  0  0  0  0
  -15.1640   72.8880   83.6650 C   0  0  0  0  0
  -14.1280   73.1530   84.4410 N   0  0  0  0  0
  -15.1520   77.5590   83.3930 N   0  0  0  0  0
  -16.4900   77.9730   83.8010 C   0  0  0  0  0
  -16.6610   79.4880   83.6830 C   0  0  0  0  0
  -15.7500   80.2480   84.0160 O   0  0  0  0  0
  -16.7840   77.5220   85.2480 C   0  0  0  0  0
  -18.1900   77.9180   85.6670 C   0  0  0  0  0
  -16.5890   76.0190   85.3790 C   0  0  0  0  0
  -17.8280   79.9170   83.2040 N   0  0  0  0  0
  -18.1330   81.3170   83.0680 C   0  0  0  0  0
  -18.1620   81.9780   84.4080 C   0  0  0  0  0
  -18.8930   81.5620   85.2980 O   0  0  0  0  0
  -19.4540   81.4820   82.3940 C   0  0  0  0  0
  -19.9060   82.8630   82.0570 C   0  0  0  0  0
  -21.2490   83.0120   81.4270 C   0  0  0  0  0
  -21.7340   84.3870   81.1100 C   0  0  0  0  0
  -22.9720   84.5000   80.3950 N   0  0  0  0  0
  -23.2730   85.7010   79.6800 C   0  0  0  0  0
  -22.4720   86.6240   79.6850 O   0  0  0  0  0
  -24.5540   85.8360   78.9250 C   0  0  0  0  0
  -24.3640   86.6550   77.8970 F   0  0  0  0  0
  -25.5010   86.3310   79.7130 F   0  0  0  0  0
  -24.9470   84.6520   78.4750 F   0  0  0  0  0
  -17.3520   83.0200   84.5630 N   0  0  0  0  0
  -17.2070   83.7090   85.8410 C   0  0  0  0  0
  -17.1220   85.2150   85.6430 C   0  0  0  0  0
  -17.1610   85.7080   84.5150 O   0  0  0  0  0
  -15.9370   83.2350   86.5550 C   0  0  0  0  0
  -15.9650   81.7920   87.0270 C   0  0  0  0  0
  -14.5550   81.2560   87.2590 C   0  0  0  0  0
  -13.8290   81.0480   86.0070 N   0  0  0  0  0
  -12.8380   81.8220   85.5730 C   0  0  0  0  0
  -12.4380   82.8620   86.2930 N   0  0  0  0  0
  -12.2400   81.5500   84.4180 N   0  0  0  0  0
  -17.0040   85.9430   86.7480 N   0  0  0  0  0
  -16.7050   87.3670   86.6960 C   0  0  0  0  0
  -15.2020   87.5500   86.8660 C   0  0  0  0  0
  -14.4570   86.5720   86.8930 O   0  0  0  0  0
  -17.4700   88.1370   87.7750 C   0  0  0  0  0
  -18.9670   88.2830   87.5150 C   0  0  0  0  0
  -19.7440   87.0440   87.9340 C   0  0  0  0  0
  -21.1880   87.2390   87.8330 N   0  0  0  0  0
  -22.0930   86.3890   88.3100 C   0  0  0  0  0
  -21.7070   85.2810   88.9280 N   0  0  0  0  0
  -23.3860   86.6480   88.1730 N   0  0  0  0  0
  -14.7540   88.7960   86.9860 N   0  0  0  0  0
  -13.3210   89.0830   87.0310 C   0  0  0  0  0
  -12.7440   89.1390   88.4440 C   0  0  0  0  0
  -11.8630   89.9490   88.7310 O   0  0  0  0  0
  -12.9840   90.3900   86.2950 C   0  0  0  0  0
  -13.9670   91.3830   86.6120 O   0  0  0  0  0
  -12.9740   90.1600   84.7940 C   0  0  0  0  0
  -13.2410   88.2750   89.3200 N   0  0  0  0  0
  -12.6880   88.1540   90.6610 C   0  0  0  0  0
  -11.4410   87.2800   90.6450 C   0  0  0  0  0
  -11.3780   86.2910   89.9160 O   0  0  0  0  0
  -13.7260   87.5630   91.6140 C   0  0  0  0  0
  -14.9470   88.4470   91.7660 C   0  0  0  0  0
  -14.8320   89.6540   91.9820 O   0  0  0  0  0
  -16.1280   87.8490   91.6460 N   0  0  0  0  0
  -10.4480   87.6450   91.4460 N   0  0  0  0  0
   -9.2340   86.8460   91.5500 C   0  0  0  0  0
   -9.3730   85.7890   92.6390 C   0  0  0  0  0
   -8.4850   85.6140   93.4710 O   0  0  0  0  0
   -8.0120   87.7330   91.7950 C   0  0  0  0  0
   -7.7360   88.6830   90.6560 C   0  0  0  0  0
   -7.3600   88.2040   89.4080 C   0  0  0  0  0
   -7.8590   90.0540   90.8230 C   0  0  0  0  0
   -7.1120   89.0660   88.3590 C   0  0  0  0  0
   -7.6110   90.9240   89.7800 C   0  0  0  0  0
   -7.2380   90.4240   88.5500 C   0  0  0  0  0
   -6.9910   91.2840   87.5060 O   0  0  0  0  0
  -10.5080   85.0970   92.6210 N   0  0  0  0  0
  -10.7750   83.9900   93.5290 C   0  0  0  0  0
  -11.9280   83.1430   93.0030 C   0  0  0  0  0
  -12.4830   83.4240   91.9430 O   0  0  0  0  0
  -11.0900   84.4900   94.9400 C   0  0  0  0  0
  -12.1070   85.6120   95.0090 C   0  0  0  0  0
  -13.4700   85.3500   94.9480 C   0  0  0  0  0
  -11.7010   86.9300   95.1590 C   0  0  0  0  0
  -14.3980   86.3730   95.0190 C   0  0  0  0  0
  -12.6190   87.9580   95.2320 C   0  0  0  0  0
  -13.9650   87.6760   95.1620 C   0  0  0  0  0
  -14.8770   88.7040   95.2360 O   0  0  0  0  0
  -12.2850   82.1040   93.7490 N   0  0  0  0  0
  -13.3610   81.2100   93.3410 C   0  0  0  0  0
  -14.5260   81.2470   94.3220 C   0  0  0  0  0
  -14.4130   80.7660   95.4510 O   0  0  0  0  0
  -12.8450   79.7800   93.2110 C   0  0  0  0  0
  -14.1330   78.5920   92.7790 S   0  0  0  0  0
  -15.6430   81.8190   93.8850 N   0  0  0  0  0
  -13.2671   77.4211   91.1785 H   0  0  0  0  0
  -12.1994   79.0725   91.9347 H   0  0  0  0  0
  -10.4544   79.0716   91.2030 H   0  0  0  0  0
   -8.3924   78.2856   90.7083 H   0  0  0  0  0
   -9.1305   77.1517   93.1682 H   0  0  0  0  0
   -7.4366   77.4537   92.4798 H   0  0  0  0  0
   -6.2314   75.6119   91.4202 H   0  0  0  0  0
   -9.9025   74.9902   93.5240 H   0  0  0  0  0
   -5.7594   73.1837   91.5256 H   0  0  0  0  0
   -9.4331   72.5714   93.6405 H   0  0  0  0  0
   -8.0221   70.9471   93.1261 H   0  0  0  0  0
  -10.6278   75.5028   90.7270 H   0  0  0  0  0
   -9.0552   74.4458   88.4397 H   0  0  0  0  0
   -9.5288   72.9775   90.4141 H   0  0  0  0  0
  -10.1645   72.3347   88.8295 H   0  0  0  0  0
  -12.7640   71.5938   88.9376 H   0  0  0  0  0
  -13.8084   73.6628   92.5155 H   0  0  0  0  0
  -11.4418   76.5616   88.7455 H   0  0  0  0  0
  -13.1580   75.2545   86.7214 H   0  0  0  0  0
  -14.9787   76.8117   87.4487 H   0  0  0  0  0
  -14.5226   78.1568   89.3061 H   0  0  0  0  0
  -14.7532   74.6630   88.6192 H   0  0  0  0  0
  -13.6240   75.4042   89.7795 H   0  0  0  0  0
  -15.3235   75.9334   89.7290 H   0  0  0  0  0
  -10.8088   76.5190   85.8145 H   0  0  0  0  0
  -11.2461   79.1910   84.9875 H   0  0  0  0  0
   -9.6093   76.9566   83.7708 H   0  0  0  0  0
   -9.0525   78.3526   84.7925 H   0  0  0  0  0
   -9.3478   80.6957   83.7799 H   0  0  0  0  0
   -9.4811   77.1107   81.4518 H   0  0  0  0  0
   -8.8716   82.0036   81.7444 H   0  0  0  0  0
   -9.0105   78.4155   79.4126 H   0  0  0  0  0
   -8.6253   80.4291   78.5687 H   0  0  0  0  0
  -12.2704   76.1409   83.5674 H   0  0  0  0  0
  -13.0693   77.3176   81.0465 H   0  0  0  0  0
  -12.4238   74.9715   81.2362 H   0  0  0  0  0
  -14.1563   75.1109   80.6774 H   0  0  0  0  0
  -12.3769   74.4636   84.1877 H   0  0  0  0  0
  -15.9825   72.2087   83.9029 H   0  0  0  0  0
  -14.4027   77.5558   84.0850 H   0  0  0  0  0
  -17.2017   77.4929   83.1293 H   0  0  0  0  0
  -16.0825   78.0253   85.9133 H   0  0  0  0  0
  -18.2930   79.0016   85.6103 H   0  0  0  0  0
  -18.9125   77.4477   85.0001 H   0  0  0  0  0
  -18.3694   77.5878   86.6902 H   0  0  0  0  0
  -17.2686   75.5051   84.6992 H   0  0  0  0  0
  -15.5596   75.7642   85.1271 H   0  0  0  0  0
  -16.7996   75.7146   86.4042 H   0  0  0  0  0
  -18.5285   79.2304   82.9244 H   0  0  0  0  0
  -17.3571   81.7872   82.4638 H   0  0  0  0  0
  -20.1887   81.1047   83.1053 H   0  0  0  0  0
  -19.3540   80.9707   81.4366 H   0  0  0  0  0
  -19.1932   83.2339   81.3205 H   0  0  0  0  0
  -19.9672   83.3923   83.0079 H   0  0  0  0  0
  -21.9543   82.6217   82.1607 H   0  0  0  0  0
  -21.1713   82.5068   80.4643 H   0  0  0  0  0
  -20.9767   84.8239   80.4591 H   0  0  0  0  0
  -21.9046   84.8687   82.0728 H   0  0  0  0  0
  -23.6360   83.7257   80.3965 H   0  0  0  0  0
  -16.8136   83.3492   83.7617 H   0  0  0  0  0
  -18.0845   83.4762   86.4443 H   0  0  0  0  0
  -15.8271   83.8546   87.4450 H   0  0  0  0  0
  -15.1232   83.3140   85.8341 H   0  0  0  0  0
  -16.4445   81.1853   86.2588 H   0  0  0  0  0
  -16.5127   81.7457   87.9683 H   0  0  0  0  0
  -14.6373   80.2949   87.7665 H   0  0  0  0  0
  -14.0069   81.9894   87.8505 H   0  0  0  0  0
  -14.1012   80.2548   85.4264 H   0  0  0  0  0
  -12.8907   83.0706   87.1829 H   0  0  0  0  0
  -11.4762   82.1399   84.0878 H   0  0  0  0  0
  -12.5447   80.7513   83.8616 H   0  0  0  0  0
  -17.1259   85.4932   87.6553 H   0  0  0  0  0
  -17.0227   87.7677   85.7334 H   0  0  0  0  0
  -17.0532   89.1438   87.8018 H   0  0  0  0  0
  -17.3627   87.5743   88.7024 H   0  0  0  0  0
  -19.1135   88.4305   86.4450 H   0  0  0  0  0
  -19.3328   89.1274   88.0991 H   0  0  0  0  0
  -19.5026   86.8278   88.9747 H   0  0  0  0  0
  -19.4645   86.2270   87.2689 H   0  0  0  0  0
  -21.5241   88.0815   87.3665 H   0  0  0  0  0
  -22.4036   84.6328   89.2953 H   0  0  0  0  0
  -20.7135   85.0770   89.0361 H   0  0  0  0  0
  -23.6882   87.5003   87.7011 H   0  0  0  0  0
  -15.4214   89.5649   87.0477 H   0  0  0  0  0
  -12.8531   88.2395   86.5233 H   0  0  0  0  0
  -11.9975   90.7287   86.6116 H   0  0  0  0  0
  -13.7560   92.1988   86.1521 H   0  0  0  0  0
  -12.2242   89.4081   84.5479 H   0  0  0  0  0
  -13.9567   89.8133   84.4743 H   0  0  0  0  0
  -12.7339   91.0941   84.2862 H   0  0  0  0  0
  -14.0264   87.6837   89.0481 H   0  0  0  0  0
  -12.4153   89.1497   91.0106 H   0  0  0  0  0
  -13.2614   87.4610   92.5947 H   0  0  0  0  0
  -14.0526   86.6074   91.2037 H   0  0  0  0  0
  -16.9863   88.3931   91.7329 H   0  0  0  0  0
  -16.1759   86.8460   91.4671 H   0  0  0  0  0
  -10.5360   88.4984   91.9976 H   0  0  0  0  0
   -9.0856   86.3322   90.6002 H   0  0  0  0  0
   -7.1447   87.0816   91.9019 H   0  0  0  0  0
   -8.2080   88.3301   92.6856 H   0  0  0  0  0
   -7.2591   87.1296   89.2543 H   0  0  0  0  0
   -8.1563   90.4514   91.7935 H   0  0  0  0  0
   -6.8182   88.6742   87.3852 H   0  0  0  0  0
   -7.7094   91.9994   89.9278 H   0  0  0  0  0
   -7.1217   92.1884   87.8001 H   0  0  0  0  0
  -11.2238   85.3528   91.9409 H   0  0  0  0  0
   -9.8756   83.3766   93.5823 H   0  0  0  0  0
  -10.1595   84.8826   95.3501 H   0  0  0  0  0
  -11.5136   83.6469   95.4857 H   0  0  0  0  0
  -13.8137   84.3210   94.8424 H   0  0  0  0  0
  -10.6369   87.1580   95.2204 H   0  0  0  0  0
  -15.4639   86.1520   94.9624 H   0  0  0  0  0
  -12.2803   88.9879   95.3445 H   0  0  0  0  0
  -14.4108   89.5375   95.3333 H   0  0  0  0  0
  -11.7955   81.9279   94.6264 H   0  0  0  0  0
  -13.7213   81.5559   92.3722 H   0  0  0  0  0
  -12.4386   79.4874   94.1792 H   0  0  0  0  0
  -12.1049   79.7686   92.4109 H   0  0  0  0  0
  -16.4593   81.8749   94.4940 H   0  0  0  0  0
  -15.6840   82.2021   92.9406 H   0  0  0  0  0
  1  2  2  0  0  0
  1  3  1  0  0  0
  1  4  1  0  0  0
  3143  1  0  0  0
  4  5  1  0  0  0
  5  6  1  0  0  0
  5  8  1  0  0  0
  6  7  2  0  0  0
  6 16  1  0  0  0
  8  9  1  0  0  0
  9 10  4  0  0  0
  9 11  4  0  0  0
 10 12  4  0  0  0
 11 13  4  0  0  0
 12 14  4  0  0  0
 13 14  4  0  0  0
 14 15  1  0  0  0
 16 17  1  0  0  0
 17 18  1  0  0  0
 17 20  1  0  0  0
 18 19  2  0  0  0
 18 26  1  0  0  0
 20 21  1  0  0  0
 21 22  4  0  0  0
 21 23  4  0  0  0
 22 24  4  0  0  0
 23 25  4  0  0  0
 24 25  4  0  0  0
 26 27  1  0  0  0
 27 28  1  0  0  0
 27 30  1  0  0  0
 28 29  2  0  0  0
 28 33  1  0  0  0
 30 31  1  0  0  0
 30 32  1  0  0  0
 33 34  1  0  0  0
 34 35  1  0  0  0
 34 37  1  0  0  0
 35 36  2  0  0  0
 35 45  1  0  0  0
 37 38  1  0  0  0
 38 39  4  0  0  0
 38 40  4  0  0  0
 39 41  4  0  0  0
 40 42  4  0  0  0
 41 43  4  0  0  0
 42 43  4  0  0  0
 43 44  1  0  0  0
 45 46  1  0  0  0
 46 47  1  0  0  0
 46 49  1  0  0  0
 47 48  2  0  0  0
 47 55  1  0  0  0
 49 50  1  0  0  0
 50 51  4  0  0  0
 50 52  4  0  0  0
 51 53  4  0  0  0
 52 54  4  0  0  0
 53 54  4  0  0  0
 55 56  1  0  0  0
 56 57  1  0  0  0
 56 59  1  0  0  0
 57 58  2  0  0  0
 57 62  1  0  0  0
 59 60  1  0  0  0
 59 61  1  0  0  0
 62 63  1  0  0  0
 63 64  1  0  0  0
 63 66  1  0  0  0
 64 65  2  0  0  0
 64 77  1  0  0  0
 66 67  1  0  0  0
 67 68  1  0  0  0
 68 69  1  0  0  0
 69 70  1  0  0  0
 70 71  1  0  0  0
 71 72  2  0  0  0
 71 73  1  0  0  0
 73 74  1  0  0  0
 73 75  1  0  0  0
 73 76  1  0  0  0
 77 78  1  0  0  0
 78 79  1  0  0  0
 78 81  1  0  0  0
 79 80  2  0  0  0
 79 88  1  0  0  0
 81 82  1  0  0  0
 82 83  1  0  0  0
 83 84  1  0  0  0
 84 85  1  0  0  0
 85 86  2  0  0  0
 85 87  1  0  0  0
 88 89  1  0  0  0
 89 90  1  0  0  0
 89 92  1  0  0  0
 90 91  2  0  0  0
 90 99  1  0  0  0
 92 93  1  0  0  0
 93 94  1  0  0  0
 94 95  1  0  0  0
 95 96  1  0  0  0
 96 97  1  0  0  0
 96 98  2  0  0  0
 99100  1  0  0  0
100101  1  0  0  0
100103  1  0  0  0
101102  2  0  0  0
101106  1  0  0  0
103104  1  0  0  0
103105  1  0  0  0
106107  1  0  0  0
107108  1  0  0  0
107110  1  0  0  0
108109  2  0  0  0
108114  1  0  0  0
110111  1  0  0  0
111112  2  0  0  0
111113  1  0  0  0
114115  1  0  0  0
115116  1  0  0  0
115118  1  0  0  0
116117  2  0  0  0
116126  1  0  0  0
118119  1  0  0  0
119120  4  0  0  0
119121  4  0  0  0
120122  4  0  0  0
121123  4  0  0  0
122124  4  0  0  0
123124  4  0  0  0
124125  1  0  0  0
126127  1  0  0  0
127128  1  0  0  0
127130  1  0  0  0
128129  2  0  0  0
128138  1  0  0  0
130131  1  0  0  0
131132  4  0  0  0
131133  4  0  0  0
132134  4  0  0  0
133135  4  0  0  0
134136  4  0  0  0
135136  4  0  0  0
136137  1  0  0  0
138139  1  0  0  0
139140  1  0  0  0
139142  1  0  0  0
140141  2  0  0  0
140144  1  0  0  0
142143  1  0  0  0
  3145  1  0  0  0
  3146  1  0  0  0
  4147  1  0  0  0
  5148  1  0  0  0
  8149  1  0  0  0
  8150  1  0  0  0
 10151  1  0  0  0
 11152  1  0  0  0
 12153  1  0  0  0
 13154  1  0  0  0
 15155  1  0  0  0
 16156  1  0  0  0
 17157  1  0  0  0
 20158  1  0  0  0
 20159  1  0  0  0
 23160  1  0  0  0
 24161  1  0  0  0
 26162  1  0  0  0
 27163  1  0  0  0
 30164  1  0  0  0
 31165  1  0  0  0
 32166  1  0  0  0
 32167  1  0  0  0
 32168  1  0  0  0
 33169  1  0  0  0
 34170  1  0  0  0
 37171  1  0  0  0
 37172  1  0  0  0
 39173  1  0  0  0
 40174  1  0  0  0
 41175  1  0  0  0
 42176  1  0  0  0
 44177  1  0  0  0
 45178  1  0  0  0
 46179  1  0  0  0
 49180  1  0  0  0
 49181  1  0  0  0
 52182  1  0  0  0
 53183  1  0  0  0
 55184  1  0  0  0
 56185  1  0  0  0
 59186  1  0  0  0
 60187  1  0  0  0
 60188  1  0  0  0
 60189  1  0  0  0
 61190  1  0  0  0
 61191  1  0  0  0
 61192  1  0  0  0
 62193  1  0  0  0
 63194  1  0  0  0
 66195  1  0  0  0
 66196  1  0  0  0
 67197  1  0  0  0
 67198  1  0  0  0
 68199  1  0  0  0
 68200  1  0  0  0
 69201  1  0  0  0
 69202  1  0  0  0
 70203  1  0  0  0
 77204  1  0  0  0
 78205  1  0  0  0
 81206  1  0  0  0
 81207  1  0  0  0
 82208  1  0  0  0
 82209  1  0  0  0
 83210  1  0  0  0
 83211  1  0  0  0
 84212  1  0  0  0
 86213  1  0  0  0
 87214  1  0  0  0
 87215  1  0  0  0
 88216  1  0  0  0
 89217  1  0  0  0
 92218  1  0  0  0
 92219  1  0  0  0
 93220  1  0  0  0
 93221  1  0  0  0
 94222  1  0  0  0
 94223  1  0  0  0
 95224  1  0  0  0
 97225  1  0  0  0
 97226  1  0  0  0
 98227  1  0  0  0
 99228  1  0  0  0
100229  1  0  0  0
103230  1  0  0  0
104231  1  0  0  0
105232  1  0  0  0
105233  1  0  0  0
105234  1  0  0  0
106235  1  0  0  0
107236  1  0  0  0
110237  1  0  0  0
110238  1  0  0  0
113239  1  0  0  0
113240  1  0  0  0
114241  1  0  0  0
115242  1  0  0  0
118243  1  0  0  0
118244  1  0  0  0
120245  1  0  0  0
121246  1  0  0  0
122247  1  0  0  0
123248  1  0  0  0
125249  1  0  0  0
126250  1  0  0  0
127251  1  0  0  0
130252  1  0  0  0
130253  1  0  0  0
132254  1  0  0  0
133255  1  0  0  0
134256  1  0  0  0
135257  1  0  0  0
137258  1  0  0  0
138259  1  0  0  0
139260  1  0  0  0
142261  1  0  0  0
142262  1  0  0  0
144263  1  0  0  0
144264  1  0  0  0
M  END
$$$$
