### 
### Created by X-TOOL on Mon Sep 10 21:13:19 2018
### 

@<TRIPOS>MOLECULE
4l3o_ligand
  268   274     1     0     0
SMALL
GAST_HUCK


@<TRIPOS>ATOM
      1 C         -11.4080   77.3440   91.6570 C.2       1 ACY         0.1883
      2 O         -11.3760   76.1280   91.8510 O.2       1 ACY        -0.3960
      3 CH3       -12.7010   78.1140   91.8010 C.3       1 ACY         0.0836
      4 N         -10.3450   78.0630   91.3090 N.am      1 TYR        -0.2634
      5 CA         -9.0270   77.4770   91.0710 C.3       1 TYR         0.1390
      6 C          -9.0060   76.4400   89.9430 C.2       1 TYR         0.2058
      7 O          -8.1650   76.5130   89.0550 O.2       1 TYR        -0.3942
      8 CB         -8.4000   76.9530   92.3840 C.3       1 TYR         0.0163
      9 CG         -8.1100   75.4700   92.4470 C.ar      1 TYR        -0.0493
     10 CD1        -6.9450   74.9450   91.9040 C.ar      1 TYR        -0.0685
     11 CD2        -8.9890   74.5980   93.0770 C.ar      1 TYR        -0.0685
     12 CE1        -6.6730   73.5820   91.9670 C.ar      1 TYR        -0.0398
     13 CE2        -8.7270   73.2400   93.1480 C.ar      1 TYR        -0.0398
     14 CZ         -7.5690   72.7370   92.5930 C.ar      1 TYR         0.0805
     15 OH         -7.3060   71.3880   92.6630 O.3       1 TYR        -0.3376
     16 N          -9.9410   75.4960   89.9730 N.am      1 HIS        -0.2623
     17 CA        -10.0130   74.4520   88.9600 C.3       1 HIS         0.1369
     18 C         -11.1120   74.7260   87.9380 C.2       1 HIS         0.2054
     19 O         -11.3660   73.9070   87.0540 O.2       1 HIS        -0.3942
     20 CB        -10.2560   73.0900   89.6100 C.3       1 HIS         0.0145
     21 CG        -11.6180   72.9480   90.2140 C.2       1 HIS        -0.0027
     22 ND1       -11.9920   73.6000   91.3680 N.2       1 HIS        -0.3252
     23 CD2       -12.6980   72.2330   89.8180 C.2       1 HIS         0.0291
     24 CE1       -13.2440   73.2940   91.6590 C.2       1 HIS         0.0907
     25 NE2       -13.6950   72.4650   90.7350 N.pl3     1 HIS        -0.2752
     26 N         -11.7630   75.8780   88.0600 N.am      1 THR        -0.2612
     27 CA        -12.9280   76.1880   87.2350 C.3       1 THR         0.1565
     28 C         -12.6690   77.2620   86.1830 C.2       1 THR         0.2066
     29 O         -13.5320   78.1030   85.9340 O.2       1 THR        -0.3943
     30 CB        -14.1190   76.6500   88.0990 C.3       1 THR         0.0924
     31 OG1       -13.7800   77.8710   88.7690 O.3       1 THR        -0.3874
     32 CG2       -14.4810   75.5860   89.1310 C.3       1 THR        -0.0346
     33 N         -11.4920   77.2330   85.5620 N.am      1 TYR        -0.2621
     34 CA        -11.1630   78.2080   84.5240 C.3       1 TYR         0.1390
     35 C         -12.1370   78.1510   83.3510 C.2       1 TYR         0.2058
     36 O         -12.4900   79.1800   82.7730 O.2       1 TYR        -0.3942
     37 CB         -9.7340   78.0120   84.0130 C.3       1 TYR         0.0163
     38 CG         -9.4400   78.8110   82.7610 C.ar      1 TYR        -0.0493
     39 CD1        -9.2710   80.1870   82.8190 C.ar      1 TYR        -0.0685
     40 CD2        -9.3460   78.1900   81.5220 C.ar      1 TYR        -0.0685
     41 CE1        -9.0070   80.9240   81.6800 C.ar      1 TYR        -0.0398
     42 CE2        -9.0840   78.9180   80.3770 C.ar      1 TYR        -0.0398
     43 CZ         -8.9160   80.2850   80.4620 C.ar      1 TYR         0.0805
     44 OH         -8.6570   81.0170   79.3270 O.3       1 TYR        -0.3376
     45 N         -12.5680   76.9430   83.0120 N.am      1 HIS        -0.2623
     46 CA        -13.4510   76.7210   81.8750 C.3       1 HIS         0.1369
     47 C         -14.8800   77.1860   82.1470 C.2       1 HIS         0.2054
     48 O         -15.7170   77.2040   81.2450 O.2       1 HIS        -0.3942
     49 CB        -13.4480   75.2390   81.4960 C.3       1 HIS         0.0145
     50 CG        -13.8790   74.3320   82.6060 C.2       1 HIS        -0.0027
     51 ND1       -15.0380   73.5870   82.5520 N.2       1 HIS        -0.3252
     52 CD2       -13.3100   74.0520   83.8030 C.2       1 HIS         0.0291
     53 CE1       -15.1640   72.8880   83.6650 C.2       1 HIS         0.0907
     54 NE2       -14.1280   73.1530   84.4410 N.pl3     1 HIS        -0.2752
     55 N         -15.1520   77.5590   83.3930 N.am      1 VAL        -0.2634
     56 CA        -16.4900   77.9730   83.8010 C.3       1 VAL         0.1333
     57 C         -16.6610   79.4880   83.6830 C.2       1 VAL         0.2041
     58 O         -15.7500   80.2480   84.0160 O.2       1 VAL        -0.3944
     59 CB        -16.7840   77.5220   85.2480 C.3       1 VAL        -0.0063
     60 CG1       -18.1900   77.9180   85.6670 C.3       1 VAL        -0.0584
     61 CG2       -16.5890   76.0190   85.3790 C.3       1 VAL        -0.0584
     62 N         -17.8280   79.9170   83.2040 N.am      1 FAK        -0.2637
     63 CA        -18.1330   81.3170   83.0680 C.3       1 FAK         0.1310
     64 C         -18.1620   81.9780   84.4080 C.2       1 FAK         0.2039
     65 O         -18.8930   81.5620   85.2980 O.2       1 FAK        -0.3944
     66 CB        -19.4540   81.4820   82.3940 C.3       1 FAK        -0.0123
     67 CG        -19.9060   82.8630   82.0570 C.3       1 FAK        -0.0470
     68 CD        -21.2490   83.0120   81.4270 C.3       1 FAK        -0.0324
     69 CE        -21.7340   84.3870   81.1100 C.3       1 FAK         0.0312
     70 NZ        -22.9720   84.5000   80.3950 N.am      1 FAK        -0.2789
     71 CH        -23.2730   85.7010   79.6800 C.2       1 FAK         0.3009
     72 OH        -22.4720   86.6240   79.6850 O.2       1 FAK        -0.3351
     73 CT        -24.5540   85.8360   78.9250 C.3       1 FAK         0.4749
     74 FI1       -24.3640   86.6550   77.8970 F         1 FAK        -0.1699
     75 FI2       -25.5010   86.3310   79.7130 F         1 FAK        -0.1699
     76 FI3       -24.9470   84.6520   78.4750 F         1 FAK        -0.1699
     77 N         -17.3520   83.0200   84.5630 N.am      1 ARG        -0.2637
     78 CA        -17.2070   83.7090   85.8410 C.3       1 ARG         0.1311
     79 C         -17.1220   85.2150   85.6430 C.2       1 ARG         0.2039
     80 O         -17.1610   85.7080   84.5150 O.2       1 ARG        -0.3944
     81 CB        -15.9370   83.2350   86.5550 C.3       1 ARG        -0.0092
     82 CG        -15.9650   81.7920   87.0270 C.3       1 ARG        -0.0156
     83 CD        -14.5550   81.2560   87.2590 C.3       1 ARG         0.0627
     84 NE        -13.8290   81.0480   86.0070 N.pl3     1 ARG        -0.2723
     85 CZ        -12.8380   81.8220   85.5730 C.cat     1 ARG         0.2882
     86 NH1       -12.4380   82.8620   86.2930 N.pl3     1 ARG        -0.2849
     87 NH2       -12.2400   81.5500   84.4180 N.pl3     1 ARG        -0.2849
     88 N         -17.0040   85.9430   86.7480 N.am      1 ARG        -0.2637
     89 CA        -16.7050   87.3670   86.6960 C.3       1 ARG         0.1311
     90 C         -15.2020   87.5500   86.8660 C.2       1 ARG         0.2040
     91 O         -14.4570   86.5720   86.8930 O.2       1 ARG        -0.3944
     92 CB        -17.4700   88.1370   87.7750 C.3       1 ARG        -0.0092
     93 CG        -18.9670   88.2830   87.5150 C.3       1 ARG        -0.0156
     94 CD        -19.7440   87.0440   87.9340 C.3       1 ARG         0.0627
     95 NE        -21.1880   87.2390   87.8330 N.pl3     1 ARG        -0.2723
     96 CZ        -22.0930   86.3890   88.3100 C.cat     1 ARG         0.2882
     97 NH1       -21.7070   85.2810   88.9280 N.pl3     1 ARG        -0.2849
     98 NH2       -23.3860   86.6480   88.1730 N.pl3     1 ARG        -0.2849
     99 N         -14.7540   88.7960   86.9860 N.am      1 THR        -0.2613
    100 CA        -13.3210   89.0830   87.0310 C.3       1 THR         0.1565
    101 C         -12.7440   89.1390   88.4440 C.2       1 THR         0.2066
    102 O         -11.8630   89.9490   88.7310 O.2       1 THR        -0.3943
    103 CB        -12.9840   90.3900   86.2950 C.3       1 THR         0.0924
    104 OG1       -13.9670   91.3830   86.6120 O.3       1 THR        -0.3874
    105 CG2       -12.9740   90.1600   84.7940 C.3       1 THR        -0.0346
    106 N         -13.2410   88.2750   89.3200 N.am      1 ASN        -0.2615
    107 CA        -12.6880   88.1540   90.6610 C.3       1 ASN         0.1476
    108 C         -11.4410   87.2800   90.6450 C.2       1 ASN         0.2064
    109 O         -11.3780   86.2910   89.9160 O.2       1 ASN        -0.3942
    110 CB        -13.7260   87.5630   91.6140 C.3       1 ASN         0.0773
    111 CG        -14.9470   88.4470   91.7660 C.2       1 ASN         0.1780
    112 OD1       -14.8320   89.6540   91.9820 O.2       1 ASN        -0.3970
    113 ND2       -16.1280   87.8490   91.6460 N.am      1 ASN        -0.3007
    114 N         -10.4480   87.6450   91.4460 N.am      1 TYR        -0.2620
    115 CA         -9.2340   86.8460   91.5500 C.3       1 TYR         0.1390
    116 C          -9.3730   85.7890   92.6390 C.2       1 TYR         0.2058
    117 O          -8.4850   85.6140   93.4710 O.2       1 TYR        -0.3942
    118 CB         -8.0120   87.7330   91.7950 C.3       1 TYR         0.0163
    119 CG         -7.7360   88.6830   90.6560 C.ar      1 TYR        -0.0493
    120 CD1        -7.3600   88.2040   89.4080 C.ar      1 TYR        -0.0685
    121 CD2        -7.8590   90.0540   90.8230 C.ar      1 TYR        -0.0685
    122 CE1        -7.1120   89.0660   88.3590 C.ar      1 TYR        -0.0398
    123 CE2        -7.6110   90.9240   89.7800 C.ar      1 TYR        -0.0398
    124 CZ         -7.2380   90.4240   88.5500 C.ar      1 TYR         0.0805
    125 OH         -6.9910   91.2840   87.5060 O.3       1 TYR        -0.3376
    126 N         -10.5080   85.0970   92.6210 N.am      1 TYR        -0.2620
    127 CA        -10.7750   83.9900   93.5290 C.3       1 TYR         0.1390
    128 C         -11.9280   83.1430   93.0030 C.2       1 TYR         0.2058
    129 O         -12.4830   83.4240   91.9430 O.2       1 TYR        -0.3942
    130 CB        -11.0900   84.4900   94.9400 C.3       1 TYR         0.0163
    131 CG        -12.1070   85.6120   95.0090 C.ar      1 TYR        -0.0493
    132 CD1       -13.4700   85.3500   94.9480 C.ar      1 TYR        -0.0685
    133 CD2       -11.7010   86.9300   95.1590 C.ar      1 TYR        -0.0685
    134 CE1       -14.3980   86.3730   95.0190 C.ar      1 TYR        -0.0398
    135 CE2       -12.6190   87.9580   95.2320 C.ar      1 TYR        -0.0398
    136 CZ        -13.9650   87.6760   95.1620 C.ar      1 TYR         0.0805
    137 OH        -14.8770   88.7040   95.2360 O.3       1 TYR        -0.3376
    138 N         -12.2850   82.1040   93.7490 N.am      1 CYS        -0.2628
    139 CA        -13.3610   81.2100   93.3410 C.3       1 CYS         0.1397
    140 C         -14.5260   81.2470   94.3220 C.2       1 CYS         0.2000
    141 O         -14.4130   80.7660   95.4510 O.2       1 CYS        -0.3947
    142 CB        -12.8450   79.7800   93.2110 C.3       1 CYS         0.0363
    143 SG        -14.1330   78.5920   92.7790 S.3       1 CYS        -0.1344
    144 N         -15.6430   81.8190   93.8850 N.am      1 NH2        -0.2989
    145 H         -13.2293   77.7111   90.9243 H         1 ACY         0.0616
    146 H         -12.3191   79.1191   91.5690 H         1 ACY         0.0616
    147 H         -10.4522   79.0518   91.2051 H         1 TYR         0.1884
    148 H          -8.3837   78.3018   90.7306 H         1 TYR         0.0821
    149 H          -9.0921   77.1935   93.2044 H         1 TYR         0.0453
    150 H          -7.4502   77.4863   92.5372 H         1 TYR         0.0453
    151 H          -6.2353   75.6083   91.4228 H         1 TYR         0.0530
    152 H          -9.8974   74.9881   93.5216 H         1 TYR         0.0530
    153 H          -5.7645   73.1859   91.5280 H         1 TYR         0.0525
    154 H          -9.4292   72.5751   93.6378 H         1 TYR         0.0525
    155 H          -6.4766   71.2057   92.2372 H         1 TYR         0.2458
    156 H         -10.6144   75.5027   90.7123 H         1 HIS         0.1885
    157 H          -9.0487   74.4216   88.4316 H         1 HIS         0.0817
    158 H          -9.5074   72.9446   90.4027 H         1 HIS         0.0420
    159 H         -10.1333   72.3117   88.8425 H         1 HIS         0.0420
    160 H         -12.7639   71.5944   88.9384 H         1 HIS         0.0729
    161 H         -13.8078   73.6625   92.5147 H         1 HIS         0.1199
    162 H         -14.6408   72.0582   90.7063 H         1 HIS         0.2361
    163 H         -11.4481   76.5482   88.7321 H         1 THR         0.1884
    164 H         -13.2144   75.2633   86.7126 H         1 THR         0.0826
    165 H         -14.9871   76.8247   87.4465 H         1 THR         0.0639
    166 H         -14.5148   78.1538   89.3005 H         1 THR         0.2101
    167 H         -15.3312   75.9355   89.7352 H         1 THR         0.0257
    168 H         -13.6169   75.4016   89.7862 H         1 THR         0.0257
    169 H         -14.7560   74.6539   88.6157 H         1 THR         0.0257
    170 H         -10.8222   76.5330   85.8096 H         1 TYR         0.1885
    171 H         -11.2318   79.2095   84.9737 H         1 TYR         0.0821
    172 H          -9.5839   76.9451   83.7915 H         1 TYR         0.0453
    173 H          -9.0335   78.3249   84.8013 H         1 TYR         0.0453
    174 H          -9.3474   80.6929   83.7746 H         1 TYR         0.0530
    175 H          -9.4804   77.1166   81.4521 H         1 TYR         0.0530
    176 H          -8.8724   81.9977   81.7441 H         1 TYR         0.0525
    177 H          -9.0109   78.4182   79.4179 H         1 TYR         0.0525
    178 H          -8.5689   81.9346   79.5566 H         1 TYR         0.2458
    179 H         -12.2762   76.1567   83.5566 H         1 HIS         0.1885
    180 H         -13.0617   77.2995   81.0243 H         1 HIS         0.0817
    181 H         -12.4273   74.9595   81.1961 H         1 HIS         0.0420
    182 H         -14.1318   75.0967   80.6463 H         1 HIS         0.0420
    183 H         -12.3778   74.4633   84.1874 H         1 HIS         0.0729
    184 H         -15.9818   72.2093   83.9027 H         1 HIS         0.1199
    185 H         -13.9611   72.7501   85.3741 H         1 HIS         0.2361
    186 H         -14.4174   77.5558   84.0715 H         1 VAL         0.1883
    187 H         -17.2172   77.4899   83.1319 H         1 VAL         0.0802
    188 H         -16.0709   78.0242   85.9183 H         1 VAL         0.0343
    189 H         -18.3723   77.5852   86.6995 H         1 VAL         0.0234
    190 H         -18.9202   77.4439   84.9947 H         1 VAL         0.0234
    191 H         -18.2953   79.0115   85.6102 H         1 VAL         0.0234
    192 H         -15.5667   75.7537   85.0714 H         1 VAL         0.0234
    193 H         -17.3125   75.4978   84.7349 H         1 VAL         0.0234
    194 H         -16.7466   75.7186   86.4254 H         1 VAL         0.0234
    195 H         -18.5148   79.2438   82.9299 H         1 FAK         0.1883
    196 H         -17.3549   81.7929   82.4531 H         1 FAK         0.0800
    197 H         -20.2149   81.0422   83.0556 H         1 FAK         0.0312
    198 H         -19.4134   80.9135   81.4532 H         1 FAK         0.0312
    199 H         -19.1673   83.2918   81.3638 H         1 FAK         0.0268
    200 H         -19.9135   83.4445   82.9907 H         1 FAK         0.0268
    201 H         -21.9814   82.5581   82.1107 H         1 FAK         0.0285
    202 H         -21.2301   82.4479   80.4829 H         1 FAK         0.0285
    203 H         -20.9578   84.8800   80.5063 H         1 FAK         0.0522
    204 H         -21.8530   84.9232   82.0631 H         1 FAK         0.0522
    205 H         -23.6230   83.7409   80.3965 H         1 FAK         0.1859
    206 H         -16.8241   83.3428   83.7774 H         1 ARG         0.1883
    207 H         -18.0813   83.4787   86.4675 H         1 ARG         0.0800
    208 H         -15.7795   83.8780   87.4335 H         1 ARG         0.0313
    209 H         -15.0921   83.3501   85.8601 H         1 ARG         0.0313
    210 H         -16.4615   81.1750   86.2636 H         1 ARG         0.0301
    211 H         -16.5296   81.7343   87.9693 H         1 ARG         0.0301
    212 H         -14.6243   80.2961   87.7916 H         1 ARG         0.0689
    213 H         -13.9987   81.9779   87.8750 H         1 ARG         0.0689
    214 H         -14.1038   80.2470   85.4207 H         1 ARG         0.2642
    215 H         -11.6703   83.4588   85.9534 H         1 ARG         0.2615
    216 H         -12.8951   83.0726   87.1916 H         1 ARG         0.2615
    217 H         -12.5477   80.7434   83.8562 H         1 ARG         0.2615
    218 H         -11.4687   82.1457   84.0845 H         1 ARG         0.2615
    219 H         -17.1235   85.5020   87.6375 H         1 ARG         0.1883
    220 H         -17.0043   87.7577   85.7122 H         1 ARG         0.0800
    221 H         -17.0355   89.1448   87.8498 H         1 ARG         0.0313
    222 H         -17.3383   87.6090   88.7310 H         1 ARG         0.0313
    223 H         -19.1253   88.4542   86.4400 H         1 ARG         0.0301
    224 H         -19.3432   89.1465   88.0832 H         1 ARG         0.0301
    225 H         -19.4911   86.8029   88.9770 H         1 ARG         0.0689
    226 H         -19.4532   86.2063   87.2831 H         1 ARG         0.0689
    227 H         -21.5274   88.0898   87.3619 H         1 ARG         0.2642
    228 H         -22.4105   84.6249   89.2962 H         1 ARG         0.2615
    229 H         -20.7037   85.0765   89.0398 H         1 ARG         0.2615
    230 H         -23.6912   87.5072   87.6938 H         1 ARG         0.2615
    231 H         -24.0853   85.9901   88.5457 H         1 ARG         0.2615
    232 H         -15.4083   89.5498   87.0465 H         1 THR         0.1884
    233 H         -12.8149   88.2609   86.5037 H         1 THR         0.0826
    234 H         -11.9920   90.7411   86.6155 H         1 THR         0.0639
    235 H         -13.9683   91.5378   87.5493 H         1 THR         0.2101
    236 H         -12.7318   91.1021   84.2803 H         1 THR         0.0257
    237 H         -13.9653   89.8101   84.4700 H         1 THR         0.0257
    238 H         -12.2177   89.4013   84.5443 H         1 THR         0.0257
    239 H         -14.0110   87.6953   89.0535 H         1 ASN         0.1885
    240 H         -12.4114   89.1568   91.0185 H         1 ASN         0.0826
    241 H         -13.2618   87.4304   92.6024 H         1 ASN         0.0551
    242 H         -14.0454   86.5850   91.2247 H         1 ASN         0.0551
    243 H         -16.9696   88.3815   91.7366 H         1 ASN         0.1814
    244 H         -16.1749   86.8666   91.4651 H         1 ASN         0.1814
    245 H         -10.5342   88.4817   91.9868 H         1 TYR         0.1885
    246 H          -9.0872   86.3268   90.5914 H         1 TYR         0.0821
    247 H          -7.1323   87.0874   91.9341 H         1 TYR         0.0453
    248 H          -8.1832   88.3213   92.7085 H         1 TYR         0.0453
    249 H          -7.2596   87.1355   89.2552 H         1 TYR         0.0530
    250 H          -8.1547   90.4492   91.7881 H         1 TYR         0.0530
    251 H          -6.8198   88.6764   87.3906 H         1 TYR         0.0525
    252 H          -7.7089   91.9935   89.9270 H         1 TYR         0.0525
    253 H          -6.7474   90.7838   86.7360 H         1 TYR         0.2458
    254 H         -11.2098   85.3478   91.9542 H         1 TYR         0.1885
    255 H          -9.8742   83.3607   93.5793 H         1 TYR         0.0821
    256 H         -10.1538   84.8497   95.3917 H         1 TYR         0.0453
    257 H         -11.4770   83.6421   95.5242 H         1 TYR         0.0453
    258 H         -13.8118   84.3267   94.8430 H         1 TYR         0.0530
    259 H         -10.6427   87.1568   95.2200 H         1 TYR         0.0530
    260 H         -15.4580   86.1532   94.9628 H         1 TYR         0.0525
    261 H         -12.2821   88.9822   95.3439 H         1 TYR         0.0525
    262 H         -14.7268   89.3111   94.5210 H         1 TYR         0.2458
    263 H         -11.8051   81.9314   94.6092 H         1 CYS         0.1884
    264 H         -13.7268   81.5407   92.3577 H         1 CYS         0.0808
    265 H         -12.4018   79.4801   94.1721 H         1 CYS         0.0426
    266 H         -12.0727   79.7574   92.4281 H         1 CYS         0.0426
    267 H         -16.4432   81.8742   94.4822 H         1 NH2         0.1815
    268 H         -15.6834   82.1942   92.9589 H         1 NH2         0.1815
@<TRIPOS>BOND
     1    1    2 2  
     2    1    3 1  
     3    1    4 am 
     4    3  143 1  
     5    4    5 1  
     6    5    6 1  
     7    5    8 1  
     8    6    7 2  
     9    6   16 am 
    10    8    9 1  
    11    9   10 ar 
    12    9   11 ar 
    13   10   12 ar 
    14   11   13 ar 
    15   12   14 ar 
    16   13   14 ar 
    17   14   15 1  
    18   16   17 1  
    19   17   18 1  
    20   17   20 1  
    21   18   19 2  
    22   18   26 am 
    23   20   21 1  
    24   21   22 1  
    25   21   23 2  
    26   22   24 2  
    27   23   25 1  
    28   24   25 1  
    29   26   27 1  
    30   27   28 1  
    31   27   30 1  
    32   28   29 2  
    33   28   33 am 
    34   30   31 1  
    35   30   32 1  
    36   33   34 1  
    37   34   35 1  
    38   34   37 1  
    39   35   36 2  
    40   35   45 am 
    41   37   38 1  
    42   38   39 ar 
    43   38   40 ar 
    44   39   41 ar 
    45   40   42 ar 
    46   41   43 ar 
    47   42   43 ar 
    48   43   44 1  
    49   45   46 1  
    50   46   47 1  
    51   46   49 1  
    52   47   48 2  
    53   47   55 am 
    54   49   50 1  
    55   50   51 1  
    56   50   52 2  
    57   51   53 2  
    58   52   54 1  
    59   53   54 1  
    60   55   56 1  
    61   56   57 1  
    62   56   59 1  
    63   57   58 2  
    64   57   62 am 
    65   59   60 1  
    66   59   61 1  
    67   62   63 1  
    68   63   64 1  
    69   63   66 1  
    70   64   65 2  
    71   64   77 am 
    72   66   67 1  
    73   67   68 1  
    74   68   69 1  
    75   69   70 1  
    76   70   71 am 
    77   71   72 2  
    78   71   73 1  
    79   73   74 1  
    80   73   75 1  
    81   73   76 1  
    82   77   78 1  
    83   78   79 1  
    84   78   81 1  
    85   79   80 2  
    86   79   88 am 
    87   81   82 1  
    88   82   83 1  
    89   83   84 1  
    90   84   85 ar 
    91   85   86 ar 
    92   85   87 ar 
    93   88   89 1  
    94   89   90 1  
    95   89   92 1  
    96   90   91 2  
    97   90   99 am 
    98   92   93 1  
    99   93   94 1  
   100   94   95 1  
   101   95   96 ar 
   102   96   97 ar 
   103   96   98 ar 
   104   99  100 1  
   105  100  101 1  
   106  100  103 1  
   107  101  102 2  
   108  101  106 am 
   109  103  104 1  
   110  103  105 1  
   111  106  107 1  
   112  107  108 1  
   113  107  110 1  
   114  108  109 2  
   115  108  114 am 
   116  110  111 1  
   117  111  112 2  
   118  111  113 am 
   119  114  115 1  
   120  115  116 1  
   121  115  118 1  
   122  116  117 2  
   123  116  126 am 
   124  118  119 1  
   125  119  120 ar 
   126  119  121 ar 
   127  120  122 ar 
   128  121  123 ar 
   129  122  124 ar 
   130  123  124 ar 
   131  124  125 1  
   132  126  127 1  
   133  127  128 1  
   134  127  130 1  
   135  128  129 2  
   136  128  138 am 
   137  130  131 1  
   138  131  132 ar 
   139  131  133 ar 
   140  132  134 ar 
   141  133  135 ar 
   142  134  136 ar 
   143  135  136 ar 
   144  136  137 1  
   145  138  139 1  
   146  139  140 1  
   147  139  142 1  
   148  140  141 2  
   149  140  144 am 
   150  142  143 1  
   151    3  145 1  
   152    3  146 1  
   153    4  147 1  
   154    5  148 1  
   155    8  149 1  
   156    8  150 1  
   157   10  151 1  
   158   11  152 1  
   159   12  153 1  
   160   13  154 1  
   161   15  155 1  
   162   16  156 1  
   163   17  157 1  
   164   20  158 1  
   165   20  159 1  
   166   23  160 1  
   167   24  161 1  
   168   25  162 1  
   169   26  163 1  
   170   27  164 1  
   171   30  165 1  
   172   31  166 1  
   173   32  167 1  
   174   32  168 1  
   175   32  169 1  
   176   33  170 1  
   177   34  171 1  
   178   37  172 1  
   179   37  173 1  
   180   39  174 1  
   181   40  175 1  
   182   41  176 1  
   183   42  177 1  
   184   44  178 1  
   185   45  179 1  
   186   46  180 1  
   187   49  181 1  
   188   49  182 1  
   189   52  183 1  
   190   53  184 1  
   191   54  185 1  
   192   55  186 1  
   193   56  187 1  
   194   59  188 1  
   195   60  189 1  
   196   60  190 1  
   197   60  191 1  
   198   61  192 1  
   199   61  193 1  
   200   61  194 1  
   201   62  195 1  
   202   63  196 1  
   203   66  197 1  
   204   66  198 1  
   205   67  199 1  
   206   67  200 1  
   207   68  201 1  
   208   68  202 1  
   209   69  203 1  
   210   69  204 1  
   211   70  205 1  
   212   77  206 1  
   213   78  207 1  
   214   81  208 1  
   215   81  209 1  
   216   82  210 1  
   217   82  211 1  
   218   83  212 1  
   219   83  213 1  
   220   84  214 1  
   221   86  215 1  
   222   86  216 1  
   223   87  217 1  
   224   87  218 1  
   225   88  219 1  
   226   89  220 1  
   227   92  221 1  
   228   92  222 1  
   229   93  223 1  
   230   93  224 1  
   231   94  225 1  
   232   94  226 1  
   233   95  227 1  
   234   97  228 1  
   235   97  229 1  
   236   98  230 1  
   237   98  231 1  
   238   99  232 1  
   239  100  233 1  
   240  103  234 1  
   241  104  235 1  
   242  105  236 1  
   243  105  237 1  
   244  105  238 1  
   245  106  239 1  
   246  107  240 1  
   247  110  241 1  
   248  110  242 1  
   249  113  243 1  
   250  113  244 1  
   251  114  245 1  
   252  115  246 1  
   253  118  247 1  
   254  118  248 1  
   255  120  249 1  
   256  121  250 1  
   257  122  251 1  
   258  123  252 1  
   259  125  253 1  
   260  126  254 1  
   261  127  255 1  
   262  130  256 1  
   263  130  257 1  
   264  132  258 1  
   265  133  259 1  
   266  134  260 1  
   267  135  261 1  
   268  137  262 1  
   269  138  263 1  
   270  139  264 1  
   271  142  265 1  
   272  142  266 1  
   273  144  267 1  
   274  144  268 1  
@<TRIPOS>SUBSTRUCTURE
     1 ACY         1

