6ee3_ligand
  -I-interpret- 

 56 60  0  0  0  0  0  0  0  0999 V2000
   93.2250  116.5840   10.3670 C   0  0  0  0  0
   91.9140  116.0320   10.9640 C   0  0  0  0  0
   91.9880  114.4800   11.0240 C   0  0  0  0  0
   93.2390  114.0360   11.8130 C   0  0  0  0  0
   93.1380  114.5720   13.2700 C   0  0  0  0  0
   94.4800  114.6400   11.1360 C   0  0  0  0  0
   94.0890  116.0020   11.3100 C   0  0  0  0  0
   94.3160  116.6690   12.5630 C   0  0  0  0  0
   93.0540  116.1480   13.2370 C   0  0  0  0  0
   91.7870  116.5700   12.3930 C   0  0  0  0  0
   91.5110  118.1070   12.3480 C   0  0  0  0  0
   92.3740  118.9740   12.2170 O   0  0  0  0  0
   90.2160  118.3700   12.4480 N   0  0  0  0  0
   89.6830  119.7280   12.5060 C   0  0  0  0  0
   88.7700  119.9960   11.3290 C   0  0  0  0  0
   87.9350  119.1810   10.9440 O   0  0  0  0  0
   89.0480  121.1380   10.7300 N   0  0  0  0  0
   88.3210  121.4560    9.6800 O   0  0  0  0  0
   89.1720  119.9340   13.8250 C   0  0  0  0  0
   88.9220  121.2240   14.2790 C   0  0  0  0  0
   88.4930  121.4440   15.5930 C   0  0  0  0  0
   89.0130  118.8540   14.7060 C   0  0  0  0  0
   88.5940  119.0540   16.0270 C   0  0  0  0  0
   88.3190  120.3630   16.4640 C   0  0  0  0  0
   87.9720  120.6060   17.7980 C   0  0  0  0  0
   86.8910  120.0640   18.4580 C   0  0  0  0  0
   86.7290  120.3690   19.8210 C   0  0  0  0  0
   85.6720  119.9000   20.4810 F   0  0  0  0  0
   87.6350  121.1630   20.5080 C   0  0  0  0  0
   87.4690  121.4460   21.8390 F   0  0  0  0  0
   88.7370  121.6660   19.8630 C   0  0  0  0  0
   89.5850  122.4060   20.5540 F   0  0  0  0  0
   88.9030  121.3880   18.5100 C   0  0  0  0  0
   93.2876  117.6668   10.2589 H   0  0  0  0  0
   93.4184  116.3427    9.3218 H   0  0  0  0  0
   91.0630  116.3341   10.3536 H   0  0  0  0  0
   92.0476  114.0861   10.0094 H   0  0  0  0  0
   91.0972  114.0993   11.5237 H   0  0  0  0  0
   93.3109  112.9485   11.8287 H   0  0  0  0  0
   94.0174  114.2638   13.8355 H   0  0  0  0  0
   92.2459  114.1675   13.7481 H   0  0  0  0  0
   94.6890  114.3161   10.1164 H   0  0  0  0  0
   95.4495  114.3523   11.5427 H   0  0  0  0  0
   95.0250  116.3896   10.9078 H   0  0  0  0  0
   94.4455  117.7507   12.5288 H   0  0  0  0  0
   95.2621  116.4660   13.0648 H   0  0  0  0  0
   92.9697  116.5576   14.2436 H   0  0  0  0  0
   90.9333  116.1293   12.9079 H   0  0  0  0  0
   89.5620  117.5882   12.4862 H   0  0  0  0  0
   90.4394  120.5013   12.3722 H   0  0  0  0  0
   89.0611  122.0705   13.6066 H   0  0  0  0  0
   88.2942  122.4586   15.9381 H   0  0  0  0  0
   89.2190  117.8423   14.3564 H   0  0  0  0  0
   88.4826  118.2089   16.7063 H   0  0  0  0  0
   86.1826  119.4182   17.9392 H   0  0  0  0  0
   89.7740  121.7846   17.9883 H   0  0  0  0  0
  1  2  1  0  0  0
  1  7  1  0  0  0
  2  3  1  0  0  0
  2 10  1  0  0  0
  3  4  1  0  0  0
  4  5  1  0  0  0
  4  6  1  0  0  0
  5  9  1  0  0  0
  6  7  1  0  0  0
  7  8  1  0  0  0
  8  9  1  0  0  0
  9 10  1  0  0  0
 10 11  1  0  0  0
 11 12  2  0  0  0
 11 13  1  0  0  0
 13 14  1  0  0  0
 14 15  1  0  0  0
 14 19  1  0  0  0
 15 16  2  0  0  0
 15 17  1  0  0  0
 17 18  2  0  0  0
 19 20  4  0  0  0
 19 22  4  0  0  0
 20 21  4  0  0  0
 21 24  4  0  0  0
 22 23  4  0  0  0
 23 24  4  0  0  0
 24 25  1  0  0  0
 25 26  4  0  0  0
 25 33  4  0  0  0
 26 27  4  0  0  0
 27 28  1  0  0  0
 27 29  4  0  0  0
 29 30  1  0  0  0
 29 31  4  0  0  0
 31 32  1  0  0  0
 31 33  4  0  0  0
  1 34  1  0  0  0
  1 35  1  0  0  0
  2 36  1  0  0  0
  3 37  1  0  0  0
  3 38  1  0  0  0
  4 39  1  0  0  0
  5 40  1  0  0  0
  5 41  1  0  0  0
  6 42  1  0  0  0
  6 43  1  0  0  0
  7 44  1  0  0  0
  8 45  1  0  0  0
  8 46  1  0  0  0
  9 47  1  0  0  0
 10 48  1  0  0  0
 13 49  1  0  0  0
 14 50  1  0  0  0
 20 51  1  0  0  0
 21 52  1  0  0  0
 22 53  1  0  0  0
 23 54  1  0  0  0
 26 55  1  0  0  0
 33 56  1  0  0  0
M  END
$$$$
