5u0e_ligand
  -I-interpret- 

 23 24  0  0  0  0  0  0  0  0999 V2000
   -3.1080    6.8850   14.0640 C   0  0  0  0  0
   -4.4220    6.5180   14.2120 C   0  0  0  0  0
   -2.1940    5.9190   13.7640 C   0  0  0  0  0
   -4.8420    5.2140   14.0840 C   0  0  0  0  0
   -2.6250    4.6090   13.6320 C   0  0  0  0  0
   -3.9430    4.2330   13.7910 C   0  0  0  0  0
   -4.6310    0.6400   14.7640 C   0  0  0  0  0
   -5.7220    1.2980   16.5980 C   0  0  0  0  0
   -3.9960    2.0080   14.8830 C   0  0  0  0  0
   -4.4400    2.8290   13.6710 C   0  0  0  0  0
   -5.5580    0.3360   15.6760 N   0  0  0  0  0
   -4.3180   -0.1510   13.8910 O   0  0  0  0  0
   -6.7660    1.2900   17.8760 S   0  0  0  0  0
   -4.6590    2.6500   16.4180 S   0  0  0  0  0
   -2.8023    7.9244   14.1835 H   0  0  0  0  0
   -5.1598    7.2875   14.4392 H   0  0  0  0  0
   -1.1424    6.1729   13.6303 H   0  0  0  0  0
   -5.8949    4.9655   14.2171 H   0  0  0  0  0
   -1.8899    3.8409   13.3918 H   0  0  0  0  0
   -2.9061    2.0172   14.8970 H   0  0  0  0  0
   -4.0299    2.3808   12.7660 H   0  0  0  0  0
   -5.5290    2.8380   13.6249 H   0  0  0  0  0
   -6.0865   -0.5364   15.6724 H   0  0  0  0  0
  2  1  4  0  0  0
  3  1  4  0  0  0
  4  2  4  0  0  0
  5  3  4  0  0  0
  6  4  4  0  0  0
  6  5  4  0  0  0
 10  6  1  0  0  0
  9  7  1  0  0  0
  7 11  1  0  0  0
  7 12  2  0  0  0
 11  8  1  0  0  0
  8 13  2  0  0  0
  8 14  1  0  0  0
  9 10  1  0  0  0
  9 14  1  0  0  0
  1 15  1  0  0  0
  2 16  1  0  0  0
  3 17  1  0  0  0
  4 18  1  0  0  0
  5 19  1  0  0  0
  9 20  1  0  0  0
 10 21  1  0  0  0
 10 22  1  0  0  0
 11 23  1  0  0  0
M  END
$$$$
