4clj_ligand
  -I-interpret- 

 49 52  0  0  0  0  0  0  0  0999 V2000
  -26.4020  -20.0140   59.8440 C   0  0  0  0  0
  -34.4190  -18.7630   61.1520 C   0  0  0  0  0
  -34.9010  -18.5840   62.4650 C   0  0  0  0  0
  -29.9730  -17.3450   60.9060 C   0  0  0  0  0
  -33.7080  -16.4310   62.6190 C   0  0  0  0  0
  -27.8860  -17.8580   61.8940 C   0  0  0  0  0
  -27.8150  -20.2460   59.7130 C   0  0  0  0  0
  -28.9010  -18.2500   61.0000 C   0  0  0  0  0
  -28.9220  -19.5080   60.1950 C   0  0  0  0  0
  -33.5690  -17.7760   60.5510 C   0  0  0  0  0
  -33.1940  -16.5750   61.2820 C   0  0  0  0  0
  -30.0660  -16.1370   61.6330 C   0  0  0  0  0
  -34.5440  -17.4250   63.1840 C   0  0  0  0  0
  -30.0690  -20.2820   59.7170 C   0  0  0  0  0
  -28.9910  -15.8410   62.5050 C   0  0  0  0  0
  -33.1100  -18.0620   59.1520 C   0  0  0  0  0
  -31.5670  -20.0660   59.8730 C   0  0  0  0  0
  -32.2750  -15.4690   60.7050 C   0  0  0  0  0
  -33.0120  -14.1260   60.5870 C   0  0  0  0  0
  -27.6310  -22.3840   58.3540 C   0  0  0  0  0
  -31.8200  -19.3160   57.4560 C   0  0  0  0  0
  -25.2690  -19.8160   59.9700 N   0  0  0  0  0
  -27.9150  -16.6900   62.6300 N   0  0  0  0  0
  -29.6860  -21.3610   59.0280 N   0  0  0  0  0
  -28.3490  -21.3210   59.0370 N   0  0  0  0  0
  -32.1870  -19.1260   58.8710 N   0  0  0  0  0
  -29.0060  -14.6680   63.2680 N   0  0  0  0  0
  -33.5930  -17.3130   58.2950 O   0  0  0  0  0
  -31.1180  -15.2320   61.5680 O   0  0  0  0  0
  -35.0020  -17.2600   64.4230 F   0  0  0  0  0
  -34.6937  -19.6561   60.5907 H   0  0  0  0  0
  -35.5449  -19.3362   62.9207 H   0  0  0  0  0
  -30.7880  -17.5922   60.2258 H   0  0  0  0  0
  -33.4510  -15.5472   63.2030 H   0  0  0  0  0
  -27.0254  -18.5164   62.0121 H   0  0  0  0  0
  -31.7184  -19.6202   60.8561 H   0  0  0  0  0
  -32.0404  -21.0368   59.7263 H   0  0  0  0  0
  -31.9627  -15.8261   59.7237 H   0  0  0  0  0
  -33.8704  -14.2410   59.9251 H   0  0  0  0  0
  -33.3520  -13.8117   61.5738 H   0  0  0  0  0
  -32.3346  -13.3760   60.1787 H   0  0  0  0  0
  -27.0140  -21.9550   57.5645 H   0  0  0  0  0
  -26.9964  -22.9091   59.0679 H   0  0  0  0  0
  -28.3459  -23.0824   57.9191 H   0  0  0  0  0
  -32.7164  -19.5349   56.8757 H   0  0  0  0  0
  -31.3538  -18.4063   57.0776 H   0  0  0  0  0
  -31.1194  -20.1468   57.3721 H   0  0  0  0  0
  -29.7932  -14.0233   63.1968 H   0  0  0  0  0
  -28.2297  -14.4577   63.8954 H   0  0  0  0  0
  7  1  1  0  0  0
  1 22  3  0  0  0
  2  3  4  0  0  0
 10  2  4  0  0  0
  3 13  4  0  0  0
  8  4  4  0  0  0
  4 12  4  0  0  0
 11  5  4  0  0  0
  5 13  4  0  0  0
  8  6  4  0  0  0
  6 23  4  0  0  0
  9  7  4  0  0  0
  7 25  4  0  0  0
  9  8  1  0  0  0
 14  9  4  0  0  0
 10 11  4  0  0  0
 16 10  1  0  0  0
 11 18  1  0  0  0
 12 15  4  0  0  0
 12 29  1  0  0  0
 13 30  1  0  0  0
 17 14  1  0  0  0
 14 24  4  0  0  0
 23 15  4  0  0  0
 15 27  1  0  0  0
 26 16  1  0  0  0
 16 28  2  0  0  0
 17 26  1  0  0  0
 18 19  1  0  0  0
 18 29  1  0  0  0
 25 20  1  0  0  0
 26 21  1  0  0  0
 24 25  4  0  0  0
  2 31  1  0  0  0
  3 32  1  0  0  0
  4 33  1  0  0  0
  5 34  1  0  0  0
  6 35  1  0  0  0
 17 36  1  0  0  0
 17 37  1  0  0  0
 18 38  1  0  0  0
 19 39  1  0  0  0
 19 40  1  0  0  0
 19 41  1  0  0  0
 20 42  1  0  0  0
 20 43  1  0  0  0
 20 44  1  0  0  0
 21 45  1  0  0  0
 21 46  1  0  0  0
 21 47  1  0  0  0
 27 48  1  0  0  0
 27 49  1  0  0  0
M  END
$$$$
