3p8p_ligand
  -I-interpret- 

 37 36  0  0  0  0  0  0  0  0999 V2000
   -5.0290   -2.1700   21.6250 C   0  0  0  0  0
   -3.3510   -2.3420   23.3930 N   0  3  0  0  0
   -3.5890   -1.8460   22.0300 C   0  0  0  0  0
   -2.6060   -2.5130   21.0650 C   0  0  0  0  0
   -1.5010   -2.3580   18.7970 C   0  0  0  0  0
   -1.7530   -3.7240   18.3140 N   0  0  0  0  0
   -2.6410   -1.8530   19.6850 C   0  0  0  0  0
   -2.7150   -3.9780   17.4310 C   0  0  0  0  0
   -5.4610   -1.6510   20.5730 O   0  0  0  0  0
   -5.6710   -2.9270   22.3840 O   0  0  0  0  0
   -2.9470   -5.4120   16.9510 C   0  0  0  0  0
   -3.4450   -2.9860   16.9280 N   0  0  0  0  0
   -1.5290   -5.0880   14.8910 C   0  0  0  0  0
   -0.3490   -5.6200   14.0740 C   0  0  0  0  0
   -1.7490   -5.9280   16.1510 C   0  0  0  0  0
   -4.0068   -1.8967   24.0349 H   0  0  0  0  0
   -3.4861   -3.3528   23.4141 H   0  0  0  0  0
   -2.3956   -2.1195   23.6725 H   0  0  0  0  0
   -3.4393   -0.7669   21.9947 H   0  0  0  0  0
   -2.8872   -3.5603   20.9544 H   0  0  0  0  0
   -1.5998   -2.4109   21.4714 H   0  0  0  0  0
   -1.4195   -1.6977   17.9336 H   0  0  0  0  0
   -0.5839   -2.3654   19.3861 H   0  0  0  0  0
   -1.1790   -4.4916   18.6628 H   0  0  0  0  0
   -2.5300   -0.7762   19.8128 H   0  0  0  0  0
   -3.5887   -2.1000   19.2065 H   0  0  0  0  0
   -4.7717   -1.1134   20.1762 H   0  0  0  0  0
   -3.8269   -5.4257   16.3079 H   0  0  0  0  0
   -3.0857   -6.0524   17.8220 H   0  0  0  0  0
   -4.1569   -3.1826   16.2245 H   0  0  0  0  0
   -2.4286   -5.1368   14.2775 H   0  0  0  0  0
   -1.3130   -4.0620   15.1888 H   0  0  0  0  0
    0.5563   -5.5846   14.6801 H   0  0  0  0  0
   -0.5490   -6.6496   13.7772 H   0  0  0  0  0
   -0.2169   -5.0033   13.1850 H   0  0  0  0  0
   -1.9438   -6.9587   15.8548 H   0  0  0  0  0
   -0.8575   -5.8632   16.7748 H   0  0  0  0  0
  3  1  1  0  0  0
  1  9  1  0  0  0
  1 10  2  0  0  0
  3  2  1  0  0  0
  4  3  1  0  0  0
  7  4  1  0  0  0
  6  5  1  0  0  0
  5  7  1  0  0  0
  8  6  1  0  0  0
 11  8  1  0  0  0
  8 12  2  0  0  0
 15 11  1  0  0  0
 13 14  1  0  0  0
 13 15  1  0  0  0
  2 16  1  0  0  0
  2 17  1  0  0  0
  2 18  1  0  0  0
  3 19  1  0  0  0
  4 20  1  0  0  0
  4 21  1  0  0  0
  5 22  1  0  0  0
  5 23  1  0  0  0
  6 24  1  0  0  0
  7 25  1  0  0  0
  7 26  1  0  0  0
  9 27  1  0  0  0
 11 28  1  0  0  0
 11 29  1  0  0  0
 12 30  1  0  0  0
 13 31  1  0  0  0
 13 32  1  0  0  0
 14 33  1  0  0  0
 14 34  1  0  0  0
 14 35  1  0  0  0
 15 36  1  0  0  0
 15 37  1  0  0  0
M  END
$$$$
