3uo9_ligand
  -I-interpret- 

 59 62  0  0  0  0  0  0  0  0999 V2000
   -4.7040   10.8110   43.7270 O   0  0  0  0  0
    7.0440   10.2880   44.4940 O   0  0  0  0  0
   -6.5420    6.2110   44.2600 C   0  0  0  0  0
   12.2290    9.3120   44.1340 C   0  0  0  0  0
   -5.3860    6.3000   45.0500 C   0  0  0  0  0
   -7.3220    7.3520   44.0060 C   0  0  0  0  0
   11.6250    8.0540   43.9110 C   0  0  0  0  0
   11.4840   10.4800   43.8990 C   0  0  0  0  0
   -5.0070    7.5350   45.5850 C   0  0  0  0  0
   -6.9420    8.5910   44.5410 C   0  0  0  0  0
   10.2860    7.9570   43.4650 C   0  0  0  0  0
   10.1480   10.3770   43.4480 C   0  0  0  0  0
    0.5330   14.4950   42.5620 C   0  0  0  0  0
    2.1730   14.0460   44.7090 C   0  0  0  0  0
   -0.9830   14.6670   42.5220 C   0  0  0  0  0
    3.3620   14.7350   44.0400 C   0  0  0  0  0
   -5.4000    9.8870   45.8700 C   0  0  0  0  0
    8.1990    9.0030   42.7740 C   0  0  0  0  0
   -1.5030   14.1600   44.9890 N   0  0  0  0  0
    4.2810   13.5500   41.9600 N   0  0  0  0  0
   -2.2110   13.3550   45.7900 N   0  0  0  0  0
    5.1780   12.5190   41.5090 N   0  0  0  0  0
   -3.7410   11.5880   45.6630 N   0  0  0  0  0
    6.7160   10.8980   42.2750 N   0  0  0  0  0
    1.1600   13.0860   43.5310 S   0  0  0  0  0
   -2.6800   12.7190   43.3500 S   0  0  0  0  0
    5.2950   12.6230   44.0980 S   0  0  0  0  0
   -4.5610   10.7920   44.9550 C   0  0  0  0  0
    7.2610   10.1440   43.2780 C   0  0  0  0  0
   -5.7760    8.6740   45.3190 C   0  0  0  0  0
    9.5320    9.1230   43.2300 C   0  0  0  0  0
   -1.6660   13.9200   43.6510 C   0  0  0  0  0
    4.2410   13.7100   43.3100 C   0  0  0  0  0
   -2.9470   12.4820   45.0810 C   0  0  0  0  0
    5.8340   11.8920   42.5040 C   0  0  0  0  0
   -6.8374    5.2495   43.8400 H   0  0  0  0  0
   13.2594    9.3754   44.4838 H   0  0  0  0  0
   -4.7864    5.4110   45.2457 H   0  0  0  0  0
   -8.2207    7.2739   43.3942 H   0  0  0  0  0
   12.1997    7.1444   44.0853 H   0  0  0  0  0
   11.9333   11.4594   44.0634 H   0  0  0  0  0
   -4.1153    7.6106   46.2074 H   0  0  0  0  0
   -7.5449    9.4798   44.3551 H   0  0  0  0  0
    9.8367    6.9772   43.3028 H   0  0  0  0  0
    9.5782   11.2877   43.2636 H   0  0  0  0  0
    0.9277   15.3916   43.0399 H   0  0  0  0  0
    0.8457   14.3187   41.5328 H   0  0  0  0  0
    1.5389   14.8192   45.1428 H   0  0  0  0  0
    2.5637   13.3543   45.4554 H   0  0  0  0  0
   -1.3479   14.2659   41.5765 H   0  0  0  0  0
   -1.2098   15.7279   42.6274 H   0  0  0  0  0
    3.9592   15.2303   44.8055 H   0  0  0  0  0
    2.9885   15.4589   43.3157 H   0  0  0  0  0
   -6.3200   10.4297   46.0871 H   0  0  0  0  0
   -4.7792    9.6573   46.7360 H   0  0  0  0  0
    8.2202    9.0543   41.6854 H   0  0  0  0  0
    7.8053    8.0623   43.1591 H   0  0  0  0  0
   -3.7274   11.5035   46.6794 H   0  0  0  0  0
    6.9886   10.6997   41.3123 H   0  0  0  0  0
 28  1  2  0  0  0
 29  2  2  0  0  0
  5  3  4  0  0  0
  6  3  4  0  0  0
  7  4  4  0  0  0
  8  4  4  0  0  0
  9  5  4  0  0  0
 10  6  4  0  0  0
 11  7  4  0  0  0
 12  8  4  0  0  0
 30  9  4  0  0  0
 30 10  4  0  0  0
 31 11  4  0  0  0
 31 12  4  0  0  0
 13 15  1  0  0  0
 25 13  1  0  0  0
 16 14  1  0  0  0
 14 25  1  0  0  0
 15 32  1  0  0  0
 33 16  1  0  0  0
 28 17  1  0  0  0
 17 30  1  0  0  0
 29 18  1  0  0  0
 18 31  1  0  0  0
 19 21  4  0  0  0
 32 19  4  0  0  0
 22 20  4  0  0  0
 20 33  4  0  0  0
 21 34  4  0  0  0
 35 22  4  0  0  0
 23 28  1  0  0  0
 34 23  1  0  0  0
 24 29  1  0  0  0
 24 35  1  0  0  0
 32 26  4  0  0  0
 26 34  4  0  0  0
 33 27  4  0  0  0
 27 35  4  0  0  0
  3 36  1  0  0  0
  4 37  1  0  0  0
  5 38  1  0  0  0
  6 39  1  0  0  0
  7 40  1  0  0  0
  8 41  1  0  0  0
  9 42  1  0  0  0
 10 43  1  0  0  0
 11 44  1  0  0  0
 12 45  1  0  0  0
 13 46  1  0  0  0
 13 47  1  0  0  0
 14 48  1  0  0  0
 14 49  1  0  0  0
 15 50  1  0  0  0
 15 51  1  0  0  0
 16 52  1  0  0  0
 16 53  1  0  0  0
 17 54  1  0  0  0
 17 55  1  0  0  0
 18 56  1  0  0  0
 18 57  1  0  0  0
 23 58  1  0  0  0
 24 59  1  0  0  0
M  END
$$$$
