1oba_ligand
  -I-interpret- 

 21 20  0  0  0  0  0  0  0  0999 V2000
   32.9120   23.1170   13.1670 C   0  0  0  0  0
   34.2250   22.2810   12.8630 C   0  0  0  0  0
   34.5760   19.9460   12.0830 C   0  0  0  0  0
   33.0540   21.3090   10.8190 C   0  0  0  0  0
   35.4380   21.7510   10.7760 C   0  0  0  0  0
   32.0240   22.2520   13.8230 O   0  0  0  0  0
   34.3170   21.3270   11.6480 N   0  3  0  0  0
   32.4725   23.4974   12.2449 H   0  0  0  0  0
   33.1392   23.9834   13.7882 H   0  0  0  0  0
   34.3132   21.6158   13.7220 H   0  0  0  0  0
   34.9744   23.0436   12.6509 H   0  0  0  0  0
   33.7340   19.5893   12.6762 H   0  0  0  0  0
   34.7017   19.3083   11.2080 H   0  0  0  0  0
   35.4836   19.9206   12.6861 H   0  0  0  0  0
   33.1957   20.6566    9.9574 H   0  0  0  0  0
   32.2280   20.9376   11.4256 H   0  0  0  0  0
   32.8303   22.3198   10.4781 H   0  0  0  0  0
   36.3715   21.7013   11.3365 H   0  0  0  0  0
   35.4955   21.0884    9.9124 H   0  0  0  0  0
   35.2684   22.7740   10.4401 H   0  0  0  0  0
   31.2120   22.7223   14.0257 H   0  0  0  0  0
  1  2  1  0  0  0
  1  6  1  0  0  0
  2  7  1  0  0  0
  7  5  1  0  0  0
  7  4  1  0  0  0
  7  3  1  0  0  0
  1  8  1  0  0  0
  1  9  1  0  0  0
  2 10  1  0  0  0
  2 11  1  0  0  0
  3 12  1  0  0  0
  3 13  1  0  0  0
  3 14  1  0  0  0
  4 15  1  0  0  0
  4 16  1  0  0  0
  4 17  1  0  0  0
  5 18  1  0  0  0
  5 19  1  0  0  0
  5 20  1  0  0  0
  6 21  1  0  0  0
M  END
$$$$
