5uk8_ligand
  -I-interpret- 

 54 59  0  0  0  0  0  0  0  0999 V2000
   -3.1540  -11.8310   17.7120 C   0  0  0  0  0
   -3.8360  -12.2780   16.4290 C   0  0  0  0  0
   -2.7820  -10.6060   15.1210 C   0  0  0  0  0
    0.5940   -6.9690   19.5470 O   0  0  0  0  0
    0.1940   -4.5450   19.9670 O   0  0  0  0  0
   -4.3330   -9.7220   24.4900 C   0  0  0  0  0
   -5.2390  -10.7740   24.4530 C   0  0  0  0  0
   -5.5340  -11.3520   23.2190 C   0  0  0  0  0
   -6.4400  -12.4870   21.5220 C   0  0  0  0  0
   -5.5420  -11.6500   20.9480 C   0  0  0  0  0
   -4.9360  -10.9100   22.0320 C   0  0  0  0  0
   -1.8990   -6.1270   19.7570 C   0  0  0  0  0
   -2.8330   -5.0230   20.2360 C   0  0  0  0  0
   -2.5310   -5.1540   18.7690 C   0  0  0  0  0
   -0.0890   -6.2170   21.9700 C   0  0  0  0  0
    0.0010   -7.5950   22.5390 C   0  0  0  0  0
    1.1740   -6.6870   22.6080 C   0  0  0  0  0
   -0.1350   -5.9190   20.1920 S   0  0  0  0  0
   -2.3470   -7.5520   19.7750 C   0  0  0  0  0
   -2.2360   -8.2880   18.5900 C   0  0  0  0  0
   -2.9050   -8.0240   20.9040 N   0  0  0  0  0
   -3.4050   -9.2660   20.8370 C   0  0  0  0  0
   -4.0150   -9.8390   22.0830 C   0  0  0  0  0
   -6.4500  -12.3300   22.8830 N   0  0  0  0  0
   -3.7240   -9.2680   23.3270 C   0  0  0  0  0
   -3.3980  -10.0420   19.7440 N   0  0  0  0  0
   -2.8160   -9.5690   18.6290 C   0  0  0  0  0
   -2.8010  -10.4060   17.5460 N   0  0  0  0  0
   -1.9480  -12.6780   18.1170 C   0  0  0  0  0
   -2.0830  -10.0230   16.3240 C   0  0  0  0  0
   -3.0120  -12.0050   15.2690 O   0  0  0  0  0
   -3.8484  -11.9704   18.5406 H   0  0  0  0  0
   -4.7720  -11.7292   16.3254 H   0  0  0  0  0
   -4.0089  -13.3527   16.4854 H   0  0  0  0  0
   -2.1469  -10.4536   14.2484 H   0  0  0  0  0
   -3.7463  -10.1099   15.0112 H   0  0  0  0  0
   -4.0972   -9.2472   25.4424 H   0  0  0  0  0
   -5.7081  -11.1390   25.3667 H   0  0  0  0  0
   -7.0689  -13.1896   20.9752 H   0  0  0  0  0
   -5.3214  -11.5542   19.8849 H   0  0  0  0  0
   -2.8479   -4.2430   20.9973 H   0  0  0  0  0
   -3.7054   -4.9181   20.8810 H   0  0  0  0  0
   -3.0761   -5.1908   17.8258 H   0  0  0  0  0
   -2.2190   -4.5162   17.9420 H   0  0  0  0  0
   -0.7757   -5.3818   22.1079 H   0  0  0  0  0
   -0.4584   -8.5608   22.7496 H   0  0  0  0  0
    2.2055   -6.5003   22.9069 H   0  0  0  0  0
   -1.7373   -7.8978   17.7028 H   0  0  0  0  0
   -3.0051   -8.4507   23.3845 H   0  0  0  0  0
   -1.1796  -12.6052   17.3474 H   0  0  0  0  0
   -1.5510  -12.3131   19.0643 H   0  0  0  0  0
   -2.2563  -13.7177   18.2271 H   0  0  0  0  0
   -2.0651   -8.9363   16.2405 H   0  0  0  0  0
   -1.0628  -10.4041   16.3694 H   0  0  0  0  0
  1  2  1  0  0  0
 28  1  1  0  0  0
  1 29  1  0  0  0
  2 31  1  0  0  0
  3 30  1  0  0  0
 31  3  1  0  0  0
 18  4  2  0  0  0
 18  5  2  0  0  0
  6  7  4  0  0  0
 25  6  4  0  0  0
  8  7  4  0  0  0
 11  8  4  0  0  0
  8 24  4  0  0  0
 10  9  4  0  0  0
  9 24  4  0  0  0
 11 10  4  0  0  0
 23 11  4  0  0  0
 12 13  1  0  0  0
 12 14  1  0  0  0
 12 18  1  0  0  0
 19 12  1  0  0  0
 14 13  1  0  0  0
 15 16  1  0  0  0
 15 17  1  0  0  0
 18 15  1  0  0  0
 17 16  2  0  0  0
 20 19  4  0  0  0
 19 21  4  0  0  0
 27 20  4  0  0  0
 22 21  4  0  0  0
 22 23  1  0  0  0
 26 22  4  0  0  0
 23 25  4  0  0  0
 27 26  4  0  0  0
 27 28  1  0  0  0
 28 30  1  0  0  0
  1 32  1  0  0  0
  2 33  1  0  0  0
  2 34  1  0  0  0
  3 35  1  0  0  0
  3 36  1  0  0  0
  6 37  1  0  0  0
  7 38  1  0  0  0
  9 39  1  0  0  0
 10 40  1  0  0  0
 13 41  1  0  0  0
 13 42  1  0  0  0
 14 43  1  0  0  0
 14 44  1  0  0  0
 15 45  1  0  0  0
 16 46  1  0  0  0
 17 47  1  0  0  0
 20 48  1  0  0  0
 25 49  1  0  0  0
 29 50  1  0  0  0
 29 51  1  0  0  0
 29 52  1  0  0  0
 30 53  1  0  0  0
 30 54  1  0  0  0
M  END
$$$$
