4zhl_ligand
  -I-interpret- 

150153  0  0  0  0  0  0  0  0999 V2000
    9.9320  -25.4950  -26.7110 N   0  3  0  0  0
    8.7570  -26.3330  -27.1070 C   0  0  0  0  0
    9.1650  -27.5480  -27.9370 C   0  0  0  0  0
    9.3080  -27.4450  -29.1640 O   0  0  0  0  0
    7.7180  -25.5180  -27.8870 C   0  0  0  0  0
    6.5910  -24.5490  -26.8610 S   0  0  0  0  0
    9.3430  -28.7070  -27.2710 N   0  0  0  0  0
    9.5750  -29.9850  -27.9480 C   0  0  0  0  0
    8.4820  -30.2990  -28.9420 C   0  0  0  0  0
    7.3480  -29.8420  -28.7770 O   0  0  0  0  0
    9.5560  -30.9980  -26.8010 C   0  0  0  0  0
    9.9890  -30.2220  -25.6160 C   0  0  0  0  0
    9.4230  -28.8470  -25.8050 C   0  0  0  0  0
    8.8110  -31.0820  -29.9630 N   0  0  0  0  0
    7.8640  -31.3570  -31.0390 C   0  0  0  0  0
    6.6310  -32.1230  -30.5510 C   0  0  0  0  0
    5.5610  -32.0120  -31.1560 O   0  0  0  0  0
    8.5430  -32.1180  -32.1730 C   0  0  0  0  0
    6.7930  -32.8990  -29.4760 N   0  0  0  0  0
    5.7110  -33.7320  -28.9260 C   0  0  0  0  0
    5.1470  -33.2190  -27.5830 C   0  0  0  0  0
    4.5010  -33.9700  -26.8510 O   0  0  0  0  0
    6.1880  -35.1790  -28.7420 C   0  0  0  0  0
    6.7210  -35.8880  -29.9790 C   0  0  0  0  0
    6.3630  -35.4870  -31.2710 C   0  0  0  0  0
    7.5390  -37.0090  -29.8460 C   0  0  0  0  0
    6.8410  -36.1540  -32.3870 C   0  0  0  0  0
    8.0180  -37.6870  -30.9590 C   0  0  0  0  0
    7.6650  -37.2560  -32.2280 C   0  0  0  0  0
    8.1320  -37.9310  -33.3370 O   0  0  0  0  0
    5.3780  -31.9500  -27.2620 N   0  0  0  0  0
    4.7390  -31.3250  -26.0990 C   0  0  0  0  0
    3.2240  -31.5250  -26.1320 C   0  0  0  0  0
    2.6210  -31.6040  -27.2060 O   0  0  0  0  0
    5.0390  -29.8230  -26.0590 C   0  0  0  0  0
    4.5270  -29.2200  -24.8800 O   0  0  0  0  0
    2.6140  -31.6210  -24.9520 N   0  0  0  0  0
    1.1510  -31.6110  -24.8410 C   0  0  0  0  0
    0.7260  -30.4100  -23.9930 C   0  0  0  0  0
   -0.3140  -30.4200  -23.3300 O   0  0  0  0  0
    0.6570  -32.9470  -24.2740 C   0  0  0  0  0
    0.7420  -34.0620  -25.3080 C   0  0  0  0  0
    0.2070  -35.4000  -24.8130 C   0  0  0  0  0
    0.2060  -36.3770  -25.8990 N   0  0  0  0  0
   -0.2450  -37.6220  -25.8090 C   0  0  0  0  0
   -0.7500  -38.0910  -24.6690 N   0  0  0  0  0
   -0.2030  -38.4060  -26.8790 N   0  0  0  0  0
    1.5590  -29.3730  -24.0430 N   0  0  0  0  0
    1.3560  -28.1500  -23.2820 C   0  0  0  0  0
    0.5480  -27.1740  -24.1050 C   0  0  0  0  0
    0.8180  -26.9840  -25.3070 O   0  0  0  0  0
    2.7100  -27.5380  -22.9370 C   0  0  0  0  0
    2.6750  -26.2070  -22.1890 C   0  0  0  0  0
    1.8570  -26.0180  -21.0780 C   0  0  0  0  0
    3.4940  -25.1490  -22.5880 C   0  0  0  0  0
    1.8430  -24.8090  -20.4020 C   0  0  0  0  0
    3.4970  -23.9440  -21.9110 C   0  0  0  0  0
    2.6660  -23.7720  -20.8240 C   0  0  0  0  0
    2.6730  -22.5600  -20.1750 O   0  0  0  0  0
   -0.4550  -26.5720  -23.4590 N   0  0  0  0  0
   -1.2350  -25.4790  -24.0520 C   0  0  0  0  0
   -0.3580  -24.4070  -24.6990 C   0  0  0  0  0
   -0.6680  -23.9210  -25.7910 O   0  0  0  0  0
   -2.1260  -24.7880  -22.9940 C   0  0  0  0  0
   -3.4010  -25.5870  -22.8100 C   0  0  0  0  0
   -2.4970  -23.3650  -23.4140 C   0  0  0  0  0
   -4.2610  -25.1160  -21.6630 C   0  0  0  0  0
    0.7200  -24.0290  -24.0140 N   0  0  0  0  0
    1.6120  -22.9760  -24.5040 C   0  0  0  0  0
    2.3390  -23.2840  -25.8060 C   0  0  0  0  0
    2.8230  -22.3660  -26.4680 O   0  0  0  0  0
    2.4370  -24.5650  -26.1600 N   0  0  0  0  0
    3.0380  -24.9850  -27.4280 C   0  0  0  0  0
    1.9530  -25.3920  -28.4150 C   0  0  0  0  0
    2.0510  -25.0950  -29.6060 O   0  0  0  0  0
    4.0080  -26.1600  -27.2210 C   0  0  0  0  0
    5.3150  -25.9010  -25.9890 S   0  0  0  0  0
    0.9670  -26.0220  -28.0320 O   0  0  0  0  0
   10.5994  -26.0692  -26.1960 H   0  0  0  0  0
   10.3786  -25.1206  -27.5481 H   0  0  0  0  0
    9.6160  -24.7261  -26.1200 H   0  0  0  0  0
    8.3133  -26.6829  -26.1749 H   0  0  0  0  0
    7.1077  -26.2308  -28.4416 H   0  0  0  0  0
    8.2700  -24.8108  -28.5060 H   0  0  0  0  0
   10.5019  -29.9878  -28.5216 H   0  0  0  0  0
   10.2102  -31.8480  -26.9949 H   0  0  0  0  0
    8.5696  -31.4406  -26.6622 H   0  0  0  0  0
   11.0754  -30.1973  -25.5314 H   0  0  0  0  0
    9.6328  -30.6756  -24.6911 H   0  0  0  0  0
    8.4549  -28.7231  -25.3197 H   0  0  0  0  0
   10.0387  -28.0745  -25.3442 H   0  0  0  0  0
    9.7416  -31.4984  -29.9958 H   0  0  0  0  0
    7.5201  -30.3918  -31.4109 H   0  0  0  0  0
    9.3639  -31.5205  -32.5694 H   0  0  0  0  0
    8.9304  -33.0635  -31.7935 H   0  0  0  0  0
    7.8183  -32.3120  -32.9637 H   0  0  0  0  0
    7.7039  -32.9151  -29.0173 H   0  0  0  0  0
    4.9038  -33.6788  -29.6565 H   0  0  0  0  0
    5.3117  -35.7453  -28.4265 H   0  0  0  0  0
    7.0214  -35.1327  -28.0410 H   0  0  0  0  0
    5.6962  -34.6347  -31.4015 H   0  0  0  0  0
    7.8076  -37.3598  -28.8496 H   0  0  0  0  0
    6.5698  -35.8131  -33.3862 H   0  0  0  0  0
    8.6679  -38.5533  -30.8354 H   0  0  0  0  0
    8.6851  -38.6633  -33.0551 H   0  0  0  0  0
    6.0141  -31.3982  -27.8375 H   0  0  0  0  0
    5.1456  -31.8035  -25.2080 H   0  0  0  0  0
    4.5641  -29.3535  -26.9205 H   0  0  0  0  0
    6.1204  -29.6869  -26.0742 H   0  0  0  0  0
    4.7316  -28.2821  -24.8868 H   0  0  0  0  0
    3.1771  -31.7034  -24.1055 H   0  0  0  0  0
    0.6911  -31.5027  -25.8233 H   0  0  0  0  0
   -0.3857  -32.8307  -23.9785 H   0  0  0  0  0
    1.2877  -33.2152  -23.4264 H   0  0  0  0  0
    1.7956  -34.2021  -25.5498 H   0  0  0  0  0
    0.1320  -33.7627  -26.1603 H   0  0  0  0  0
   -0.8133  -35.2651  -24.4540 H   0  0  0  0  0
    0.8453  -35.7631  -24.0075 H   0  0  0  0  0
    0.5822  -36.0784  -26.7988 H   0  0  0  0  0
   -1.1014  -39.0474  -24.6222 H   0  0  0  0  0
   -0.7852  -37.4937  -23.8429 H   0  0  0  0  0
    0.1729  -38.0498  -27.7578 H   0  0  0  0  0
    2.3801  -29.4392  -24.6445 H   0  0  0  0  0
    0.8175  -28.3758  -22.3616 H   0  0  0  0  0
    3.2069  -27.3412  -23.8870 H   0  0  0  0  0
    3.2056  -28.2475  -22.2744 H   0  0  0  0  0
    1.2189  -26.8327  -20.7356 H   0  0  0  0  0
    4.1455  -25.2761  -23.4526 H   0  0  0  0  0
    1.1882  -24.6715  -19.5415 H   0  0  0  0  0
    4.1520  -23.1349  -22.2342 H   0  0  0  0  0
    3.2986  -21.9720  -20.6044 H   0  0  0  0  0
   -0.6878  -26.8844  -22.5164 H   0  0  0  0  0
   -1.8478  -25.9466  -24.8226 H   0  0  0  0  0
   -1.5617  -24.7396  -22.0627 H   0  0  0  0  0
   -3.1098  -26.6151  -22.5946 H   0  0  0  0  0
   -3.9878  -25.4737  -23.7216 H   0  0  0  0  0
   -1.5885  -22.7756  -23.5379 H   0  0  0  0  0
   -3.0427  -23.3965  -24.3571 H   0  0  0  0  0
   -3.1233  -22.9123  -22.6453 H   0  0  0  0  0
   -3.6971  -25.1906  -20.7332 H   0  0  0  0  0
   -4.5520  -24.0790  -21.8307 H   0  0  0  0  0
   -5.1529  -25.7393  -21.5995 H   0  0  0  0  0
    0.9295  -24.4845  -23.1257 H   0  0  0  0  0
    2.3814  -22.8430  -23.7435 H   0  0  0  0  0
    0.9861  -22.1048  -24.6972 H   0  0  0  0  0
    2.0805  -25.2790  -25.5248 H   0  0  0  0  0
    3.5972  -24.1390  -27.8277 H   0  0  0  0  0
    2.8669  -24.6093  -29.7474 H   0  0  0  0  0
    4.5118  -26.3140  -28.1753 H   0  0  0  0  0
    3.4068  -26.9945  -26.8600 H   0  0  0  0  0
  1  2  1  0  0  0
  2  3  1  0  0  0
  2  5  1  0  0  0
  3  4  2  0  0  0
  3  7  1  0  0  0
  5  6  1  0  0  0
  6 77  1  0  0  0
  7  8  1  0  0  0
  7 13  1  0  0  0
  8  9  1  0  0  0
  8 11  1  0  0  0
  9 10  2  0  0  0
  9 14  1  0  0  0
 11 12  1  0  0  0
 12 13  1  0  0  0
 14 15  1  0  0  0
 15 16  1  0  0  0
 15 18  1  0  0  0
 16 17  2  0  0  0
 16 19  1  0  0  0
 19 20  1  0  0  0
 20 21  1  0  0  0
 20 23  1  0  0  0
 21 22  2  0  0  0
 21 31  1  0  0  0
 23 24  1  0  0  0
 24 25  4  0  0  0
 24 26  4  0  0  0
 25 27  4  0  0  0
 26 28  4  0  0  0
 27 29  4  0  0  0
 28 29  4  0  0  0
 29 30  1  0  0  0
 31 32  1  0  0  0
 32 33  1  0  0  0
 32 35  1  0  0  0
 33 34  2  0  0  0
 33 37  1  0  0  0
 35 36  1  0  0  0
 37 38  1  0  0  0
 38 39  1  0  0  0
 38 41  1  0  0  0
 39 40  2  0  0  0
 39 48  1  0  0  0
 41 42  1  0  0  0
 42 43  1  0  0  0
 43 44  1  0  0  0
 44 45  1  0  0  0
 45 46  1  0  0  0
 45 47  2  0  0  0
 48 49  1  0  0  0
 49 50  1  0  0  0
 49 52  1  0  0  0
 50 51  2  0  0  0
 50 60  1  0  0  0
 52 53  1  0  0  0
 53 54  4  0  0  0
 53 55  4  0  0  0
 54 56  4  0  0  0
 55 57  4  0  0  0
 56 58  4  0  0  0
 57 58  4  0  0  0
 58 59  1  0  0  0
 60 61  1  0  0  0
 61 62  1  0  0  0
 61 64  1  0  0  0
 62 63  2  0  0  0
 62 68  1  0  0  0
 64 65  1  0  0  0
 64 66  1  0  0  0
 65 67  1  0  0  0
 68 69  1  0  0  0
 69 70  1  0  0  0
 70 71  2  0  0  0
 70 72  1  0  0  0
 72 73  1  0  0  0
 73 74  1  0  0  0
 73 76  1  0  0  0
 74 75  1  0  0  0
 74 78  2  0  0  0
 76 77  1  0  0  0
  1 79  1  0  0  0
  1 80  1  0  0  0
  1 81  1  0  0  0
  2 82  1  0  0  0
  5 83  1  0  0  0
  5 84  1  0  0  0
  8 85  1  0  0  0
 11 86  1  0  0  0
 11 87  1  0  0  0
 12 88  1  0  0  0
 12 89  1  0  0  0
 13 90  1  0  0  0
 13 91  1  0  0  0
 14 92  1  0  0  0
 15 93  1  0  0  0
 18 94  1  0  0  0
 18 95  1  0  0  0
 18 96  1  0  0  0
 19 97  1  0  0  0
 20 98  1  0  0  0
 23 99  1  0  0  0
 23100  1  0  0  0
 25101  1  0  0  0
 26102  1  0  0  0
 27103  1  0  0  0
 28104  1  0  0  0
 30105  1  0  0  0
 31106  1  0  0  0
 32107  1  0  0  0
 35108  1  0  0  0
 35109  1  0  0  0
 36110  1  0  0  0
 37111  1  0  0  0
 38112  1  0  0  0
 41113  1  0  0  0
 41114  1  0  0  0
 42115  1  0  0  0
 42116  1  0  0  0
 43117  1  0  0  0
 43118  1  0  0  0
 44119  1  0  0  0
 46120  1  0  0  0
 46121  1  0  0  0
 47122  1  0  0  0
 48123  1  0  0  0
 49124  1  0  0  0
 52125  1  0  0  0
 52126  1  0  0  0
 54127  1  0  0  0
 55128  1  0  0  0
 56129  1  0  0  0
 57130  1  0  0  0
 59131  1  0  0  0
 60132  1  0  0  0
 61133  1  0  0  0
 64134  1  0  0  0
 65135  1  0  0  0
 65136  1  0  0  0
 66137  1  0  0  0
 66138  1  0  0  0
 66139  1  0  0  0
 67140  1  0  0  0
 67141  1  0  0  0
 67142  1  0  0  0
 68143  1  0  0  0
 69144  1  0  0  0
 69145  1  0  0  0
 72146  1  0  0  0
 73147  1  0  0  0
 75148  1  0  0  0
 76149  1  0  0  0
 76150  1  0  0  0
M  END
$$$$
