2ito_ligand
  -I-interpret- 

 56 59  0  0  0  0  0  0  0  0999 V2000
  -45.4800   -2.7160  -15.7450 C   0  0  0  0  0
  -44.4060   -3.5920  -15.0750 C   0  0  0  0  0
  -43.4570   -4.0220  -16.1080 O   0  0  0  0  0
  -44.0750   -4.8660  -17.1340 C   0  0  0  0  0
  -45.2550   -4.1730  -17.8460 C   0  0  0  0  0
  -46.1310   -3.3930  -16.9140 N   0  3  0  0  0
  -46.7510   -2.3190  -17.7170 C   0  0  0  0  0
  -48.2760   -2.4690  -17.8210 C   0  0  0  0  0
  -48.8310   -1.4830  -18.8750 C   0  0  0  0  0
  -49.1940   -0.1540  -18.3610 O   0  0  0  0  0
  -50.2350    0.4780  -19.0000 C   0  0  0  0  0
  -51.1310    1.2010  -18.2160 C   0  0  0  0  0
  -52.1950    1.8590  -18.8390 C   0  0  0  0  0
  -50.9480    1.2280  -16.8510 O   0  0  0  0  0
  -51.1650    2.4870  -16.1950 C   0  0  0  0  0
  -50.3990    0.4370  -20.3940 C   0  0  0  0  0
  -51.4580    1.1010  -21.0030 C   0  0  0  0  0
  -52.3520    1.8070  -20.2220 C   0  0  0  0  0
  -53.3700    2.4460  -20.8190 N   0  0  0  0  0
  -53.5590    2.4110  -22.1310 C   0  0  0  0  0
  -52.7310    1.7450  -22.9050 N   0  0  0  0  0
  -51.6810    1.0850  -22.3780 C   0  0  0  0  0
  -50.8760    0.4060  -23.1830 N   0  0  0  0  0
  -50.9780    0.4720  -24.5090 C   0  0  0  0  0
  -50.9250    1.7140  -25.1330 C   0  0  0  0  0
  -51.0070    1.8060  -26.5120 C   0  0  0  0  0
  -50.9430    3.3600  -27.2400 Cl  0  0  0  0  0
  -51.1410    0.6670  -27.2930 C   0  0  0  0  0
  -51.2180    0.7930  -28.6340 F   0  0  0  0  0
  -51.1890   -0.5850  -26.6740 C   0  0  0  0  0
  -51.1030   -0.6820  -25.2800 C   0  0  0  0  0
  -44.9944   -1.8109  -16.1098 H   0  0  0  0  0
  -46.2529   -2.5087  -15.0049 H   0  0  0  0  0
  -44.8690   -4.4602  -14.6061 H   0  0  0  0  0
  -43.8876   -3.0246  -14.3021 H   0  0  0  0  0
  -44.4594   -5.7604  -16.6438 H   0  0  0  0  0
  -43.3165   -5.0891  -17.8844 H   0  0  0  0  0
  -45.8679   -4.9503  -18.3024 H   0  0  0  0  0
  -44.8386   -3.4735  -18.5708 H   0  0  0  0  0
  -46.7611   -4.0847  -16.5080 H   0  0  0  0  0
  -46.3382   -2.3710  -18.7245 H   0  0  0  0  0
  -46.5389   -1.3681  -17.2282 H   0  0  0  0  0
  -48.7257   -2.2506  -16.8524 H   0  0  0  0  0
  -48.5174   -3.4889  -18.1205 H   0  0  0  0  0
  -49.7460   -1.9270  -19.2670 H   0  0  0  0  0
  -48.0381   -1.3291  -19.6070 H   0  0  0  0  0
  -52.9098    2.4190  -18.2360 H   0  0  0  0  0
  -50.4782    3.2298  -16.6008 H   0  0  0  0  0
  -52.1924    2.8103  -16.3627 H   0  0  0  0  0
  -50.9886    2.3731  -15.1254 H   0  0  0  0  0
  -49.6891   -0.1209  -21.0047 H   0  0  0  0  0
  -54.4061    2.9377  -22.5704 H   0  0  0  0  0
  -50.1543   -0.1868  -22.7730 H   0  0  0  0  0
  -50.8185    2.6184  -24.5340 H   0  0  0  0  0
  -51.2935   -1.4869  -27.2771 H   0  0  0  0  0
  -51.1338   -1.6593  -24.7982 H   0  0  0  0  0
  1  2  1  0  0  0
  1  6  1  0  0  0
  2  3  1  0  0  0
  3  4  1  0  0  0
  4  5  1  0  0  0
  5  6  1  0  0  0
  6  7  1  0  0  0
  7  8  1  0  0  0
  8  9  1  0  0  0
  9 10  1  0  0  0
 10 11  1  0  0  0
 11 12  4  0  0  0
 11 16  4  0  0  0
 12 13  4  0  0  0
 12 14  1  0  0  0
 13 18  4  0  0  0
 14 15  1  0  0  0
 16 17  4  0  0  0
 17 18  4  0  0  0
 17 22  4  0  0  0
 18 19  4  0  0  0
 19 20  4  0  0  0
 20 21  4  0  0  0
 21 22  4  0  0  0
 22 23  1  0  0  0
 23 24  1  0  0  0
 24 25  4  0  0  0
 24 31  4  0  0  0
 25 26  4  0  0  0
 26 27  1  0  0  0
 26 28  4  0  0  0
 28 29  1  0  0  0
 28 30  4  0  0  0
 30 31  4  0  0  0
  1 32  1  0  0  0
  1 33  1  0  0  0
  2 34  1  0  0  0
  2 35  1  0  0  0
  4 36  1  0  0  0
  4 37  1  0  0  0
  5 38  1  0  0  0
  5 39  1  0  0  0
  6 40  1  0  0  0
  7 41  1  0  0  0
  7 42  1  0  0  0
  8 43  1  0  0  0
  8 44  1  0  0  0
  9 45  1  0  0  0
  9 46  1  0  0  0
 13 47  1  0  0  0
 15 48  1  0  0  0
 15 49  1  0  0  0
 15 50  1  0  0  0
 16 51  1  0  0  0
 20 52  1  0  0  0
 23 53  1  0  0  0
 25 54  1  0  0  0
 30 55  1  0  0  0
 31 56  1  0  0  0
M  END
$$$$
