2pnc_ligand
  -I-interpret- 

 25 26  0  0  0  0  0  0  0  0999 V2000
   37.0790   -8.9240   43.0460 Cl  0  0  0  0  0
   33.3700  -10.2680   42.1170 C   0  0  0  0  0
   32.8120   -9.1890   41.4380 C   0  0  0  0  0
   33.5550   -8.0300   41.2450 C   0  0  0  0  0
   34.8510   -7.9540   41.7370 C   0  0  0  0  0
   34.6660  -10.1930   42.6000 C   0  0  0  0  0
   35.4040   -9.0350   42.4140 C   0  0  0  0  0
   32.4050  -11.7610   42.3600 Cl  0  0  0  0  0
   35.1980  -11.2170   43.2650 N   0  0  0  0  0
   36.0320  -12.2400   42.8240 C   0  0  0  0  0
   36.4350  -12.3300   41.5580 N   0  0  0  0  0
   37.2420  -13.5250   41.3250 C   0  0  0  0  0
   37.7120  -13.8530   42.7540 C   0  0  0  0  0
   36.5950  -13.3060   43.5130 N   0  0  0  0  0
   31.7925   -9.2526   41.0576 H   0  0  0  0  0
   33.1221   -7.1848   40.7099 H   0  0  0  0  0
   35.4357   -7.0456   41.5923 H   0  0  0  0  0
   34.9556  -11.2579   44.2549 H   0  0  0  0  0
   35.4450  -11.6995   43.5665 H   0  0  0  0  0
   37.0069  -11.5124   41.3462 H   0  0  0  0  0
   38.0582  -13.3725   40.6188 H   0  0  0  0  0
   36.6953  -14.3371   40.8457 H   0  0  0  0  0
   38.6847  -13.4375   43.0171 H   0  0  0  0  0
   37.9076  -14.9100   42.9347 H   0  0  0  0  0
   35.8902  -14.0315   43.6442 H   0  0  0  0  0
  7  1  1  0  0  0
  3  2  4  0  0  0
  2  6  4  0  0  0
  2  8  1  0  0  0
  4  3  4  0  0  0
  5  4  4  0  0  0
  5  7  4  0  0  0
  6  7  4  0  0  0
  6  9  1  0  0  0
  9 10  1  0  0  0
 10 11  1  0  0  0
 10 14  1  0  0  0
 11 12  1  0  0  0
 12 13  1  0  0  0
 13 14  1  0  0  0
  3 15  1  0  0  0
  4 16  1  0  0  0
  5 17  1  0  0  0
  9 18  1  0  0  0
 10 19  1  0  0  0
 11 20  1  0  0  0
 12 21  1  0  0  0
 12 22  1  0  0  0
 13 23  1  0  0  0
 13 24  1  0  0  0
 14 25  1  0  0  0
M  END
$$$$
