4hf4_ligand
  -I-interpret- 

 57 61  0  0  0  0  0  0  0  0999 V2000
   17.7530   88.0950   43.9750 N   0  0  0  0  0
   18.8410   88.3170   44.7490 C   0  0  0  0  0
   20.1620   88.5320   44.3500 C   0  0  0  0  0
   21.1710   88.7460   45.2900 C   0  0  0  0  0
   20.8700   88.7520   46.6520 C   0  0  0  0  0
   19.5590   88.5400   47.0720 C   0  0  0  0  0
   18.5540   88.3250   46.1280 C   0  0  0  0  0
   16.9040   88.0450   46.2850 S   0  0  0  0  0
   16.6010   87.9290   44.6400 C   0  0  0  0  0
   15.3920   87.6860   44.1210 N   0  0  0  0  0
   14.9290   88.0840   42.9270 C   0  0  0  0  0
   13.5550   87.9970   42.7000 C   0  0  0  0  0
   13.0130   88.3900   41.4770 C   0  0  0  0  0
   15.7590   88.5670   41.9110 C   0  0  0  0  0
   15.2210   88.9620   40.6870 C   0  0  0  0  0
   13.8450   88.8700   40.4670 C   0  0  0  0  0
   13.3140   89.2570   39.2700 O   0  0  0  0  0
   13.1090   88.2280   38.3940 C   0  0  0  0  0
   13.9580   87.1820   38.3630 N   0  0  0  0  0
   13.7740   86.1800   37.5190 C   0  0  0  0  0
   12.6910   86.2030   36.6450 C   0  0  0  0  0
   11.8480   87.2220   36.6620 N   0  0  0  0  0
   12.0200   88.2450   37.5160 C   0  0  0  0  0
   11.0960   89.3050   37.4830 N   0  0  0  0  0
   10.1670   89.5360   38.6390 C   0  0  0  0  0
    9.6980   91.0030   38.7520 C   0  0  0  0  0
   11.0350   90.1120   36.2280 C   0  0  0  0  0
   10.6360   91.5630   36.5080 C   0  0  0  0  0
    9.3710   91.6050   37.3710 C   0  0  0  0  0
    8.7550   93.0210   37.4210 C   0  0  0  0  0
    9.3740   93.9210   38.5000 C   0  0  0  0  0
    7.3330   92.9180   37.5850 O   0  0  0  0  0
   20.4086   88.5327   43.2883 H   0  0  0  0  0
   22.1967   88.9088   44.9591 H   0  0  0  0  0
   21.6583   88.9221   47.3854 H   0  0  0  0  0
   19.3187   88.5420   48.1352 H   0  0  0  0  0
   14.7525   87.1381   44.6965 H   0  0  0  0  0
   12.9002   87.6188   43.4850 H   0  0  0  0  0
   11.9379   88.3218   41.3106 H   0  0  0  0  0
   16.8341   88.6352   42.0770 H   0  0  0  0  0
   15.8743   89.3426   39.9018 H   0  0  0  0  0
   14.4680   85.3395   37.5081 H   0  0  0  0  0
   12.5375   85.3807   35.9461 H   0  0  0  0  0
   10.7064   89.2884   39.5532 H   0  0  0  0  0
    9.2840   88.9159   38.4845 H   0  0  0  0  0
   10.5021   91.5871   39.1996 H   0  0  0  0  0
    8.7941   91.0287   39.3606 H   0  0  0  0  0
   10.2858   89.6701   35.5712 H   0  0  0  0  0
   12.0238   90.1097   35.7694 H   0  0  0  0  0
   10.4405   92.0687   35.5624 H   0  0  0  0  0
   11.4475   92.0607   37.0389 H   0  0  0  0  0
    8.5873   90.9937   36.9236 H   0  0  0  0  0
    8.9834   93.5071   36.4725 H   0  0  0  0  0
    9.2267   93.4658   39.4794 H   0  0  0  0  0
   10.4408   94.0353   38.3078 H   0  0  0  0  0
    8.8924   94.8985   38.4761 H   0  0  0  0  0
    6.9510   93.7982   37.6160 H   0  0  0  0  0
  1  2  4  0  0  0
  1  9  4  0  0  0
  2  3  4  0  0  0
  2  7  4  0  0  0
  3  4  4  0  0  0
  4  5  4  0  0  0
  5  6  4  0  0  0
  6  7  4  0  0  0
  7  8  4  0  0  0
  8  9  4  0  0  0
  9 10  1  0  0  0
 10 11  1  0  0  0
 11 12  4  0  0  0
 11 14  4  0  0  0
 12 13  4  0  0  0
 13 16  4  0  0  0
 14 15  4  0  0  0
 15 16  4  0  0  0
 16 17  1  0  0  0
 17 18  1  0  0  0
 18 19  4  0  0  0
 18 23  4  0  0  0
 19 20  4  0  0  0
 20 21  4  0  0  0
 21 22  4  0  0  0
 22 23  4  0  0  0
 23 24  1  0  0  0
 24 25  1  0  0  0
 24 27  1  0  0  0
 25 26  1  0  0  0
 26 29  1  0  0  0
 27 28  1  0  0  0
 28 29  1  0  0  0
 29 30  1  0  0  0
 30 31  1  0  0  0
 30 32  1  0  0  0
  3 33  1  0  0  0
  4 34  1  0  0  0
  5 35  1  0  0  0
  6 36  1  0  0  0
 10 37  1  0  0  0
 12 38  1  0  0  0
 13 39  1  0  0  0
 14 40  1  0  0  0
 15 41  1  0  0  0
 20 42  1  0  0  0
 21 43  1  0  0  0
 25 44  1  0  0  0
 25 45  1  0  0  0
 26 46  1  0  0  0
 26 47  1  0  0  0
 27 48  1  0  0  0
 27 49  1  0  0  0
 28 50  1  0  0  0
 28 51  1  0  0  0
 29 52  1  0  0  0
 30 53  1  0  0  0
 31 54  1  0  0  0
 31 55  1  0  0  0
 31 56  1  0  0  0
 32 57  1  0  0  0
M  END
$$$$
