4pv7_ligand
  -I-interpret- 

 38 40  0  0  0  0  0  0  0  0999 V2000
   -8.6470   41.2770   29.8440 O   0  0  0  0  0
   -9.0800   40.0700   30.5200 S   0  0  0  0  0
   -8.4270   40.0670   31.8150 O   0  0  0  0  0
   -8.5190   38.7800   29.6060 C   0  0  0  0  0
  -10.7010   40.0160   30.7270 N   0  0  0  0  0
  -11.3580   38.8560   30.9850 C   0  0  0  0  0
  -11.0210   37.5110   31.1440 C   0  0  0  0  0
  -12.0110   36.5610   31.4050 C   0  0  0  0  0
  -13.3540   36.9220   31.5180 C   0  0  0  0  0
  -11.4910   41.1180   30.6820 C   0  0  0  0  0
  -12.8800   40.6760   30.9070 C   0  0  0  0  0
  -14.0890   41.5690   30.9180 C   0  0  0  0  0
  -14.4910   41.8160   32.2880 N   0  3  0  0  0
  -12.7920   39.2140   31.1150 C   0  0  0  0  0
  -13.7620   38.2520   31.3770 C   0  0  0  0  0
  -11.2130   42.5470   30.4310 C   0  0  0  0  0
  -11.2090   43.4650   31.4630 C   0  0  0  0  0
  -10.9680   44.8000   31.1690 C   0  0  0  0  0
  -10.7530   45.2070   29.8590 C   0  0  0  0  0
  -10.4570   46.9220   29.5080 Cl  0  0  0  0  0
  -10.7640   44.3300   28.7940 C   0  0  0  0  0
  -11.0000   42.9980   29.0490 C   0  0  0  0  0
  -11.0240   41.7830   27.7340 Cl  0  0  0  0  0
   -8.9411   38.8365   28.6026 H   0  0  0  0  0
   -7.4315   38.8239   29.5471 H   0  0  0  0  0
   -8.8212   37.8444   30.0765 H   0  0  0  0  0
   -9.9793   37.2002   31.0640 H   0  0  0  0  0
  -11.7283   35.5149   31.5230 H   0  0  0  0  0
  -14.0993   36.1527   31.7200 H   0  0  0  0  0
  -14.9045   41.0850   30.3806 H   0  0  0  0  0
  -13.8479   42.5148   30.4328 H   0  0  0  0  0
  -15.3114   42.4220   32.2963 H   0  0  0  0  0
  -14.7167   40.9298   32.7399 H   0  0  0  0  0
  -13.7268   42.2694   32.7888 H   0  0  0  0  0
  -14.8125   38.5277   31.4699 H   0  0  0  0  0
  -11.3917   43.1470   32.4894 H   0  0  0  0  0
  -10.9474   45.5352   31.9735 H   0  0  0  0  0
  -10.5904   44.6826   27.7773 H   0  0  0  0  0
  1  2  2  0  0  0
  2  3  2  0  0  0
  2  4  1  0  0  0
  2  5  1  0  0  0
  5  6  4  0  0  0
  5 10  4  0  0  0
  6  7  4  0  0  0
  6 14  4  0  0  0
  7  8  4  0  0  0
  8  9  4  0  0  0
  9 15  4  0  0  0
 10 11  4  0  0  0
 10 16  1  0  0  0
 11 12  1  0  0  0
 11 14  4  0  0  0
 12 13  1  0  0  0
 14 15  4  0  0  0
 16 17  4  0  0  0
 16 22  4  0  0  0
 17 18  4  0  0  0
 18 19  4  0  0  0
 19 20  1  0  0  0
 19 21  4  0  0  0
 21 22  4  0  0  0
 22 23  1  0  0  0
  4 24  1  0  0  0
  4 25  1  0  0  0
  4 26  1  0  0  0
  7 27  1  0  0  0
  8 28  1  0  0  0
  9 29  1  0  0  0
 12 30  1  0  0  0
 12 31  1  0  0  0
 13 32  1  0  0  0
 13 33  1  0  0  0
 13 34  1  0  0  0
 15 35  1  0  0  0
 17 36  1  0  0  0
 18 37  1  0  0  0
 21 38  1  0  0  0
M  END
$$$$
