6hhi_ligand
  -I-interpret- 

 80 85  0  0  0  0  0  0  0  0999 V2000
   -5.9240    1.7950  -16.2540 C   0  0  0  0  0
   -7.2600    2.1790  -16.2550 C   0  0  0  0  0
   -8.0430    1.9930  -15.1230 C   0  0  0  0  0
   -7.4940    1.4210  -13.9820 C   0  0  0  0  0
   -6.1630    1.0310  -13.9860 C   0  0  0  0  0
   -5.3670    1.2300  -15.1160 C   0  0  0  0  0
   -4.0230    0.8500  -15.1240 C   0  0  0  0  0
   -3.6030    0.0130  -16.1500 C   0  0  0  0  0
   -2.2780   -0.3940  -16.1920 C   0  0  0  0  0
   -1.8160   -1.2360  -17.2010 C   0  0  0  0  0
   -2.5690   -1.6450  -18.0860 O   0  0  0  0  0
   -0.4690   -1.6220  -17.2080 N   0  0  0  0  0
    0.3640   -1.2010  -16.2730 C   0  0  0  0  0
   -0.0730   -0.3620  -15.2570 C   0  0  0  0  0
   -1.4000    0.0460  -15.2130 C   0  0  0  0  0
   -1.8230    0.8550  -14.2310 N   0  0  0  0  0
   -3.0970    1.2730  -14.1530 C   0  0  0  0  0
   -3.4310    2.1280  -13.0960 C   0  0  0  0  0
   -4.0040    3.3710  -13.3600 C   0  0  0  0  0
   -4.3460    4.2290  -12.3270 C   0  0  0  0  0
   -3.1730    1.7650  -11.7770 C   0  0  0  0  0
   -3.5090    2.6270  -10.7380 C   0  0  0  0  0
   -4.0890    3.8610  -11.0150 C   0  0  0  0  0
   -4.4420    4.7380   -9.9960 C   0  0  0  0  0
   -3.3430    5.0430   -9.0750 N   0  3  0  0  0
   -2.3800    5.9420   -9.7290 C   0  0  0  0  0
   -1.2910    6.3860   -8.7560 C   0  0  0  0  0
   -3.9570    5.7050   -7.9170 C   0  0  0  0  0
   -2.9190    6.1120   -6.9000 C   0  0  0  0  0
   -1.9640    7.0780   -7.5700 C   0  0  0  0  0
   -0.9780    7.5890   -6.6030 N   0  0  0  0  0
   -0.1000    6.8380   -5.9200 C   0  0  0  0  0
    0.0100    5.6150   -6.0050 O   0  0  0  0  0
    0.7180    7.5750   -5.0730 C   0  0  0  0  0
    0.5610    8.9540   -5.0080 C   0  0  0  0  0
    1.6880    6.9500   -4.2990 C   0  0  0  0  0
    2.4940    7.7100   -3.4590 C   0  0  0  0  0
    2.3370    9.0890   -3.3940 C   0  0  0  0  0
    1.3650    9.7100   -4.1670 C   0  0  0  0  0
    1.2000   11.0290   -4.1290 N   0  0  0  0  0
    1.8040   11.7120   -5.1100 C   0  0  0  0  0
    2.4820   11.1820   -5.9830 O   0  0  0  0  0
    1.6230   13.2240   -5.0980 C   0  0  0  0  0
    2.3310   13.9480   -6.2420 C   0  0  0  0  0
   -5.3147    1.9377  -17.1465 H   0  0  0  0  0
   -7.6949    2.6280  -17.1479 H   0  0  0  0  0
   -9.0899    2.2963  -15.1298 H   0  0  0  0  0
   -8.1048    1.2798  -13.0903 H   0  0  0  0  0
   -5.7343    0.5648  -13.0989 H   0  0  0  0  0
   -4.3066   -0.3199  -16.9130 H   0  0  0  0  0
    1.4071   -1.5162  -16.2996 H   0  0  0  0  0
    0.4899    0.5597  -15.4047 H   0  0  0  0  0
    0.0623   -0.9451  -14.3461 H   0  0  0  0  0
   -4.1853    3.6718  -14.3919 H   0  0  0  0  0
   -4.8148    5.1886  -12.5447 H   0  0  0  0  0
   -2.7072    0.8042  -11.5580 H   0  0  0  0  0
   -3.3176    2.3352   -9.7054 H   0  0  0  0  0
   -5.2319    4.2620   -9.4150 H   0  0  0  0  0
   -4.7460    5.6749  -10.4627 H   0  0  0  0  0
   -2.8379    4.2022   -8.7951 H   0  0  0  0  0
   -2.9126    6.8252  -10.0818 H   0  0  0  0  0
   -1.9114    5.4080  -10.5557 H   0  0  0  0  0
   -0.6039    7.0728   -9.2503 H   0  0  0  0  0
   -0.7207    5.5230   -8.4123 H   0  0  0  0  0
   -4.6479    5.0062   -7.4453 H   0  0  0  0  0
   -4.4716    6.6012   -8.2636 H   0  0  0  0  0
   -2.3792    5.2360   -6.5405 H   0  0  0  0  0
   -3.3964    6.5868   -6.0428 H   0  0  0  0  0
   -2.5187    7.9384   -7.9444 H   0  0  0  0  0
   -0.9609    8.5956   -6.4389 H   0  0  0  0  0
   -0.1965    9.4437   -5.6199 H   0  0  0  0  0
    1.8164    5.8688   -4.3502 H   0  0  0  0  0
    3.2531    7.2214   -2.8482 H   0  0  0  0  0
    2.9749    9.6815   -2.7382 H   0  0  0  0  0
    0.6511   11.4889   -3.4026 H   0  0  0  0  0
    2.0551   13.5925   -4.1676 H   0  0  0  0  0
    0.5562   13.4212   -5.2036 H   0  0  0  0  0
    3.4019   13.7528   -6.1863 H   0  0  0  0  0
    1.9435   13.5862   -7.1944 H   0  0  0  0  0
    2.1510   15.0198   -6.1586 H   0  0  0  0  0
  1  2  4  0  0  0
  1  6  4  0  0  0
  2  3  4  0  0  0
  3  4  4  0  0  0
  4  5  4  0  0  0
  5  6  4  0  0  0
  6  7  1  0  0  0
  7  8  4  0  0  0
  7 17  4  0  0  0
  8  9  4  0  0  0
  9 10  1  0  0  0
  9 15  4  0  0  0
 10 11  2  0  0  0
 10 12  1  0  0  0
 12 13  2  0  0  0
 13 14  1  0  0  0
 14 15  1  0  0  0
 15 16  4  0  0  0
 16 17  4  0  0  0
 17 18  1  0  0  0
 18 19  4  0  0  0
 18 21  4  0  0  0
 19 20  4  0  0  0
 20 23  4  0  0  0
 21 22  4  0  0  0
 22 23  4  0  0  0
 23 24  1  0  0  0
 24 25  1  0  0  0
 25 26  1  0  0  0
 25 28  1  0  0  0
 26 27  1  0  0  0
 27 30  1  0  0  0
 28 29  1  0  0  0
 29 30  1  0  0  0
 30 31  1  0  0  0
 31 32  1  0  0  0
 32 33  2  0  0  0
 32 34  1  0  0  0
 34 35  4  0  0  0
 34 36  4  0  0  0
 35 39  4  0  0  0
 36 37  4  0  0  0
 37 38  4  0  0  0
 38 39  4  0  0  0
 39 40  1  0  0  0
 40 41  1  0  0  0
 41 42  2  0  0  0
 41 43  1  0  0  0
 43 44  1  0  0  0
  1 45  1  0  0  0
  2 46  1  0  0  0
  3 47  1  0  0  0
  4 48  1  0  0  0
  5 49  1  0  0  0
  8 50  1  0  0  0
 13 51  1  0  0  0
 14 52  1  0  0  0
 14 53  1  0  0  0
 19 54  1  0  0  0
 20 55  1  0  0  0
 21 56  1  0  0  0
 22 57  1  0  0  0
 24 58  1  0  0  0
 24 59  1  0  0  0
 25 60  1  0  0  0
 26 61  1  0  0  0
 26 62  1  0  0  0
 27 63  1  0  0  0
 27 64  1  0  0  0
 28 65  1  0  0  0
 28 66  1  0  0  0
 29 67  1  0  0  0
 29 68  1  0  0  0
 30 69  1  0  0  0
 31 70  1  0  0  0
 35 71  1  0  0  0
 36 72  1  0  0  0
 37 73  1  0  0  0
 38 74  1  0  0  0
 40 75  1  0  0  0
 43 76  1  0  0  0
 43 77  1  0  0  0
 44 78  1  0  0  0
 44 79  1  0  0  0
 44 80  1  0  0  0
M  END
$$$$
