### 
### Created by X-TOOL on Mon Sep 10 21:13:18 2018
### 

@<TRIPOS>MOLECULE
4qq4_ligand
  149   148     1     0     0
SMALL
GAST_HUCK


@<TRIPOS>ATOM
      1 N          11.3070   15.5390   12.6490 N.4       1 ALA         0.2377
      2 CA         10.1960   15.7090   11.6450 C.3       1 ALA         0.0621
      3 C          10.2040   14.5510   10.6460 C.2       1 ALA         0.2264
      4 O          11.1660   13.7650   10.6060 O.2       1 ALA        -0.3907
      5 CB         10.3560   17.0180   10.9200 C.3       1 ALA        -0.0040
      6 N           9.1220   14.4490    9.8610 N.am      1 ARG        -0.2610
      7 CA          9.0710   13.5660    8.7110 C.3       1 ARG         0.1312
      8 C           9.3200   14.3320    7.4170 C.2       1 ARG         0.2040
      9 O           8.6060   15.2950    7.0730 O.2       1 ARG        -0.3944
     10 CB          7.7250   12.8730    8.6530 C.3       1 ARG        -0.0092
     11 CG          7.6560   11.8040    7.6020 C.3       1 ARG        -0.0156
     12 CD          6.2400   11.2970    7.5250 C.3       1 ARG         0.0627
     13 NE          6.1670   10.1820    6.6040 N.pl3     1 ARG        -0.2723
     14 CZ          5.0600    9.7480    6.0200 C.cat     1 ARG         0.2882
     15 NH1         3.8810   10.3210    6.2590 N.pl3     1 ARG        -0.2849
     16 NH2         5.1370    8.7160    5.1860 N.pl3     1 ARG        -0.2849
     17 N          10.2710   13.8440    6.6290 N.am      1 THR        -0.2613
     18 CA         10.6570   14.5380    5.4180 C.3       1 THR         0.1565
     19 C          10.7130   13.5980    4.2300 C.2       1 THR         0.2065
     20 O          10.8270   12.3800    4.3990 O.2       1 THR        -0.3943
     21 CB         12.0230   15.2580    5.5160 C.3       1 THR         0.0924
     22 OG1        13.0700   14.3120    5.8570 O.3       1 THR        -0.3874
     23 CG2        11.9960   16.3380    6.5490 C.3       1 THR        -0.0346
     24 N          10.6190   14.1900    3.0450 N.am      1 M3L        -0.2637
     25 CA         10.8230   13.4820    1.7650 C.3       1 M3L         0.1310
     26 CB          9.5050   12.9780    1.1400 C.3       1 M3L        -0.0122
     27 CG          8.6170   14.1040    0.6390 C.3       1 M3L        -0.0440
     28 CD          7.3140   13.5870    0.0140 C.3       1 M3L        -0.0123
     29 CE          6.5130   14.7930   -0.5230 C.3       1 M3L        -0.0309
     30 NZ          5.3480   14.4560   -1.3810 N.4       1 M3L         0.2369
     31 C          11.5370   14.3970    0.8100 C.2       1 M3L         0.2039
     32 O          11.6320   15.6240    1.0210 O.2       1 M3L        -0.3944
     33 CM1         5.8200   13.9880   -2.7070 C.3       1 M3L        -0.0418
     34 CM2         4.5290   15.6650   -1.5970 C.3       1 M3L        -0.0418
     35 CM3         4.5010   13.4350   -0.7410 C.3       1 M3L        -0.0418
     36 N          12.0590   13.7940   -0.2770 N.am      1 GLN        -0.2636
     37 CA         12.7550   14.5100   -1.3360 C.3       1 GLN         0.1330
     38 C          12.1210   14.1690   -2.6640 C.2       1 GLN         0.2041
     39 O          11.6950   13.0310   -2.8860 O.2       1 GLN        -0.3944
     40 CB         14.2210   14.0830   -1.4100 C.3       1 GLN         0.0045
     41 CG         14.9180   14.1090   -0.0750 C.3       1 GLN         0.0412
     42 CD         15.3000   15.5150    0.3260 C.2       1 GLN         0.1737
     43 OE1        15.7440   16.3100   -0.5060 O.2       1 GLN        -0.3973
     44 NE2        15.1410   15.8310    1.6040 N.am      1 GLN        -0.3009
     45 N          12.0000   15.1650   -3.5150 N.am      1 THR        -0.2613
     46 CA         11.5570   14.9390   -4.8870 C.3       1 THR         0.1565
     47 C          12.5830   15.5990   -5.7960 C.2       1 THR         0.2065
     48 O          13.2810   16.5400   -5.4090 O.2       1 THR        -0.3943
     49 CB         10.1290   15.4800   -5.1640 C.3       1 THR         0.0924
     50 OG1        10.0630   16.8730   -4.8570 O.3       1 THR        -0.3874
     51 CG2         9.0690   14.7500   -4.3450 C.3       1 THR        -0.0346
     52 N          12.6990   15.1080   -7.0260 N.am      1 ALA        -0.2639
     53 CA         13.6830   15.6920   -7.9490 C.3       1 ALA         0.1282
     54 C          13.1950   17.0400   -8.4260 C.2       1 ALA         0.2036
     55 O          11.9950   17.2310   -8.5600 O.2       1 ALA        -0.3944
     56 CB         13.9400   14.7710   -9.1330 C.3       1 ALA        -0.0244
     57 N          14.1330   17.9640   -8.6590 N.am      1 ARG        -0.2637
     58 CA         13.8530   19.2920   -9.2710 C.3       1 ARG         0.1307
     59 C          13.9520   19.3360  -10.8190 C.2       1 ARG         0.1992
     60 O          14.9720   19.7300  -11.3770 O.2       1 ARG        -0.3947
     61 CB         14.7900   20.3610   -8.6830 C.3       1 ARG        -0.0092
     62 CG         14.1780   21.0990   -7.5010 C.3       1 ARG        -0.0156
     63 CD         15.2220   21.7290   -6.6050 C.3       1 ARG         0.0627
     64 NE         14.7250   22.9080   -5.9050 N.pl3     1 ARG        -0.2723
     65 CZ         15.0840   23.2410   -4.6690 C.cat     1 ARG         0.2882
     66 NH1        15.9240   22.4690   -3.9900 N.pl3     1 ARG        -0.2849
     67 NH2        14.5910   24.3340   -4.1020 N.pl3     1 ARG        -0.2849
     68 N          12.8750   18.9690  -11.5060 N.am      1 LYS        -0.2990
     69 H1         11.2911   16.3075   13.3010 H         1 ALA         0.2015
     70 H2         12.1936   15.5234   12.1697 H         1 ALA         0.2015
     71 H3         11.1794   14.6725   13.1479 H         1 ALA         0.2015
     72 H4          9.2333   15.7121   12.1771 H         1 ALA         0.1095
     73 H5          9.5418   17.1344   10.1895 H         1 ALA         0.0310
     74 H6         11.3232   17.0312   10.3962 H         1 ALA         0.0310
     75 H7         10.3199   17.8451   11.6442 H         1 ALA         0.0310
     76 H8          8.3183   15.0035   10.0767 H         1 ARG         0.1884
     77 H9          9.8562   12.8036    8.8212 H         1 ARG         0.0800
     78 H10         6.9529   13.6261    8.4370 H         1 ARG         0.0313
     79 H11         7.5255   12.4138    9.6325 H         1 ARG         0.0313
     80 H12         8.3314   10.9778    7.8688 H         1 ARG         0.0301
     81 H13         7.9536   12.2213    6.6287 H         1 ARG         0.0301
     82 H14         5.5816   12.1048    7.1731 H         1 ARG         0.0689
     83 H15         5.9153   10.9679    8.5231 H         1 ARG         0.0689
     84 H16         7.0441    9.6879    6.3860 H         1 ARG         0.2642
     85 H17         3.0328    9.9673    5.7939 H         1 ARG         0.2615
     86 H18         3.8179   11.1176    6.9088 H         1 ARG         0.2615
     87 H19         6.0472    8.2713    4.9996 H         1 ARG         0.2615
     88 H20         4.2865    8.3609    4.7261 H         1 ARG         0.2615
     89 H21        10.7256   12.9878    6.8746 H         1 THR         0.1884
     90 H22         9.8876   15.2991    5.2213 H         1 THR         0.0826
     91 H23        12.2512   15.7079    4.5385 H         1 THR         0.0639
     92 H24        12.8710   13.9093    6.6941 H         1 THR         0.2101
     93 H25        12.9798   16.8282    6.5928 H         1 THR         0.0257
     94 H26        11.7602   15.9009    7.5305 H         1 THR         0.0257
     95 H27        11.2282   17.0798    6.2840 H         1 THR         0.0257
     96 H28        10.3988   15.1651    3.0180 H         1 M3L         0.1883
     97 H29        11.4613   12.6068    1.9565 H         1 M3L         0.0800
     98 H30         8.9520   12.4075    1.9007 H         1 M3L         0.0312
     99 H31         9.7480   12.3198    0.2928 H         1 M3L         0.0312
    100 H32         9.1690   14.6786   -0.1194 H         1 M3L         0.0269
    101 H33         8.3667   14.7601    1.4857 H         1 M3L         0.0269
    102 H34         6.7219   13.0584    0.7755 H         1 M3L         0.0317
    103 H35         7.5467   12.8992   -0.8123 H         1 M3L         0.0317
    104 H36         7.1983   15.4195   -1.1128 H         1 M3L         0.0815
    105 H37         6.1436   15.3660    0.3402 H         1 M3L         0.0815
    106 H38         4.9537   13.7400   -3.3379 H         1 M3L         0.0778
    107 H39         6.4477   13.0939   -2.5782 H         1 M3L         0.0778
    108 H40         6.4085   14.7830   -3.1883 H         1 M3L         0.0778
    109 H41         4.1629   16.0376   -0.6289 H         1 M3L         0.0778
    110 H42         3.6731   15.4177   -2.2421 H         1 M3L         0.0778
    111 H43         5.1407   16.4407   -2.0808 H         1 M3L         0.0778
    112 H44         5.0919   12.5231   -0.5701 H         1 M3L         0.0778
    113 H45         3.6488   13.2022   -1.3963 H         1 M3L         0.0778
    114 H46         4.1299   13.8171    0.2214 H         1 M3L         0.0778
    115 H47        11.9629   12.8021   -0.3601 H         1 GLN         0.1883
    116 H48        12.6902   15.5924   -1.1509 H         1 GLN         0.0801
    117 H49        14.7491   14.7649   -2.0927 H         1 GLN         0.0337
    118 H50        14.2664   13.0583   -1.8075 H         1 GLN         0.0337
    119 H51        15.8289   13.4953   -0.1359 H         1 GLN         0.0504
    120 H52        14.2444   13.6909    0.6876 H         1 GLN         0.0504
    121 H53        15.3777   16.7478    1.9256 H         1 GLN         0.1814
    122 H54        14.7844   15.1525    2.2462 H         1 GLN         0.1814
    123 H55        12.2157   16.0946   -3.2160 H         1 THR         0.1884
    124 H56        11.5497   13.8562   -5.0807 H         1 THR         0.0826
    125 H57         9.9068   15.3377   -6.2319 H         1 THR         0.0639
    126 H58        10.6857   17.3450   -5.3972 H         1 THR         0.2101
    127 H59         8.0771   15.1667   -4.5744 H         1 THR         0.0257
    128 H60         9.2814   14.8777   -3.2733 H         1 THR         0.0257
    129 H61         9.0841   13.6793   -4.5968 H         1 THR         0.0257
    130 H62        12.1212   14.3471   -7.3212 H         1 ALA         0.1883
    131 H63        14.6299   15.8321   -7.4071 H         1 ALA         0.0797
    132 H64        14.6785   15.2339   -9.8041 H         1 ALA         0.0277
    133 H65        13.0001   14.6061   -9.6801 H         1 ALA         0.0277
    134 H66        14.3273   13.8073   -8.7707 H         1 ALA         0.0277
    135 H67        15.0771   17.7507   -8.4077 H         1 ARG         0.1883
    136 H68        12.8196   19.5569   -9.0029 H         1 ARG         0.0800
    137 H69        15.0254   21.0927   -9.4699 H         1 ARG         0.0313
    138 H70        15.7163   19.8706   -8.3492 H         1 ARG         0.0313
    139 H71        13.5883   20.3853   -6.9070 H         1 ARG         0.0301
    140 H72        13.5178   21.8912   -7.8837 H         1 ARG         0.0301
    141 H73        16.0840   22.0232   -7.2218 H         1 ARG         0.0689
    142 H74        15.5411   20.9856   -5.8596 H         1 ARG         0.0689
    143 H75        14.0568   23.5183   -6.3970 H         1 ARG         0.2642
    144 H76        16.2017   22.7277   -3.0325 H         1 ARG         0.2615
    145 H77        16.2980   21.6114   -4.4208 H         1 ARG         0.2615
    146 H78        13.9390   24.9361   -4.6248 H         1 ARG         0.2615
    147 H79        14.8602   24.5807   -3.1389 H         1 ARG         0.2615
    148 H80        12.8916   18.9811  -12.5058 H         1 LYS         0.1815
    149 H81        12.0481   18.6808  -11.0231 H         1 LYS         0.1815
@<TRIPOS>BOND
     1    1    2 1  
     2    2    3 1  
     3    2    5 1  
     4    3    4 2  
     5    3    6 am 
     6    6    7 1  
     7    7    8 1  
     8    7   10 1  
     9    8    9 2  
    10    8   17 am 
    11   10   11 1  
    12   11   12 1  
    13   12   13 1  
    14   13   14 ar 
    15   14   15 ar 
    16   14   16 ar 
    17   17   18 1  
    18   18   19 1  
    19   18   21 1  
    20   19   20 2  
    21   19   24 am 
    22   21   22 1  
    23   21   23 1  
    24   24   25 1  
    25   25   26 1  
    26   25   31 1  
    27   26   27 1  
    28   27   28 1  
    29   28   29 1  
    30   29   30 1  
    31   30   33 1  
    32   30   34 1  
    33   30   35 1  
    34   31   32 2  
    35   31   36 am 
    36   36   37 1  
    37   37   38 1  
    38   37   40 1  
    39   38   39 2  
    40   38   45 am 
    41   40   41 1  
    42   41   42 1  
    43   42   43 2  
    44   42   44 am 
    45   45   46 1  
    46   46   47 1  
    47   46   49 1  
    48   47   48 2  
    49   47   52 am 
    50   49   50 1  
    51   49   51 1  
    52   52   53 1  
    53   53   54 1  
    54   53   56 1  
    55   54   55 2  
    56   54   57 am 
    57   57   58 1  
    58   58   59 1  
    59   58   61 1  
    60   59   60 2  
    61   59   68 am 
    62   61   62 1  
    63   62   63 1  
    64   63   64 1  
    65   64   65 ar 
    66   65   66 ar 
    67   65   67 ar 
    68    1   69 1  
    69    1   70 1  
    70    1   71 1  
    71    2   72 1  
    72    5   73 1  
    73    5   74 1  
    74    5   75 1  
    75    6   76 1  
    76    7   77 1  
    77   10   78 1  
    78   10   79 1  
    79   11   80 1  
    80   11   81 1  
    81   12   82 1  
    82   12   83 1  
    83   13   84 1  
    84   15   85 1  
    85   15   86 1  
    86   16   87 1  
    87   16   88 1  
    88   17   89 1  
    89   18   90 1  
    90   21   91 1  
    91   22   92 1  
    92   23   93 1  
    93   23   94 1  
    94   23   95 1  
    95   24   96 1  
    96   25   97 1  
    97   26   98 1  
    98   26   99 1  
    99   27  100 1  
   100   27  101 1  
   101   28  102 1  
   102   28  103 1  
   103   29  104 1  
   104   29  105 1  
   105   33  106 1  
   106   33  107 1  
   107   33  108 1  
   108   34  109 1  
   109   34  110 1  
   110   34  111 1  
   111   35  112 1  
   112   35  113 1  
   113   35  114 1  
   114   36  115 1  
   115   37  116 1  
   116   40  117 1  
   117   40  118 1  
   118   41  119 1  
   119   41  120 1  
   120   44  121 1  
   121   44  122 1  
   122   45  123 1  
   123   46  124 1  
   124   49  125 1  
   125   50  126 1  
   126   51  127 1  
   127   51  128 1  
   128   51  129 1  
   129   52  130 1  
   130   53  131 1  
   131   56  132 1  
   132   56  133 1  
   133   56  134 1  
   134   57  135 1  
   135   58  136 1  
   136   61  137 1  
   137   61  138 1  
   138   62  139 1  
   139   62  140 1  
   140   63  141 1  
   141   63  142 1  
   142   64  143 1  
   143   66  144 1  
   144   66  145 1  
   145   67  146 1  
   146   67  147 1  
   147   68  148 1  
   148   68  149 1  
@<TRIPOS>SUBSTRUCTURE
     1 ALA         1

