4qq4_ligand
  -I-interpret- 

147146  0  0  0  0  0  0  0  0999 V2000
   11.3070   15.5390   12.6490 N   0  3  0  0  0
   10.1960   15.7090   11.6450 C   0  0  0  0  0
   10.2040   14.5510   10.6460 C   0  0  0  0  0
   11.1660   13.7650   10.6060 O   0  0  0  0  0
   10.3560   17.0180   10.9200 C   0  0  0  0  0
    9.1220   14.4490    9.8610 N   0  0  0  0  0
    9.0710   13.5660    8.7110 C   0  0  0  0  0
    9.3200   14.3320    7.4170 C   0  0  0  0  0
    8.6060   15.2950    7.0730 O   0  0  0  0  0
    7.7250   12.8730    8.6530 C   0  0  0  0  0
    7.6560   11.8040    7.6020 C   0  0  0  0  0
    6.2400   11.2970    7.5250 C   0  0  0  0  0
    6.1670   10.1820    6.6040 N   0  0  0  0  0
    5.0600    9.7480    6.0200 C   0  0  0  0  0
    3.8810   10.3210    6.2590 N   0  0  0  0  0
    5.1370    8.7160    5.1860 N   0  0  0  0  0
   10.2710   13.8440    6.6290 N   0  0  0  0  0
   10.6570   14.5380    5.4180 C   0  0  0  0  0
   10.7130   13.5980    4.2300 C   0  0  0  0  0
   10.8270   12.3800    4.3990 O   0  0  0  0  0
   12.0230   15.2580    5.5160 C   0  0  0  0  0
   13.0700   14.3120    5.8570 O   0  0  0  0  0
   11.9960   16.3380    6.5490 C   0  0  0  0  0
   10.6190   14.1900    3.0450 N   0  0  0  0  0
   10.8230   13.4820    1.7650 C   0  0  0  0  0
    9.5050   12.9780    1.1400 C   0  0  0  0  0
    8.6170   14.1040    0.6390 C   0  0  0  0  0
    7.3140   13.5870    0.0140 C   0  0  0  0  0
    6.5130   14.7930   -0.5230 C   0  0  0  0  0
    5.3480   14.4560   -1.3810 N   0  3  0  0  0
   11.5370   14.3970    0.8100 C   0  0  0  0  0
   11.6320   15.6240    1.0210 O   0  0  0  0  0
    5.8200   13.9880   -2.7070 C   0  0  0  0  0
    4.5290   15.6650   -1.5970 C   0  0  0  0  0
    4.5010   13.4350   -0.7410 C   0  0  0  0  0
   12.0590   13.7940   -0.2770 N   0  0  0  0  0
   12.7550   14.5100   -1.3360 C   0  0  0  0  0
   12.1210   14.1690   -2.6640 C   0  0  0  0  0
   11.6950   13.0310   -2.8860 O   0  0  0  0  0
   14.2210   14.0830   -1.4100 C   0  0  0  0  0
   14.9180   14.1090   -0.0750 C   0  0  0  0  0
   15.3000   15.5150    0.3260 C   0  0  0  0  0
   15.7440   16.3100   -0.5060 O   0  0  0  0  0
   15.1410   15.8310    1.6040 N   0  0  0  0  0
   12.0000   15.1650   -3.5150 N   0  0  0  0  0
   11.5570   14.9390   -4.8870 C   0  0  0  0  0
   12.5830   15.5990   -5.7960 C   0  0  0  0  0
   13.2810   16.5400   -5.4090 O   0  0  0  0  0
   10.1290   15.4800   -5.1640 C   0  0  0  0  0
   10.0630   16.8730   -4.8570 O   0  0  0  0  0
    9.0690   14.7500   -4.3450 C   0  0  0  0  0
   12.6990   15.1080   -7.0260 N   0  0  0  0  0
   13.6830   15.6920   -7.9490 C   0  0  0  0  0
   13.1950   17.0400   -8.4260 C   0  0  0  0  0
   11.9950   17.2310   -8.5600 O   0  0  0  0  0
   13.9400   14.7710   -9.1330 C   0  0  0  0  0
   14.1330   17.9640   -8.6590 N   0  0  0  0  0
   13.8530   19.2920   -9.2710 C   0  0  0  0  0
   13.9520   19.3360  -10.8190 C   0  0  0  0  0
   14.9720   19.7300  -11.3770 O   0  0  0  0  0
   14.7900   20.3610   -8.6830 C   0  0  0  0  0
   14.1780   21.0990   -7.5010 C   0  0  0  0  0
   15.2220   21.7290   -6.6050 C   0  0  0  0  0
   14.7250   22.9080   -5.9050 N   0  0  0  0  0
   15.0840   23.2410   -4.6690 C   0  0  0  0  0
   15.9240   22.4690   -3.9900 N   0  0  0  0  0
   14.5910   24.3340   -4.1020 N   0  0  0  0  0
   12.8750   18.9690  -11.5060 N   0  0  0  0  0
   11.1910   14.6500   13.1354 H   0  0  0  0  0
   12.2050   15.5487   12.1654 H   0  0  0  0  0
   11.2743   16.3037   13.3232 H   0  0  0  0  0
    9.2419   15.7092   12.1720 H   0  0  0  0  0
   11.3018   17.0185   10.3781 H   0  0  0  0  0
    9.5329   17.1454   10.2169 H   0  0  0  0  0
   10.3488   17.8348   11.6417 H   0  0  0  0  0
    8.3022   15.0146   10.0810 H   0  0  0  0  0
    9.8583   12.8199    8.8189 H   0  0  0  0  0
    6.9758   13.6260    8.4083 H   0  0  0  0  0
    7.5559   12.3979    9.6193 H   0  0  0  0  0
    8.3295   10.9865    7.8592 H   0  0  0  0  0
    7.9572   12.2120    6.6372 H   0  0  0  0  0
    5.5894   12.0977    7.1734 H   0  0  0  0  0
    5.9207   10.9686    8.5141 H   0  0  0  0  0
    7.0355    9.6927    6.3881 H   0  0  0  0  0
    3.0402    9.9675    5.8023 H   0  0  0  0  0
    3.8193   11.1131    6.8986 H   0  0  0  0  0
    6.0376    8.2725    5.0052 H   0  0  0  0  0
   10.7347   12.9707    6.8795 H   0  0  0  0  0
    9.8811   15.2910    5.2803 H   0  0  0  0  0
   12.2259   15.7034    4.5420 H   0  0  0  0  0
   13.9101   14.7730    5.9140 H   0  0  0  0  0
   11.2349   17.0723    6.2853 H   0  0  0  0  0
   11.7622   15.9036    7.5210 H   0  0  0  0  0
   12.9713   16.8229    6.5914 H   0  0  0  0  0
   10.3944   15.1846    3.0174 H   0  0  0  0  0
   11.4247   12.5959    1.9671 H   0  0  0  0  0
    8.9554   12.4404    1.9127 H   0  0  0  0  0
    9.7609   12.3517    0.2854 H   0  0  0  0  0
    9.1656   14.6505   -0.1281 H   0  0  0  0  0
    8.3566   14.7327    1.4905 H   0  0  0  0  0
    6.7276   13.0562    0.7640 H   0  0  0  0  0
    7.5405   12.8993   -0.8008 H   0  0  0  0  0
    7.1989   15.3697   -1.1435 H   0  0  0  0  0
    6.1164   15.3148    0.3479 H   0  0  0  0  0
    6.4030   14.7766   -3.1828 H   0  0  0  0  0
    6.4419   13.1022   -2.5780 H   0  0  0  0  0
    4.9608   13.7426   -3.3312 H   0  0  0  0  0
    4.1766   16.0400   -0.6361 H   0  0  0  0  0
    5.1329   16.4286   -2.0872 H   0  0  0  0  0
    3.6748   15.4159   -2.2266 H   0  0  0  0  0
    5.0869   12.5311   -0.5742 H   0  0  0  0  0
    4.1357   13.8140    0.2135 H   0  0  0  0  0
    3.6557   13.2069   -1.3903 H   0  0  0  0  0
   11.9610   12.7823   -0.3618 H   0  0  0  0  0
   12.6896   15.5768   -1.1220 H   0  0  0  0  0
   14.7361   14.7865   -2.0640 H   0  0  0  0  0
   14.2467   13.0562   -1.7748 H   0  0  0  0  0
   15.8276   13.5131   -0.1498 H   0  0  0  0  0
   14.2372   13.7095    0.6767 H   0  0  0  0  0
   15.3896   16.7637    1.9335 H   0  0  0  0  0
   14.7700   15.1413    2.2576 H   0  0  0  0  0
   12.2200   16.1132   -3.2100 H   0  0  0  0  0
   11.4909   13.8673   -5.0747 H   0  0  0  0  0
    9.9255   15.3113   -6.2215 H   0  0  0  0  0
    9.1762   17.1964   -5.0319 H   0  0  0  0  0
    9.0850   13.6893   -4.5954 H   0  0  0  0  0
    9.2806   14.8773   -3.2833 H   0  0  0  0  0
    8.0867   15.1637   -4.5732 H   0  0  0  0  0
   12.1096   14.3318   -7.3271 H   0  0  0  0  0
   14.6253   15.8181   -7.4159 H   0  0  0  0  0
   14.3236   13.8165   -8.7726 H   0  0  0  0  0
   13.0079   14.6084   -9.6742 H   0  0  0  0  0
   14.6719   15.2308   -9.7972 H   0  0  0  0  0
   15.0960   17.7465   -8.4026 H   0  0  0  0  0
   12.8112   19.4962   -9.0238 H   0  0  0  0  0
   14.9917   21.0934   -9.4647 H   0  0  0  0  0
   15.6905   19.8575   -8.3312 H   0  0  0  0  0
   13.6184   20.3761   -6.9074 H   0  0  0  0  0
   13.5472   21.8966   -7.8935 H   0  0  0  0  0
   16.0580   22.0394   -7.2318 H   0  0  0  0  0
   15.5095   20.9913   -5.8559 H   0  0  0  0  0
   14.0633   23.5124   -6.3922 H   0  0  0  0  0
   16.1876   22.7174   -3.0365 H   0  0  0  0  0
   16.3057   21.6275   -4.4218 H   0  0  0  0  0
   13.9340   24.9224   -4.6144 H   0  0  0  0  0
   12.8815   19.0105  -12.5251 H   0  0  0  0  0
   12.0419   18.6458  -11.0141 H   0  0  0  0  0
  1  2  1  0  0  0
  2  3  1  0  0  0
  2  5  1  0  0  0
  3  4  2  0  0  0
  3  6  1  0  0  0
  6  7  1  0  0  0
  7  8  1  0  0  0
  7 10  1  0  0  0
  8  9  2  0  0  0
  8 17  1  0  0  0
 10 11  1  0  0  0
 11 12  1  0  0  0
 12 13  1  0  0  0
 13 14  1  0  0  0
 14 15  1  0  0  0
 14 16  2  0  0  0
 17 18  1  0  0  0
 18 19  1  0  0  0
 18 21  1  0  0  0
 19 20  2  0  0  0
 19 24  1  0  0  0
 21 22  1  0  0  0
 21 23  1  0  0  0
 24 25  1  0  0  0
 25 26  1  0  0  0
 25 31  1  0  0  0
 26 27  1  0  0  0
 27 28  1  0  0  0
 28 29  1  0  0  0
 29 30  1  0  0  0
 30 33  1  0  0  0
 30 34  1  0  0  0
 30 35  1  0  0  0
 31 32  2  0  0  0
 31 36  1  0  0  0
 36 37  1  0  0  0
 37 38  1  0  0  0
 37 40  1  0  0  0
 38 39  2  0  0  0
 38 45  1  0  0  0
 40 41  1  0  0  0
 41 42  1  0  0  0
 42 43  2  0  0  0
 42 44  1  0  0  0
 45 46  1  0  0  0
 46 47  1  0  0  0
 46 49  1  0  0  0
 47 48  2  0  0  0
 47 52  1  0  0  0
 49 50  1  0  0  0
 49 51  1  0  0  0
 52 53  1  0  0  0
 53 54  1  0  0  0
 53 56  1  0  0  0
 54 55  2  0  0  0
 54 57  1  0  0  0
 57 58  1  0  0  0
 58 59  1  0  0  0
 58 61  1  0  0  0
 59 60  2  0  0  0
 59 68  1  0  0  0
 61 62  1  0  0  0
 62 63  1  0  0  0
 63 64  1  0  0  0
 64 65  1  0  0  0
 65 66  1  0  0  0
 65 67  2  0  0  0
  1 69  1  0  0  0
  1 70  1  0  0  0
  1 71  1  0  0  0
  2 72  1  0  0  0
  5 73  1  0  0  0
  5 74  1  0  0  0
  5 75  1  0  0  0
  6 76  1  0  0  0
  7 77  1  0  0  0
 10 78  1  0  0  0
 10 79  1  0  0  0
 11 80  1  0  0  0
 11 81  1  0  0  0
 12 82  1  0  0  0
 12 83  1  0  0  0
 13 84  1  0  0  0
 15 85  1  0  0  0
 15 86  1  0  0  0
 16 87  1  0  0  0
 17 88  1  0  0  0
 18 89  1  0  0  0
 21 90  1  0  0  0
 22 91  1  0  0  0
 23 92  1  0  0  0
 23 93  1  0  0  0
 23 94  1  0  0  0
 24 95  1  0  0  0
 25 96  1  0  0  0
 26 97  1  0  0  0
 26 98  1  0  0  0
 27 99  1  0  0  0
 27100  1  0  0  0
 28101  1  0  0  0
 28102  1  0  0  0
 29103  1  0  0  0
 29104  1  0  0  0
 33105  1  0  0  0
 33106  1  0  0  0
 33107  1  0  0  0
 34108  1  0  0  0
 34109  1  0  0  0
 34110  1  0  0  0
 35111  1  0  0  0
 35112  1  0  0  0
 35113  1  0  0  0
 36114  1  0  0  0
 37115  1  0  0  0
 40116  1  0  0  0
 40117  1  0  0  0
 41118  1  0  0  0
 41119  1  0  0  0
 44120  1  0  0  0
 44121  1  0  0  0
 45122  1  0  0  0
 46123  1  0  0  0
 49124  1  0  0  0
 50125  1  0  0  0
 51126  1  0  0  0
 51127  1  0  0  0
 51128  1  0  0  0
 52129  1  0  0  0
 53130  1  0  0  0
 56131  1  0  0  0
 56132  1  0  0  0
 56133  1  0  0  0
 57134  1  0  0  0
 58135  1  0  0  0
 61136  1  0  0  0
 61137  1  0  0  0
 62138  1  0  0  0
 62139  1  0  0  0
 63140  1  0  0  0
 63141  1  0  0  0
 64142  1  0  0  0
 66143  1  0  0  0
 66144  1  0  0  0
 67145  1  0  0  0
 68146  1  0  0  0
 68147  1  0  0  0
M  END
$$$$
