4uac_ligand
  -I-interpret- 

 90 93  0  0  0  0  0  0  0  0999 V2000
   22.3150   66.1510   27.7300 C   0  0  0  0  0
   22.2570   67.3520   28.8500 C   0  0  0  0  0
   22.7560   66.9640   29.9860 C   0  0  0  0  0
   21.9070   65.7970   30.7410 C   0  0  0  0  0
   21.6340   64.6790   29.8660 C   0  0  0  0  0
   21.1630   63.3510   30.3740 C   0  0  0  0  0
   21.8450   64.9070   28.2090 C   0  0  0  0  0
   23.0600   68.4710   28.2800 O   0  0  0  0  0
   22.7920   68.1140   30.9660 O   0  0  0  0  0
   22.5610   65.3430   31.9340 O   0  0  0  0  0
   20.2300   62.8880   29.4380 O   0  0  0  0  0
   25.4350   65.4630   23.4290 C   0  0  0  0  0
   25.0790   66.8420   23.9060 C   0  0  0  0  0
   24.9660   66.8860   25.3900 C   0  0  0  0  0
   23.9070   65.9220   25.8340 C   0  0  0  0  0
   24.3220   64.5370   25.3890 C   0  0  0  0  0
   23.3120   63.4630   25.6850 C   0  0  0  0  0
   23.7260   66.0160   27.2860 N   0  3  0  0  0
   26.1060   67.7530   23.4510 O   0  0  0  0  0
   24.6320   68.2140   25.8460 O   0  0  0  0  0
   24.4330   64.4950   23.9330 O   0  0  0  0  0
   30.3360   63.7300   22.3330 C   0  0  0  0  0
   29.6980   64.9220   21.6880 C   0  0  0  0  0
   28.6630   65.5260   22.5760 C   0  0  0  0  0
   27.6150   64.5260   22.9630 C   0  0  0  0  0
   28.2580   63.2810   23.5450 C   0  0  0  0  0
   27.2160   62.1990   23.7290 C   0  0  0  0  0
   30.7290   65.8820   21.3750 O   0  0  0  0  0
   28.0520   66.6630   21.9100 O   0  0  0  0  0
   26.6920   65.0870   23.9400 O   0  0  0  0  0
   29.2920   62.7500   22.6570 O   0  0  0  0  0
   27.8000   61.0390   24.3570 O   0  0  0  0  0
   34.8890   63.6670   25.0410 C   0  0  0  0  0
   34.6750   64.4640   23.7700 C   0  0  0  0  0
   33.2590   64.8930   23.6070 C   0  0  0  0  0
   32.3330   63.7220   23.6200 C   0  0  0  0  0
   32.5130   62.9450   24.9110 C   0  0  0  0  0
   31.7760   61.6450   24.8910 C   0  0  0  0  0
   34.7400   64.4820   26.1520 O   0  0  0  0  0
   35.6100   65.5690   23.6860 O   0  0  0  0  0
   33.1410   65.5560   22.3180 O   0  0  0  0  0
   30.9780   64.1610   23.4910 O   0  0  0  0  0
   33.9140   62.5640   25.0880 O   0  0  0  0  0
   31.9410   60.9960   26.1610 O   0  0  0  0  0
   21.6524   66.4243   26.9088 H   0  0  0  0  0
   21.2289   67.6511   29.0541 H   0  0  0  0  0
   23.7411   66.5808   29.7198 H   0  0  0  0  0
   20.9563   66.2472   31.0268 H   0  0  0  0  0
   21.6454   64.1390   30.8128 H   0  0  0  0  0
   20.7164   63.4431   31.3640 H   0  0  0  0  0
   21.9931   62.6529   30.4822 H   0  0  0  0  0
   22.6194   64.1930   27.9286 H   0  0  0  0  0
   20.8446   64.8091   27.7874 H   0  0  0  0  0
   22.6774   68.7439   27.4429 H   0  0  0  0  0
   23.2823   68.8447   30.5823 H   0  0  0  0  0
   22.7369   66.0933   32.5065 H   0  0  0  0  0
   19.8945   62.0333   29.7181 H   0  0  0  0  0
   25.4570   65.4654   22.3392 H   0  0  0  0  0
   24.1092   67.1300   23.5003 H   0  0  0  0  0
   25.9288   66.6094   25.8196 H   0  0  0  0  0
   22.9424   66.1566   25.3839 H   0  0  0  0  0
   25.2508   64.3528   25.9289 H   0  0  0  0  0
   23.1394   63.4147   26.7602 H   0  0  0  0  0
   22.3767   63.6953   25.1757 H   0  0  0  0  0
   23.6903   62.5033   25.3330 H   0  0  0  0  0
   24.0805   65.1471   27.6856 H   0  0  0  0  0
   24.2146   66.8576   27.5916 H   0  0  0  0  0
   25.8969   68.6423   23.7461 H   0  0  0  0  0
   24.5653   68.2149   26.8037 H   0  0  0  0  0
   31.0602   63.2610   21.6669 H   0  0  0  0  0
   29.1932   64.6117   20.7731 H   0  0  0  0  0
   29.1526   65.8585   23.4913 H   0  0  0  0  0
   27.0613   64.2638   22.0614 H   0  0  0  0  0
   28.7031   63.5636   24.4990 H   0  0  0  0  0
   26.8241   61.9142   22.7526 H   0  0  0  0  0
   26.4162   62.5810   24.3634 H   0  0  0  0  0
   30.3326   66.6519   20.9605 H   0  0  0  0  0
   27.3866   67.0491   22.4842 H   0  0  0  0  0
   27.1272   60.3630   24.4664 H   0  0  0  0  0
   35.9007   63.2614   25.0467 H   0  0  0  0  0
   34.8825   63.8053   22.9267 H   0  0  0  0  0
   32.9910   65.5544   24.4309 H   0  0  0  0  0
   32.5670   63.0722   22.7767 H   0  0  0  0  0
   32.1456   63.6014   25.6998 H   0  0  0  0  0
   32.1719   61.0096   24.0988 H   0  0  0  0  0
   30.7173   61.8250   24.7045 H   0  0  0  0  0
   34.8782   63.9640   26.9483 H   0  0  0  0  0
   35.4545   66.0572   22.8742 H   0  0  0  0  0
   32.2340   65.8429   22.1889 H   0  0  0  0  0
   31.4698   60.1596   26.1553 H   0  0  0  0  0
  1  2  1  0  0  0
  1  7  1  0  0  0
 18  1  1  0  0  0
  2  3  1  0  0  0
  2  8  1  0  0  0
  3  4  1  0  0  0
  3  9  1  0  0  0
  5  4  1  0  0  0
  4 10  1  0  0  0
  5  6  1  0  0  0
  7  5  1  0  0  0
  6 11  1  0  0  0
 12 13  1  0  0  0
 12 21  1  0  0  0
 30 12  1  0  0  0
 13 14  1  0  0  0
 13 19  1  0  0  0
 14 15  1  0  0  0
 14 20  1  0  0  0
 16 15  1  0  0  0
 15 18  1  0  0  0
 16 17  1  0  0  0
 21 16  1  0  0  0
 22 23  1  0  0  0
 22 31  1  0  0  0
 42 22  1  0  0  0
 23 24  1  0  0  0
 23 28  1  0  0  0
 24 25  1  0  0  0
 24 29  1  0  0  0
 26 25  1  0  0  0
 25 30  1  0  0  0
 26 27  1  0  0  0
 31 26  1  0  0  0
 27 32  1  0  0  0
 34 33  1  0  0  0
 33 39  1  0  0  0
 33 43  1  0  0  0
 35 34  1  0  0  0
 34 40  1  0  0  0
 36 35  1  0  0  0
 35 41  1  0  0  0
 36 37  1  0  0  0
 36 42  1  0  0  0
 37 38  1  0  0  0
 37 43  1  0  0  0
 38 44  1  0  0  0
  1 45  1  0  0  0
  2 46  1  0  0  0
  3 47  1  0  0  0
  4 48  1  0  0  0
  5 49  1  0  0  0
  6 50  1  0  0  0
  6 51  1  0  0  0
  7 52  1  0  0  0
  7 53  1  0  0  0
  8 54  1  0  0  0
  9 55  1  0  0  0
 10 56  1  0  0  0
 11 57  1  0  0  0
 12 58  1  0  0  0
 13 59  1  0  0  0
 14 60  1  0  0  0
 15 61  1  0  0  0
 16 62  1  0  0  0
 17 63  1  0  0  0
 17 64  1  0  0  0
 17 65  1  0  0  0
 18 66  1  0  0  0
 18 67  1  0  0  0
 19 68  1  0  0  0
 20 69  1  0  0  0
 22 70  1  0  0  0
 23 71  1  0  0  0
 24 72  1  0  0  0
 25 73  1  0  0  0
 26 74  1  0  0  0
 27 75  1  0  0  0
 27 76  1  0  0  0
 28 77  1  0  0  0
 29 78  1  0  0  0
 32 79  1  0  0  0
 33 80  1  0  0  0
 34 81  1  0  0  0
 35 82  1  0  0  0
 36 83  1  0  0  0
 37 84  1  0  0  0
 38 85  1  0  0  0
 38 86  1  0  0  0
 39 87  1  0  0  0
 40 88  1  0  0  0
 41 89  1  0  0  0
 44 90  1  0  0  0
M  END
$$$$
