4pkr_ligand
  -I-interpret- 

 44 45  0  0  0  0  0  0  0  0999 V2000
   11.5500   20.0220   27.9210 C   0  0  0  0  0
   11.2180   18.4570   26.0420 C   0  0  0  0  0
    6.5780   17.5400   26.7030 C   0  0  0  0  0
    5.6930   16.9170   25.8330 C   0  0  0  0  0
   10.8330   19.8190   26.6130 C   0  0  0  0  0
   12.2870   21.1230   28.0480 N   0  0  0  0  0
   11.4430   19.2020   28.8180 O   0  0  0  0  0
   13.3980   21.1210   28.8890 O   0  0  0  0  0
    9.3860   19.9670   26.7760 N   0  0  0  0  0
    8.6910   21.3130   26.5930 S   0  0  0  0  0
    9.5300   22.1910   25.8230 O   0  0  0  0  0
    7.4300   21.1430   25.9280 O   0  0  0  0  0
    8.6790   18.7700   27.2240 C   0  0  0  0  0
    7.7570   18.1050   26.2250 C   0  0  0  0  0
    5.9900   16.8620   24.4760 C   0  0  0  0  0
    7.1670   17.4280   23.9950 C   0  0  0  0  0
    8.0510   18.0530   24.8670 C   0  0  0  0  0
    8.4660   21.9510   28.0430 C   0  0  0  0  0
    7.4010   21.5370   28.8360 C   0  0  0  0  0
    7.2050   22.0940   30.0950 C   0  0  0  0  0
    8.0700   23.0650   30.5660 C   0  0  0  0  0
    9.1330   23.4850   29.7770 C   0  0  0  0  0
    9.3280   22.9320   28.5170 C   0  0  0  0  0
    7.8810   23.6010   31.7850 F   0  0  0  0  0
    6.0530   21.6380   30.9510 C   0  0  0  0  0
   10.8724   17.6717   26.7143 H   0  0  0  0  0
   10.7538   18.3301   25.0640 H   0  0  0  0  0
   12.3018   18.3999   25.9413 H   0  0  0  0  0
    6.3479   17.5869   27.7674 H   0  0  0  0  0
    4.7717   16.4741   26.2115 H   0  0  0  0  0
   11.1376   20.5879   25.9030 H   0  0  0  0  0
   12.0391   21.9665   27.5308 H   0  0  0  0  0
   13.8159   21.9850   28.8673 H   0  0  0  0  0
    8.0433   19.0903   28.0495 H   0  0  0  0  0
    9.4511   18.0353   27.4524 H   0  0  0  0  0
    5.2997   16.3747   23.7874 H   0  0  0  0  0
    7.3965   17.3810   22.9305 H   0  0  0  0  0
    8.9700   18.5001   24.4880 H   0  0  0  0  0
    6.7166   20.7722   28.4688 H   0  0  0  0  0
    9.8158   24.2500   30.1468 H   0  0  0  0  0
   10.1600   23.2690   27.8987 H   0  0  0  0  0
    5.1157   21.8305   30.4290 H   0  0  0  0  0
    6.1484   20.5701   31.1474 H   0  0  0  0  0
    6.0641   22.1846   31.8940 H   0  0  0  0  0
  5  1  1  0  0  0
  1  6  1  0  0  0
  1  7  2  0  0  0
  5  2  1  0  0  0
  3  4  4  0  0  0
 14  3  4  0  0  0
  4 15  4  0  0  0
  9  5  1  0  0  0
  6  8  1  0  0  0
  9 10  1  0  0  0
 13  9  1  0  0  0
 10 11  2  0  0  0
 10 12  2  0  0  0
 10 18  1  0  0  0
 13 14  1  0  0  0
 14 17  4  0  0  0
 15 16  4  0  0  0
 16 17  4  0  0  0
 18 19  4  0  0  0
 18 23  4  0  0  0
 19 20  4  0  0  0
 20 21  4  0  0  0
 20 25  1  0  0  0
 21 22  4  0  0  0
 21 24  1  0  0  0
 22 23  4  0  0  0
  2 26  1  0  0  0
  2 27  1  0  0  0
  2 28  1  0  0  0
  3 29  1  0  0  0
  4 30  1  0  0  0
  5 31  1  0  0  0
  6 32  1  0  0  0
  8 33  1  0  0  0
 13 34  1  0  0  0
 13 35  1  0  0  0
 15 36  1  0  0  0
 16 37  1  0  0  0
 17 38  1  0  0  0
 19 39  1  0  0  0
 22 40  1  0  0  0
 23 41  1  0  0  0
 25 42  1  0  0  0
 25 43  1  0  0  0
 25 44  1  0  0  0
M  END
$$$$
