1zgb_ligand
  -I-interpret- 

 82 86  0  0  0  0  0  0  0  0999 V2000
   -3.1010   59.6420   74.6460 C   0  0  0  0  0
   -2.0300   60.6480   74.2690 C   0  0  0  0  0
   -1.0720   60.0800   73.1650 C   0  0  0  0  0
   -0.5640   58.6720   73.5430 C   0  0  0  0  0
   -1.2260   57.9290   74.5080 C   0  0  0  0  0
   -2.4440   58.4090   75.2790 C   0  0  0  0  0
    0.6260   58.0220   72.8830 C   0  0  0  0  0
    1.0540   56.7480   73.2200 C   0  0  0  0  0
    0.2850   56.0030   74.2960 C   0  0  0  0  0
   -0.7790   56.6730   74.8270 N   0  0  0  0  0
    0.5390   54.9060   74.6920 O   0  0  0  0  0
    0.0400   61.0700   73.2430 N   0  3  0  0  0
   -0.0680   62.2860   72.3830 C   0  0  0  0  0
    0.9870   62.0150   71.3460 C   0  0  0  0  0
    0.6380   62.6540   70.0350 C   0  0  0  0  0
    1.6990   62.3090   68.9910 C   0  0  0  0  0
    3.1210   62.4740   69.5480 C   0  0  0  0  0
    3.6790   63.7740   69.0100 C   0  0  0  0  0
    3.2800   65.0280   69.8120 C   0  0  0  0  0
    2.2410   65.8630   69.0450 C   0  0  0  0  0
    2.7180   66.3770   67.6860 C   0  0  0  0  0
    1.7260   67.4350   67.2000 C   0  0  0  0  0
    2.2130   68.4110   66.2220 N   0  0  0  0  0
    3.5210   68.6620   65.7320 C   0  0  0  0  0
    4.5280   69.2680   66.6260 C   0  0  0  0  0
    5.7970   69.5770   66.0220 C   0  0  0  0  0
    6.0700   69.3050   64.6510 N   0  0  0  0  0
    5.1550   68.7420   63.8630 C   0  0  0  0  0
    3.8300   68.3860   64.3510 C   0  0  0  0  0
    4.4250   69.6100   68.0480 C   0  0  0  0  0
    5.4660   70.1970   68.7720 C   0  0  0  0  0
    6.7110   70.4990   68.1320 C   0  0  0  0  0
    6.8660   70.1920   66.7800 C   0  0  0  0  0
    5.6230   68.5170   62.4010 C   0  0  0  0  0
    4.4170   68.2910   61.4350 C   0  0  0  0  0
    3.4630   67.2460   62.0080 C   0  0  0  0  0
    2.8360   67.7540   63.3560 C   0  0  0  0  0
   -3.6495   59.3432   73.7527 H   0  0  0  0  0
   -3.7890   60.0942   75.3604 H   0  0  0  0  0
   -1.4391   60.8727   75.1569 H   0  0  0  0  0
   -2.5172   61.5410   73.8775 H   0  0  0  0  0
   -1.5279   59.9678   72.1813 H   0  0  0  0  0
   -3.1778   57.6030   75.2789 H   0  0  0  0  0
   -2.1171   58.6831   76.2820 H   0  0  0  0  0
    1.1680   58.5733   72.1146 H   0  0  0  0  0
    1.9151   56.2954   72.7283 H   0  0  0  0  0
   -1.3050   56.1796   75.5483 H   0  0  0  0  0
    0.8732   60.5768   72.9221 H   0  0  0  0  0
    0.0414   61.4100   74.2047 H   0  0  0  0  0
    0.0834   63.2190   72.9258 H   0  0  0  0  0
   -1.0629   62.4370   71.9640 H   0  0  0  0  0
    1.0604   60.9375   71.1985 H   0  0  0  0  0
    1.9319   62.4316   71.6948 H   0  0  0  0  0
    0.5960   63.7358   70.1617 H   0  0  0  0  0
   -0.3306   62.2828   69.7002 H   0  0  0  0  0
    1.5812   62.9867   68.1454 H   0  0  0  0  0
    1.5647   61.2681   68.6966 H   0  0  0  0  0
    3.7478   61.6367   69.2410 H   0  0  0  0  0
    3.1014   62.4921   70.6377 H   0  0  0  0  0
    3.2769   63.8995   68.0047 H   0  0  0  0  0
    4.7651   63.6977   69.0606 H   0  0  0  0  0
    4.1689   65.6377   69.9741 H   0  0  0  0  0
    2.8453   64.7134   70.7608 H   0  0  0  0  0
    2.0201   66.7375   69.6570 H   0  0  0  0  0
    1.3855   65.2140   68.8580 H   0  0  0  0  0
    2.7693   65.5553   66.9716 H   0  0  0  0  0
    3.7136   66.8111   67.7780 H   0  0  0  0  0
    1.4530   68.0124   68.0833 H   0  0  0  0  0
    0.9297   66.8854   66.6980 H   0  0  0  0  0
    1.4897   69.0116   65.8264 H   0  0  0  0  0
    3.4902   69.3958   68.5660 H   0  0  0  0  0
    5.3298   70.4261   69.8289 H   0  0  0  0  0
    7.5240   70.9611   68.6920 H   0  0  0  0  0
    7.8101   70.4196   66.2849 H   0  0  0  0  0
    6.2536   67.6283   62.3758 H   0  0  0  0  0
    6.1629   69.4054   62.0733 H   0  0  0  0  0
    4.7933   67.9388   60.4745 H   0  0  0  0  0
    3.8801   69.2316   61.3121 H   0  0  0  0  0
    4.0175   66.3273   62.1993 H   0  0  0  0  0
    2.6623   67.0661   61.2906 H   0  0  0  0  0
    2.1213   68.5336   63.0925 H   0  0  0  0  0
    2.4130   66.8800   63.8514 H   0  0  0  0  0
  1  2  1  0  0  0
  1  6  1  0  0  0
  2  3  1  0  0  0
  3  4  1  0  0  0
  3 12  1  0  0  0
  4  5  2  0  0  0
  4  7  1  0  0  0
  5  6  1  0  0  0
  5 10  1  0  0  0
  7  8  2  0  0  0
  8  9  1  0  0  0
  9 10  1  0  0  0
  9 11  2  0  0  0
 12 13  1  0  0  0
 13 14  1  0  0  0
 14 15  1  0  0  0
 15 16  1  0  0  0
 16 17  1  0  0  0
 17 18  1  0  0  0
 18 19  1  0  0  0
 19 20  1  0  0  0
 20 21  1  0  0  0
 21 22  1  0  0  0
 22 23  1  0  0  0
 23 24  1  0  0  0
 24 25  4  0  0  0
 24 29  4  0  0  0
 25 26  4  0  0  0
 25 30  4  0  0  0
 26 27  4  0  0  0
 26 33  4  0  0  0
 27 28  4  0  0  0
 28 29  4  0  0  0
 28 34  1  0  0  0
 29 37  1  0  0  0
 30 31  4  0  0  0
 31 32  4  0  0  0
 32 33  4  0  0  0
 34 35  1  0  0  0
 35 36  1  0  0  0
 36 37  1  0  0  0
  1 38  1  0  0  0
  1 39  1  0  0  0
  2 40  1  0  0  0
  2 41  1  0  0  0
  3 42  1  0  0  0
  6 43  1  0  0  0
  6 44  1  0  0  0
  7 45  1  0  0  0
  8 46  1  0  0  0
 10 47  1  0  0  0
 12 48  1  0  0  0
 12 49  1  0  0  0
 13 50  1  0  0  0
 13 51  1  0  0  0
 14 52  1  0  0  0
 14 53  1  0  0  0
 15 54  1  0  0  0
 15 55  1  0  0  0
 16 56  1  0  0  0
 16 57  1  0  0  0
 17 58  1  0  0  0
 17 59  1  0  0  0
 18 60  1  0  0  0
 18 61  1  0  0  0
 19 62  1  0  0  0
 19 63  1  0  0  0
 20 64  1  0  0  0
 20 65  1  0  0  0
 21 66  1  0  0  0
 21 67  1  0  0  0
 22 68  1  0  0  0
 22 69  1  0  0  0
 23 70  1  0  0  0
 30 71  1  0  0  0
 31 72  1  0  0  0
 32 73  1  0  0  0
 33 74  1  0  0  0
 34 75  1  0  0  0
 34 76  1  0  0  0
 35 77  1  0  0  0
 35 78  1  0  0  0
 36 79  1  0  0  0
 36 80  1  0  0  0
 37 81  1  0  0  0
 37 82  1  0  0  0
M  END
$$$$
