2g9u_ligand
  -I-interpret- 

 43 44  0  0  0  0  0  0  0  0999 V2000
   36.4760   28.1000   29.9550 C   0  0  0  0  0
   36.6920   29.4820   29.9620 C   0  0  0  0  0
   37.0370   30.1280   28.7760 C   0  0  0  0  0
   37.1690   29.3910   27.5960 C   0  0  0  0  0
   36.9440   28.0110   27.5890 C   0  0  0  0  0
   36.5870   27.3650   28.7700 C   0  0  0  0  0
   36.3600   25.8480   28.7980 C   0  0  0  0  0
   35.1390   25.3520   28.0110 C   0  0  0  0  0
   35.0440   23.8250   28.1780 C   0  0  0  0  0
   33.8630   23.2440   27.5130 N   0  3  0  0  0
   33.7150   21.8340   27.9870 C   0  0  0  0  0
   33.9880   23.3490   26.0240 C   0  0  0  0  0
   32.7840   22.6750   25.3200 C   0  0  0  0  0
   33.0020   22.6610   23.9120 O   0  0  0  0  0
   32.5790   21.2330   25.8070 C   0  0  0  0  0
   31.3950   20.6950   25.2000 O   0  0  0  0  0
   32.4800   21.1810   27.3520 C   0  0  0  0  0
   32.2790   19.7600   27.9040 C   0  0  0  0  0
   33.2800   18.8580   27.4030 O   0  0  0  0  0
   36.2183   27.5901   30.8833 H   0  0  0  0  0
   36.5913   30.0491   30.8874 H   0  0  0  0  0
   37.2034   31.2052   28.7689 H   0  0  0  0  0
   37.4500   29.8968   26.6723 H   0  0  0  0  0
   37.0475   27.4438   26.6640 H   0  0  0  0  0
   36.1903   25.5773   29.8401 H   0  0  0  0  0
   37.2355   25.3931   28.3346 H   0  0  0  0  0
   35.2452   25.6069   26.9565 H   0  0  0  0  0
   34.2331   25.8264   28.3883 H   0  0  0  0  0
   34.9625   23.6124   29.2439 H   0  0  0  0  0
   35.9311   23.3856   27.7219 H   0  0  0  0  0
   33.0174   23.7599   27.7563 H   0  0  0  0  0
   33.5976   21.8349   29.0707 H   0  0  0  0  0
   34.6017   21.2688   27.7000 H   0  0  0  0  0
   34.9032   22.8456   25.7125 H   0  0  0  0  0
   34.0109   24.4031   25.7474 H   0  0  0  0  0
   31.8909   23.2508   25.5628 H   0  0  0  0  0
   32.2548   22.2430   23.4778 H   0  0  0  0  0
   33.4382   20.6296   25.5143 H   0  0  0  0  0
   31.2633   19.7933   25.5020 H   0  0  0  0  0
   31.5870   21.7438   27.6238 H   0  0  0  0  0
   31.2994   19.4008   27.5886 H   0  0  0  0  0
   32.3571   19.7958   28.9906 H   0  0  0  0  0
   33.1288   17.9814   27.7641 H   0  0  0  0  0
  1  2  4  0  0  0
  1  6  4  0  0  0
  2  3  4  0  0  0
  3  4  4  0  0  0
  4  5  4  0  0  0
  5  6  4  0  0  0
  6  7  1  0  0  0
  7  8  1  0  0  0
  8  9  1  0  0  0
  9 10  1  0  0  0
 10 11  1  0  0  0
 10 12  1  0  0  0
 11 17  1  0  0  0
 12 13  1  0  0  0
 13 14  1  0  0  0
 13 15  1  0  0  0
 15 16  1  0  0  0
 15 17  1  0  0  0
 17 18  1  0  0  0
 18 19  1  0  0  0
  1 20  1  0  0  0
  2 21  1  0  0  0
  3 22  1  0  0  0
  4 23  1  0  0  0
  5 24  1  0  0  0
  7 25  1  0  0  0
  7 26  1  0  0  0
  8 27  1  0  0  0
  8 28  1  0  0  0
  9 29  1  0  0  0
  9 30  1  0  0  0
 10 31  1  0  0  0
 11 32  1  0  0  0
 11 33  1  0  0  0
 12 34  1  0  0  0
 12 35  1  0  0  0
 13 36  1  0  0  0
 14 37  1  0  0  0
 15 38  1  0  0  0
 16 39  1  0  0  0
 17 40  1  0  0  0
 18 41  1  0  0  0
 18 42  1  0  0  0
 19 43  1  0  0  0
M  END
$$$$
