6u80_ligand
  -I-interpret- 

 42 44  0  0  0  0  0  0  0  0999 V2000
  -16.1530   32.5960    3.2080 C   0  0  0  0  0
  -19.0940   28.7690    4.6750 C   0  0  0  0  0
  -21.4590   29.2790    4.5600 C   0  0  0  0  0
  -21.3570   29.9750    5.7730 C   0  0  0  0  0
  -20.1230   30.0820    6.4270 C   0  0  0  0  0
  -22.7150   29.0910    3.8290 C   0  0  0  0  0
  -23.9320   29.0480    4.5290 C   0  0  0  0  0
  -25.1290   28.8250    3.8580 C   0  0  0  0  0
  -25.1220   28.6170    2.4750 C   0  0  0  0  0
  -23.9250   28.6340    1.7570 C   0  0  0  0  0
  -22.7230   28.8640    2.4320 C   0  0  0  0  0
  -14.3940   29.0160    6.1200 C   0  0  0  0  0
  -16.4100   30.2320    3.3450 C   0  0  0  0  0
  -16.7420   31.4300    2.7300 C   0  0  0  0  0
  -15.2230   32.5880    4.2520 C   0  0  0  0  0
  -14.9120   31.3760    4.8600 C   0  0  0  0  0
  -15.4970   30.1960    4.4040 C   0  0  0  0  0
  -19.0050   29.4700    5.8770 C   0  0  0  0  0
  -20.3190   28.6640    4.0350 C   0  0  0  0  0
  -17.9180   28.1160    4.1460 N   0  0  0  0  0
  -16.1140   27.8610    2.2980 O   0  0  0  0  0
  -15.2400   28.9760    4.9530 O   0  0  0  0  0
  -17.8110   29.5590    6.5260 O   0  0  0  0  0
  -18.1990   29.1310    1.8310 O   0  0  0  0  0
  -17.1530   28.7380    2.7400 S   0  0  0  0  0
  -16.5550   34.2780    2.4070 Br  0  0  0  0  0
  -22.2433   30.4355    6.2096 H   0  0  0  0  0
  -20.0413   30.6407    7.3593 H   0  0  0  0  0
  -23.9380   29.1910    5.6096 H   0  0  0  0  0
  -26.0700   28.8123    4.4080 H   0  0  0  0  0
  -26.0617   28.4396    1.9519 H   0  0  0  0  0
  -23.9277   28.4694    0.6795 H   0  0  0  0  0
  -21.7842   28.8686    1.8781 H   0  0  0  0  0
  -13.4325   29.4559    5.8552 H   0  0  0  0  0
  -14.8708   29.6196    6.8923 H   0  0  0  0  0
  -14.2415   28.0027    6.4915 H   0  0  0  0  0
  -17.4439   31.4570    1.8965 H   0  0  0  0  0
  -14.7510   33.5131    4.5830 H   0  0  0  0  0
  -14.2103   31.3492    5.6936 H   0  0  0  0  0
  -20.3943   28.0937    3.1091 H   0  0  0  0  0
  -17.5431   27.2870    4.6071 H   0  0  0  0  0
  -17.9226   30.0712    7.3302 H   0  0  0  0  0
 14  1  4  0  0  0
  1 15  4  0  0  0
  1 26  1  0  0  0
  2 18  4  0  0  0
  2 19  4  0  0  0
 20  2  1  0  0  0
  3  4  4  0  0  0
  3  6  1  0  0  0
 19  3  4  0  0  0
  5  4  4  0  0  0
 18  5  4  0  0  0
  6  7  4  0  0  0
  6 11  4  0  0  0
  7  8  4  0  0  0
  8  9  4  0  0  0
 10  9  4  0  0  0
 11 10  4  0  0  0
 22 12  1  0  0  0
 13 14  4  0  0  0
 13 17  4  0  0  0
 25 13  1  0  0  0
 16 15  4  0  0  0
 17 16  4  0  0  0
 17 22  1  0  0  0
 18 23  1  0  0  0
 20 25  1  0  0  0
 25 21  2  0  0  0
 25 24  2  0  0  0
  4 27  1  0  0  0
  5 28  1  0  0  0
  7 29  1  0  0  0
  8 30  1  0  0  0
  9 31  1  0  0  0
 10 32  1  0  0  0
 11 33  1  0  0  0
 12 34  1  0  0  0
 12 35  1  0  0  0
 12 36  1  0  0  0
 14 37  1  0  0  0
 15 38  1  0  0  0
 16 39  1  0  0  0
 19 40  1  0  0  0
 20 41  1  0  0  0
 23 42  1  0  0  0
M  END
$$$$
