3f5k_ligand
  -I-interpret- 

108112  0  0  0  0  0  0  0  0999 V2000
    7.2560    0.2800   35.5230 O   0  0  0  0  0
    5.8370    0.3660   35.8190 C   0  0  0  0  0
    5.1380    0.8380   34.5490 C   0  0  0  0  0
    5.0620   -0.2610   33.6280 O   0  0  0  0  0
    3.7650    1.4080   34.9510 C   0  0  0  0  0
    3.0090    1.6990   33.7840 O   0  0  0  0  0
    4.0640    2.7310   35.6610 C   0  0  0  0  0
    2.8600    3.6020   36.0460 C   0  0  0  0  0
    1.9430    2.8550   36.8950 O   0  0  0  0  0
    4.8170    2.4990   36.8720 O   0  0  0  0  0
    5.4780    1.2140   37.0910 C   0  0  0  0  0
    4.7800    0.3910   38.0850 O   0  0  0  0  0
    3.8750    0.9570   39.0290 C   0  0  0  0  0
    4.4750    0.9820   40.4320 C   0  0  0  0  0
    3.4410    1.3760   41.3400 O   0  0  0  0  0
    5.6610    1.9040   40.6380 C   0  0  0  0  0
    5.9260    1.9540   42.0590 O   0  0  0  0  0
    2.6590    0.0240   39.0410 C   0  0  0  0  0
    1.9880    0.1420   37.7770 O   0  0  0  0  0
    1.7030    0.2430   40.2170 C   0  0  0  0  0
    0.7720   -0.8380   40.3610 O   0  0  0  0  0
    2.4900    0.3410   41.5220 C   0  0  0  0  0
    1.6010    0.6960   42.5810 O   0  0  0  0  0
    2.0050    0.3330   43.8910 C   0  0  0  0  0
    0.7930   -0.3060   44.5530 C   0  0  0  0  0
    1.0100   -0.5150   45.9430 O   0  0  0  0  0
    0.4200   -1.6510   43.9580 C   0  0  0  0  0
   -0.9080   -1.8510   44.4370 O   0  0  0  0  0
    2.3410    1.6350   44.6260 C   0  0  0  0  0
    3.5460    2.2400   44.1060 O   0  0  0  0  0
    2.4870    1.3920   46.1230 C   0  0  0  0  0
    2.6440    2.6150   46.8370 O   0  0  0  0  0
    1.2420    0.6930   46.6610 C   0  0  0  0  0
    1.3770    0.4430   48.0690 O   0  0  0  0  0
    0.1670   -0.0440   48.6450 C   0  0  0  0  0
   -0.5480    1.0870   49.4170 C   0  0  0  0  0
   -1.5230    0.5850   50.3440 O   0  0  0  0  0
   -1.3000    1.9590   48.4080 C   0  0  0  0  0
   -1.4720    3.3010   48.8660 O   0  0  0  0  0
    0.4990   -1.2980   49.4570 C   0  0  0  0  0
    0.8520   -2.3780   48.5860 O   0  0  0  0  0
   -0.7240   -1.7380   50.2340 C   0  0  0  0  0
   -0.3820   -2.8550   51.0550 O   0  0  0  0  0
   -1.2410   -0.5980   51.1000 C   0  0  0  0  0
   -2.4830   -1.0680   51.6260 O   0  0  0  0  0
   -2.8000   -0.5970   52.9230 C   0  0  0  0  0
   -3.9690    0.3820   52.8130 C   0  0  0  0  0
   -3.5570    1.5830   52.1430 O   0  0  0  0  0
   -4.5010    0.7110   54.2020 C   0  0  0  0  0
   -5.6480    1.5640   54.1100 O   0  0  0  0  0
   -4.8550   -0.5900   54.9180 C   0  0  0  0  0
   -5.3970   -0.2920   56.2140 O   0  0  0  0  0
   -3.6830   -1.4080   55.0360 O   0  0  0  0  0
   -3.1420   -1.8200   53.7740 C   0  0  0  0  0
   -1.8830   -2.6980   53.9080 C   0  0  0  0  0
   -1.4060   -2.7590   55.3130 O   0  0  0  0  0
    7.3857   -0.2530   34.7351 H   0  0  0  0  0
    5.4744   -0.6220   36.1026 H   0  0  0  0  0
    5.6850    1.6313   34.0395 H   0  0  0  0  0
    5.9486   -0.5657   33.4213 H   0  0  0  0  0
    3.2082    0.7064   35.5721 H   0  0  0  0  0
    2.8094    0.8818   33.3214 H   0  0  0  0  0
    4.6191    3.2848   34.9039 H   0  0  0  0  0
    2.3368    3.9048   35.1390 H   0  0  0  0  0
    3.2148    4.4769   36.5907 H   0  0  0  0  0
    1.1968    3.4128   37.1266 H   0  0  0  0  0
    6.4477    1.5214   37.4825 H   0  0  0  0  0
    3.6314    1.9833   38.7545 H   0  0  0  0  0
    4.8613   -0.0225   40.6048 H   0  0  0  0  0
    5.4423    2.9005   40.2542 H   0  0  0  0  0
    6.5326    1.5326   40.0990 H   0  0  0  0  0
    6.6746    2.5320   42.2236 H   0  0  0  0  0
    3.0227   -0.9930   39.1875 H   0  0  0  0  0
    1.2222   -0.4369   37.7672 H   0  0  0  0  0
    1.1600    1.1651   40.0099 H   0  0  0  0  0
    0.1928   -0.6629   41.1063 H   0  0  0  0  0
    2.9726   -0.6041   41.7711 H   0  0  0  0  0
    2.8581   -0.3455   43.9000 H   0  0  0  0  0
   -0.0180    0.4014   44.3799 H   0  0  0  0  0
    1.1018   -2.4489   44.2523 H   0  0  0  0  0
    0.4854   -1.6665   42.8701 H   0  0  0  0  0
   -1.2416   -2.6900   44.1109 H   0  0  0  0  0
    1.5126    2.3235   44.4592 H   0  0  0  0  0
    3.7283    3.0511   44.5860 H   0  0  0  0  0
    3.3730    0.7733   46.2654 H   0  0  0  0  0
    2.7331    2.4278   47.7743 H   0  0  0  0  0
    0.3796    1.3442   46.5184 H   0  0  0  0  0
   -0.5584   -0.3500   47.8912 H   0  0  0  0  0
    0.2131    1.6381   49.9693 H   0  0  0  0  0
   -2.2888    1.5250   48.2596 H   0  0  0  0  0
   -0.7154    1.9898   47.4886 H   0  0  0  0  0
   -1.9467    3.8062   48.2019 H   0  0  0  0  0
    1.3274   -1.0578   50.1234 H   0  0  0  0  0
    1.0571   -3.1560   49.1097 H   0  0  0  0  0
   -1.5092   -2.0235   49.5339 H   0  0  0  0  0
   -1.1556   -3.1364   51.5490 H   0  0  0  0  0
   -0.4933   -0.3389   51.8496 H   0  0  0  0  0
   -1.9720   -0.0638   53.3902 H   0  0  0  0  0
   -4.7627   -0.0837   52.2288 H   0  0  0  0  0
   -4.3017    2.1858   52.0825 H   0  0  0  0  0
   -3.7357    1.2403   54.7697 H   0  0  0  0  0
   -5.9702    1.7614   54.9925 H   0  0  0  0  0
   -5.6036   -1.1353   54.3432 H   0  0  0  0  0
   -5.6190   -1.1111   56.6628 H   0  0  0  0  0
   -3.9144   -2.4225   53.2960 H   0  0  0  0  0
   -1.0934   -2.2636   53.2948 H   0  0  0  0  0
   -2.1320   -3.7087   53.5847 H   0  0  0  0  0
   -0.6229   -3.3123   55.3602 H   0  0  0  0  0
  1  2  1  0  0  0
  2  3  1  0  0  0
  2 11  1  0  0  0
  3  4  1  0  0  0
  3  5  1  0  0  0
  5  6  1  0  0  0
  5  7  1  0  0  0
  7  8  1  0  0  0
  7 10  1  0  0  0
  8  9  1  0  0  0
 10 11  1  0  0  0
 11 12  1  0  0  0
 12 13  1  0  0  0
 13 14  1  0  0  0
 13 18  1  0  0  0
 14 15  1  0  0  0
 14 16  1  0  0  0
 15 22  1  0  0  0
 16 17  1  0  0  0
 18 19  1  0  0  0
 18 20  1  0  0  0
 20 21  1  0  0  0
 20 22  1  0  0  0
 22 23  1  0  0  0
 23 24  1  0  0  0
 24 25  1  0  0  0
 24 29  1  0  0  0
 25 26  1  0  0  0
 25 27  1  0  0  0
 26 33  1  0  0  0
 27 28  1  0  0  0
 29 30  1  0  0  0
 29 31  1  0  0  0
 31 32  1  0  0  0
 31 33  1  0  0  0
 33 34  1  0  0  0
 34 35  1  0  0  0
 35 36  1  0  0  0
 35 40  1  0  0  0
 36 37  1  0  0  0
 36 38  1  0  0  0
 37 44  1  0  0  0
 38 39  1  0  0  0
 40 41  1  0  0  0
 40 42  1  0  0  0
 42 43  1  0  0  0
 42 44  1  0  0  0
 44 45  1  0  0  0
 45 46  1  0  0  0
 46 47  1  0  0  0
 46 54  1  0  0  0
 47 48  1  0  0  0
 47 49  1  0  0  0
 49 50  1  0  0  0
 49 51  1  0  0  0
 51 52  1  0  0  0
 51 53  1  0  0  0
 53 54  1  0  0  0
 54 55  1  0  0  0
 55 56  1  0  0  0
  1 57  1  0  0  0
  2 58  1  0  0  0
  3 59  1  0  0  0
  4 60  1  0  0  0
  5 61  1  0  0  0
  6 62  1  0  0  0
  7 63  1  0  0  0
  8 64  1  0  0  0
  8 65  1  0  0  0
  9 66  1  0  0  0
 11 67  1  0  0  0
 13 68  1  0  0  0
 14 69  1  0  0  0
 16 70  1  0  0  0
 16 71  1  0  0  0
 17 72  1  0  0  0
 18 73  1  0  0  0
 19 74  1  0  0  0
 20 75  1  0  0  0
 21 76  1  0  0  0
 22 77  1  0  0  0
 24 78  1  0  0  0
 25 79  1  0  0  0
 27 80  1  0  0  0
 27 81  1  0  0  0
 28 82  1  0  0  0
 29 83  1  0  0  0
 30 84  1  0  0  0
 31 85  1  0  0  0
 32 86  1  0  0  0
 33 87  1  0  0  0
 35 88  1  0  0  0
 36 89  1  0  0  0
 38 90  1  0  0  0
 38 91  1  0  0  0
 39 92  1  0  0  0
 40 93  1  0  0  0
 41 94  1  0  0  0
 42 95  1  0  0  0
 43 96  1  0  0  0
 44 97  1  0  0  0
 46 98  1  0  0  0
 47 99  1  0  0  0
 48100  1  0  0  0
 49101  1  0  0  0
 50102  1  0  0  0
 51103  1  0  0  0
 52104  1  0  0  0
 54105  1  0  0  0
 55106  1  0  0  0
 55107  1  0  0  0
 56108  1  0  0  0
M  END
$$$$
