3r9o_ligand
  -I-interpret- 

 41 43  0  0  0  0  0  0  0  0999 V2000
  -67.0380  -80.7910  -13.9380 C   0  0  0  0  0
  -66.5180  -81.5330  -14.9690 C   0  0  0  0  0
  -65.3600  -82.2210  -14.6460 N   0  0  0  0  0
  -64.9810  -82.0130  -13.3980 C   0  0  0  0  0
  -66.0630  -80.9450  -12.4740 S   0  0  0  0  0
  -68.2420  -79.9240  -13.9240 C   0  0  0  0  0
  -67.0450  -81.6180  -16.2460 N   0  0  0  0  0
  -63.8170  -82.5640  -12.9120 N   0  0  0  0  0
  -68.8630  -79.7700  -14.9790 O   0  0  0  0  0
  -61.5270  -82.2010   -9.4740 C   0  0  0  0  0
  -61.3650  -83.3590  -10.3100 C   0  0  0  0  0
  -62.1630  -83.5020  -11.4700 C   0  0  0  0  0
  -63.1240  -82.4860  -11.7870 C   0  0  0  0  0
  -63.2770  -81.3360  -10.9250 C   0  0  0  0  0
  -62.4850  -81.1950   -9.7720 C   0  0  0  0  0
  -60.4940  -81.9970   -8.0680 S   0  0  0  0  0
  -59.4260  -81.0740   -8.4640 O   0  0  0  0  0
  -61.4360  -81.2670   -6.8510 N   0  0  0  0  0
  -60.1260  -83.3660   -7.6150 O   0  0  0  0  0
  -68.5890  -79.3420  -12.7500 N   0  0  0  0  0
  -71.8740  -76.7220  -11.8860 C   0  0  0  0  0
  -70.6860  -76.7060  -11.0810 C   0  0  0  0  0
  -69.5930  -77.5850  -11.3820 C   0  0  0  0  0
  -69.6930  -78.4830  -12.4900 C   0  0  0  0  0
  -70.8930  -78.4860  -13.2890 C   0  0  0  0  0
  -71.9710  -77.6140  -12.9910 C   0  0  0  0  0
  -70.5970  -75.8540  -10.0450 F   0  0  0  0  0
  -73.0860  -77.6380  -13.7660 F   0  0  0  0  0
  -67.8914  -81.1009  -16.4839 H   0  0  0  0  0
  -66.5869  -82.1977  -16.9492 H   0  0  0  0  0
  -63.3786  -83.1891  -13.5883 H   0  0  0  0  0
  -60.6315  -84.1229  -10.0519 H   0  0  0  0  0
  -62.0486  -84.3736  -12.1145 H   0  0  0  0  0
  -64.0133  -80.5709  -11.1711 H   0  0  0  0  0
  -62.6037  -80.3303   -9.1191 H   0  0  0  0  0
  -61.2058  -80.3296   -6.5213 H   0  0  0  0  0
  -62.2303  -81.7673   -6.4519 H   0  0  0  0  0
  -67.9837  -79.5450  -11.9545 H   0  0  0  0  0
  -72.7011  -76.0519  -11.6515 H   0  0  0  0  0
  -68.6915  -77.5684  -10.7695 H   0  0  0  0  0
  -70.9730  -79.1688  -14.1349 H   0  0  0  0  0
  1  2  4  0  0  0
  1  5  4  0  0  0
  6  1  1  0  0  0
  2  3  4  0  0  0
  2  7  1  0  0  0
  4  3  4  0  0  0
  5  4  4  0  0  0
  4  8  1  0  0  0
  6  9  2  0  0  0
 20  6  1  0  0  0
  8 13  1  0  0  0
 11 10  4  0  0  0
 15 10  4  0  0  0
 10 16  1  0  0  0
 12 11  4  0  0  0
 13 12  4  0  0  0
 13 14  4  0  0  0
 14 15  4  0  0  0
 16 17  2  0  0  0
 16 18  1  0  0  0
 16 19  2  0  0  0
 24 20  1  0  0  0
 22 21  4  0  0  0
 21 26  4  0  0  0
 23 22  4  0  0  0
 22 27  1  0  0  0
 23 24  4  0  0  0
 24 25  4  0  0  0
 25 26  4  0  0  0
 26 28  1  0  0  0
  7 29  1  0  0  0
  7 30  1  0  0  0
  8 31  1  0  0  0
 11 32  1  0  0  0
 12 33  1  0  0  0
 14 34  1  0  0  0
 15 35  1  0  0  0
 18 36  1  0  0  0
 18 37  1  0  0  0
 20 38  1  0  0  0
 21 39  1  0  0  0
 23 40  1  0  0  0
 25 41  1  0  0  0
M  END
$$$$
