5cso_ligand
  -I-interpret- 

 30 31  0  0  0  0  0  0  0  0999 V2000
   20.7720    5.5960   -8.3080 O   0  0  0  0  0
   21.9090    5.7220   -7.4490 C   0  0  0  0  0
   21.5960    6.6940   -6.3150 C   0  0  0  0  0
   20.7950    6.0740   -5.3010 O   0  0  0  0  0
   21.2950    6.3880   -3.9950 C   0  0  0  0  0
   21.7740    5.1800   -3.3080 N   0  0  0  0  0
   22.3940    4.2080   -4.0020 C   0  0  0  0  0
   22.8500    3.0670   -3.3550 C   0  0  0  0  0
   22.6650    2.9430   -1.9820 C   0  0  0  0  0
   22.0480    3.9210   -1.2840 N   0  0  0  0  0
   21.6010    5.0340   -1.9070 C   0  0  0  0  0
   21.0390    5.9170   -1.2260 O   0  0  0  0  0
   23.1010    1.8430   -1.3370 N   0  0  0  0  0
   22.4500    7.3610   -4.1730 C   0  0  0  0  0
   22.0250    8.6950   -3.8720 O   0  0  0  0  0
   22.8530    7.2060   -5.6270 C   0  0  0  0  0
   23.3030    8.4380   -6.1990 O   0  0  0  0  0
   20.9756    4.9836   -9.0187 H   0  0  0  0  0
   22.7545    6.0997   -8.0239 H   0  0  0  0  0
   22.1533    4.7460   -7.0296 H   0  0  0  0  0
   21.0633    7.5208   -6.7848 H   0  0  0  0  0
   20.4993    6.8213   -3.3890 H   0  0  0  0  0
   22.5389    4.3168   -5.0768 H   0  0  0  0  0
   23.3477    2.2769   -3.9172 H   0  0  0  0  0
   21.9182    3.8186   -0.2775 H   0  0  0  0  0
   23.5678    1.0991   -1.8557 H   0  0  0  0  0
   23.2872    7.1604   -3.5044 H   0  0  0  0  0
   21.7797    8.7501   -2.9455 H   0  0  0  0  0
   23.6967    6.5257   -5.7429 H   0  0  0  0  0
   23.5467    8.2935   -7.1162 H   0  0  0  0  0
  1  2  1  0  0  0
  2  3  1  0  0  0
  3  4  1  0  0  0
  3 16  1  0  0  0
  4  5  1  0  0  0
  5  6  1  0  0  0
  5 14  1  0  0  0
  6  7  1  0  0  0
  6 11  1  0  0  0
  7  8  2  0  0  0
  8  9  1  0  0  0
  9 10  1  0  0  0
  9 13  2  0  0  0
 10 11  1  0  0  0
 11 12  2  0  0  0
 14 15  1  0  0  0
 14 16  1  0  0  0
 16 17  1  0  0  0
  1 18  1  0  0  0
  2 19  1  0  0  0
  2 20  1  0  0  0
  3 21  1  0  0  0
  5 22  1  0  0  0
  7 23  1  0  0  0
  8 24  1  0  0  0
 10 25  1  0  0  0
 13 26  1  0  0  0
 14 27  1  0  0  0
 15 28  1  0  0  0
 16 29  1  0  0  0
 17 30  1  0  0  0
M  END
$$$$
