1qxk_ligand
  -I-interpret- 

 67 68  0  0  0  0  0  0  0  0999 V2000
   34.4080   30.0010   19.7020 C   0  0  0  0  0
   33.7610   28.9820   20.4480 C   0  0  0  0  0
   32.3340   28.9530   20.5010 C   0  0  0  0  0
   31.5840   29.9230   19.8090 C   0  0  0  0  0
   32.2310   30.9430   19.0530 C   0  0  0  0  0
   33.6480   30.9680   19.0090 C   0  0  0  0  0
   34.5820   28.0540   21.0920 O   0  0  0  0  0
   31.3770   31.7290   16.7440 C   0  0  0  0  0
   30.5880   32.7730   16.0700 N   0  0  0  0  0
   30.8620   33.1910   14.8150 C   0  0  0  0  0
   30.7230   30.3610   16.4260 C   0  0  0  0  0
   29.3920   30.3480   16.6890 N   0  0  0  0  0
   28.7460   29.2060   17.3290 C   0  0  0  0  0
   27.4550   29.6820   18.0040 C   0  0  0  0  0
   26.3390   30.6290   20.0860 C   0  0  0  0  0
   27.6500   30.1510   19.4620 C   0  0  0  0  0
   25.9830   29.7510   21.1470 O   0  0  0  0  0
   31.9830   33.4070   14.3590 O   0  0  0  0  0
   29.6010   33.3810   13.9670 C   0  0  0  0  0
   34.1860   27.6790   22.3930 C   0  0  0  0  0
   31.3670   29.4170   15.9840 O   0  0  0  0  0
   31.4210   31.9840   18.2930 C   0  0  0  0  0
   35.0890   26.5600   22.8380 C   0  0  0  0  0
   36.0330   27.0090   23.6830 O   0  0  0  0  0
   34.9880   25.4290   22.4870 O   0  0  0  0  0
   24.6570   29.8370   21.6320 C   0  0  0  0  0
   23.9960   31.1030   21.8360 C   0  0  0  0  0
   22.6710   31.1650   22.3230 C   0  0  0  0  0
   21.9780   29.9710   22.6200 C   0  0  0  0  0
   22.5950   28.7110   22.4340 C   0  0  0  0  0
   23.9400   28.6200   21.9410 C   0  0  0  0  0
   24.5450   27.2720   21.7650 C   0  0  0  0  0
   24.6140   26.4980   22.6920 O   0  0  0  0  0
   24.9990   26.9780   20.5380 O   0  0  0  0  0
   25.5920   25.6820   20.3250 C   0  0  0  0  0
   21.8470   27.5910   22.7510 O   0  0  0  0  0
   35.7900   30.0380   19.6450 O   0  0  0  0  0
   31.8256   28.1799   21.0772 H   0  0  0  0  0
   30.4953   29.8934   19.8521 H   0  0  0  0  0
   34.1560   31.7422   18.4339 H   0  0  0  0  0
   32.4065   31.7416   16.3863 H   0  0  0  0  0
   29.8056   33.1964   16.5689 H   0  0  0  0  0
   28.8276   31.1580   16.4326 H   0  0  0  0  0
   29.4142   28.7737   18.0739 H   0  0  0  0  0
   28.5137   28.4470   16.5819 H   0  0  0  0  0
   26.7679   28.8361   18.0240 H   0  0  0  0  0
   27.0863   30.5353   17.4348 H   0  0  0  0  0
   26.4636   31.6405   20.4725 H   0  0  0  0  0
   25.5524   30.6311   19.3314 H   0  0  0  0  0
   28.3529   30.9841   19.4623 H   0  0  0  0  0
   28.0196   29.3082   20.0460 H   0  0  0  0  0
   29.5394   34.4181   13.6372 H   0  0  0  0  0
   29.6465   32.7242   13.0983 H   0  0  0  0  0
   28.7228   33.1355   14.5641 H   0  0  0  0  0
   33.1461   27.3524   22.3949 H   0  0  0  0  0
   34.2660   28.5262   23.0741 H   0  0  0  0  0
   31.8958   32.9519   18.4538 H   0  0  0  0  0
   30.3968   31.9385   18.6632 H   0  0  0  0  0
   35.9166   27.9522   23.8191 H   0  0  0  0  0
   24.5277   32.0274   21.6106 H   0  0  0  0  0
   22.1860   32.1302   22.4688 H   0  0  0  0  0
   20.9564   30.0204   22.9967 H   0  0  0  0  0
   26.4551   25.5666   20.9807 H   0  0  0  0  0
   24.8585   24.9072   20.5479 H   0  0  0  0  0
   25.9094   25.5954   19.2858 H   0  0  0  0  0
   22.3679   26.8020   22.5845 H   0  0  0  0  0
   36.0671   30.7817   19.1049 H   0  0  0  0  0
  1  2  4  0  0  0
  6  1  4  0  0  0
  1 37  1  0  0  0
  3  2  4  0  0  0
  2  7  1  0  0  0
  4  3  4  0  0  0
  5  4  4  0  0  0
  5  6  4  0  0  0
 22  5  1  0  0  0
  7 20  1  0  0  0
  8  9  1  0  0  0
 11  8  1  0  0  0
  8 22  1  0  0  0
  9 10  1  0  0  0
 10 18  2  0  0  0
 10 19  1  0  0  0
 12 11  1  0  0  0
 11 21  2  0  0  0
 13 12  1  0  0  0
 14 13  1  0  0  0
 16 14  1  0  0  0
 20 23  1  0  0  0
 23 24  1  0  0  0
 23 25  2  0  0  0
 26 27  4  0  0  0
 26 31  4  0  0  0
 27 28  4  0  0  0
 28 29  4  0  0  0
 30 29  4  0  0  0
 31 30  4  0  0  0
 30 36  1  0  0  0
 31 32  1  0  0  0
 32 33  2  0  0  0
 32 34  1  0  0  0
 34 35  1  0  0  0
 17 26  1  0  0  0
 15 17  1  0  0  0
 16 15  1  0  0  0
  3 38  1  0  0  0
  4 39  1  0  0  0
  6 40  1  0  0  0
  8 41  1  0  0  0
  9 42  1  0  0  0
 12 43  1  0  0  0
 13 44  1  0  0  0
 13 45  1  0  0  0
 14 46  1  0  0  0
 14 47  1  0  0  0
 15 48  1  0  0  0
 15 49  1  0  0  0
 16 50  1  0  0  0
 16 51  1  0  0  0
 19 52  1  0  0  0
 19 53  1  0  0  0
 19 54  1  0  0  0
 20 55  1  0  0  0
 20 56  1  0  0  0
 22 57  1  0  0  0
 22 58  1  0  0  0
 24 59  1  0  0  0
 27 60  1  0  0  0
 28 61  1  0  0  0
 29 62  1  0  0  0
 35 63  1  0  0  0
 35 64  1  0  0  0
 35 65  1  0  0  0
 36 66  1  0  0  0
 37 67  1  0  0  0
M  END
$$$$
