3rhx_ligand
  -I-interpret- 

 36 39  0  0  0  0  0  0  0  0999 V2000
   65.8830    2.2490    9.0100 C   0  0  0  0  0
   66.8610    1.7570    9.8750 C   0  0  0  0  0
   65.3680    1.4540    8.0620 N   0  0  0  0  0
   65.7880    0.1880    7.9590 C   0  0  0  0  0
   65.1920   -0.5550    6.9960 N   0  0  0  0  0
   66.7370   -0.3080    8.7910 N   0  0  0  0  0
   67.2890    0.4470    9.7380 C   0  0  0  0  0
   67.4360    2.6620   10.9270 C   0  0  0  0  0
   66.4000    3.7130   11.4200 C   0  0  0  0  0
   67.1120    4.6270   12.3340 C   0  0  0  0  0
   65.6270    4.3470   10.3130 C   0  0  0  0  0
   65.3720    3.6350    9.1400 C   0  0  0  0  0
   68.0520    5.5720   11.8550 C   0  0  0  0  0
   68.6980    6.3660   12.7920 C   0  0  0  0  0
   68.4370    6.2300   14.1720 C   0  0  0  0  0
   67.5070    5.2970   14.6810 C   0  0  0  0  0
   66.8650    4.4950   13.7230 C   0  0  0  0  0
   65.1200    5.6370   10.4100 C   0  0  0  0  0
   64.3810    6.2250    9.3730 C   0  0  0  0  0
   64.1300    5.4970    8.2110 C   0  0  0  0  0
   64.6240    4.1890    8.1060 C   0  0  0  0  0
   64.4713   -0.1406    6.4050 H   0  0  0  0  0
   65.4638   -1.5289    6.8618 H   0  0  0  0  0
   68.0617    0.0428   10.3920 H   0  0  0  0  0
   68.2824    3.1946   10.4933 H   0  0  0  0  0
   67.7326    2.0498   11.7787 H   0  0  0  0  0
   65.5942    3.2412   11.9823 H   0  0  0  0  0
   68.2603    5.6719   10.7898 H   0  0  0  0  0
   69.4210    7.1091   12.4555 H   0  0  0  0  0
   68.9740    6.8698   14.8723 H   0  0  0  0  0
   67.3009    5.2052   15.7474 H   0  0  0  0  0
   66.1509    3.7438   14.0604 H   0  0  0  0  0
   65.3021    6.2094   11.3196 H   0  0  0  0  0
   64.0059    7.2433    9.4749 H   0  0  0  0  0
   63.5576    5.9385    7.3952 H   0  0  0  0  0
   64.4209    3.6031    7.2096 H   0  0  0  0  0
  1  2  4  0  0  0
  1  3  4  0  0  0
  1 12  1  0  0  0
  2  7  4  0  0  0
  2  8  1  0  0  0
  3  4  4  0  0  0
  4  5  1  0  0  0
  4  6  4  0  0  0
  6  7  4  0  0  0
  8  9  1  0  0  0
  9 10  1  0  0  0
  9 11  1  0  0  0
 10 13  4  0  0  0
 10 17  4  0  0  0
 11 12  4  0  0  0
 11 18  4  0  0  0
 12 21  4  0  0  0
 13 14  4  0  0  0
 14 15  4  0  0  0
 15 16  4  0  0  0
 16 17  4  0  0  0
 18 19  4  0  0  0
 19 20  4  0  0  0
 20 21  4  0  0  0
  5 22  1  0  0  0
  5 23  1  0  0  0
  7 24  1  0  0  0
  8 25  1  0  0  0
  8 26  1  0  0  0
  9 27  1  0  0  0
 13 28  1  0  0  0
 14 29  1  0  0  0
 15 30  1  0  0  0
 16 31  1  0  0  0
 17 32  1  0  0  0
 18 33  1  0  0  0
 19 34  1  0  0  0
 20 35  1  0  0  0
 21 36  1  0  0  0
M  END
$$$$
