3zsy_ligand
  -I-interpret- 

 63 66  0  0  0  0  0  0  0  0999 V2000
  -10.7620   47.9740    5.9960 C   0  0  0  0  0
  -11.6040   48.8670    5.3900 C   0  0  0  0  0
   -9.8120   47.3360    5.2180 C   0  0  0  0  0
  -11.4940   49.0920    4.0320 C   0  0  0  0  0
  -11.5710   45.5560   -1.4770 C   0  0  0  0  0
  -12.3420   44.9120   -2.4300 C   0  0  0  0  0
   -9.6870   47.5650    3.8570 C   0  0  0  0  0
  -13.4090   45.6030    0.0840 C   0  0  0  0  0
  -10.5510   48.4650    3.2520 C   0  0  0  0  0
  -12.0790   45.8970   -0.2310 C   0  0  0  0  0
  -13.6500   44.6310   -2.1100 C   0  0  0  0  0
  -14.1690   44.9640   -0.8950 C   0  0  0  0  0
   -8.6240   46.8240    3.0990 C   0  0  0  0  0
  -14.0140   45.9130    1.4150 C   0  0  0  0  0
   -8.7120   41.7900   -0.2290 C   0  0  0  0  0
   -9.6870   42.7990    0.3090 C   0  0  0  0  0
   -7.9070   41.3130    0.9540 C   0  0  0  0  0
   -8.9180   43.9910    0.8430 C   0  0  0  0  0
   -7.1360   42.4740    1.5640 C   0  0  0  0  0
  -15.7000   43.9590   -2.0820 C   0  0  0  0  0
   -8.1020   43.5380    2.0300 C   0  0  0  0  0
  -11.6600   48.7800   -0.3750 C   0  0  0  0  0
  -10.5150   48.8040    1.7950 C   0  0  0  0  0
  -11.1300   46.5880    0.7200 C   0  0  0  0  0
   -7.4440   44.7240    2.7340 C   0  0  0  0  0
   -8.4910   45.4950    3.3790 N   0  0  0  0  0
  -11.4530   48.0530    0.9100 N   0  3  0  0  0
  -14.9650   45.1730    1.8120 O   0  0  0  0  0
   -7.9110   47.3540    2.2670 O   0  0  0  0  0
  -13.5220   46.8350    2.1100 O   0  0  0  0  0
  -14.5530   44.0200   -2.9320 O   0  0  0  0  0
  -15.4970   44.5850   -0.8100 O   0  0  0  0  0
  -10.8379   47.7706    7.0642 H   0  0  0  0  0
  -12.3558   49.3966    5.9751 H   0  0  0  0  0
   -9.1359   46.6259    5.6941 H   0  0  0  0  0
  -12.1814   49.7939    3.5600 H   0  0  0  0  0
  -10.5355   45.8022   -1.7120 H   0  0  0  0  0
  -11.9270   44.6373   -3.3998 H   0  0  0  0  0
   -8.0689   42.2313   -0.9905 H   0  0  0  0  0
   -9.2296   40.9616   -0.7127 H   0  0  0  0  0
  -10.2749   42.3515    1.1104 H   0  0  0  0  0
  -10.3593   43.1212   -0.4862 H   0  0  0  0  0
   -7.2023   40.5502    0.6230 H   0  0  0  0  0
   -8.5824   40.8993    1.7029 H   0  0  0  0  0
   -9.6103   44.7772    1.1442 H   0  0  0  0  0
   -8.2618   44.3890    0.0690 H   0  0  0  0  0
   -6.4668   42.8968    0.8146 H   0  0  0  0  0
   -6.5558   42.1154    2.4142 H   0  0  0  0  0
  -15.9193   42.9069   -1.8999 H   0  0  0  0  0
  -16.5102   44.4881   -2.5838 H   0  0  0  0  0
   -8.7393   43.0906    2.7927 H   0  0  0  0  0
  -12.0798   49.7648   -0.1702 H   0  0  0  0  0
  -10.7039   48.8904   -0.8866 H   0  0  0  0  0
  -12.3471   48.2144   -1.0044 H   0  0  0  0  0
   -9.5115   48.5519    1.4523 H   0  0  0  0  0
  -10.8072   49.8516    1.7227 H   0  0  0  0  0
  -10.1270   46.5195    0.2988 H   0  0  0  0  0
  -11.2155   46.0990    1.6904 H   0  0  0  0  0
   -6.9089   45.3421    2.0131 H   0  0  0  0  0
   -6.7235   44.3728    3.4727 H   0  0  0  0  0
   -9.1251   45.0451    4.0392 H   0  0  0  0  0
  -12.3422   48.0251    1.4089 H   0  0  0  0  0
  -15.1828   44.5381    1.1257 H   0  0  0  0  0
  1  2  4  0  0  0
  3  1  4  0  0  0
  4  2  4  0  0  0
  7  3  4  0  0  0
  9  4  4  0  0  0
  5  6  4  0  0  0
 10  5  4  0  0  0
  6 11  4  0  0  0
  7  9  4  0  0  0
 13  7  1  0  0  0
 10  8  4  0  0  0
  8 12  4  0  0  0
  8 14  1  0  0  0
  9 23  1  0  0  0
 24 10  1  0  0  0
 12 11  4  0  0  0
 11 31  1  0  0  0
 12 32  1  0  0  0
 26 13  1  0  0  0
 13 29  2  0  0  0
 14 28  1  0  0  0
 14 30  2  0  0  0
 16 15  1  0  0  0
 17 15  1  0  0  0
 18 16  1  0  0  0
 19 17  1  0  0  0
 21 18  1  0  0  0
 21 19  1  0  0  0
 20 31  1  0  0  0
 32 20  1  0  0  0
 25 21  1  0  0  0
 27 22  1  0  0  0
 23 27  1  0  0  0
 27 24  1  0  0  0
 25 26  1  0  0  0
  1 33  1  0  0  0
  2 34  1  0  0  0
  3 35  1  0  0  0
  4 36  1  0  0  0
  5 37  1  0  0  0
  6 38  1  0  0  0
 15 39  1  0  0  0
 15 40  1  0  0  0
 16 41  1  0  0  0
 16 42  1  0  0  0
 17 43  1  0  0  0
 17 44  1  0  0  0
 18 45  1  0  0  0
 18 46  1  0  0  0
 19 47  1  0  0  0
 19 48  1  0  0  0
 20 49  1  0  0  0
 20 50  1  0  0  0
 21 51  1  0  0  0
 22 52  1  0  0  0
 22 53  1  0  0  0
 22 54  1  0  0  0
 23 55  1  0  0  0
 23 56  1  0  0  0
 24 57  1  0  0  0
 24 58  1  0  0  0
 25 59  1  0  0  0
 25 60  1  0  0  0
 26 61  1  0  0  0
 27 62  1  0  0  0
 28 63  1  0  0  0
M  END
$$$$
