4psb_ligand
  -I-interpret- 

 47 51  0  0  0  0  0  0  0  0999 V2000
    8.3730    0.3100   20.6800 O   0  0  0  0  0
    9.1680    0.5860   19.7500 C   0  0  0  0  0
    8.8090    0.8830   18.5920 O   0  0  0  0  0
   10.6670    0.6050   20.0080 C   0  0  0  0  0
   11.5730    0.2580   18.8180 C   0  0  0  0  0
   11.0670    2.0580   20.3640 C   0  0  0  0  0
   10.1960    3.2130   19.8430 C   0  0  0  0  0
   10.5780    4.3280   20.7710 C   0  0  0  0  0
   10.4490    5.6250   20.5620 C   0  0  0  0  0
   11.3450    3.7790   21.9620 C   0  0  0  0  0
   11.0300    2.2750   21.8780 C   0  0  0  0  0
   11.0740    4.4120   23.2290 O   0  0  0  0  0
   12.8550    3.9470   21.7240 C   0  0  0  0  0
   13.4190    2.6910   21.0560 C   0  0  0  0  0
   12.5240    2.2820   19.8850 C   0  0  0  0  0
   12.8810    0.9480   19.2520 C   0  0  0  0  0
   13.3750   -0.0620   20.2330 O   0  0  0  0  0
   13.9170    0.9280   18.1690 C   0  0  0  0  0
   13.9880   -0.1540   17.3950 C   0  0  0  0  0
   13.0150   -1.3060   17.4570 C   0  0  0  0  0
   12.3110   -1.2980   16.2220 O   0  0  0  0  0
   12.0640   -1.2080   18.6800 C   0  0  0  0  0
   10.9890   -2.2950   18.6980 C   0  0  0  0  0
   12.9440   -1.3110   19.9060 C   0  0  0  0  0
   13.2400   -2.2680   20.5490 O   0  0  0  0  0
    8.8706    0.1142   21.4773 H   0  0  0  0  0
   10.8149   -0.1505   20.7796 H   0  0  0  0  0
   11.0317    0.5129   17.9069 H   0  0  0  0  0
    9.1293    2.9890   19.8503 H   0  0  0  0  0
   10.3677    3.4456   18.7920 H   0  0  0  0  0
   10.0226    5.9865   19.6263 H   0  0  0  0  0
   10.7689    6.3345   21.3252 H   0  0  0  0  0
   11.7257    1.6453   22.4326 H   0  0  0  0  0
   10.0848    1.9940   22.3425 H   0  0  0  0  0
   11.6041    3.9964   23.9130 H   0  0  0  0  0
   13.3550    4.1014   22.6802 H   0  0  0  0  0
   13.0236    4.8063   21.0749 H   0  0  0  0  0
   13.4541    1.8802   21.7836 H   0  0  0  0  0
   14.4234    2.8987   20.6871 H   0  0  0  0  0
   12.6535    3.0981   19.1741 H   0  0  0  0  0
   14.5907    1.7717   18.0195 H   0  0  0  0  0
   14.8006   -0.2109   16.6708 H   0  0  0  0  0
   13.5408   -2.2507   17.5955 H   0  0  0  0  0
   11.6755   -2.0175   16.2125 H   0  0  0  0  0
   10.3781   -2.2150   17.7988 H   0  0  0  0  0
   11.4654   -3.2749   18.7292 H   0  0  0  0  0
   10.3597   -2.1673   19.5788 H   0  0  0  0  0
  1  2  1  0  0  0
  2  3  2  0  0  0
  2  4  1  0  0  0
  4  5  1  0  0  0
  4  6  1  0  0  0
  5 16  1  0  0  0
  5 22  1  0  0  0
  6  7  1  0  0  0
  6 11  1  0  0  0
  6 15  1  0  0  0
  7  8  1  0  0  0
  8  9  2  0  0  0
  8 10  1  0  0  0
 10 11  1  0  0  0
 10 12  1  0  0  0
 10 13  1  0  0  0
 13 14  1  0  0  0
 14 15  1  0  0  0
 15 16  1  0  0  0
 16 17  1  0  0  0
 16 18  1  0  0  0
 17 24  1  0  0  0
 18 19  2  0  0  0
 19 20  1  0  0  0
 20 21  1  0  0  0
 20 22  1  0  0  0
 22 23  1  0  0  0
 22 24  1  0  0  0
 24 25  2  0  0  0
  1 26  1  0  0  0
  4 27  1  0  0  0
  5 28  1  0  0  0
  7 29  1  0  0  0
  7 30  1  0  0  0
  9 31  1  0  0  0
  9 32  1  0  0  0
 11 33  1  0  0  0
 11 34  1  0  0  0
 12 35  1  0  0  0
 13 36  1  0  0  0
 13 37  1  0  0  0
 14 38  1  0  0  0
 14 39  1  0  0  0
 15 40  1  0  0  0
 18 41  1  0  0  0
 19 42  1  0  0  0
 20 43  1  0  0  0
 21 44  1  0  0  0
 23 45  1  0  0  0
 23 46  1  0  0  0
 23 47  1  0  0  0
M  END
$$$$
