4xqu_ligand
  -I-interpret- 

 88 90  0  0  0  0  0  0  0  0999 V2000
    5.5980   63.3970  142.9590 C   0  0  0  0  0
    5.9330   64.6800  142.2270 C   0  0  0  0  0
    5.7300   65.8890  143.1520 C   0  0  0  0  0
    6.7930   65.9440  144.2520 C   0  0  0  0  0
    8.2130   65.8530  143.6990 C   0  0  0  0  0
    8.3600   64.7090  142.6930 C   0  0  0  0  0
    9.6800   64.7930  141.9240 C   0  0  0  0  0
   10.0020   63.4930  141.1810 C   0  0  0  0  0
   11.4390   63.4870  140.6710 C   0  0  0  0  0
   10.1590   66.4760  145.0500 C   0  0  0  0  0
    9.9220   67.5410  146.0800 C   0  0  0  0  0
    9.1330   65.6590  144.8080 N   0  0  0  0  0
    6.2830   62.3730  142.7390 O   0  0  0  0  0
    4.6220   63.3900  143.7420 O   0  0  0  0  0
    6.6570   67.1560  145.0030 O   0  0  0  0  0
    7.2830   64.6720  141.7400 O   0  0  0  0  0
    9.6210   65.8830  140.9930 O   0  0  0  0  0
    9.8150   62.3630  142.0440 O   0  0  0  0  0
   11.6930   62.2690  139.9600 O   0  0  0  0  0
   11.2290   66.3610  144.4740 O   0  0  0  0  0
    3.8810   66.2630  137.8980 C   0  0  0  0  0
    3.8620   65.4250  139.1820 C   0  0  0  0  0
    5.0580   65.6980  140.1020 C   0  0  0  0  0
    6.3800   65.6910  139.3210 C   0  0  0  0  0
    6.2980   66.5310  138.0450 C   0  0  0  0  0
    7.5800   66.4310  137.2200 C   0  0  0  0  0
    2.6370   65.6220  139.9050 O   0  0  0  0  0
    5.0160   64.6890  141.1230 O   0  0  0  0  0
    6.7510   64.3440  139.0030 O   0  0  0  0  0
    5.1640   66.1400  137.2540 O   0  0  0  0  0
    7.3040   66.6680  135.8340 O   0  0  0  0  0
    0.2580   68.9830  135.7220 C   0  0  0  0  0
    1.0000   68.1430  134.7190 C   0  0  0  0  0
    1.6360   67.0070  135.4880 C   0  0  0  0  0
    2.5730   67.4870  136.5780 C   0  0  0  0  0
    1.9660   68.6710  137.3530 C   0  0  0  0  0
    2.9770   69.4560  138.1850 C   0  0  0  0  0
    0.1610   68.1630  132.5250 C   0  0  0  0  0
   -0.0160   69.6500  132.4730 C   0  0  0  0  0
    0.0920   67.6380  133.7310 N   0  0  0  0  0
   -0.5410   69.9990  135.1030 O   0  0  0  0  0
    2.3440   66.1430  134.6010 O   0  0  0  0  0
    2.5240   66.3380  137.4450 O   0  0  0  0  0
    1.2770   69.5940  136.5080 O   0  0  0  0  0
    4.2470   68.8000  138.2470 O   0  0  0  0  0
    0.3770   67.4860  131.5400 O   0  0  0  0  0
    4.7514   65.8003  143.6238 H   0  0  0  0  0
    5.8075   66.7966  142.5534 H   0  0  0  0  0
    6.6306   65.0782  144.8939 H   0  0  0  0  0
    8.4401   66.7794  143.1715 H   0  0  0  0  0
    8.3388   63.7969  143.2894 H   0  0  0  0  0
   10.4767   64.9583  142.6493 H   0  0  0  0  0
    9.3224   63.4287  140.3312 H   0  0  0  0  0
   12.1231   63.5618  141.5163 H   0  0  0  0  0
   11.5889   64.3344  140.0020 H   0  0  0  0  0
   10.6289   67.4152  146.9001 H   0  0  0  0  0
   10.0616   68.5218  145.6254 H   0  0  0  0  0
    8.9039   67.4569  146.4601 H   0  0  0  0  0
    8.9873   64.8627  145.4285 H   0  0  0  0  0
    6.9802   62.5840  142.1137 H   0  0  0  0  0
    5.7648   67.2163  145.3523 H   0  0  0  0  0
    9.4190   66.6945  141.4645 H   0  0  0  0  0
   10.0206   61.5576  141.5638 H   0  0  0  0  0
   12.5983   62.2690  139.6406 H   0  0  0  0  0
    4.0091   67.3367  137.7606 H   0  0  0  0  0
    3.9352   64.3859  138.8611 H   0  0  0  0  0
    4.9999   66.6909  140.5480 H   0  0  0  0  0
    7.1423   66.1403  139.9574 H   0  0  0  0  0
    6.1765   67.5716  138.3460 H   0  0  0  0  0
    7.9964   65.4299  137.3322 H   0  0  0  0  0
    8.2882   67.1804  137.5735 H   0  0  0  0  0
    2.6484   65.0884  140.7030 H   0  0  0  0  0
    7.5778   64.3477  138.5151 H   0  0  0  0  0
    8.1188   66.6015  135.3307 H   0  0  0  0  0
   -0.4317   68.3693  136.3015 H   0  0  0  0  0
    1.7575   68.7278  134.1972 H   0  0  0  0  0
    0.8223   66.4650  135.9700 H   0  0  0  0  0
    3.5498   67.8096  136.2177 H   0  0  0  0  0
    1.2597   68.1895  138.0294 H   0  0  0  0  0
    2.5887   69.5422  139.1998 H   0  0  0  0  0
    3.1196   70.4300  137.7170 H   0  0  0  0  0
    0.8867   70.1081  132.0688 H   0  0  0  0  0
   -0.8651   69.8914  131.8336 H   0  0  0  0  0
   -0.1979   70.0284  133.4789 H   0  0  0  0  0
   -0.5794   66.9028  133.9528 H   0  0  0  0  0
   -0.9931   70.5064  135.7811 H   0  0  0  0  0
    2.7419   65.4277  135.1026 H   0  0  0  0  0
    4.8513   69.3245  138.7774 H   0  0  0  0  0
  2  1  1  0  0  0
  1 13  1  0  0  0
  1 14  2  0  0  0
  2  3  1  0  0  0
  2 16  1  0  0  0
 28  2  1  0  0  0
  3  4  1  0  0  0
  4  5  1  0  0  0
  4 15  1  0  0  0
  6  5  1  0  0  0
  5 12  1  0  0  0
  6  7  1  0  0  0
 16  6  1  0  0  0
  7  8  1  0  0  0
  7 17  1  0  0  0
  8  9  1  0  0  0
  8 18  1  0  0  0
  9 19  1  0  0  0
 10 11  1  0  0  0
 12 10  1  0  0  0
 10 20  2  0  0  0
 21 22  1  0  0  0
 21 30  1  0  0  0
 43 21  1  0  0  0
 22 23  1  0  0  0
 22 27  1  0  0  0
 23 24  1  0  0  0
 23 28  1  0  0  0
 25 24  1  0  0  0
 24 29  1  0  0  0
 25 26  1  0  0  0
 30 25  1  0  0  0
 26 31  1  0  0  0
 33 32  1  0  0  0
 32 41  1  0  0  0
 32 44  1  0  0  0
 33 34  1  0  0  0
 40 33  1  0  0  0
 34 35  1  0  0  0
 34 42  1  0  0  0
 35 36  1  0  0  0
 35 43  1  0  0  0
 36 37  1  0  0  0
 44 36  1  0  0  0
 37 45  1  0  0  0
 38 39  1  0  0  0
 38 40  1  0  0  0
 38 46  2  0  0  0
  3 47  1  0  0  0
  3 48  1  0  0  0
  4 49  1  0  0  0
  5 50  1  0  0  0
  6 51  1  0  0  0
  7 52  1  0  0  0
  8 53  1  0  0  0
  9 54  1  0  0  0
  9 55  1  0  0  0
 11 56  1  0  0  0
 11 57  1  0  0  0
 11 58  1  0  0  0
 12 59  1  0  0  0
 13 60  1  0  0  0
 15 61  1  0  0  0
 17 62  1  0  0  0
 18 63  1  0  0  0
 19 64  1  0  0  0
 21 65  1  0  0  0
 22 66  1  0  0  0
 23 67  1  0  0  0
 24 68  1  0  0  0
 25 69  1  0  0  0
 26 70  1  0  0  0
 26 71  1  0  0  0
 27 72  1  0  0  0
 29 73  1  0  0  0
 31 74  1  0  0  0
 32 75  1  0  0  0
 33 76  1  0  0  0
 34 77  1  0  0  0
 35 78  1  0  0  0
 36 79  1  0  0  0
 37 80  1  0  0  0
 37 81  1  0  0  0
 39 82  1  0  0  0
 39 83  1  0  0  0
 39 84  1  0  0  0
 40 85  1  0  0  0
 41 86  1  0  0  0
 42 87  1  0  0  0
 45 88  1  0  0  0
M  END
$$$$
