3iw7_ligand
  -I-interpret- 

 46 48  0  0  0  0  0  0  0  0999 V2000
   19.8470    1.2650  -26.2270 O   0  0  0  0  0
   23.3840   -4.6850  -20.9720 C   0  0  0  0  0
   22.1240   -4.3700  -20.4590 C   0  0  0  0  0
   24.2050   -3.6660  -21.4750 C   0  0  0  0  0
   21.6830   -3.0510  -20.4620 C   0  0  0  0  0
   23.7710   -2.3460  -21.4700 C   0  0  0  0  0
   17.8320    4.9830  -24.2070 C   0  0  0  0  0
   20.0070    5.5530  -25.1100 C   0  0  0  0  0
   18.1050    3.6350  -24.3930 C   0  0  0  0  0
   20.2770    4.1990  -25.2910 C   0  0  0  0  0
   20.0890    0.7430  -21.6040 C   0  0  0  0  0
   20.8150   -1.1210  -23.1750 C   0  0  0  0  0
   19.3160    1.4610  -22.6970 C   0  0  0  0  0
   19.8710   -0.5590  -24.2570 C   0  0  0  0  0
   18.4240    7.4490  -24.3450 C   0  0  0  0  0
   22.0490   -0.5890  -20.9540 C   0  0  0  0  0
   19.6980    8.3340  -23.3400 S   0  0  0  0  0
   19.6120    1.7240  -25.1160 C   0  0  0  0  0
   18.7740    5.9520  -24.5610 C   0  0  0  0  0
   22.5090   -2.0460  -20.9820 C   0  0  0  0  0
   19.3290    3.2360  -24.9290 C   0  0  0  0  0
   21.2760   -0.0550  -22.1640 C   0  0  0  0  0
   19.5980    0.8970  -24.0650 N   0  0  0  0  0
   23.7279   -5.7193  -20.9813 H   0  0  0  0  0
   21.4866   -5.1573  -20.0565 H   0  0  0  0  0
   25.1900   -3.9107  -21.8725 H   0  0  0  0  0
   20.7004   -2.8006  -20.0621 H   0  0  0  0  0
   24.4175   -1.5533  -21.8466 H   0  0  0  0  0
   16.8758    5.2878  -23.7817 H   0  0  0  0  0
   20.7478    6.3011  -25.3924 H   0  0  0  0  0
   17.3612    2.8867  -24.1196 H   0  0  0  0  0
   21.2311    3.8881  -25.7166 H   0  0  0  0  0
   19.4121    0.0448  -21.1117 H   0  0  0  0  0
   20.4782    1.4923  -20.9147 H   0  0  0  0  0
   21.7020   -1.5073  -23.6771 H   0  0  0  0  0
   20.2690   -1.8865  -22.6238 H   0  0  0  0  0
   19.6212    2.5074  -22.6942 H   0  0  0  0  0
   18.2521    1.3379  -22.4942 H   0  0  0  0  0
   18.9234   -1.0936  -24.1918 H   0  0  0  0  0
   20.3505   -0.6895  -25.2271 H   0  0  0  0  0
   18.3742    7.9278  -25.3230 H   0  0  0  0  0
   17.4768    7.4994  -23.8081 H   0  0  0  0  0
   22.9638    0.0021  -20.9117 H   0  0  0  0  0
   21.3561   -0.5208  -20.1154 H   0  0  0  0  0
   19.3391    9.6062  -23.1928 H   0  0  0  0  0
   21.9503    0.5644  -22.7555 H   0  0  0  0  0
 18  1  2  0  0  0
  3  2  4  0  0  0
  4  2  4  0  0  0
  5  3  4  0  0  0
  6  4  4  0  0  0
 20  5  4  0  0  0
 20  6  4  0  0  0
  9  7  4  0  0  0
  7 19  4  0  0  0
 10  8  4  0  0  0
  8 19  4  0  0  0
 21  9  4  0  0  0
 21 10  4  0  0  0
 13 11  1  0  0  0
 11 22  1  0  0  0
 14 12  1  0  0  0
 12 22  1  0  0  0
 23 13  1  0  0  0
 23 14  1  0  0  0
 15 17  1  0  0  0
 19 15  1  0  0  0
 16 20  1  0  0  0
 22 16  1  0  0  0
 18 21  1  0  0  0
 18 23  1  0  0  0
  2 24  1  0  0  0
  3 25  1  0  0  0
  4 26  1  0  0  0
  5 27  1  0  0  0
  6 28  1  0  0  0
  7 29  1  0  0  0
  8 30  1  0  0  0
  9 31  1  0  0  0
 10 32  1  0  0  0
 11 33  1  0  0  0
 11 34  1  0  0  0
 12 35  1  0  0  0
 12 36  1  0  0  0
 13 37  1  0  0  0
 13 38  1  0  0  0
 14 39  1  0  0  0
 14 40  1  0  0  0
 15 41  1  0  0  0
 15 42  1  0  0  0
 16 43  1  0  0  0
 16 44  1  0  0  0
 17 45  1  0  0  0
 22 46  1  0  0  0
M  END
$$$$
