5tkk_ligand
  -I-interpret- 

109109  0  0  0  0  0  0  0  0999 V2000
   30.8070   -6.0190   40.4140 N   0  3  0  0  0
   31.6070   -6.0530   41.6280 C   0  0  0  0  0
   32.3050   -7.3920   41.7990 C   0  0  0  0  0
   32.7340   -7.7340   42.8980 O   0  0  0  0  0
   30.7500   -5.7620   42.8290 C   0  0  0  0  0
   32.4250   -8.1390   40.6990 N   0  0  0  0  0
   33.2160   -9.3600   40.6820 C   0  0  0  0  0
   34.3200   -9.1540   39.6580 C   0  0  0  0  0
   34.5060   -8.0380   39.1620 O   0  0  0  0  0
   32.3650  -10.6000   40.3660 C   0  0  0  0  0
   31.3090  -10.7880   41.4530 C   0  0  0  0  0
   31.7480  -10.5170   38.9800 C   0  0  0  0  0
   35.0740  -10.2120   39.3700 N   0  0  0  0  0
   36.1590  -10.0790   38.4120 C   0  0  0  0  0
   37.1420   -9.0210   38.8590 C   0  0  0  0  0
   37.5340   -8.9490   40.0430 O   0  0  0  0  0
   37.5210   -8.1670   37.9020 N   0  0  0  0  0
   38.5140   -7.1380   38.1700 C   0  0  0  0  0
   38.0100   -6.1600   39.2090 C   0  0  0  0  0
   38.8150   -5.5150   39.8850 O   0  0  0  0  0
   38.9170   -6.3970   36.8740 C   0  0  0  0  0
   37.7270   -5.6240   36.3020 C   0  0  0  0  0
   39.5130   -7.3740   35.8640 C   0  0  0  0  0
   38.1290   -4.6250   35.2270 C   0  0  0  0  0
   36.6950   -6.0460   39.3660 N   0  0  0  0  0
   36.1180   -5.1330   40.3360 C   0  0  0  0  0
   36.0460   -5.6400   41.7580 C   0  0  0  0  0
   35.6680   -4.8820   42.6540 O   0  0  0  0  0
   36.4060   -6.8930   42.0110 N   0  0  0  0  0
   36.3960   -7.4030   43.3710 C   0  0  0  0  0
   37.5880   -6.8520   44.1400 C   0  0  0  0  0
   38.7120   -6.7920   43.6290 O   0  0  0  0  0
   36.4250   -8.9310   43.3850 C   0  0  0  0  0
   37.3400   -6.4370   45.3610 N   0  0  0  0  0
   38.4040   -5.9130   46.2070 C   0  0  0  0  0
   38.9560   -7.0510   47.0440 C   0  0  0  0  0
   38.2020   -7.8940   47.5530 O   0  0  0  0  0
   37.8990   -4.7590   47.0870 C   0  0  0  0  0
   39.0730   -4.0500   47.7250 C   0  0  0  0  0
   37.0600   -3.7940   46.2590 C   0  0  0  0  0
   40.2770   -7.0750   47.1890 N   0  0  0  0  0
   40.9510   -8.1200   47.9430 C   0  0  0  0  0
   41.9160   -7.5310   48.9800 C   0  0  0  0  0
   42.4370   -8.2470   49.8410 O   0  0  0  0  0
   41.6970   -9.0600   46.9960 C   0  0  0  0  0
   40.7930   -9.9550   46.1940 C   0  0  0  0  0
   40.3280  -11.1440   46.7210 C   0  0  0  0  0
   40.4500   -9.6290   44.8780 C   0  0  0  0  0
   39.5130  -11.9900   45.9730 C   0  0  0  0  0
   39.6180  -10.4550   44.1510 C   0  0  0  0  0
   39.1540  -11.6390   44.6900 C   0  0  0  0  0
   42.1940   -6.3280   48.9770 O   0  0  0  0  0
   31.4025   -6.2181   39.6102 H   0  0  0  0  0
   30.0695   -6.7210   40.4745 H   0  0  0  0  0
   30.3899   -5.0941   40.3089 H   0  0  0  0  0
   32.3731   -5.2827   41.5394 H   0  0  0  0  0
   30.0007   -6.5462   42.9377 H   0  0  0  0  0
   31.3757   -5.7294   43.7209 H   0  0  0  0  0
   30.2546   -4.8003   42.6958 H   0  0  0  0  0
   31.9486   -7.8454   39.8462 H   0  0  0  0  0
   33.6379   -9.5509   41.6687 H   0  0  0  0  0
   33.0114  -11.4776   40.3598 H   0  0  0  0  0
   31.8009  -10.9218   42.4164 H   0  0  0  0  0
   30.6672   -9.9078   41.4904 H   0  0  0  0  0
   30.7077  -11.6682   41.2253 H   0  0  0  0  0
   31.1088   -9.6361   38.9204 H   0  0  0  0  0
   32.5401  -10.4437   38.2349 H   0  0  0  0  0
   31.1540  -11.4118   38.7939 H   0  0  0  0  0
   34.8918  -11.1099   39.8183 H   0  0  0  0  0
   35.7430   -9.7877   37.4476 H   0  0  0  0  0
   36.6799  -11.0334   38.3357 H   0  0  0  0  0
   37.1084   -8.2381   36.9719 H   0  0  0  0  0
   39.4026   -7.6302   38.5652 H   0  0  0  0  0
   39.6895   -5.6649   37.1094 H   0  0  0  0  0
   37.2692   -5.0665   37.1191 H   0  0  0  0  0
   37.0491   -6.3464   35.8474 H   0  0  0  0  0
   40.3974   -7.8443   36.2937 H   0  0  0  0  0
   38.7751   -8.1386   35.6210 H   0  0  0  0  0
   39.7906   -6.8343   34.9586 H   0  0  0  0  0
   38.8243   -3.8993   35.6489 H   0  0  0  0  0
   38.6087   -5.1532   34.4030 H   0  0  0  0  0
   37.2409   -4.1093   34.8617 H   0  0  0  0  0
   36.0750   -6.6151   38.7897 H   0  0  0  0  0
   35.0896   -4.9587   40.0197 H   0  0  0  0  0
   36.7651   -4.2561   40.3551 H   0  0  0  0  0
   36.6918   -7.5020   41.2443 H   0  0  0  0  0
   35.4739   -7.0764   43.8517 H   0  0  0  0  0
   35.5493   -9.3146   42.8614 H   0  0  0  0  0
   37.3295   -9.2805   42.8873 H   0  0  0  0  0
   36.4168   -9.2838   44.4163 H   0  0  0  0  0
   36.3874   -6.4823   45.7228 H   0  0  0  0  0
   39.1992   -5.5023   45.5848 H   0  0  0  0  0
   37.2668   -5.1597   47.8794 H   0  0  0  0  0
   39.6313   -4.7557   48.3401 H   0  0  0  0  0
   39.7228   -3.6521   46.9455 H   0  0  0  0  0
   38.7079   -3.2331   48.3474 H   0  0  0  0  0
   37.6679   -3.3874   45.4507 H   0  0  0  0  0
   36.2049   -4.3249   45.8406 H   0  0  0  0  0
   36.7090   -2.9816   46.8953 H   0  0  0  0  0
   40.8351   -6.3379   46.7582 H   0  0  0  0  0
   40.1909   -8.6871   48.4803 H   0  0  0  0  0
   42.1361   -9.1516   49.7282 H   0  0  0  0  0
   42.3312   -9.7018   47.6075 H   0  0  0  0  0
   42.2499   -8.4397   46.2906 H   0  0  0  0  0
   40.6031  -11.4244   47.7378 H   0  0  0  0  0
   40.8417   -8.7184   44.4248 H   0  0  0  0  0
   39.1599  -12.9279   46.4017 H   0  0  0  0  0
   39.3238  -10.1703   43.1408 H   0  0  0  0  0
   38.5075  -12.2920   44.1037 H   0  0  0  0  0
  1  2  1  0  0  0
  2  3  1  0  0  0
  2  5  1  0  0  0
  3  4  2  0  0  0
  3  6  1  0  0  0
  6  7  1  0  0  0
  7  8  1  0  0  0
  7 10  1  0  0  0
  8  9  2  0  0  0
  8 13  1  0  0  0
 10 11  1  0  0  0
 10 12  1  0  0  0
 13 14  1  0  0  0
 14 15  1  0  0  0
 15 16  2  0  0  0
 15 17  1  0  0  0
 17 18  1  0  0  0
 18 19  1  0  0  0
 18 21  1  0  0  0
 19 20  2  0  0  0
 19 25  1  0  0  0
 21 22  1  0  0  0
 21 23  1  0  0  0
 22 24  1  0  0  0
 25 26  1  0  0  0
 26 27  1  0  0  0
 27 28  2  0  0  0
 27 29  1  0  0  0
 29 30  1  0  0  0
 30 31  1  0  0  0
 30 33  1  0  0  0
 31 32  2  0  0  0
 31 34  1  0  0  0
 34 35  1  0  0  0
 35 36  1  0  0  0
 35 38  1  0  0  0
 36 37  2  0  0  0
 36 41  1  0  0  0
 38 39  1  0  0  0
 38 40  1  0  0  0
 41 42  1  0  0  0
 42 43  1  0  0  0
 42 45  1  0  0  0
 43 44  1  0  0  0
 43 52  2  0  0  0
 45 46  1  0  0  0
 46 47  4  0  0  0
 46 48  4  0  0  0
 47 49  4  0  0  0
 48 50  4  0  0  0
 49 51  4  0  0  0
 50 51  4  0  0  0
  1 53  1  0  0  0
  1 54  1  0  0  0
  1 55  1  0  0  0
  2 56  1  0  0  0
  5 57  1  0  0  0
  5 58  1  0  0  0
  5 59  1  0  0  0
  6 60  1  0  0  0
  7 61  1  0  0  0
 10 62  1  0  0  0
 11 63  1  0  0  0
 11 64  1  0  0  0
 11 65  1  0  0  0
 12 66  1  0  0  0
 12 67  1  0  0  0
 12 68  1  0  0  0
 13 69  1  0  0  0
 14 70  1  0  0  0
 14 71  1  0  0  0
 17 72  1  0  0  0
 18 73  1  0  0  0
 21 74  1  0  0  0
 22 75  1  0  0  0
 22 76  1  0  0  0
 23 77  1  0  0  0
 23 78  1  0  0  0
 23 79  1  0  0  0
 24 80  1  0  0  0
 24 81  1  0  0  0
 24 82  1  0  0  0
 25 83  1  0  0  0
 26 84  1  0  0  0
 26 85  1  0  0  0
 29 86  1  0  0  0
 30 87  1  0  0  0
 33 88  1  0  0  0
 33 89  1  0  0  0
 33 90  1  0  0  0
 34 91  1  0  0  0
 35 92  1  0  0  0
 38 93  1  0  0  0
 39 94  1  0  0  0
 39 95  1  0  0  0
 39 96  1  0  0  0
 40 97  1  0  0  0
 40 98  1  0  0  0
 40 99  1  0  0  0
 41100  1  0  0  0
 42101  1  0  0  0
 44102  1  0  0  0
 45103  1  0  0  0
 45104  1  0  0  0
 47105  1  0  0  0
 48106  1  0  0  0
 49107  1  0  0  0
 50108  1  0  0  0
 51109  1  0  0  0
M  END
$$$$
