2x5o_ligand
  -I-interpret- 

 55 57  0  0  0  0  0  0  0  0999 V2000
   -5.2560   32.2760   20.3570 O   0  0  0  0  0
   -5.1380   31.4770   21.3430 C   0  0  0  0  0
   -4.2400   31.5580   22.2100 O   0  0  0  0  0
   -6.1220   30.4400   21.6740 C   0  0  0  0  0
   -7.0320   30.2010   20.5310 C   0  0  0  0  0
   -7.4690   27.7330   20.9710 C   0  0  0  0  0
   -7.3780   27.0000   19.9660 O   0  0  0  0  0
   -7.2160   27.2660   22.1080 O   0  0  0  0  0
   -9.1420   29.2310   20.0480 N   0  0  0  0  0
  -10.3900   28.6220   20.4100 C   0  0  0  0  0
  -10.4880   27.7830   21.3110 O   0  0  0  0  0
  -11.4820   29.0280   19.4990 C   0  0  0  0  0
  -11.4510   30.3290   18.9490 C   0  0  0  0  0
  -12.5580   28.1810   19.2840 C   0  0  0  0  0
  -13.6150   28.6070   18.5120 C   0  0  0  0  0
  -13.6080   29.8530   17.9540 C   0  0  0  0  0
  -12.5530   30.7260   18.1630 C   0  0  0  0  0
  -12.5560   32.0470   17.4000 C   0  0  0  0  0
  -13.7920   32.6660   17.3600 N   0  0  0  0  0
  -14.4480   33.1070   18.4730 C   0  0  0  0  0
  -13.9230   32.9450   19.7650 C   0  0  0  0  0
  -14.6430   33.2930   20.9030 C   0  0  0  0  0
  -15.7120   33.7040   18.3310 C   0  0  0  0  0
  -16.4430   34.0720   19.4680 C   0  0  0  0  0
  -15.9330   33.8370   20.7430 C   0  0  0  0  0
  -16.6900   34.1480   22.0080 C   0  0  0  0  0
  -18.0230   34.3970   22.2250 C   0  0  0  0  0
  -19.3050   34.5130   21.0350 S   0  0  0  0  0
  -20.4640   34.8440   22.2920 C   0  0  0  0  0
  -20.0110   34.7720   23.6050 N   0  0  0  0  0
   -8.0570   29.1470   20.9980 C   0  0  0  0  0
  -18.6290   34.5130   23.5390 C   0  0  0  0  0
  -17.9270   34.5010   24.5410 O   0  0  0  0  0
  -21.6530   35.0060   22.0820 O   0  0  0  0  0
   -6.0145   32.0193   19.8275 H   0  0  0  0  0
   -6.7098   30.7714   22.5300 H   0  0  0  0  0
   -5.5951   29.5143   21.9054 H   0  0  0  0  0
   -6.4795   29.8482   19.6602 H   0  0  0  0  0
   -7.5303   31.1226   20.2303 H   0  0  0  0  0
   -7.3323   27.9533   22.7681 H   0  0  0  0  0
   -9.0254   29.7057   19.1528 H   0  0  0  0  0
  -10.6094   30.9990   19.1249 H   0  0  0  0  0
  -12.5671   27.1836   19.7236 H   0  0  0  0  0
  -14.4642   27.9444   18.3449 H   0  0  0  0  0
  -14.4473   30.1663   17.3331 H   0  0  0  0  0
  -12.2684   31.8288   16.3715 H   0  0  0  0  0
  -11.8715   32.7212   17.9149 H   0  0  0  0  0
  -14.2365   32.8000   16.4518 H   0  0  0  0  0
  -12.9201   32.5338   19.8798 H   0  0  0  0  0
  -14.2188   33.1481   21.8966 H   0  0  0  0  0
  -16.1234   33.8806   17.3372 H   0  0  0  0  0
  -17.4181   34.5457   19.3543 H   0  0  0  0  0
  -16.0731   34.1811   22.9060 H   0  0  0  0  0
  -20.5706   34.8848   24.4503 H   0  0  0  0  0
   -8.3691   29.3379   22.0248 H   0  0  0  0  0
  2  1  1  0  0  0
  2  3  2  0  0  0
  4  2  1  0  0  0
  5  4  1  0  0  0
 31  5  1  0  0  0
  6  7  2  0  0  0
  6  8  1  0  0  0
 31  6  1  0  0  0
  9 10  1  0  0  0
  9 31  1  0  0  0
 10 11  2  0  0  0
 10 12  1  0  0  0
 12 13  4  0  0  0
 12 14  4  0  0  0
 13 17  4  0  0  0
 14 15  4  0  0  0
 15 16  4  0  0  0
 16 17  4  0  0  0
 17 18  1  0  0  0
 18 19  1  0  0  0
 19 20  1  0  0  0
 20 21  4  0  0  0
 20 23  4  0  0  0
 21 22  4  0  0  0
 22 25  4  0  0  0
 23 24  4  0  0  0
 24 25  4  0  0  0
 25 26  1  0  0  0
 26 27  2  0  0  0
 27 28  1  0  0  0
 27 32  1  0  0  0
 28 29  1  0  0  0
 29 30  1  0  0  0
 29 34  2  0  0  0
 30 32  1  0  0  0
 32 33  2  0  0  0
  1 35  1  0  0  0
  4 36  1  0  0  0
  4 37  1  0  0  0
  5 38  1  0  0  0
  5 39  1  0  0  0
  8 40  1  0  0  0
  9 41  1  0  0  0
 13 42  1  0  0  0
 14 43  1  0  0  0
 15 44  1  0  0  0
 16 45  1  0  0  0
 18 46  1  0  0  0
 18 47  1  0  0  0
 19 48  1  0  0  0
 21 49  1  0  0  0
 22 50  1  0  0  0
 23 51  1  0  0  0
 24 52  1  0  0  0
 26 53  1  0  0  0
 30 54  1  0  0  0
 31 55  1  0  0  0
M  END
$$$$
