6n7c_ligand
  -I-interpret- 

 44 48  0  0  0  0  0  0  0  0999 V2000
    4.7810  -20.3820   64.1250 C   0  0  0  0  0
    0.6920  -22.9310   70.8030 C   0  0  0  0  0
    5.2280  -21.0330   63.0050 C   0  0  0  0  0
    4.6880  -22.2620   62.6400 C   0  0  0  0  0
    0.3950  -22.5780   67.0540 C   0  0  0  0  0
    3.6840  -22.8300   63.3820 C   0  0  0  0  0
    3.1650  -22.1720   64.5250 C   0  0  0  0  0
    2.0930  -22.6970   65.2900 C   0  0  0  0  0
    1.5850  -22.0160   66.3750 C   0  0  0  0  0
    0.0870  -22.7940   68.4200 C   0  0  0  0  0
   -1.2520  -23.2580   68.4390 C   0  0  0  0  0
   -0.6700  -22.9100   66.3080 N   0  0  0  0  0
    0.9700  -22.5510   69.5110 N   0  0  0  0  0
    3.7280  -20.9240   64.9070 C   0  0  0  0  0
    2.7710  -22.4450   73.8400 N   0  0  0  0  0
   -0.3330  -23.5500   71.1160 O   0  0  0  0  0
    1.7200  -22.5890   71.8210 C   0  0  0  0  0
    2.9540  -21.9310   71.6230 C   0  0  0  0  0
    3.5100  -21.3800   70.5110 N   0  0  0  0  0
    4.6670  -20.7510   70.7010 C   0  0  0  0  0
    5.3170  -20.6360   71.9490 C   0  0  0  0  0
    4.7440  -21.2070   73.0340 C   0  0  0  0  0
    3.5440  -21.8590   72.8530 N   0  0  0  0  0
    1.6820  -22.8600   73.2040 C   0  0  0  0  0
   -1.6390  -23.3100   67.1610 N   0  0  0  0  0
    2.1650  -20.7830   66.7500 C   0  0  0  0  0
    1.6100  -20.1910   67.8570 O   0  0  0  0  0
    2.1310  -18.9320   68.2730 C   0  0  0  0  0
    3.2030  -20.2550   66.0350 C   0  0  0  0  0
    5.2392  -19.4375   64.4184 H   0  0  0  0  0
    6.0125  -20.5845   62.3956 H   0  0  0  0  0
    5.0658  -22.7777   61.7572 H   0  0  0  0  0
    3.2804  -23.7992   63.0891 H   0  0  0  0  0
    1.6617  -23.6593   65.0142 H   0  0  0  0  0
   -1.8445  -23.5189   69.3159 H   0  0  0  0  0
    1.8511  -22.0720   69.3249 H   0  0  0  0  0
    5.1452  -20.2937   69.8348 H   0  0  0  0  0
    6.2611  -20.0983   72.0369 H   0  0  0  0  0
    5.2149  -21.1530   74.0155 H   0  0  0  0  0
    0.8475  -23.3572   73.6984 H   0  0  0  0  0
    3.1900  -19.0383   68.5082 H   0  0  0  0  0
    2.0070  -18.2056   67.4698 H   0  0  0  0  0
    1.5932  -18.5922   69.1581 H   0  0  0  0  0
    3.6333  -19.3012   66.3403 H   0  0  0  0  0
  1  3  4  0  0  0
 14  1  4  0  0  0
  2 13  1  0  0  0
  2 16  2  0  0  0
 17  2  1  0  0  0
  4  3  4  0  0  0
  6  4  4  0  0  0
  5  9  1  0  0  0
 10  5  4  0  0  0
  5 12  4  0  0  0
  7  6  4  0  0  0
  8  7  4  0  0  0
  7 14  4  0  0  0
  9  8  4  0  0  0
  9 26  4  0  0  0
 10 11  4  0  0  0
 13 10  1  0  0  0
 11 25  4  0  0  0
 25 12  4  0  0  0
 14 29  4  0  0  0
 15 23  4  0  0  0
 24 15  4  0  0  0
 17 18  4  0  0  0
 17 24  4  0  0  0
 18 19  4  0  0  0
 18 23  4  0  0  0
 19 20  4  0  0  0
 20 21  4  0  0  0
 21 22  4  0  0  0
 22 23  4  0  0  0
 26 27  1  0  0  0
 26 29  4  0  0  0
 27 28  1  0  0  0
  1 30  1  0  0  0
  3 31  1  0  0  0
  4 32  1  0  0  0
  6 33  1  0  0  0
  8 34  1  0  0  0
 11 35  1  0  0  0
 13 36  1  0  0  0
 20 37  1  0  0  0
 21 38  1  0  0  0
 22 39  1  0  0  0
 24 40  1  0  0  0
 28 41  1  0  0  0
 28 42  1  0  0  0
 28 43  1  0  0  0
 29 44  1  0  0  0
M  END
$$$$
