4y8z_ligand
  -I-interpret- 

 74 79  0  0  0  0  0  0  0  0999 V2000
   46.2580  -21.4830   30.4720 C   0  0  0  0  0
   44.5260  -21.9190   32.0840 C   0  0  0  0  0
   45.4690  -22.2650   33.0250 C   0  0  0  0  0
   46.8280  -22.2520   32.7030 C   0  0  0  0  0
   48.6690  -21.7500   31.1680 C   0  0  0  0  0
   49.5860  -22.0660   32.1850 C   0  0  0  0  0
   49.1410  -22.4650   33.4960 C   0  0  0  0  0
   44.9020  -21.5370   30.8000 C   0  0  0  0  0
   38.9550  -15.0380   25.0960 C   0  0  0  0  0
   35.8140  -13.7820   27.9110 C   0  0  0  0  0
   39.8090  -24.5950   28.1230 N   0  0  0  0  0
   39.4310  -24.6670   26.6860 C   0  0  0  0  0
   40.3350  -25.6280   25.9250 C   0  0  0  0  0
   40.3840  -26.9330   26.5890 N   0  3  0  0  0
   40.8840  -26.7790   27.9430 C   0  0  0  0  0
   39.9740  -25.9240   28.7440 C   0  0  0  0  0
   41.8170  -20.9960   29.1600 C   0  0  0  0  0
   42.5620  -20.8050   28.0450 N   0  0  0  0  0
   43.8490  -20.9510   28.4250 C   0  0  0  0  0
   43.8540  -21.2400   29.7990 C   0  0  0  0  0
   42.5360  -21.2510   30.2220 N   0  0  0  0  0
   47.2340  -21.8390   31.4190 C   0  0  0  0  0
   45.1200  -20.7430   27.3000 Cl  0  0  0  0  0
   47.7880  -22.5660   33.6690 N   0  0  0  0  0
   49.9050  -22.6190   34.4650 O   0  0  0  0  0
   49.0370  -21.3090   29.9720 O   0  0  0  0  0
   40.3290  -21.0210   29.1860 C   0  0  0  0  0
   36.9630  -13.9610   27.1470 C   0  0  0  0  0
   35.4790  -14.7270   28.8520 C   0  0  0  0  0
   36.2660  -15.8490   29.0550 C   0  0  0  0  0
   37.4370  -16.0350   28.3090 C   0  0  0  0  0
   37.7870  -15.0760   27.3370 C   0  0  0  0  0
   38.8180  -15.3480   26.3850 N   0  0  0  0  0
   34.0210  -14.5150   29.8010 Cl  0  0  0  0  0
   40.1750  -15.2690   24.7050 N   0  0  0  0  0
   40.8170  -15.7380   25.8010 N   0  0  0  0  0
   40.0210  -15.7960   26.8230 N   0  0  0  0  0
   38.1990  -17.2670   28.5390 C   0  0  0  0  0
   38.6620  -17.6750   29.7060 C   0  0  0  0  0
   39.4900  -18.9000   29.9620 C   0  0  0  0  0
   39.8600  -19.1850   31.1100 O   0  0  0  0  0
   39.7980  -19.7010   28.8890 N   0  0  0  0  0
   39.8030  -22.1140   28.2580 C   0  0  0  0  0
   39.9640  -23.4920   28.8940 C   0  0  0  0  0
   40.1730  -23.6270   30.1010 O   0  0  0  0  0
   41.2340  -27.8440   25.8660 C   0  0  0  0  0
   46.5618  -21.1628   29.4754 H   0  0  0  0  0
   43.4689  -21.9446   32.3486 H   0  0  0  0  0
   45.1531  -22.5511   34.0282 H   0  0  0  0  0
   50.6546  -22.0081   31.9780 H   0  0  0  0  0
   38.1601  -14.6473   24.4607 H   0  0  0  0  0
   35.1866  -12.9027   27.7652 H   0  0  0  0  0
   39.5340  -23.6736   26.2494 H   0  0  0  0  0
   38.4041  -25.0254   26.6143 H   0  0  0  0  0
   41.3420  -25.2121   25.8930 H   0  0  0  0  0
   39.9385  -25.7607   24.9184 H   0  0  0  0  0
   39.4387  -27.3154   26.6124 H   0  0  0  0  0
   41.8665  -26.3085   27.9044 H   0  0  0  0  0
   40.9456  -27.7621   28.4098 H   0  0  0  0  0
   38.9985  -26.4074   28.7974 H   0  0  0  0  0
   40.4027  -25.7937   29.7377 H   0  0  0  0  0
   47.4533  -22.8964   34.5741 H   0  0  0  0  0
   48.2564  -21.1562   29.4344 H   0  0  0  0  0
   39.9791  -21.2736   30.1869 H   0  0  0  0  0
   37.2250  -13.2222   26.3897 H   0  0  0  0  0
   35.9727  -16.5902   29.7984 H   0  0  0  0  0
   38.3998  -17.8987   27.6737 H   0  0  0  0  0
   38.4180  -17.0594   30.5718 H   0  0  0  0  0
   39.6605  -19.3842   27.9292 H   0  0  0  0  0
   40.3715  -22.0883   27.3284 H   0  0  0  0  0
   38.7441  -21.9356   28.0711 H   0  0  0  0  0
   40.8457  -27.9775   24.8563 H   0  0  0  0  0
   42.2436  -27.4360   25.8174 H   0  0  0  0  0
   41.2536  -28.8055   26.3792 H   0  0  0  0  0
  8  1  4  0  0  0
  1 22  4  0  0  0
  2  3  4  0  0  0
  8  2  4  0  0  0
  3  4  4  0  0  0
 22  4  4  0  0  0
  4 24  1  0  0  0
  5  6  2  0  0  0
 22  5  1  0  0  0
  5 26  1  0  0  0
  6  7  1  0  0  0
 24  7  1  0  0  0
  7 25  2  0  0  0
 20  8  1  0  0  0
 33  9  4  0  0  0
  9 35  4  0  0  0
 28 10  4  0  0  0
 29 10  4  0  0  0
 11 12  1  0  0  0
 11 16  1  0  0  0
 44 11  1  0  0  0
 12 13  1  0  0  0
 13 14  1  0  0  0
 15 14  1  0  0  0
 14 46  1  0  0  0
 16 15  1  0  0  0
 17 18  4  0  0  0
 17 21  4  0  0  0
 27 17  1  0  0  0
 18 19  4  0  0  0
 20 19  4  0  0  0
 19 23  1  0  0  0
 21 20  4  0  0  0
 27 42  1  0  0  0
 43 27  1  0  0  0
 32 28  4  0  0  0
 30 29  4  0  0  0
 29 34  1  0  0  0
 31 30  4  0  0  0
 31 32  4  0  0  0
 38 31  1  0  0  0
 32 33  1  0  0  0
 33 37  4  0  0  0
 36 35  4  0  0  0
 37 36  4  0  0  0
 39 38  2  0  0  0
 40 39  1  0  0  0
 40 41  2  0  0  0
 42 40  1  0  0  0
 43 44  1  0  0  0
 44 45  2  0  0  0
  1 47  1  0  0  0
  2 48  1  0  0  0
  3 49  1  0  0  0
  6 50  1  0  0  0
  9 51  1  0  0  0
 10 52  1  0  0  0
 12 53  1  0  0  0
 12 54  1  0  0  0
 13 55  1  0  0  0
 13 56  1  0  0  0
 14 57  1  0  0  0
 15 58  1  0  0  0
 15 59  1  0  0  0
 16 60  1  0  0  0
 16 61  1  0  0  0
 24 62  1  0  0  0
 26 63  1  0  0  0
 27 64  1  0  0  0
 28 65  1  0  0  0
 30 66  1  0  0  0
 38 67  1  0  0  0
 39 68  1  0  0  0
 42 69  1  0  0  0
 43 70  1  0  0  0
 43 71  1  0  0  0
 46 72  1  0  0  0
 46 73  1  0  0  0
 46 74  1  0  0  0
M  END
$$$$
