5ivs_ligand
  -I-interpret- 

 91 95  0  0  0  0  0  0  0  0999 V2000
  -24.7110   15.9430   -4.2180 C   0  0  0  0  0
  -26.8950   15.0840   -4.2980 C   0  0  0  0  0
  -22.6090   16.8460   -1.4950 C   0  0  0  0  0
  -19.4480   17.7190   -2.0610 C   0  0  0  0  0
  -18.5380   18.7400   -1.9140 C   0  0  0  0  0
  -18.8820   20.0220   -2.2880 C   0  0  0  0  0
  -20.1380   20.2780   -2.7980 C   0  0  0  0  0
  -21.0420   19.2450   -2.9410 C   0  0  0  0  0
  -24.5640   17.7060   -0.3730 C   0  0  0  0  0
  -22.3480   16.0250   -0.4140 C   0  0  0  0  0
  -19.3210   17.3750   -7.5640 C   0  0  0  0  0
  -18.4890   17.0040   -8.6010 C   0  0  0  0  0
  -18.6780   15.8130   -9.2540 C   0  0  0  0  0
  -21.3570   16.0620   -5.0180 C   0  0  0  0  0
  -23.3880   15.6130   -3.9760 N   0  0  0  0  0
  -20.7650   15.0060   -4.8540 O   0  0  0  0  0
  -22.3370   16.6200   -4.0240 C   0  0  0  0  0
  -25.5120   14.8360   -4.0630 O   0  0  0  0  0
  -25.1040   17.0610   -4.5110 O   0  0  0  0  0
  -21.6550   16.7980   -2.6690 C   0  0  0  0  0
  -20.6990   17.9540   -2.5760 C   0  0  0  0  0
  -23.7120   17.6890   -1.4630 C   0  0  0  0  0
  -24.3020   16.8700    0.6940 C   0  0  0  0  0
  -23.1960   16.0360    0.6740 C   0  0  0  0  0
  -20.3530   16.5170   -7.1910 C   0  0  0  0  0
  -19.6920   14.9600   -8.8790 C   0  0  0  0  0
  -20.5330   15.3050   -7.8460 C   0  0  0  0  0
  -15.0210   19.5610   -6.5800 C   0  0  0  0  0
  -14.2320   19.4370   -5.2810 C   0  0  0  0  0
  -14.7270   18.2590   -4.5070 N   0  3  0  0  0
  -16.2210   18.1470   -4.4210 C   0  0  0  0  0
  -16.8210   18.2880   -5.7980 C   0  0  0  0  0
  -16.4420   19.5690   -6.3390 O   0  0  0  0  0
  -18.3210   18.2940   -5.6010 C   0  0  0  0  0
  -21.2270   16.8620   -6.1310 N   0  0  0  0  0
  -19.0300   18.6890   -6.8800 C   0  0  0  0  0
  -14.4300   20.6520   -4.4170 C   0  0  0  0  0
  -13.6180   21.5960   -5.0710 O   0  0  0  0  0
  -14.1440   22.8150   -5.2380 C   0  0  0  0  0
  -13.2430   23.6070   -5.8860 N   0  0  0  0  0
  -15.2490   23.1570   -4.8380 O   0  0  0  0  0
  -12.2900   24.3950   -5.1490 C   0  0  0  0  0
  -12.5070   24.4770   -3.6750 C   0  0  0  0  0
  -13.5930   23.9350   -3.0120 C   0  0  0  0  0
  -13.7610   24.0140   -1.6530 C   0  0  0  0  0
  -12.8170   24.6830   -0.9210 C   0  0  0  0  0
  -11.7330   25.2280   -1.5670 C   0  0  0  0  0
  -11.5580   25.1270   -2.9260 C   0  0  0  0  0
  -27.2512   15.8401   -3.5984 H   0  0  0  0  0
  -27.0306   15.4396   -5.3194 H   0  0  0  0  0
  -27.4576   14.1614   -4.1554 H   0  0  0  0  0
  -19.1716   16.7073   -1.7639 H   0  0  0  0  0
  -17.5489   18.5366   -1.5035 H   0  0  0  0  0
  -18.1616   20.8329   -2.1807 H   0  0  0  0  0
  -20.4152   21.2918   -3.0868 H   0  0  0  0  0
  -22.0342   19.4470   -3.3446 H   0  0  0  0  0
  -25.4288   18.3693   -0.3569 H   0  0  0  0  0
  -21.4756   15.3715   -0.4212 H   0  0  0  0  0
  -17.6751   17.6630   -8.9033 H   0  0  0  0  0
  -18.0192   15.5388  -10.0779 H   0  0  0  0  0
  -23.1450   14.6462   -3.7600 H   0  0  0  0  0
  -22.7278   17.6014   -4.2926 H   0  0  0  0  0
  -21.0659   15.8833   -2.6027 H   0  0  0  0  0
  -23.9095   18.3471   -2.3092 H   0  0  0  0  0
  -24.9686   16.8661    1.5564 H   0  0  0  0  0
  -22.9944   15.3839    1.5239 H   0  0  0  0  0
  -19.8283   14.0123   -9.4000 H   0  0  0  0  0
  -21.3352   14.6318   -7.5435 H   0  0  0  0  0
  -14.7834   18.7041   -7.2103 H   0  0  0  0  0
  -14.7479   20.5005   -7.0604 H   0  0  0  0  0
  -13.1787   19.3289   -5.5396 H   0  0  0  0  0
  -14.3821   18.3648   -3.5529 H   0  0  0  0  0
  -14.3944   17.4250   -4.9911 H   0  0  0  0  0
  -16.6062   18.9369   -3.7762 H   0  0  0  0  0
  -16.4874   17.1739   -4.0085 H   0  0  0  0  0
  -16.4910   17.4907   -6.4639 H   0  0  0  0  0
  -18.5705   19.0160   -4.8235 H   0  0  0  0  0
  -18.6421   17.2920   -5.3162 H   0  0  0  0  0
  -21.7720   17.7219   -6.1936 H   0  0  0  0  0
  -19.9371   19.2617   -6.6871 H   0  0  0  0  0
  -18.4229   19.3492   -7.4994 H   0  0  0  0  0
  -14.1608   20.4936   -3.3727 H   0  0  0  0  0
  -15.4720   20.9594   -4.3283 H   0  0  0  0  0
  -13.2442   23.6416   -6.9054 H   0  0  0  0  0
  -12.3777   25.4133   -5.5278 H   0  0  0  0  0
  -11.3222   23.9134   -5.2889 H   0  0  0  0  0
  -14.3533   23.4194   -3.5987 H   0  0  0  0  0
  -14.6234   23.5562   -1.1685 H   0  0  0  0  0
  -12.9236   24.7821    0.1592 H   0  0  0  0  0
  -10.9847   25.7599   -0.9795 H   0  0  0  0  0
  -10.6774   25.5573   -3.4030 H   0  0  0  0  0
 15  1  1  0  0  0
  1 18  1  0  0  0
  1 19  2  0  0  0
 18  2  1  0  0  0
  3 10  4  0  0  0
 20  3  1  0  0  0
  3 22  4  0  0  0
  4  5  4  0  0  0
 21  4  4  0  0  0
  5  6  4  0  0  0
  7  6  4  0  0  0
  8  7  4  0  0  0
 21  8  4  0  0  0
 22  9  4  0  0  0
  9 23  4  0  0  0
 10 24  4  0  0  0
 11 12  4  0  0  0
 11 25  4  0  0  0
 36 11  1  0  0  0
 12 13  4  0  0  0
 13 26  4  0  0  0
 14 16  2  0  0  0
 14 17  1  0  0  0
 35 14  1  0  0  0
 17 15  1  0  0  0
 17 20  1  0  0  0
 20 21  1  0  0  0
 24 23  4  0  0  0
 25 27  4  0  0  0
 25 35  1  0  0  0
 27 26  4  0  0  0
 28 29  1  0  0  0
 33 28  1  0  0  0
 30 29  1  0  0  0
 29 37  1  0  0  0
 31 30  1  0  0  0
 32 31  1  0  0  0
 32 33  1  0  0  0
 34 32  1  0  0  0
 34 36  1  0  0  0
 37 38  1  0  0  0
 38 39  1  0  0  0
 39 40  1  0  0  0
 39 41  2  0  0  0
 40 42  1  0  0  0
 42 43  1  0  0  0
 43 44  4  0  0  0
 43 48  4  0  0  0
 44 45  4  0  0  0
 45 46  4  0  0  0
 46 47  4  0  0  0
 47 48  4  0  0  0
  2 49  1  0  0  0
  2 50  1  0  0  0
  2 51  1  0  0  0
  4 52  1  0  0  0
  5 53  1  0  0  0
  6 54  1  0  0  0
  7 55  1  0  0  0
  8 56  1  0  0  0
  9 57  1  0  0  0
 10 58  1  0  0  0
 12 59  1  0  0  0
 13 60  1  0  0  0
 15 61  1  0  0  0
 17 62  1  0  0  0
 20 63  1  0  0  0
 22 64  1  0  0  0
 23 65  1  0  0  0
 24 66  1  0  0  0
 26 67  1  0  0  0
 27 68  1  0  0  0
 28 69  1  0  0  0
 28 70  1  0  0  0
 29 71  1  0  0  0
 30 72  1  0  0  0
 30 73  1  0  0  0
 31 74  1  0  0  0
 31 75  1  0  0  0
 32 76  1  0  0  0
 34 77  1  0  0  0
 34 78  1  0  0  0
 35 79  1  0  0  0
 36 80  1  0  0  0
 36 81  1  0  0  0
 37 82  1  0  0  0
 37 83  1  0  0  0
 40 84  1  0  0  0
 42 85  1  0  0  0
 42 86  1  0  0  0
 44 87  1  0  0  0
 45 88  1  0  0  0
 46 89  1  0  0  0
 47 90  1  0  0  0
 48 91  1  0  0  0
M  END
$$$$
