4caf_ligand
  -I-interpret- 

 52 56  0  0  0  0  0  0  0  0999 V2000
   25.9950   48.5210   64.0860 C   0  0  0  0  0
   26.3550   44.0400   63.0270 N   0  0  0  0  0
   24.0900   43.8710   62.8470 O   0  0  0  0  0
   22.1310   41.7120   63.1080 S   0  0  0  0  0
   24.5780   48.1230   63.7180 C   0  0  0  0  0
   25.9540   42.7850   63.5020 N   0  0  0  0  0
   25.0100   40.5200   65.4240 O   0  0  0  0  0
   24.2200   46.9760   62.8310 C   0  0  0  0  0
   27.5190   40.8930   67.7390 N   0  3  0  0  0
   25.2250   46.0830   62.1280 C   0  0  0  0  0
   22.3090   48.0160   63.5620 N   0  0  0  0  0
   25.2400   44.6800   62.6470 C   0  0  0  0  0
   23.4210   48.6770   64.1330 N   0  0  0  0  0
   24.6460   42.7430   63.2890 C   0  0  0  0  0
   23.7060   41.6990   63.6710 C   0  0  0  0  0
   23.8460   40.6930   64.7490 C   0  0  0  0  0
   24.8390   40.5370   66.8670 C   0  0  0  0  0
   25.2640   41.9000   67.4770 C   0  0  0  0  0
   26.7920   42.1040   67.3080 C   0  0  0  0  0
   27.1300   39.5880   67.2280 C   0  0  0  0  0
   25.6420   39.3660   67.4460 C   0  0  0  0  0
   22.5990   39.9070   64.9890 C   0  0  0  0  0
   22.3140   38.7930   65.8670 C   0  0  0  0  0
   21.0040   38.2690   65.8290 C   0  0  0  0  0
   19.9970   38.7880   64.9810 C   0  0  0  0  0
   20.2540   39.8730   64.0460 C   0  0  0  0  0
   21.5660   40.4000   64.0210 C   0  0  0  0  0
   22.7350   47.0010   62.7960 C   0  0  0  0  0
   21.7970   46.0900   62.0750 C   0  0  0  0  0
   26.4828   47.6913   64.5976 H   0  0  0  0  0
   26.5488   48.7670   63.1800 H   0  0  0  0  0
   25.9678   49.3897   64.7439 H   0  0  0  0  0
   27.3446   40.8354   68.7423 H   0  0  0  0  0
   28.4683   41.0293   67.3917 H   0  0  0  0  0
   26.2151   46.5062   62.2976 H   0  0  0  0  0
   24.9461   46.0404   61.0752 H   0  0  0  0  0
   23.7861   40.4190   67.1230 H   0  0  0  0  0
   25.0162   41.9105   68.5384 H   0  0  0  0  0
   24.7361   42.7030   66.9626 H   0  0  0  0  0
   27.0121   42.2976   66.2582 H   0  0  0  0  0
   27.1092   42.9477   67.9209 H   0  0  0  0  0
   27.6888   38.8153   67.7560 H   0  0  0  0  0
   27.3466   39.5419   66.1607 H   0  0  0  0  0
   25.3421   38.4461   66.9441 H   0  0  0  0  0
   25.4458   39.2943   68.5158 H   0  0  0  0  0
   23.0755   38.3777   66.5271 H   0  0  0  0  0
   20.7578   37.4299   66.4797 H   0  0  0  0  0
   18.9954   38.3608   65.0298 H   0  0  0  0  0
   19.4711   40.2617   63.3948 H   0  0  0  0  0
   21.9950   46.1401   61.0043 H   0  0  0  0  0
   21.9435   45.0683   62.4255 H   0  0  0  0  0
   20.7702   46.3989   62.2707 H   0  0  0  0  0
  5  1  1  0  0  0
  6  2  4  0  0  0
  2 12  4  0  0  0
  3 12  4  0  0  0
 14  3  4  0  0  0
 15  4  4  0  0  0
  4 27  4  0  0  0
  8  5  4  0  0  0
  5 13  4  0  0  0
 14  6  4  0  0  0
  7 16  1  0  0  0
 17  7  1  0  0  0
 10  8  1  0  0  0
  8 28  4  0  0  0
 19  9  1  0  0  0
  9 20  1  0  0  0
 12 10  1  0  0  0
 11 13  4  0  0  0
 28 11  4  0  0  0
 15 14  1  0  0  0
 16 15  4  0  0  0
 16 22  4  0  0  0
 18 17  1  0  0  0
 17 21  1  0  0  0
 18 19  1  0  0  0
 20 21  1  0  0  0
 22 23  4  0  0  0
 22 27  4  0  0  0
 23 24  4  0  0  0
 24 25  4  0  0  0
 25 26  4  0  0  0
 26 27  4  0  0  0
 28 29  1  0  0  0
  1 30  1  0  0  0
  1 31  1  0  0  0
  1 32  1  0  0  0
  9 33  1  0  0  0
  9 34  1  0  0  0
 10 35  1  0  0  0
 10 36  1  0  0  0
 17 37  1  0  0  0
 18 38  1  0  0  0
 18 39  1  0  0  0
 19 40  1  0  0  0
 19 41  1  0  0  0
 20 42  1  0  0  0
 20 43  1  0  0  0
 21 44  1  0  0  0
 21 45  1  0  0  0
 23 46  1  0  0  0
 24 47  1  0  0  0
 25 48  1  0  0  0
 26 49  1  0  0  0
 29 50  1  0  0  0
 29 51  1  0  0  0
 29 52  1  0  0  0
M  END
$$$$
