5k4x_ligand
  -I-interpret- 

 31 33  0  0  0  0  0  0  0  0999 V2000
  128.4020   70.1340   -6.6280 C   0  0  0  0  0
  126.1110   70.7610   -6.1150 C   0  0  0  0  0
  127.5730   68.9400   -4.9090 C   0  0  0  0  0
  129.4740   72.5300  -10.2330 O   0  0  0  0  0
  128.6130   73.4950   -9.6280 S   0  0  0  0  0
  129.4620   74.3930   -8.3340 C   0  0  0  0  0
  128.8940   75.3800   -7.5570 C   0  0  0  0  0
  127.4620   75.9000   -7.6420 C   0  0  0  0  0
  129.8340   75.8040   -6.7070 N   0  0  0  0  0
  131.0040   75.1300   -6.9040 N   0  0  0  0  0
  130.7990   74.2400   -7.9080 C   0  0  0  0  0
  131.8510   73.2760   -8.4430 C   0  0  0  0  0
  127.2570   72.8290   -8.9820 N   0  0  0  0  0
  127.2940   71.8560   -7.9230 C   0  0  0  0  0
  128.4280   71.0930   -7.6780 C   0  0  0  0  0
  127.2510   69.9760   -5.8650 C   0  0  0  0  0
  126.1330   71.6960   -7.1430 C   0  0  0  0  0
  128.8350   68.5380   -5.1300 N   0  0  0  0  0
  129.3270   69.2450   -6.1500 N   0  0  0  0  0
  128.2800   74.3510  -10.7270 O   0  0  0  0  0
  125.2155   70.6368   -5.5061 H   0  0  0  0  0
  126.9052   68.5516   -4.1401 H   0  0  0  0  0
  127.2836   76.3086   -8.6366 H   0  0  0  0  0
  126.7677   75.0810   -7.4544 H   0  0  0  0  0
  127.3153   76.6806   -6.8955 H   0  0  0  0  0
  131.5015   72.2515   -8.3155 H   0  0  0  0  0
  132.0193   73.4748   -9.5014 H   0  0  0  0  0
  132.7820   73.4147   -7.8934 H   0  0  0  0  0
  126.3497   73.1179   -9.3476 H   0  0  0  0  0
  129.3255   71.2271   -8.2819 H   0  0  0  0  0
  125.2519   72.3050   -7.3452 H   0  0  0  0  0
 15  1  4  0  0  0
  1 16  4  0  0  0
  1 19  4  0  0  0
 16  2  4  0  0  0
  2 17  4  0  0  0
 16  3  4  0  0  0
  3 18  4  0  0  0
  5  4  2  0  0  0
  5  6  1  0  0  0
 13  5  1  0  0  0
  5 20  2  0  0  0
  6  7  4  0  0  0
  6 11  4  0  0  0
  7  8  1  0  0  0
  7  9  4  0  0  0
 10  9  4  0  0  0
 11 10  4  0  0  0
 11 12  1  0  0  0
 14 13  1  0  0  0
 14 15  4  0  0  0
 14 17  4  0  0  0
 18 19  4  0  0  0
  2 21  1  0  0  0
  3 22  1  0  0  0
  8 23  1  0  0  0
  8 24  1  0  0  0
  8 25  1  0  0  0
 12 26  1  0  0  0
 12 27  1  0  0  0
 12 28  1  0  0  0
 13 29  1  0  0  0
 15 30  1  0  0  0
 17 31  1  0  0  0
M  END
$$$$
