1zgi_ligand
  -I-interpret- 

 56 60  0  0  0  0  0  0  0  0999 V2000
   22.3230  -14.2910   25.6190 C   0  0  0  0  0
   22.0110  -14.9860   24.2840 C   0  0  0  0  0
   21.0480  -16.1020   24.5080 N   0  3  0  0  0
   19.7680  -15.6610   25.1350 C   0  0  0  0  0
   20.0600  -15.0240   26.4980 C   0  0  0  0  0
   21.0240  -13.8280   26.3050 C   0  0  0  0  0
   18.7190  -16.8040   25.1620 C   0  0  0  0  0
   19.2670  -18.0340   25.3410 F   0  0  0  0  0
   17.8050  -16.5990   26.1480 F   0  0  0  0  0
   18.0010  -16.8490   23.8070 C   0  0  0  0  0
   17.4150  -15.5460   23.4030 N   0  0  0  0  0
   17.8610  -14.8050   22.2800 C   0  0  0  0  0
   17.0050  -13.8380   21.6540 C   0  0  0  0  0
   17.4730  -13.1050   20.5270 C   0  0  0  0  0
   18.8440  -13.3810   20.0340 C   0  0  0  0  0
   19.7160  -14.3780   20.6870 C   0  0  0  0  0
   19.1710  -15.0470   21.8000 N   0  0  0  0  0
   15.7100  -13.3970   21.8900 N   0  0  0  0  0
   15.4580  -12.4320   20.9190 C   0  0  0  0  0
   16.5440  -12.2110   20.0760 O   0  0  0  0  0
   14.1350  -11.6760   20.7150 C   0  0  0  0  0
   13.0240  -11.7240   21.7700 C   0  0  0  0  0
   12.9160  -10.4860   22.5640 C   0  0  0  0  0
   11.8770  -10.3870   23.5960 C   0  0  0  0  0
   10.9660  -11.5370   23.7640 C   0  0  0  0  0
   11.0880  -12.7730   22.9610 C   0  0  0  0  0
   12.1470  -12.8950   21.9490 C   0  0  0  0  0
   12.3340  -14.1540   21.2840 N   0  0  0  0  0
   12.6160  -15.3380   21.9060 N   0  0  0  0  0
   12.6910  -16.3250   20.9570 C   0  0  0  0  0
   12.4480  -15.7450   19.7450 N   0  0  0  0  0
   12.2270  -14.4050   19.9490 C   0  0  0  0  0
   22.9504  -13.4208   25.4262 H   0  0  0  0  0
   22.8361  -14.9960   26.2730 H   0  0  0  0  0
   22.9331  -15.3852   23.8616 H   0  0  0  0  0
   21.5717  -14.2637   23.5959 H   0  0  0  0  0
   21.4893  -16.7668   25.1434 H   0  0  0  0  0
   20.8230  -16.5022   23.5972 H   0  0  0  0  0
   19.3010  -14.8878   24.5249 H   0  0  0  0  0
   20.5196  -15.7618   27.1556 H   0  0  0  0  0
   19.1294  -14.6752   26.9456 H   0  0  0  0  0
   20.5394  -13.0787   25.6790 H   0  0  0  0  0
   21.2680  -13.4076   27.2806 H   0  0  0  0  0
   17.1823  -17.5633   23.8939 H   0  0  0  0  0
   18.7398  -17.1233   23.0540 H   0  0  0  0  0
   16.6522  -15.1644   23.9624 H   0  0  0  0  0
   19.2174  -12.8344   19.1681 H   0  0  0  0  0
   20.7242  -14.5844   20.3279 H   0  0  0  0  0
   13.6903  -12.1545   19.8424 H   0  0  0  0  0
   14.4317  -10.6274   20.6927 H   0  0  0  0  0
   13.5990   -9.6552   22.3868 H   0  0  0  0  0
   11.7812   -9.4960   24.2165 H   0  0  0  0  0
   10.1728  -11.4724   24.5088 H   0  0  0  0  0
   10.3908  -13.5956   23.1201 H   0  0  0  0  0
   12.9051  -17.3785   21.1370 H   0  0  0  0  0
   12.0044  -13.6692   19.1763 H   0  0  0  0  0
  1  2  1  0  0  0
  1  6  1  0  0  0
  2  3  1  0  0  0
  3  4  1  0  0  0
  4  5  1  0  0  0
  4  7  1  0  0  0
  5  6  1  0  0  0
  7  8  1  0  0  0
  7  9  1  0  0  0
  7 10  1  0  0  0
 10 11  1  0  0  0
 11 12  1  0  0  0
 12 13  4  0  0  0
 12 17  4  0  0  0
 13 14  4  0  0  0
 13 18  4  0  0  0
 14 15  4  0  0  0
 14 20  4  0  0  0
 15 16  4  0  0  0
 16 17  4  0  0  0
 18 19  4  0  0  0
 19 20  4  0  0  0
 19 21  1  0  0  0
 21 22  1  0  0  0
 22 23  4  0  0  0
 22 27  4  0  0  0
 23 24  4  0  0  0
 24 25  4  0  0  0
 25 26  4  0  0  0
 26 27  4  0  0  0
 27 28  1  0  0  0
 28 29  4  0  0  0
 28 32  4  0  0  0
 29 30  4  0  0  0
 30 31  4  0  0  0
 31 32  4  0  0  0
  1 33  1  0  0  0
  1 34  1  0  0  0
  2 35  1  0  0  0
  2 36  1  0  0  0
  3 37  1  0  0  0
  3 38  1  0  0  0
  4 39  1  0  0  0
  5 40  1  0  0  0
  5 41  1  0  0  0
  6 42  1  0  0  0
  6 43  1  0  0  0
 10 44  1  0  0  0
 10 45  1  0  0  0
 11 46  1  0  0  0
 15 47  1  0  0  0
 16 48  1  0  0  0
 21 49  1  0  0  0
 21 50  1  0  0  0
 23 51  1  0  0  0
 24 52  1  0  0  0
 25 53  1  0  0  0
 26 54  1  0  0  0
 30 55  1  0  0  0
 32 56  1  0  0  0
M  END
$$$$
