3ti3_ligand
  -I-interpret- 

 48 48  0  0  0  0  0  0  0  0999 V2000
   29.4460   13.2070  -22.7790 C   0  0  0  0  0
   30.8780   13.7230  -22.6260 C   0  0  0  0  0
   31.2210   14.5310  -21.3690 C   0  0  0  0  0
   30.0190   14.8570  -20.4400 C   0  0  0  0  0
   28.5810   14.5620  -20.9410 C   0  0  0  0  0
   28.3670   13.7620  -22.0880 O   0  0  0  0  0
   29.0450   12.5680  -24.0610 C   0  0  0  0  0
   30.0140   11.9730  -24.8350 O   0  0  0  0  0
   27.8520   12.4960  -24.3280 O   0  0  0  0  0
   27.4890   14.4280  -19.9420 C   0  0  0  0  0
   26.1260   14.6870  -20.5460 C   0  0  0  0  0
   25.0060   14.3680  -19.5850 C   0  0  0  0  0
   24.9720   15.1890  -18.4370 O   0  0  0  0  0
   27.6190   13.1670  -19.4160 O   0  0  0  0  0
   27.6650   13.0100  -18.0390 C   0  0  0  0  0
   26.0210   15.9410  -21.1130 O   0  0  0  0  0
   32.5430   14.3650  -20.8130 N   0  0  0  0  0
   33.3070   15.3990  -20.1700 C   0  0  0  0  0
   34.4020   15.0350  -19.5400 N   0  0  0  0  0
   32.9740   16.6840  -20.2710 N   0  0  0  0  0
   30.8320   15.4290  -18.0860 C   0  0  0  0  0
   30.9680   16.5840  -17.1480 C   0  0  0  0  0
   31.0600   14.2780  -17.7250 O   0  0  0  0  0
   30.1530   15.7300  -19.3080 N   0  0  0  0  0
   29.7223   12.4134  -22.0848 H   0  0  0  0  0
   31.0294   14.4078  -23.4604 H   0  0  0  0  0
   31.5030   12.8314  -22.5763 H   0  0  0  0  0
   31.4107   15.5352  -21.7481 H   0  0  0  0  0
   30.2773   13.9638  -19.8711 H   0  0  0  0  0
   28.4920   15.5719  -21.3413 H   0  0  0  0  0
   30.8779   12.1483  -24.4549 H   0  0  0  0  0
   27.5703   15.1789  -19.1561 H   0  0  0  0  0
   26.0159   13.9885  -21.3755 H   0  0  0  0  0
   25.1598   13.3447  -19.2424 H   0  0  0  0  0
   24.0699   14.5271  -20.1202 H   0  0  0  0  0
   24.2368   14.9259  -17.8785 H   0  0  0  0  0
   28.5170   13.5605  -17.6401 H   0  0  0  0  0
   26.7445   13.3945  -17.5998 H   0  0  0  0  0
   27.7695   11.9520  -17.7985 H   0  0  0  0  0
   25.1408   16.0525  -21.4796 H   0  0  0  0  0
   32.9687   13.4406  -20.8819 H   0  0  0  0  0
   34.6776   14.0531  -19.5221 H   0  0  0  0  0
   33.5712   17.3997  -19.8569 H   0  0  0  0  0
   32.1216   16.9529  -20.7625 H   0  0  0  0  0
   30.2892   16.4485  -16.3060 H   0  0  0  0  0
   31.9942   16.6362  -16.7843 H   0  0  0  0  0
   30.7194   17.5070  -17.6718 H   0  0  0  0  0
   29.7233   16.6520  -19.3825 H   0  0  0  0  0
  2  1  1  0  0  0
  6  1  1  0  0  0
  1  7  1  0  0  0
  3  2  1  0  0  0
  4  3  1  0  0  0
  3 17  1  0  0  0
  4  5  1  0  0  0
 24  4  1  0  0  0
  5  6  1  0  0  0
  5 10  1  0  0  0
  7  8  1  0  0  0
  7  9  2  0  0  0
 10 11  1  0  0  0
 10 14  1  0  0  0
 11 12  1  0  0  0
 11 16  1  0  0  0
 12 13  1  0  0  0
 14 15  1  0  0  0
 17 18  1  0  0  0
 18 19  2  0  0  0
 18 20  1  0  0  0
 21 22  1  0  0  0
 21 23  2  0  0  0
 21 24  1  0  0  0
  1 25  1  0  0  0
  2 26  1  0  0  0
  2 27  1  0  0  0
  3 28  1  0  0  0
  4 29  1  0  0  0
  5 30  1  0  0  0
  8 31  1  0  0  0
 10 32  1  0  0  0
 11 33  1  0  0  0
 12 34  1  0  0  0
 12 35  1  0  0  0
 13 36  1  0  0  0
 15 37  1  0  0  0
 15 38  1  0  0  0
 15 39  1  0  0  0
 16 40  1  0  0  0
 17 41  1  0  0  0
 19 42  1  0  0  0
 20 43  1  0  0  0
 20 44  1  0  0  0
 22 45  1  0  0  0
 22 46  1  0  0  0
 22 47  1  0  0  0
 24 48  1  0  0  0
M  END
$$$$
