4aro_ligand
  -I-interpret- 

 48 48  0  0  0  0  0  0  0  0999 V2000
  -18.3890    2.8910   -5.8810 C   0  0  0  0  0
  -18.4960    4.1440   -5.2040 O   0  0  0  0  0
  -19.0550    4.1830   -3.7340 S   0  0  0  0  0
  -16.9440    2.4080   -5.7860 C   0  0  0  0  0
  -20.4390    3.8090   -3.7690 O   0  0  0  0  0
  -14.9260    4.0640   -5.6670 S   0  0  0  0  0
  -16.7520    1.0770   -6.4870 C   0  0  0  0  0
  -18.1730    3.0910   -2.9700 O   0  0  0  0  0
  -15.0440   -0.4080   -5.3250 S   0  0  0  0  0
  -17.2510    1.1520   -7.9500 C   0  0  0  0  0
  -18.8360    5.5430   -3.2740 O   0  0  0  0  0
  -16.1540   -0.5280   -9.6750 S   0  0  0  0  0
  -18.6890    1.6990   -8.0400 C   0  0  0  0  0
  -20.1100    0.9290  -10.1360 S   0  0  0  0  0
  -18.8940    3.0130   -7.3440 C   0  0  0  0  0
  -20.8120    4.8120   -8.0130 S   0  0  0  0  0
  -16.1500    3.3790   -6.4330 O   0  0  0  0  0
  -15.3750    0.6850   -6.4450 O   0  0  0  0  0
  -17.2660   -0.1520   -8.5650 O   0  0  0  0  0
  -19.0990    1.8710   -9.3790 O   0  0  0  0  0
  -20.3290    3.4520   -7.3620 O   0  0  0  0  0
  -14.8880    5.4690   -6.0480 O   0  0  0  0  0
  -13.4680   -0.5980   -5.6500 O   0  0  0  0  0
  -14.9130   -0.9210   -8.7800 O   0  0  0  0  0
  -21.1850    1.7800  -10.7490 O   0  0  0  0  0
  -20.1510    5.8780   -7.2790 O   0  0  0  0  0
  -15.1080    3.8980   -4.2380 O   0  0  0  0  0
  -15.9260   -1.5060   -5.5350 O   0  0  0  0  0
  -15.9430    0.6190  -10.5160 O   0  0  0  0  0
  -19.2610    0.2520  -11.2520 O   0  0  0  0  0
  -22.2010    4.9210   -7.8560 O   0  0  0  0  0
  -13.6800    3.2440   -6.2200 O   0  0  0  0  0
  -15.2840    0.2620   -4.0690 O   0  0  0  0  0
  -16.8480   -1.6530  -10.2540 O   0  0  0  0  0
  -20.4970   -0.0860   -9.2100 O   0  0  0  0  0
  -20.3260    4.7650   -9.4880 O   0  0  0  0  0
  -19.0266    2.1447   -5.4071 H   0  0  0  0  0
  -16.6700    2.2731   -4.7397 H   0  0  0  0  0
  -17.3426    0.3249   -5.9639 H   0  0  0  0  0
  -17.2545    3.3703   -2.9641 H   0  0  0  0  0
  -16.5584    1.8189   -8.4635 H   0  0  0  0  0
  -19.2868    0.9399   -7.5355 H   0  0  0  0  0
  -18.3259    3.7731   -7.8803 H   0  0  0  0  0
  -13.0026    0.2202   -5.4615 H   0  0  0  0  0
  -15.1326   -1.6915   -8.2510 H   0  0  0  0  0
  -18.5778   -0.2888  -10.8491 H   0  0  0  0  0
  -13.7526    2.3279   -5.9424 H   0  0  0  0  0
  -20.7767    4.0542   -9.9497 H   0  0  0  0  0
  1  2  1  0  0  0
  1  4  1  0  0  0
  1 15  1  0  0  0
  2  3  1  0  0  0
  3  5  2  0  0  0
  3  8  1  0  0  0
  3 11  2  0  0  0
  4  7  1  0  0  0
  4 17  1  0  0  0
 17  6  1  0  0  0
  6 22  2  0  0  0
  6 27  2  0  0  0
  6 32  1  0  0  0
  7 10  1  0  0  0
  7 18  1  0  0  0
 18  9  1  0  0  0
  9 23  1  0  0  0
  9 28  2  0  0  0
  9 33  2  0  0  0
 10 13  1  0  0  0
 10 19  1  0  0  0
 19 12  1  0  0  0
 12 24  1  0  0  0
 12 29  2  0  0  0
 12 34  2  0  0  0
 13 15  1  0  0  0
 13 20  1  0  0  0
 20 14  1  0  0  0
 14 25  2  0  0  0
 14 30  1  0  0  0
 14 35  2  0  0  0
 15 21  1  0  0  0
 21 16  1  0  0  0
 16 26  2  0  0  0
 16 31  2  0  0  0
 16 36  1  0  0  0
  1 37  1  0  0  0
  4 38  1  0  0  0
  7 39  1  0  0  0
  8 40  1  0  0  0
 10 41  1  0  0  0
 13 42  1  0  0  0
 15 43  1  0  0  0
 23 44  1  0  0  0
 24 45  1  0  0  0
 30 46  1  0  0  0
 32 47  1  0  0  0
 36 48  1  0  0  0
M  END
$$$$
