### 
### Created by X-TOOL on Mon Sep 10 21:13:17 2018
### 

@<TRIPOS>MOLECULE
4jok_ligand
  150   151     1     0     0
SMALL
GAST_HUCK


@<TRIPOS>ATOM
      1 N          24.9420   20.5190   18.3320 N.4       1 ASN         0.2396
      2 CA         23.7340   21.3310   18.4340 C.3       1 ASN         0.0818
      3 C          23.0150   21.4930   17.1000 C.2       1 ASN         0.2291
      4 O          23.6350   21.4660   16.0360 O.2       1 ASN        -0.3905
      5 CB         24.0520   22.7150   19.0100 C.3       1 ASN         0.0972
      6 CG         24.5550   22.6520   20.4380 C.2       1 ASN         0.1813
      7 OD1        25.1000   23.6270   20.9590 O.2       1 ASN        -0.3969
      8 ND2        24.3810   21.5020   21.0790 N.am      1 ASN        -0.3006
      9 N          21.6990   21.6630   17.1710 N.am      1 SER        -0.2587
     10 CA         20.8970   21.9360   15.9880 C.3       1 SER         0.1540
     11 C          21.2280   23.3210   15.4390 C.2       1 SER         0.2062
     12 O          21.6750   24.1970   16.1790 O.2       1 SER        -0.3943
     13 CB         19.4080   21.8350   16.3270 C.3       1 SER         0.0843
     14 OG         19.1040   22.5430   17.5200 O.3       1 SER        -0.3903
     15 N          21.0170   23.5120   14.1410 N.am      1 ARG        -0.2637
     16 CA         21.2860   24.7990   13.5100 C.3       1 ARG         0.1311
     17 C          20.5470   25.9160   14.2380 C.2       1 ARG         0.2040
     18 O          21.0790   27.0100   14.4280 O.2       1 ARG        -0.3944
     19 CB         20.8770   24.7730   12.0380 C.3       1 ARG        -0.0092
     20 CG         21.3050   26.0080   11.2650 C.3       1 ARG        -0.0156
     21 CD         20.8990   25.9170    9.8030 C.3       1 ARG         0.0627
     22 NE         21.2410   24.6240    9.2190 N.pl3     1 ARG        -0.2723
     23 CZ         20.3490   23.7450    8.7730 C.cat     1 ARG         0.2882
     24 NH1        19.0540   24.0230    8.8320 N.pl3     1 ARG        -0.2849
     25 NH2        20.7520   22.5910    8.2590 N.pl3     1 ARG        -0.2849
     26 N          19.3160   25.6250   14.6400 N.am      1 TYR        -0.2621
     27 CA         18.5050   26.5560   15.4130 C.3       1 TYR         0.1392
     28 C          17.9420   25.8100   16.6140 C.2       1 TYR         0.2082
     29 O          17.9520   24.5800   16.6290 O.2       1 TYR        -0.3940
     30 CB         17.3710   27.1030   14.5500 C.3       1 TYR         0.0164
     31 CG         17.8490   27.7560   13.2780 C.ar      1 TYR        -0.0493
     32 CD1        18.4010   29.0290   13.2970 C.ar      1 TYR        -0.0685
     33 CD2        17.7470   27.1030   12.0570 C.ar      1 TYR        -0.0685
     34 CE1        18.8410   29.6330   12.1380 C.ar      1 TYR        -0.0398
     35 CE2        18.1840   27.7020   10.8910 C.ar      1 TYR        -0.0398
     36 CZ         18.7290   28.9660   10.9400 C.ar      1 TYR         0.0805
     37 OH         19.1660   29.5680    9.7830 O.3       1 TYR        -0.3376
     38 N          17.4490   26.5480   17.6250 N.am      1 PRO        -0.2497
     39 CA         16.8710   25.9000   18.8070 C.3       1 PRO         0.1338
     40 C          15.8950   24.7710   18.4690 C.2       1 PRO         0.2042
     41 O          15.2020   24.7990   17.4500 O.2       1 PRO        -0.3944
     42 CB         16.1430   27.0480   19.5090 C.3       1 PRO        -0.0104
     43 CG         16.9510   28.2500   19.1600 C.3       1 PRO        -0.0281
     44 CD         17.4760   28.0160   17.7580 C.3       1 PRO         0.0369
     45 N          15.8580   23.7840   19.3500 N.am      1 THR        -0.2613
     46 CA         15.0000   22.6270   19.1880 C.3       1 THR         0.1565
     47 C          14.1970   22.4330   20.4620 C.2       1 THR         0.2065
     48 O          14.7250   22.6120   21.5590 O.2       1 THR        -0.3943
     49 CB         15.8460   21.3810   18.9290 C.3       1 THR         0.0924
     50 OG1        16.5420   21.5400   17.6880 O.3       1 THR        -0.3874
     51 CG2        14.9800   20.1340   18.8630 C.3       1 THR        -0.0346
     52 N          12.9250   22.0740   20.3150 N.am      1 SER        -0.2615
     53 CA         12.0810   21.7390   21.4520 C.3       1 SER         0.1539
     54 C          11.4950   20.3550   21.2500 C.2       1 SER         0.2062
     55 O          11.0690   20.0100   20.1440 O.2       1 SER        -0.3943
     56 CB         10.9430   22.7440   21.6170 C.3       1 SER         0.0843
     57 OG         11.4430   24.0210   21.9610 O.3       1 SER        -0.3903
     58 N          11.4800   19.5680   22.3190 N.am      1 ILE        -0.2634
     59 CA         10.7970   18.2840   22.3120 C.3       1 ILE         0.1335
     60 C           9.3830   18.5100   22.8220 C.2       1 ILE         0.2036
     61 O           9.1910   19.1350   23.8660 O.2       1 ILE        -0.3944
     62 CB         11.5300   17.2250   23.1620 C.3       1 ILE        -0.0037
     63 CG1        11.6960   17.6800   24.6090 C.3       1 ILE        -0.0491
     64 CG2        12.8900   16.8920   22.5530 C.3       1 ILE        -0.0582
     65 CD1        12.2720   16.6030   25.5090 C.3       1 ILE        -0.0648
     66 N           8.3980   18.0300   22.0690 N.am      1 ILE        -0.2692
     67 CA          6.9910   18.3000   22.3500 C.3       1 ILE         0.0969
     68 C           6.1180   17.0820   22.1130 C.2       1 ILE         0.0604
     69 O           6.5840   16.0380   21.6100 O.co2     1 ILE        -0.5666
     70 CB          6.4420   19.4860   21.5200 C.3       1 ILE        -0.0092
     71 CG1         6.4930   19.1770   20.0210 C.3       1 ILE        -0.0497
     72 CG2         7.2090   20.7710   21.8210 C.3       1 ILE        -0.0588
     73 CD1         5.8220   20.2240   19.1510 C.3       1 ILE        -0.0649
     74 OXT         4.9300   17.1560   22.4540 O.co2     1 ILE        -0.5666
     75 H          25.3750   20.4454   19.2393 H         1 ASN         0.2017
     76 H          25.5845   20.9520   17.6873 H         1 ASN         0.2017
     77 H          24.7011   19.5986   17.9991 H         1 ASN         0.2017
     78 H          23.0487   20.8197   19.1261 H         1 ASN         0.1125
     79 H          23.1371   23.3251   18.9857 H         1 ASN         0.0585
     80 H          24.8244   23.1873   18.3853 H         1 ASN         0.0585
     81 H          24.6937   21.4039   22.0238 H         1 ASN         0.1814
     82 H          23.9373   20.7342   20.6169 H         1 ASN         0.1814
     83 H          21.2478   21.6017   18.0613 H         1 SER         0.1885
     84 H          21.1345   21.1863   15.2189 H         1 SER         0.0823
     85 H          19.1413   20.7762   16.4603 H         1 SER         0.0606
     86 H          18.8218   22.2594   15.4986 H         1 SER         0.0606
     87 H          18.1758   22.4637   17.7062 H         1 SER         0.2097
     88 H          20.6666   22.7579   13.5855 H         1 ARG         0.1883
     89 H          22.3664   24.9969   13.5695 H         1 ARG         0.0800
     90 H          19.7814   24.6910   11.9831 H         1 ARG         0.0313
     91 H          21.3348   23.8914   11.5656 H         1 ARG         0.0313
     92 H          22.3987   26.1075   11.3269 H         1 ARG         0.0301
     93 H          20.8303   26.8931   11.7136 H         1 ARG         0.0301
     94 H          21.4166   26.7083    9.2410 H         1 ARG         0.0689
     95 H          19.8116   26.0644    9.7268 H         1 ARG         0.0689
     96 H          22.2383   24.3764    9.1478 H         1 ARG         0.2642
     97 H          18.3645   23.3406    8.4859 H         1 ARG         0.2615
     98 H          18.7375   24.9214    9.2239 H         1 ARG         0.2615
     99 H          21.7572   22.3714    8.2115 H         1 ARG         0.2615
    100 H          20.0598   21.9142    7.9073 H         1 ARG         0.2615
    101 H          18.9308   24.7330   14.4033 H         1 TYR         0.1885
    102 H          19.1310   27.3916   15.7590 H         1 TYR         0.0821
    103 H          16.8144   27.8485   15.1369 H         1 TYR         0.0453
    104 H          16.7020   26.2711   14.2849 H         1 TYR         0.0453
    105 H          18.4878   29.5578   14.2393 H         1 TYR         0.0530
    106 H          17.3181   26.1082   12.0178 H         1 TYR         0.0530
    107 H          19.2723   30.6270   12.1707 H         1 TYR         0.0525
    108 H          18.0985   27.1808    9.9444 H         1 TYR         0.0525
    109 H          19.5117   30.4291    9.9865 H         1 TYR         0.2458
    110 H          17.6698   25.4959   19.4462 H         1 PRO         0.0802
    111 H          16.1237   26.8919   20.5977 H         1 PRO         0.0313
    112 H          15.1135   27.1461   19.1343 H         1 PRO         0.0313
    113 H          17.7870   28.3652   19.8656 H         1 PRO         0.0287
    114 H          16.3224   29.1523   19.1858 H         1 PRO         0.0287
    115 H          16.8252   28.4913   17.0094 H         1 PRO         0.0524
    116 H          18.5004   28.4023   17.6515 H         1 PRO         0.0524
    117 H          16.4443   23.8385   20.1582 H         1 THR         0.1884
    118 H          14.3179   22.7896   18.3405 H         1 THR         0.0826
    119 H          16.5751   21.2669   19.7447 H         1 THR         0.0639
    120 H          17.0701   20.7681   17.5212 H         1 THR         0.2101
    121 H          15.6155   19.2558   18.6760 H         1 THR         0.0257
    122 H          14.2490   20.2379   18.0476 H         1 THR         0.0257
    123 H          14.4487   20.0056   19.8176 H         1 THR         0.0257
    124 H          12.5365   22.0330   19.3945 H         1 SER         0.1884
    125 H          12.6955   21.7442   22.3643 H         1 SER         0.0823
    126 H          10.2675   22.3957   22.4122 H         1 SER         0.0606
    127 H          10.3877   22.8178   20.6703 H         1 SER         0.0606
    128 H          12.0246   24.3275   21.2751 H         1 SER         0.2097
    129 H          11.9501   19.8655   23.1499 H         1 ILE         0.1883
    130 H          10.7489   17.9159   21.2766 H         1 ILE         0.0803
    131 H          10.9202   16.3095   23.1615 H         1 ILE         0.0345
    132 H          10.7100   17.9721   24.9995 H         1 ILE         0.0267
    133 H          12.3700   18.5491   24.6276 H         1 ILE         0.0267
    134 H          12.7552   16.5659   21.5111 H         1 ILE         0.0235
    135 H          13.3631   16.0849   23.1315 H         1 ILE         0.0235
    136 H          13.5314   17.7853   22.5775 H         1 ILE         0.0235
    137 H          12.3660   16.9928   26.5333 H         1 ILE         0.0230
    138 H          13.2638   16.3062   25.1372 H         1 ILE         0.0230
    139 H          11.6038   15.7292   25.5091 H         1 ILE         0.0230
    140 H           8.6299   17.4619   21.2794 H         1 ILE         0.1875
    141 H           6.9157   18.5689   23.4140 H         1 ILE         0.0729
    142 H           5.3903   19.6407   21.8028 H         1 ILE         0.0338
    143 H           5.9925   18.2126   19.8495 H         1 ILE         0.0267
    144 H           7.5481   19.1013   19.7192 H         1 ILE         0.0267
    145 H           7.1641   20.9806   22.8999 H         1 ILE         0.0234
    146 H           6.7570   21.6064   21.2662 H         1 ILE         0.0234
    147 H           8.2585   20.6521   21.5140 H         1 ILE         0.0234
    148 H           5.9021   19.9288   18.0944 H         1 ILE         0.0230
    149 H           6.3166   21.1953   19.2988 H         1 ILE         0.0230
    150 H           4.7610   20.3066   19.4291 H         1 ILE         0.0230
@<TRIPOS>BOND
     1    1    2 1  
     2    2    3 1  
     3    2    5 1  
     4    3    4 2  
     5    3    9 am 
     6    5    6 1  
     7    6    7 2  
     8    6    8 am 
     9    9   10 1  
    10   10   11 1  
    11   10   13 1  
    12   11   12 2  
    13   11   15 am 
    14   13   14 1  
    15   15   16 1  
    16   16   17 1  
    17   16   19 1  
    18   17   18 2  
    19   17   26 am 
    20   19   20 1  
    21   20   21 1  
    22   21   22 1  
    23   22   23 ar 
    24   23   24 ar 
    25   23   25 ar 
    26   26   27 1  
    27   27   28 1  
    28   27   30 1  
    29   28   29 2  
    30   28   38 am 
    31   30   31 1  
    32   31   32 ar 
    33   31   33 ar 
    34   32   34 ar 
    35   33   35 ar 
    36   34   36 ar 
    37   35   36 ar 
    38   36   37 1  
    39   38   39 1  
    40   38   44 1  
    41   39   40 1  
    42   39   42 1  
    43   40   41 2  
    44   40   45 am 
    45   42   43 1  
    46   43   44 1  
    47   45   46 1  
    48   46   47 1  
    49   46   49 1  
    50   47   48 2  
    51   47   52 am 
    52   49   50 1  
    53   49   51 1  
    54   52   53 1  
    55   53   54 1  
    56   53   56 1  
    57   54   55 2  
    58   54   58 am 
    59   56   57 1  
    60   58   59 1  
    61   59   60 1  
    62   59   62 1  
    63   60   61 2  
    64   60   66 am 
    65   62   63 1  
    66   62   64 1  
    67   63   65 1  
    68   66   67 1  
    69   67   68 1  
    70   67   70 1  
    71   68   69 ar 
    72   68   74 ar 
    73   70   71 1  
    74   70   72 1  
    75   71   73 1  
    76    1   75 1  
    77    1   76 1  
    78    1   77 1  
    79    2   78 1  
    80    5   79 1  
    81    5   80 1  
    82    8   81 1  
    83    8   82 1  
    84    9   83 1  
    85   10   84 1  
    86   13   85 1  
    87   13   86 1  
    88   14   87 1  
    89   15   88 1  
    90   16   89 1  
    91   19   90 1  
    92   19   91 1  
    93   20   92 1  
    94   20   93 1  
    95   21   94 1  
    96   21   95 1  
    97   22   96 1  
    98   24   97 1  
    99   24   98 1  
   100   25   99 1  
   101   25  100 1  
   102   26  101 1  
   103   27  102 1  
   104   30  103 1  
   105   30  104 1  
   106   32  105 1  
   107   33  106 1  
   108   34  107 1  
   109   35  108 1  
   110   37  109 1  
   111   39  110 1  
   112   42  111 1  
   113   42  112 1  
   114   43  113 1  
   115   43  114 1  
   116   44  115 1  
   117   44  116 1  
   118   45  117 1  
   119   46  118 1  
   120   49  119 1  
   121   50  120 1  
   122   51  121 1  
   123   51  122 1  
   124   51  123 1  
   125   52  124 1  
   126   53  125 1  
   127   56  126 1  
   128   56  127 1  
   129   57  128 1  
   130   58  129 1  
   131   59  130 1  
   132   62  131 1  
   133   63  132 1  
   134   63  133 1  
   135   64  134 1  
   136   64  135 1  
   137   64  136 1  
   138   65  137 1  
   139   65  138 1  
   140   65  139 1  
   141   66  140 1  
   142   67  141 1  
   143   70  142 1  
   144   71  143 1  
   145   71  144 1  
   146   72  145 1  
   147   72  146 1  
   148   72  147 1  
   149   73  148 1  
   150   73  149 1  
   151   73  150 1  
@<TRIPOS>SUBSTRUCTURE
     1 ASN         1

