4jok_ligand
  -I-interpret- 

150151  0  0  0  0  0  0  0  0999 V2000
   24.9420   20.5190   18.3320 N   0  3  0  0  0
   23.7340   21.3310   18.4340 C   0  0  0  0  0
   23.0150   21.4930   17.1000 C   0  0  0  0  0
   23.6350   21.4660   16.0360 O   0  0  0  0  0
   24.0520   22.7150   19.0100 C   0  0  0  0  0
   24.5550   22.6520   20.4380 C   0  0  0  0  0
   25.1000   23.6270   20.9590 O   0  0  0  0  0
   24.3810   21.5020   21.0790 N   0  0  0  0  0
   21.6990   21.6630   17.1710 N   0  0  0  0  0
   20.8970   21.9360   15.9880 C   0  0  0  0  0
   21.2280   23.3210   15.4390 C   0  0  0  0  0
   21.6750   24.1970   16.1790 O   0  0  0  0  0
   19.4080   21.8350   16.3270 C   0  0  0  0  0
   19.1040   22.5430   17.5200 O   0  0  0  0  0
   21.0170   23.5120   14.1410 N   0  0  0  0  0
   21.2860   24.7990   13.5100 C   0  0  0  0  0
   20.5470   25.9160   14.2380 C   0  0  0  0  0
   21.0790   27.0100   14.4280 O   0  0  0  0  0
   20.8770   24.7730   12.0380 C   0  0  0  0  0
   21.3050   26.0080   11.2650 C   0  0  0  0  0
   20.8990   25.9170    9.8030 C   0  0  0  0  0
   21.2410   24.6240    9.2190 N   0  0  0  0  0
   20.3490   23.7450    8.7730 C   0  0  0  0  0
   19.0540   24.0230    8.8320 N   0  0  0  0  0
   20.7520   22.5910    8.2590 N   0  0  0  0  0
   19.3160   25.6250   14.6400 N   0  0  0  0  0
   18.5050   26.5560   15.4130 C   0  0  0  0  0
   17.9420   25.8100   16.6140 C   0  0  0  0  0
   17.9520   24.5800   16.6290 O   0  0  0  0  0
   17.3710   27.1030   14.5500 C   0  0  0  0  0
   17.8490   27.7560   13.2780 C   0  0  0  0  0
   18.4010   29.0290   13.2970 C   0  0  0  0  0
   17.7470   27.1030   12.0570 C   0  0  0  0  0
   18.8410   29.6330   12.1380 C   0  0  0  0  0
   18.1840   27.7020   10.8910 C   0  0  0  0  0
   18.7290   28.9660   10.9400 C   0  0  0  0  0
   19.1660   29.5680    9.7830 O   0  0  0  0  0
   17.4490   26.5480   17.6250 N   0  0  0  0  0
   16.8710   25.9000   18.8070 C   0  0  0  0  0
   15.8950   24.7710   18.4690 C   0  0  0  0  0
   15.2020   24.7990   17.4500 O   0  0  0  0  0
   16.1430   27.0480   19.5090 C   0  0  0  0  0
   16.9510   28.2500   19.1600 C   0  0  0  0  0
   17.4760   28.0160   17.7580 C   0  0  0  0  0
   15.8580   23.7840   19.3500 N   0  0  0  0  0
   15.0000   22.6270   19.1880 C   0  0  0  0  0
   14.1970   22.4330   20.4620 C   0  0  0  0  0
   14.7250   22.6120   21.5590 O   0  0  0  0  0
   15.8460   21.3810   18.9290 C   0  0  0  0  0
   16.5420   21.5400   17.6880 O   0  0  0  0  0
   14.9800   20.1340   18.8630 C   0  0  0  0  0
   12.9250   22.0740   20.3150 N   0  0  0  0  0
   12.0810   21.7390   21.4520 C   0  0  0  0  0
   11.4950   20.3550   21.2500 C   0  0  0  0  0
   11.0690   20.0100   20.1440 O   0  0  0  0  0
   10.9430   22.7440   21.6170 C   0  0  0  0  0
   11.4430   24.0210   21.9610 O   0  0  0  0  0
   11.4800   19.5680   22.3190 N   0  0  0  0  0
   10.7970   18.2840   22.3120 C   0  0  0  0  0
    9.3830   18.5100   22.8220 C   0  0  0  0  0
    9.1910   19.1350   23.8660 O   0  0  0  0  0
   11.5300   17.2250   23.1620 C   0  0  0  0  0
   11.6960   17.6800   24.6090 C   0  0  0  0  0
   12.8900   16.8920   22.5530 C   0  0  0  0  0
   12.2720   16.6030   25.5090 C   0  0  0  0  0
    8.3980   18.0300   22.0690 N   0  0  0  0  0
    6.9910   18.3000   22.3500 C   0  0  0  0  0
    6.1180   17.0820   22.1130 C   0  0  0  0  0
    6.5840   16.0380   21.6100 O   0  0  0  0  0
    6.4420   19.4860   21.5200 C   0  0  0  0  0
    6.4930   19.1770   20.0210 C   0  0  0  0  0
    7.2090   20.7710   21.8210 C   0  0  0  0  0
    5.8220   20.2240   19.1510 C   0  0  0  0  0
    4.9300   17.1560   22.4540 O   0  0  0  0  0
   24.7043   19.6049   17.9469 H   0  0  0  0  0
   25.6119   20.9837   17.7191 H   0  0  0  0  0
   25.3513   20.4027   19.2590 H   0  0  0  0  0
   23.0664   20.7946   19.1083 H   0  0  0  0  0
   23.1320   23.2995   19.0045 H   0  0  0  0  0
   24.8364   23.1603   18.3980 H   0  0  0  0  0
   24.7038   21.4005   22.0412 H   0  0  0  0  0
   23.9245   20.7202   20.6091 H   0  0  0  0  0
   21.2387   21.6004   18.0791 H   0  0  0  0  0
   21.1292   21.1949   15.2232 H   0  0  0  0  0
   19.1544   20.7848   16.4713 H   0  0  0  0  0
   18.8344   22.2699   15.5085 H   0  0  0  0  0
   18.1660   22.4629   17.7081 H   0  0  0  0  0
   20.6596   22.7428   13.5744 H   0  0  0  0  0
   22.3575   24.9897   13.5708 H   0  0  0  0  0
   19.7886   24.7266   12.0024 H   0  0  0  0  0
   21.3665   23.9144   11.5784 H   0  0  0  0  0
   22.3906   26.0900   11.3179 H   0  0  0  0  0
   20.8177   26.8778   11.7056 H   0  0  0  0  0
   21.4333   26.6913    9.2525 H   0  0  0  0  0
   19.8181   26.0432    9.7414 H   0  0  0  0  0
   22.2286   24.3788    9.1485 H   0  0  0  0  0
   18.7405   24.9127    9.2201 H   0  0  0  0  0
   20.0666   21.9207    7.9107 H   0  0  0  0  0
   21.7474   22.3736    8.2119 H   0  0  0  0  0
   18.9231   24.7152   14.3986 H   0  0  0  0  0
   19.1119   27.3973   15.7478 H   0  0  0  0  0
   16.8503   27.8621   15.1337 H   0  0  0  0  0
   16.7363   26.2624   14.2696 H   0  0  0  0  0
   18.4883   29.5608   14.2445 H   0  0  0  0  0
   17.3157   26.1027   12.0176 H   0  0  0  0  0
   19.2747   30.6324   12.1709 H   0  0  0  0  0
   18.0980   27.1779    9.9391 H   0  0  0  0  0
   19.0189   28.9771    9.0409 H   0  0  0  0  0
   17.6376   25.4159   19.4121 H   0  0  0  0  0
   16.0707   26.8958   20.5859 H   0  0  0  0  0
   15.1054   27.1387   19.1876 H   0  0  0  0  0
   17.7687   28.3918   19.8666 H   0  0  0  0  0
   16.3468   29.1560   19.2066 H   0  0  0  0  0
   16.8773   28.5169   16.9972 H   0  0  0  0  0
   18.4723   28.4322   17.6086 H   0  0  0  0  0
   16.4561   23.8396   20.1744 H   0  0  0  0  0
   14.3317   22.7840   18.3413 H   0  0  0  0  0
   16.5528   21.2636   19.7505 H   0  0  0  0  0
   17.0756   20.7600   17.5195 H   0  0  0  0  0
   14.4541   20.0079   19.8094 H   0  0  0  0  0
   14.2562   20.2382   18.0547 H   0  0  0  0  0
   15.6107   19.2646   18.6777 H   0  0  0  0  0
   12.5287   22.0322   19.3761 H   0  0  0  0  0
   12.6961   21.7662   22.3515 H   0  0  0  0  0
   10.2840   22.3994   22.4140 H   0  0  0  0  0
   10.4043   22.8214   20.6726 H   0  0  0  0  0
   10.7110   24.6343   22.0591 H   0  0  0  0  0
   11.9595   19.8715   23.1666 H   0  0  0  0  0
   10.7806   17.8903   21.2957 H   0  0  0  0  0
   10.9144   16.3255   23.1636 H   0  0  0  0  0
   10.7080   17.9373   24.9908 H   0  0  0  0  0
   12.3888   18.5215   24.6142 H   0  0  0  0  0
   12.7495   16.5006   21.5455 H   0  0  0  0  0
   13.4991   17.7950   22.5117 H   0  0  0  0  0
   13.3889   16.1435   23.1686 H   0  0  0  0  0
   11.6091   15.7378   25.5082 H   0  0  0  0  0
   13.2547   16.3098   25.1395 H   0  0  0  0  0
   12.3646   16.9904   26.5236 H   0  0  0  0  0
    8.6345   17.4505   21.2636 H   0  0  0  0  0
    6.9508   18.5647   23.4066 H   0  0  0  0  0
    7.5142   16.1675   21.4112 H   0  0  0  0  0
    5.4009   19.6334   21.8071 H   0  0  0  0  0
    5.9603   18.2387   19.8662 H   0  0  0  0  0
    7.5439   19.1434   19.7336 H   0  0  0  0  0
    7.1113   21.0114   22.8796 H   0  0  0  0  0
    8.2615   20.6306   21.5746 H   0  0  0  0  0
    6.8000   21.5853   21.2229 H   0  0  0  0  0
    4.7708   20.3049   19.4276 H   0  0  0  0  0
    6.3129   21.1860   19.2984 H   0  0  0  0  0
    5.9021   19.9304   18.1043 H   0  0  0  0  0
  1  2  1  0  0  0
  2  3  1  0  0  0
  2  5  1  0  0  0
  3  4  2  0  0  0
  3  9  1  0  0  0
  5  6  1  0  0  0
  6  7  2  0  0  0
  6  8  1  0  0  0
  9 10  1  0  0  0
 10 11  1  0  0  0
 10 13  1  0  0  0
 11 12  2  0  0  0
 11 15  1  0  0  0
 13 14  1  0  0  0
 15 16  1  0  0  0
 16 17  1  0  0  0
 16 19  1  0  0  0
 17 18  2  0  0  0
 17 26  1  0  0  0
 19 20  1  0  0  0
 20 21  1  0  0  0
 21 22  1  0  0  0
 22 23  1  0  0  0
 23 24  2  0  0  0
 23 25  1  0  0  0
 26 27  1  0  0  0
 27 28  1  0  0  0
 27 30  1  0  0  0
 28 29  2  0  0  0
 28 38  1  0  0  0
 30 31  1  0  0  0
 31 32  4  0  0  0
 31 33  4  0  0  0
 32 34  4  0  0  0
 33 35  4  0  0  0
 34 36  4  0  0  0
 35 36  4  0  0  0
 36 37  1  0  0  0
 38 39  1  0  0  0
 38 44  1  0  0  0
 39 40  1  0  0  0
 39 42  1  0  0  0
 40 41  2  0  0  0
 40 45  1  0  0  0
 42 43  1  0  0  0
 43 44  1  0  0  0
 45 46  1  0  0  0
 46 47  1  0  0  0
 46 49  1  0  0  0
 47 48  2  0  0  0
 47 52  1  0  0  0
 49 50  1  0  0  0
 49 51  1  0  0  0
 52 53  1  0  0  0
 53 54  1  0  0  0
 53 56  1  0  0  0
 54 55  2  0  0  0
 54 58  1  0  0  0
 56 57  1  0  0  0
 58 59  1  0  0  0
 59 60  1  0  0  0
 59 62  1  0  0  0
 60 61  2  0  0  0
 60 66  1  0  0  0
 62 63  1  0  0  0
 62 64  1  0  0  0
 63 65  1  0  0  0
 66 67  1  0  0  0
 67 68  1  0  0  0
 67 70  1  0  0  0
 68 69  1  0  0  0
 68 74  2  0  0  0
 70 71  1  0  0  0
 70 72  1  0  0  0
 71 73  1  0  0  0
  1 75  1  0  0  0
  1 76  1  0  0  0
  1 77  1  0  0  0
  2 78  1  0  0  0
  5 79  1  0  0  0
  5 80  1  0  0  0
  8 81  1  0  0  0
  8 82  1  0  0  0
  9 83  1  0  0  0
 10 84  1  0  0  0
 13 85  1  0  0  0
 13 86  1  0  0  0
 14 87  1  0  0  0
 15 88  1  0  0  0
 16 89  1  0  0  0
 19 90  1  0  0  0
 19 91  1  0  0  0
 20 92  1  0  0  0
 20 93  1  0  0  0
 21 94  1  0  0  0
 21 95  1  0  0  0
 22 96  1  0  0  0
 24 97  1  0  0  0
 25 98  1  0  0  0
 25 99  1  0  0  0
 26100  1  0  0  0
 27101  1  0  0  0
 30102  1  0  0  0
 30103  1  0  0  0
 32104  1  0  0  0
 33105  1  0  0  0
 34106  1  0  0  0
 35107  1  0  0  0
 37108  1  0  0  0
 39109  1  0  0  0
 42110  1  0  0  0
 42111  1  0  0  0
 43112  1  0  0  0
 43113  1  0  0  0
 44114  1  0  0  0
 44115  1  0  0  0
 45116  1  0  0  0
 46117  1  0  0  0
 49118  1  0  0  0
 50119  1  0  0  0
 51120  1  0  0  0
 51121  1  0  0  0
 51122  1  0  0  0
 52123  1  0  0  0
 53124  1  0  0  0
 56125  1  0  0  0
 56126  1  0  0  0
 57127  1  0  0  0
 58128  1  0  0  0
 59129  1  0  0  0
 62130  1  0  0  0
 63131  1  0  0  0
 63132  1  0  0  0
 64133  1  0  0  0
 64134  1  0  0  0
 64135  1  0  0  0
 65136  1  0  0  0
 65137  1  0  0  0
 65138  1  0  0  0
 66139  1  0  0  0
 67140  1  0  0  0
 69141  1  0  0  0
 70142  1  0  0  0
 71143  1  0  0  0
 71144  1  0  0  0
 72145  1  0  0  0
 72146  1  0  0  0
 72147  1  0  0  0
 73148  1  0  0  0
 73149  1  0  0  0
 73150  1  0  0  0
M  END
$$$$
