4i0r_ligand
  -I-interpret- 

 48 50  0  0  0  0  0  0  0  0999 V2000
    0.3090   -0.3010   14.6460 C   0  0  0  0  0
    3.6160   -1.2230   16.1340 N   0  0  0  0  0
    2.3220   -1.2460   15.8490 C   0  0  0  0  0
    1.7670   -0.3020   14.9670 C   0  0  0  0  0
    2.5640    0.6280   14.4440 N   0  0  0  0  0
    4.4130   -0.2950   15.6070 C   0  0  0  0  0
    3.8630    0.6600   14.7310 C   0  0  0  0  0
    4.9790    1.5340   14.3210 C   0  0  0  0  0
    6.0920    1.0710   14.9710 C   0  0  0  0  0
    5.7580   -0.0150   15.7200 N   0  0  0  0  0
   -0.5480   -1.2460   15.2280 C   0  0  0  0  0
   -1.9110   -1.2420   14.9510 C   0  0  0  0  0
   -2.4410   -0.2760   14.0760 C   0  0  0  0  0
   -1.5990    0.6890   13.4970 C   0  0  0  0  0
   -0.2300    0.6670   13.7830 C   0  0  0  0  0
   -2.7650   -2.1500   15.5210 O   0  0  0  0  0
   -2.0680   -3.1450   16.2900 C   0  0  0  0  0
   -3.7860   -0.2320   13.8070 O   0  0  0  0  0
   -4.1840   -1.2350   12.8690 C   0  0  0  0  0
   -2.1650    1.6100   12.6470 O   0  0  0  0  0
   -1.2110    2.5530   12.1350 C   0  0  0  0  0
    4.8680    2.7140   13.4470 C   0  0  0  0  0
    3.6280    3.2260   13.2900 N   0  0  0  0  0
    5.8470    3.2280   12.9320 O   0  0  0  0  0
    3.3090    4.4210   12.5080 C   0  0  0  0  0
    2.0450    4.1830   11.6790 C   0  0  0  0  0
    3.0240    5.5300   13.5400 C   0  0  0  0  0
    1.6823   -2.0033   16.3023 H   0  0  0  0  0
    7.0895    1.5046   14.8996 H   0  0  0  0  0
   -0.1401   -1.9945   15.9073 H   0  0  0  0  0
    0.4265    1.4102   13.3305 H   0  0  0  0  0
   -1.3804   -3.6878   15.6414 H   0  0  0  0  0
   -1.5084   -2.6586   17.0890 H   0  0  0  0  0
   -2.7887   -3.8402   16.7205 H   0  0  0  0  0
   -3.6464   -1.0883   11.9322 H   0  0  0  0  0
   -3.9515   -2.2206   13.2723 H   0  0  0  0  0
   -5.2564   -1.1581   12.6899 H   0  0  0  0  0
   -0.7591    3.0973   12.9642 H   0  0  0  0  0
   -0.4364    2.0208   11.5829 H   0  0  0  0  0
   -1.7159    3.2542   11.4706 H   0  0  0  0  0
    2.8564    2.7437   13.7509 H   0  0  0  0  0
    4.1217    4.6800   11.8294 H   0  0  0  0  0
    2.2084    3.3443   11.0023 H   0  0  0  0  0
    1.2123    3.9571   12.3451 H   0  0  0  0  0
    1.8170    5.0787   11.1011 H   0  0  0  0  0
    2.1857    5.2319   14.1696 H   0  0  0  0  0
    3.9079    5.6845   14.1588 H   0  0  0  0  0
    2.7776    6.4550   13.0187 H   0  0  0  0  0
  4  1  1  0  0  0
  1 11  4  0  0  0
  1 15  4  0  0  0
  3  2  4  0  0  0
  2  6  4  0  0  0
  3  4  4  0  0  0
  4  5  4  0  0  0
  5  7  4  0  0  0
  6  7  4  0  0  0
  6 10  4  0  0  0
  7  8  4  0  0  0
  8  9  4  0  0  0
  8 22  1  0  0  0
  9 10  4  0  0  0
 11 12  4  0  0  0
 12 13  4  0  0  0
 12 16  1  0  0  0
 13 14  4  0  0  0
 13 18  1  0  0  0
 14 15  4  0  0  0
 14 20  1  0  0  0
 16 17  1  0  0  0
 18 19  1  0  0  0
 20 21  1  0  0  0
 22 23  1  0  0  0
 22 24  2  0  0  0
 23 25  1  0  0  0
 25 26  1  0  0  0
 25 27  1  0  0  0
  3 28  1  0  0  0
  9 29  1  0  0  0
 11 30  1  0  0  0
 15 31  1  0  0  0
 17 32  1  0  0  0
 17 33  1  0  0  0
 17 34  1  0  0  0
 19 35  1  0  0  0
 19 36  1  0  0  0
 19 37  1  0  0  0
 21 38  1  0  0  0
 21 39  1  0  0  0
 21 40  1  0  0  0
 23 41  1  0  0  0
 25 42  1  0  0  0
 26 43  1  0  0  0
 26 44  1  0  0  0
 26 45  1  0  0  0
 27 46  1  0  0  0
 27 47  1  0  0  0
 27 48  1  0  0  0
M  END
$$$$
