3c10_ligand
  -I-interpret- 

 44 44  0  0  0  0  0  0  0  0999 V2000
   -5.3490   -2.0610    5.8180 O   0  0  0  0  0
   -3.2780   -3.5440    7.3150 O   0  0  0  0  0
   -5.6670   -9.8750   10.5180 O   0  0  0  0  0
   -4.7210   -1.9000    7.0540 N   0  0  0  0  0
   -1.2240  -10.2840   15.1360 N   0  0  0  0  0
   -4.3220   -9.3450   12.3980 C   0  0  0  0  0
   -3.5250  -10.4880   12.2250 C   0  0  0  0  0
   -2.5020  -10.7850   13.1300 C   0  0  0  0  0
   -2.2610   -9.9570   14.2350 C   0  0  0  0  0
   -3.0560   -8.8130   14.4220 C   0  0  0  0  0
   -4.0780   -8.5090   13.5040 C   0  0  0  0  0
   -5.4110   -9.0540   11.3890 C   0  0  0  0  0
   -6.1870   -7.7610   11.3830 C   0  0  0  0  0
   -5.5510   -6.8700   10.3210 C   0  0  0  0  0
   -5.7630   -5.5500   10.1490 C   0  0  0  0  0
   -5.0270   -4.8780    9.0490 C   0  0  0  0  0
   -5.0670   -3.5590    8.8200 C   0  0  0  0  0
   -4.2970   -2.9910    7.6950 C   0  0  0  0  0
   -7.6670   -8.0550   11.1070 C   0  0  0  0  0
   -6.7210   -4.7880   11.0330 C   0  0  0  0  0
    0.1000   -9.6750   15.0130 C   0  0  0  0  0
   -1.4550  -11.2580   16.1980 C   0  0  0  0  0
   -5.5999   -1.2008    5.4733 H   0  0  0  0  0
   -4.5895   -0.9723    7.4570 H   0  0  0  0  0
   -3.7056  -11.1494   11.3776 H   0  0  0  0  0
   -1.8850  -11.6700   12.9748 H   0  0  0  0  0
   -2.8808   -8.1615   15.2781 H   0  0  0  0  0
   -4.6871   -7.6170   13.6507 H   0  0  0  0  0
   -6.1504   -7.2486   12.3444 H   0  0  0  0  0
   -4.8552   -7.3487    9.6319 H   0  0  0  0  0
   -4.4177   -5.4947    8.3883 H   0  0  0  0  0
   -5.6639   -2.9090    9.4597 H   0  0  0  0  0
   -7.7645   -8.5428   10.1371 H   0  0  0  0  0
   -8.0573   -8.7104   11.8856 H   0  0  0  0  0
   -8.2272   -7.1200   11.1028 H   0  0  0  0  0
   -7.7187   -5.2170   10.9400 H   0  0  0  0  0
   -6.3899   -4.8564   12.0692 H   0  0  0  0  0
   -6.7436   -3.7425   10.7257 H   0  0  0  0  0
    0.5225   -9.9209   14.0388 H   0  0  0  0  0
    0.0112   -8.5929   15.1093 H   0  0  0  0  0
    0.7496  -10.0589   15.7996 H   0  0  0  0  0
   -2.2613  -10.9070   16.8421 H   0  0  0  0  0
   -1.7313  -12.2158   15.7570 H   0  0  0  0  0
   -0.5444  -11.3761   16.7853 H   0  0  0  0  0
  4  1  1  0  0  0
 18  2  2  0  0  0
 12  3  2  0  0  0
 18  4  1  0  0  0
  9  5  1  0  0  0
  5 21  1  0  0  0
  5 22  1  0  0  0
  6  7  4  0  0  0
  6 11  4  0  0  0
 12  6  1  0  0  0
  7  8  4  0  0  0
  8  9  4  0  0  0
 10  9  4  0  0  0
 11 10  4  0  0  0
 13 12  1  0  0  0
 14 13  1  0  0  0
 13 19  1  0  0  0
 15 14  2  0  0  0
 16 15  1  0  0  0
 15 20  1  0  0  0
 17 16  2  0  0  0
 17 18  1  0  0  0
  1 23  1  0  0  0
  4 24  1  0  0  0
  7 25  1  0  0  0
  8 26  1  0  0  0
 10 27  1  0  0  0
 11 28  1  0  0  0
 13 29  1  0  0  0
 14 30  1  0  0  0
 16 31  1  0  0  0
 17 32  1  0  0  0
 19 33  1  0  0  0
 19 34  1  0  0  0
 19 35  1  0  0  0
 20 36  1  0  0  0
 20 37  1  0  0  0
 20 38  1  0  0  0
 21 39  1  0  0  0
 21 40  1  0  0  0
 21 41  1  0  0  0
 22 42  1  0  0  0
 22 43  1  0  0  0
 22 44  1  0  0  0
M  END
$$$$
