### 
### Created by X-TOOL on Mon Sep 10 21:12:58 2018
### 

@<TRIPOS>MOLECULE
2w0s_ligand
   37    38     1     0     0
SMALL
GAST_HUCK


@<TRIPOS>ATOM
      1 O3'         4.2640    4.8280  -49.6280 O.3       1 BVP        -0.3890
      2 C3'         3.0380    4.3700  -50.1830 C.3       1 BVP         0.0889
      3 C2'         2.8530    2.8560  -50.0660 C.3       1 BVP         0.0308
      4 C1'         2.3230    2.7710  -48.6560 C.3       1 BVP         0.1757
      5 O4'         1.2520    3.6990  -48.7120 O.3       1 BVP        -0.3395
      6 C4'         1.8870    4.8730  -49.2890 C.3       1 BVP         0.1156
      7 C5'         0.8850    5.7800  -49.9840 C.3       1 BVP         0.1071
      8 O5'         0.4000    5.1010  -51.1350 O.3       1 BVP        -0.2734
      9 P          -0.3280    5.8950  -52.3250 P.3       1 BVP         0.2008
     10 O1P         0.8210    6.2430  -53.4560 O.co2     1 BVP        -0.5537
     11 O2P        -1.2540    4.7360  -53.0270 O.co2     1 BVP        -0.5537
     12 O3P        -1.0420    7.1150  -51.8810 O.co2     1 BVP        -0.5537
     13 N1          1.9680    1.4050  -48.1350 N.am      1 BVP        -0.1736
     14 C6          2.5510    0.8120  -47.0210 C.2       1 BVP         0.0527
     15 C5          2.1460   -0.4790  -46.6680 C.2       1 BVP         0.0263
     16 C5A         2.6520   -1.0980  -45.5240 C.3       1 BVP        -0.0219
     17 C5B         3.5800   -0.2370  -44.6390 C.3       1 BVP         0.0065
     18 BR          4.2140   -1.1030  -43.1340 Br        1 BVP        -0.0905
     19 C4          1.1260   -1.1310  -47.3640 C.2       1 BVP         0.1933
     20 O4          0.7320   -2.2490  -47.0470 O.2       1 BVP        -0.4079
     21 N3          0.5410   -0.5350  -48.4500 N.am      1 BVP        -0.1859
     22 C2          1.0010    0.7350  -48.8080 C.2       1 BVP         0.3265
     23 O2          0.4790    1.2620  -49.7890 O.2       1 BVP        -0.3843
     24 H1          4.3234    5.7708  -49.7290 H         1 BVP         0.2099
     25 H2          2.9437    4.7095  -51.2250 H         1 BVP         0.0622
     26 H3          3.8056    2.3175  -50.1782 H         1 BVP         0.0344
     27 H4          2.1275    2.4745  -50.7995 H         1 BVP         0.0344
     28 H5          3.0922    3.1590  -47.9721 H         1 BVP         0.0959
     29 H6          2.3313    5.4606  -48.4722 H         1 BVP         0.0649
     30 H7          1.3758    6.7178  -50.2834 H         1 BVP         0.0639
     31 H8          0.0501    6.0040  -49.3037 H         1 BVP         0.0639
     32 H9          3.3043    1.3397  -46.4378 H         1 BVP         0.1011
     33 H10         3.2203   -1.9836  -45.8446 H         1 BVP         0.0340
     34 H11         1.7978   -1.4139  -44.9072 H         1 BVP         0.0340
     35 H12         3.0192    0.6519  -44.3144 H         1 BVP         0.0394
     36 H13         4.4427    0.0751  -45.2459 H         1 BVP         0.0394
     37 H14        -0.1853   -0.9900  -48.9653 H         1 BVP         0.2259
@<TRIPOS>BOND
     1    1    2 1  
     2    2    3 1  
     3    2    6 1  
     4    3    4 1  
     5    4    5 1  
     6    4   13 1  
     7    5    6 1  
     8    6    7 1  
     9    7    8 1  
    10    8    9 1  
    11    9   10 ar 
    12    9   11 ar 
    13    9   12 ar 
    14   13   14 1  
    15   13   22 am 
    16   14   15 2  
    17   15   16 1  
    18   15   19 1  
    19   16   17 1  
    20   17   18 1  
    21   19   20 2  
    22   19   21 am 
    23   21   22 am 
    24   22   23 2  
    25    1   24 1  
    26    2   25 1  
    27    3   26 1  
    28    3   27 1  
    29    4   28 1  
    30    6   29 1  
    31    7   30 1  
    32    7   31 1  
    33   14   32 1  
    34   16   33 1  
    35   16   34 1  
    36   17   35 1  
    37   17   36 1  
    38   21   37 1  
@<TRIPOS>SUBSTRUCTURE
     1 BVP         1

