2w0s_ligand
  -I-interpret- 

 39 40  0  0  0  0  0  0  0  0999 V2000
    4.2640    4.8280  -49.6280 O   0  0  0  0  0
    3.0380    4.3700  -50.1830 C   0  0  0  0  0
    2.8530    2.8560  -50.0660 C   0  0  0  0  0
    2.3230    2.7710  -48.6560 C   0  0  0  0  0
    1.2520    3.6990  -48.7120 O   0  0  0  0  0
    1.8870    4.8730  -49.2890 C   0  0  0  0  0
    0.8850    5.7800  -49.9840 C   0  0  0  0  0
    0.4000    5.1010  -51.1350 O   0  0  0  0  0
   -0.3280    5.8950  -52.3250 P   0  0  0  0  0
    0.8210    6.2430  -53.4560 O   0  0  0  0  0
   -1.2540    4.7360  -53.0270 O   0  0  0  0  0
   -1.0420    7.1150  -51.8810 O   0  0  0  0  0
    1.9680    1.4050  -48.1350 N   0  0  0  0  0
    2.5510    0.8120  -47.0210 C   0  0  0  0  0
    2.1460   -0.4790  -46.6680 C   0  0  0  0  0
    2.6520   -1.0980  -45.5240 C   0  0  0  0  0
    3.5800   -0.2370  -44.6390 C   0  0  0  0  0
    4.2140   -1.1030  -43.1340 Br  0  0  0  0  0
    1.1260   -1.1310  -47.3640 C   0  0  0  0  0
    0.7320   -2.2490  -47.0470 O   0  0  0  0  0
    0.5410   -0.5350  -48.4500 N   0  0  0  0  0
    1.0010    0.7350  -48.8080 C   0  0  0  0  0
    0.4790    1.2620  -49.7890 O   0  0  0  0  0
    4.9938    4.5238  -50.1725 H   0  0  0  0  0
    3.0430    4.7079  -51.2193 H   0  0  0  0  0
    3.7573    2.2744  -50.2453 H   0  0  0  0  0
    2.1998    2.4202  -50.8220 H   0  0  0  0  0
    3.0829    3.0053  -47.9105 H   0  0  0  0  0
    2.3076    5.5190  -48.5184 H   0  0  0  0  0
    1.3627    6.7161  -50.2731 H   0  0  0  0  0
    0.0605    6.0150  -49.3108 H   0  0  0  0  0
    1.2631    5.4331  -53.7211 H   0  0  0  0  0
   -0.6998    3.9929  -53.2766 H   0  0  0  0  0
    3.3050    1.3402  -46.4373 H   0  0  0  0  0
    3.2546   -1.9368  -45.8722 H   0  0  0  0  0
    1.7897   -1.3502  -44.9068 H   0  0  0  0  0
    2.9949    0.6161  -44.2956 H   0  0  0  0  0
    4.4461    0.0281  -45.2453 H   0  0  0  0  0
   -0.1998   -0.9991  -48.9756 H   0  0  0  0  0
  1  2  1  0  0  0
  2  3  1  0  0  0
  2  6  1  0  0  0
  3  4  1  0  0  0
  4  5  1  0  0  0
  4 13  1  0  0  0
  5  6  1  0  0  0
  6  7  1  0  0  0
  7  8  1  0  0  0
  8  9  1  0  0  0
  9 10  1  0  0  0
  9 11  1  0  0  0
  9 12  2  0  0  0
 13 14  1  0  0  0
 13 22  1  0  0  0
 14 15  2  0  0  0
 15 16  1  0  0  0
 15 19  1  0  0  0
 16 17  1  0  0  0
 17 18  1  0  0  0
 19 20  2  0  0  0
 19 21  1  0  0  0
 21 22  1  0  0  0
 22 23  2  0  0  0
  1 24  1  0  0  0
  2 25  1  0  0  0
  3 26  1  0  0  0
  3 27  1  0  0  0
  4 28  1  0  0  0
  6 29  1  0  0  0
  7 30  1  0  0  0
  7 31  1  0  0  0
 10 32  1  0  0  0
 11 33  1  0  0  0
 14 34  1  0  0  0
 16 35  1  0  0  0
 16 36  1  0  0  0
 17 37  1  0  0  0
 17 38  1  0  0  0
 21 39  1  0  0  0
M  END
$$$$
