4ucv_ligand
  -I-interpret- 

 27 28  0  0  0  0  0  0  0  0999 V2000
  112.0490   89.7050   25.0020 O   0  0  0  0  0
  112.3290   90.6750   25.9090 C   0  0  0  0  0
  113.0280   90.3760   27.0610 C   0  0  0  0  0
  113.3390   91.3650   27.9840 C   0  0  0  0  0
  111.9720   92.0220   25.6270 C   0  0  0  0  0
  112.2510   93.0120   26.5700 C   0  0  0  0  0
  112.9240   92.6650   27.7800 C   0  0  0  0  0
  113.2400   93.7200   28.5880 O   0  0  0  0  0
  114.4100   93.6200   29.4030 C   0  0  0  0  0
  111.8550   94.3040   26.3590 N   0  0  0  0  0
  111.1840   94.5780   25.2570 C   0  0  0  0  0
  110.7640   96.0010   25.0460 C   0  0  0  0  0
  110.8650   93.5390   24.3040 C   0  0  0  0  0
  111.2390   92.2910   24.5130 N   0  0  0  0  0
  110.0860   93.8190   23.0550 C   0  0  0  0  0
  111.5611   90.0858   24.2682 H   0  0  0  0  0
  113.3402   89.3487   27.2486 H   0  0  0  0  0
  113.9143   91.1132   28.8749 H   0  0  0  0  0
  114.3103   92.7689   30.0767 H   0  0  0  0  0
  115.2838   93.4808   28.7665 H   0  0  0  0  0
  114.5249   94.5343   29.9852 H   0  0  0  0  0
  110.1174   96.3131   25.8662 H   0  0  0  0  0
  111.6476   96.6385   25.0154 H   0  0  0  0  0
  110.2226   96.0827   24.1035 H   0  0  0  0  0
  109.1061   94.2157   23.3207 H   0  0  0  0  0
  110.6229   94.5491   22.4494 H   0  0  0  0  0
  109.9643   92.8952   22.4895 H   0  0  0  0  0
  1  2  1  0  0  0
  2  3  4  0  0  0
  2  5  4  0  0  0
  3  4  4  0  0  0
  4  7  4  0  0  0
  5  6  4  0  0  0
  5 14  4  0  0  0
  6  7  4  0  0  0
  6 10  4  0  0  0
  7  8  1  0  0  0
  8  9  1  0  0  0
 10 11  4  0  0  0
 11 12  1  0  0  0
 11 13  4  0  0  0
 13 14  4  0  0  0
 13 15  1  0  0  0
  1 16  1  0  0  0
  3 17  1  0  0  0
  4 18  1  0  0  0
  9 19  1  0  0  0
  9 20  1  0  0  0
  9 21  1  0  0  0
 12 22  1  0  0  0
 12 23  1  0  0  0
 12 24  1  0  0  0
 15 25  1  0  0  0
 15 26  1  0  0  0
 15 27  1  0  0  0
M  END
$$$$
