3l3x_ligand
  -I-interpret- 

204204  0  0  0  0  0  0  0  0999 V2000
  -12.1570   30.6390   17.3550 N   0  3  0  0  0
  -11.9290   30.1760   18.7550 C   0  0  0  0  0
  -12.6360   28.8420   19.0180 C   0  0  0  0  0
  -12.1210   28.0010   19.7600 O   0  0  0  0  0
  -12.3980   31.2480   19.7530 C   0  0  0  0  0
  -12.1730   30.8850   21.1910 C   0  0  0  0  0
  -10.9410   30.5070   21.6820 N   0  0  0  0  0
  -13.0230   30.8550   22.2450 C   0  0  0  0  0
  -11.0440   30.2520   22.9750 C   0  0  0  0  0
  -12.2970   30.4550   23.3410 N   0  0  0  0  0
  -13.8070   28.6520   18.4050 N   0  0  0  0  0
  -14.5790   27.4150   18.5650 C   0  0  0  0  0
  -13.8090   26.2070   18.0250 C   0  0  0  0  0
  -13.4670   25.3000   18.7860 O   0  0  0  0  0
  -15.9490   27.5270   17.8730 C   0  0  0  0  0
  -16.7740   26.2330   17.8710 C   0  0  0  0  0
  -18.0010   26.3310   16.9700 C   0  0  0  0  0
  -18.6780   24.9720   16.8240 C   0  0  0  0  0
  -19.9570   25.0400   16.0620 N   0  3  0  0  0
  -13.5430   26.2040   16.7180 N   0  0  0  0  0
  -12.8370   25.0950   16.0640 C   0  0  0  0  0
  -11.4210   24.9060   16.6220 C   0  0  0  0  0
  -10.9460   23.7760   16.7540 O   0  0  0  0  0
  -12.7820   25.3160   14.5430 C   0  0  0  0  0
  -12.1640   24.1580   13.7580 C   0  0  0  0  0
  -12.1040   24.4510   12.2660 C   0  0  0  0  0
  -11.3440   23.3640   11.5200 C   0  0  0  0  0
  -11.1510   23.7040   10.0830 N   0  3  0  0  0
  -10.7560   26.0130   16.9490 N   0  0  0  0  0
   -9.3890   25.9770   17.4800 C   0  0  0  0  0
   -9.3360   25.2840   18.8460 C   0  0  0  0  0
   -8.5190   24.3850   19.0580 O   0  0  0  0  0
   -8.8230   27.4000   17.5750 C   0  0  0  0  0
   -7.3550   27.5820   17.9760 C   0  0  0  0  0
   -6.4120   26.7710   17.0960 C   0  0  0  0  0
   -6.9960   29.0580   17.9270 C   0  0  0  0  0
  -10.2180   25.7010   19.7570 N   0  0  0  0  0
  -10.3200   25.0940   21.0930 C   0  0  0  0  0
  -10.8900   23.6720   21.0330 C   0  0  0  0  0
  -10.5430   22.8270   21.8610 O   0  0  0  0  0
  -11.1840   25.9680   22.0120 C   0  0  0  0  0
  -11.3520   25.5460   23.4780 C   0  0  0  0  0
  -10.0070   25.3830   24.1810 C   0  0  0  0  0
  -12.2200   26.5670   24.2110 C   0  0  0  0  0
  -11.7610   23.4220   20.0540 N   0  0  0  0  0
  -12.3170   22.0850   19.8080 C   0  0  0  0  0
  -11.2190   21.0500   19.5290 C   0  0  0  0  0
  -11.3610   19.8800   19.8940 O   0  0  0  0  0
  -13.3010   22.1280   18.6310 C   0  0  0  0  0
  -14.0700   20.8340   18.3780 C   0  0  0  0  0
  -14.9770   20.9120   17.1590 C   0  0  0  0  0
  -15.8690   20.0770   16.9850 O   0  0  0  0  0
  -14.7540   21.9160   16.3100 N   0  0  0  0  0
  -10.1340   21.4850   18.8840 N   0  0  0  0  0
   -8.9780   20.6190   18.6190 C   0  0  0  0  0
   -8.1960   20.2440   19.8940 C   0  0  0  0  0
   -7.4200   19.2840   19.8770 O   0  0  0  0  0
   -8.0400   21.2730   17.5930 C   0  0  0  0  0
   -8.6050   21.4450   16.1760 C   0  0  0  0  0
   -7.8980   22.5650   15.4230 C   0  0  0  0  0
   -8.5170   20.1320   15.4050 C   0  0  0  0  0
   -8.4010   20.9970   20.9810 N   0  0  0  0  0
   -7.7980   20.6970   22.2930 C   0  0  0  0  0
   -8.7290   19.8920   23.2180 C   0  0  0  0  0
   -8.2730   19.0030   23.9430 O   0  0  0  0  0
   -7.3560   21.9840   23.0060 C   0  0  0  0  0
   -6.0880   22.6670   22.4810 C   0  0  0  0  0
   -6.3840   23.4770   21.2290 C   0  0  0  0  0
   -5.4740   23.5540   23.5530 C   0  0  0  0  0
  -10.0210   20.2160   23.1960 N   0  0  0  0  0
  -11.0140   19.5360   24.0340 C   0  0  0  0  0
  -11.2320   18.0780   23.6170 C   0  0  0  0  0
  -11.4610   17.2170   24.4690 O   0  0  0  0  0
  -12.3750   20.2670   23.9970 C   0  0  0  0  0
  -12.1890   21.6470   24.3330 O   0  0  0  0  0
  -13.3640   19.6360   24.9760 C   0  0  0  0  0
  -11.1650   17.8090   22.3130 N   0  0  0  0  0
  -11.3830   16.4580   21.7900 C   0  0  0  0  0
  -10.2400   15.5180   22.1850 C   0  0  0  0  0
   -9.0890   15.7160   21.7850 O   0  0  0  0  0
  -11.5690   16.4760   20.2640 C   0  0  0  0  0
  -10.1620   17.0980   19.3070 S   0  0  0  0  0
  -10.5760   14.5080   22.9890 N   0  0  0  0  0
   -9.6120   13.5190   23.4800 C   0  0  0  0  0
   -8.4530   14.1850   24.2360 C   0  0  0  0  0
   -7.2790   13.9790   23.9150 O   0  0  0  0  0
   -9.0950   12.6500   22.3240 C   0  0  0  0  0
  -10.1650   12.1500   21.5380 O   0  0  0  0  0
   -8.8010   14.9850   25.2410 N   0  0  0  0  0
   -7.8130   15.7010   26.0450 C   0  0  0  0  0
   -7.0200   14.7400   26.9260 C   0  0  0  0  0
   -5.9320   15.0750   27.4010 O   0  0  0  0  0
   -8.4980   16.7530   26.9190 C   0  0  0  0  0
   -9.2040   17.6890   26.1260 O   0  0  0  0  0
   -7.4550   13.6130   27.1770 O   0  0  0  0  0
  -11.8418   29.9193   16.7046 H   0  0  0  0  0
  -13.1519   30.8144   17.2139 H   0  0  0  0  0
  -11.6326   31.4987   17.1928 H   0  0  0  0  0
  -10.8594   30.0167   18.8920 H   0  0  0  0  0
  -13.4724   31.3695   19.6150 H   0  0  0  0  0
  -11.8195   32.1500   19.5534 H   0  0  0  0  0
  -14.0845   31.1020   22.2272 H   0  0  0  0  0
  -10.2331   29.9292   23.6280 H   0  0  0  0  0
  -14.1765   29.3906   17.8064 H   0  0  0  0  0
  -14.7418   27.2663   19.6325 H   0  0  0  0  0
  -15.7581   27.7832   16.8309 H   0  0  0  0  0
  -16.5243   28.2692   18.4264 H   0  0  0  0  0
  -17.1158   26.0480   18.8893 H   0  0  0  0  0
  -16.1414   25.4289   17.4950 H   0  0  0  0  0
  -17.6860   26.6737   15.9844 H   0  0  0  0  0
  -18.7089   27.0295   17.4161 H   0  0  0  0  0
  -18.9057   24.6043   17.8245 H   0  0  0  0  0
  -17.9986   24.3188   16.2764 H   0  0  0  0  0
  -20.3625   24.1063   15.9966 H   0  0  0  0  0
  -20.6064   25.6610   16.5448 H   0  0  0  0  0
  -19.7744   25.3991   15.1249 H   0  0  0  0  0
  -13.8403   26.9996   16.1532 H   0  0  0  0  0
  -13.3982   24.1847   16.2749 H   0  0  0  0  0
  -12.1551   26.1906   14.3694 H   0  0  0  0  0
  -13.8104   25.4233   14.1981 H   0  0  0  0  0
  -12.7843   23.2744   13.9078 H   0  0  0  0  0
  -11.1462   24.0065   14.1175 H   0  0  0  0  0
  -11.5873   25.3994   12.1189 H   0  0  0  0  0
  -13.1221   24.4911   11.8788 H   0  0  0  0  0
  -11.9233   22.4425   11.5773 H   0  0  0  0  0
  -10.3615   23.2581   11.9801 H   0  0  0  0  0
  -10.6392   22.9514    9.6225 H   0  0  0  0  0
  -12.0610   23.8204    9.6372 H   0  0  0  0  0
  -10.6210   24.5723   10.0085 H   0  0  0  0  0
  -11.2130   26.9166   16.8260 H   0  0  0  0  0
   -8.7745   25.3958   16.7925 H   0  0  0  0  0
   -9.3954   27.8805   18.3685 H   0  0  0  0  0
   -8.8926   27.8010   16.5638 H   0  0  0  0  0
   -7.2352   27.2084   18.9929 H   0  0  0  0  0
   -6.6578   25.7125   17.1813 H   0  0  0  0  0
   -6.5218   27.0884   16.0590 H   0  0  0  0  0
   -5.3842   26.9340   17.4203 H   0  0  0  0  0
   -7.1462   29.4337   16.9149 H   0  0  0  0  0
   -7.6333   29.6088   18.6188 H   0  0  0  0  0
   -5.9519   29.1863   18.2123 H   0  0  0  0  0
  -10.8447   26.4694   19.5178 H   0  0  0  0  0
   -9.3106   25.0302   21.4995 H   0  0  0  0  0
  -12.1865   25.9249   21.5863 H   0  0  0  0  0
  -10.6758   26.9316   22.0492 H   0  0  0  0  0
  -11.8432   24.5731   23.4952 H   0  0  0  0  0
   -9.4217   24.6186   23.6700 H   0  0  0  0  0
   -9.4689   26.3307   24.1574 H   0  0  0  0  0
  -10.1733   25.0838   25.2159 H   0  0  0  0  0
  -11.7419   27.5456   24.1684 H   0  0  0  0  0
  -13.1990   26.6184   23.7345 H   0  0  0  0  0
  -12.3363   26.2630   25.2513 H   0  0  0  0  0
  -12.0530   24.1913   19.4512 H   0  0  0  0  0
  -12.8418   21.7793   20.7131 H   0  0  0  0  0
  -12.7095   22.3203   17.7359 H   0  0  0  0  0
  -14.0422   22.8903   18.8709 H   0  0  0  0  0
  -14.6982   20.6448   19.2484 H   0  0  0  0  0
  -13.3411   20.0433   18.2002 H   0  0  0  0  0
  -15.3327   22.0168   15.4761 H   0  0  0  0  0
  -14.0048   22.5831   16.4946 H   0  0  0  0  0
  -10.1071   22.4531   18.5640 H   0  0  0  0  0
   -9.3756   19.6899   18.2106 H   0  0  0  0  0
   -7.1792   20.6108   17.5004 H   0  0  0  0  0
   -7.8341   22.2771   17.9638 H   0  0  0  0  0
   -9.6544   21.7255   16.2665 H   0  0  0  0  0
   -8.0289   23.5029   15.9627 H   0  0  0  0  0
   -6.8355   22.3344   15.3450 H   0  0  0  0  0
   -8.3256   22.6561   14.4245 H   0  0  0  0  0
   -7.4744   19.8214   15.3367 H   0  0  0  0  0
   -9.0920   19.3667   15.9264 H   0  0  0  0  0
   -8.9220   20.2728   14.4029 H   0  0  0  0  0
   -9.0024   21.8167   20.8983 H   0  0  0  0  0
   -6.9276   20.0755   22.0828 H   0  0  0  0  0
   -7.1358   21.6953   24.0338 H   0  0  0  0  0
   -8.1642   22.7002   22.8574 H   0  0  0  0  0
   -5.3705   21.8887   22.2212 H   0  0  0  0  0
   -6.7725   22.8164   20.4538 H   0  0  0  0  0
   -7.1243   24.2430   21.4600 H   0  0  0  0  0
   -5.4667   23.9503   20.8787 H   0  0  0  0  0
   -6.1929   24.3196   23.8449 H   0  0  0  0  0
   -5.2152   22.9471   24.4206 H   0  0  0  0  0
   -4.5754   24.0288   23.1591 H   0  0  0  0  0
  -10.3304   20.9633   22.5745 H   0  0  0  0  0
  -10.6104   19.5534   25.0464 H   0  0  0  0  0
  -12.7820   20.1803   22.9896 H   0  0  0  0  0
  -13.0361   22.0980   24.3091 H   0  0  0  0  0
  -13.5211   18.5910   24.7089 H   0  0  0  0  0
  -12.9616   19.6973   25.9871 H   0  0  0  0  0
  -14.3124   20.1711   24.9279 H   0  0  0  0  0
  -10.9561   18.5651   21.6611 H   0  0  0  0  0
  -12.3012   16.0782   22.2380 H   0  0  0  0  0
  -12.4011   17.1507   20.0628 H   0  0  0  0  0
  -11.7153   15.4398   19.9590 H   0  0  0  0  0
  -10.4572   17.0583   18.0108 H   0  0  0  0  0
  -11.5508   14.4197   23.2760 H   0  0  0  0  0
  -10.1287   12.8725   24.1894 H   0  0  0  0  0
   -8.5470   11.8057   22.7422 H   0  0  0  0  0
   -8.4540   13.2618   21.6892 H   0  0  0  0  0
   -9.8128   11.6120   20.8252 H   0  0  0  0  0
   -9.7909   15.1023   25.4574 H   0  0  0  0  0
   -7.1225   16.1946   25.3611 H   0  0  0  0  0
   -7.7361   17.2829   27.4906 H   0  0  0  0  0
   -9.2044   16.2519   27.5809 H   0  0  0  0  0
   -9.6241   18.3372   26.6960 H   0  0  0  0  0
   -8.3032   13.4947   26.7433 H   0  0  0  0  0
  1  2  1  0  0  0
  2  3  1  0  0  0
  2  5  1  0  0  0
  3  4  2  0  0  0
  3 11  1  0  0  0
  5  6  1  0  0  0
  6  7  4  0  0  0
  6  8  4  0  0  0
  7  9  4  0  0  0
  8 10  4  0  0  0
  9 10  4  0  0  0
 11 12  1  0  0  0
 12 13  1  0  0  0
 12 15  1  0  0  0
 13 14  2  0  0  0
 13 20  1  0  0  0
 15 16  1  0  0  0
 16 17  1  0  0  0
 17 18  1  0  0  0
 18 19  1  0  0  0
 20 21  1  0  0  0
 21 22  1  0  0  0
 21 24  1  0  0  0
 22 23  2  0  0  0
 22 29  1  0  0  0
 24 25  1  0  0  0
 25 26  1  0  0  0
 26 27  1  0  0  0
 27 28  1  0  0  0
 29 30  1  0  0  0
 30 31  1  0  0  0
 30 33  1  0  0  0
 31 32  2  0  0  0
 31 37  1  0  0  0
 33 34  1  0  0  0
 34 35  1  0  0  0
 34 36  1  0  0  0
 37 38  1  0  0  0
 38 39  1  0  0  0
 38 41  1  0  0  0
 39 40  2  0  0  0
 39 45  1  0  0  0
 41 42  1  0  0  0
 42 43  1  0  0  0
 42 44  1  0  0  0
 45 46  1  0  0  0
 46 47  1  0  0  0
 46 49  1  0  0  0
 47 48  2  0  0  0
 47 54  1  0  0  0
 49 50  1  0  0  0
 50 51  1  0  0  0
 51 52  2  0  0  0
 51 53  1  0  0  0
 54 55  1  0  0  0
 55 56  1  0  0  0
 55 58  1  0  0  0
 56 57  2  0  0  0
 56 62  1  0  0  0
 58 59  1  0  0  0
 59 60  1  0  0  0
 59 61  1  0  0  0
 62 63  1  0  0  0
 63 64  1  0  0  0
 63 66  1  0  0  0
 64 65  2  0  0  0
 64 70  1  0  0  0
 66 67  1  0  0  0
 67 68  1  0  0  0
 67 69  1  0  0  0
 70 71  1  0  0  0
 71 72  1  0  0  0
 71 74  1  0  0  0
 72 73  2  0  0  0
 72 77  1  0  0  0
 74 75  1  0  0  0
 74 76  1  0  0  0
 77 78  1  0  0  0
 78 79  1  0  0  0
 78 81  1  0  0  0
 79 80  2  0  0  0
 79 83  1  0  0  0
 81 82  1  0  0  0
 83 84  1  0  0  0
 84 85  1  0  0  0
 84 87  1  0  0  0
 85 86  2  0  0  0
 85 89  1  0  0  0
 87 88  1  0  0  0
 89 90  1  0  0  0
 90 91  1  0  0  0
 90 93  1  0  0  0
 91 92  2  0  0  0
 91 95  1  0  0  0
 93 94  1  0  0  0
  1 96  1  0  0  0
  1 97  1  0  0  0
  1 98  1  0  0  0
  2 99  1  0  0  0
  5100  1  0  0  0
  5101  1  0  0  0
  8102  1  0  0  0
  9103  1  0  0  0
 11104  1  0  0  0
 12105  1  0  0  0
 15106  1  0  0  0
 15107  1  0  0  0
 16108  1  0  0  0
 16109  1  0  0  0
 17110  1  0  0  0
 17111  1  0  0  0
 18112  1  0  0  0
 18113  1  0  0  0
 19114  1  0  0  0
 19115  1  0  0  0
 19116  1  0  0  0
 20117  1  0  0  0
 21118  1  0  0  0
 24119  1  0  0  0
 24120  1  0  0  0
 25121  1  0  0  0
 25122  1  0  0  0
 26123  1  0  0  0
 26124  1  0  0  0
 27125  1  0  0  0
 27126  1  0  0  0
 28127  1  0  0  0
 28128  1  0  0  0
 28129  1  0  0  0
 29130  1  0  0  0
 30131  1  0  0  0
 33132  1  0  0  0
 33133  1  0  0  0
 34134  1  0  0  0
 35135  1  0  0  0
 35136  1  0  0  0
 35137  1  0  0  0
 36138  1  0  0  0
 36139  1  0  0  0
 36140  1  0  0  0
 37141  1  0  0  0
 38142  1  0  0  0
 41143  1  0  0  0
 41144  1  0  0  0
 42145  1  0  0  0
 43146  1  0  0  0
 43147  1  0  0  0
 43148  1  0  0  0
 44149  1  0  0  0
 44150  1  0  0  0
 44151  1  0  0  0
 45152  1  0  0  0
 46153  1  0  0  0
 49154  1  0  0  0
 49155  1  0  0  0
 50156  1  0  0  0
 50157  1  0  0  0
 53158  1  0  0  0
 53159  1  0  0  0
 54160  1  0  0  0
 55161  1  0  0  0
 58162  1  0  0  0
 58163  1  0  0  0
 59164  1  0  0  0
 60165  1  0  0  0
 60166  1  0  0  0
 60167  1  0  0  0
 61168  1  0  0  0
 61169  1  0  0  0
 61170  1  0  0  0
 62171  1  0  0  0
 63172  1  0  0  0
 66173  1  0  0  0
 66174  1  0  0  0
 67175  1  0  0  0
 68176  1  0  0  0
 68177  1  0  0  0
 68178  1  0  0  0
 69179  1  0  0  0
 69180  1  0  0  0
 69181  1  0  0  0
 70182  1  0  0  0
 71183  1  0  0  0
 74184  1  0  0  0
 75185  1  0  0  0
 76186  1  0  0  0
 76187  1  0  0  0
 76188  1  0  0  0
 77189  1  0  0  0
 78190  1  0  0  0
 81191  1  0  0  0
 81192  1  0  0  0
 82193  1  0  0  0
 83194  1  0  0  0
 84195  1  0  0  0
 87196  1  0  0  0
 87197  1  0  0  0
 88198  1  0  0  0
 89199  1  0  0  0
 90200  1  0  0  0
 93201  1  0  0  0
 93202  1  0  0  0
 94203  1  0  0  0
 95204  1  0  0  0
M  END
$$$$
