### 
### Created by X-TOOL on Mon Sep 10 21:13:02 2018
### 

@<TRIPOS>MOLECULE
3l3x_ligand
  204   204     1     0     0
SMALL
GAST_HUCK


@<TRIPOS>ATOM
      1 N         -12.1570   30.6390   17.3550 N.4       1 HIS         0.2390
      2 CA        -11.9290   30.1760   18.7550 C.3       1 HIS         0.0708
      3 C         -12.6360   28.8420   19.0180 C.2       1 HIS         0.2282
      4 O         -12.1210   28.0010   19.7600 O.2       1 HIS        -0.3906
      5 CB        -12.3980   31.2480   19.7530 C.3       1 HIS         0.0347
      6 CG        -12.1730   30.8850   21.1910 C.2       1 HIS         0.0005
      7 ND1       -10.9410   30.5070   21.6820 N.2       1 HIS        -0.3251
      8 CD2       -13.0230   30.8550   22.2450 C.2       1 HIS         0.0293
      9 CE1       -11.0440   30.2520   22.9750 C.2       1 HIS         0.0907
     10 NE2       -12.2970   30.4550   23.3410 N.pl3     1 HIS        -0.2752
     11 N         -13.8070   28.6520   18.4050 N.am      1 LYS        -0.2609
     12 CA        -14.5790   27.4150   18.5650 C.3       1 LYS         0.1311
     13 C         -13.8090   26.2070   18.0250 C.2       1 LYS         0.2039
     14 O         -13.4670   25.3000   18.7860 O.2       1 LYS        -0.3944
     15 CB        -15.9490   27.5270   17.8730 C.3       1 LYS        -0.0122
     16 CG        -16.7740   26.2330   17.8710 C.3       1 LYS        -0.0440
     17 CD        -18.0010   26.3310   16.9700 C.3       1 LYS        -0.0124
     18 CE        -18.6780   24.9720   16.8240 C.3       1 LYS        -0.0354
     19 NZ        -19.9570   25.0400   16.0620 N.4       1 LYS         0.2185
     20 N         -13.5430   26.2040   16.7180 N.am      1 LYS        -0.2637
     21 CA        -12.8370   25.0950   16.0640 C.3       1 LYS         0.1310
     22 C         -11.4210   24.9060   16.6220 C.2       1 LYS         0.2039
     23 O         -10.9460   23.7760   16.7540 O.2       1 LYS        -0.3944
     24 CB        -12.7820   25.3160   14.5430 C.3       1 LYS        -0.0122
     25 CG        -12.1640   24.1580   13.7580 C.3       1 LYS        -0.0440
     26 CD        -12.1040   24.4510   12.2660 C.3       1 LYS        -0.0124
     27 CE        -11.3440   23.3640   11.5200 C.3       1 LYS        -0.0354
     28 NZ        -11.1510   23.7040   10.0830 N.4       1 LYS         0.2185
     29 N         -10.7560   26.0130   16.9490 N.am      1 LEU        -0.2637
     30 CA         -9.3890   25.9770   17.4800 C.3       1 LEU         0.1312
     31 C          -9.3360   25.2840   18.8460 C.2       1 LEU         0.2039
     32 O          -8.5190   24.3850   19.0580 O.2       1 LEU        -0.3944
     33 CB         -8.8230   27.4000   17.5750 C.3       1 LEU        -0.0101
     34 CG         -7.3550   27.5820   17.9760 C.3       1 LEU        -0.0425
     35 CD1        -6.4120   26.7710   17.0960 C.3       1 LEU        -0.0625
     36 CD2        -6.9960   29.0580   17.9270 C.3       1 LEU        -0.0625
     37 N         -10.2180   25.7010   19.7570 N.am      1 LEU        -0.2637
     38 CA        -10.3200   25.0940   21.0930 C.3       1 LEU         0.1312
     39 C         -10.8900   23.6720   21.0330 C.2       1 LEU         0.2039
     40 O         -10.5430   22.8270   21.8610 O.2       1 LEU        -0.3944
     41 CB        -11.1840   25.9680   22.0120 C.3       1 LEU        -0.0101
     42 CG        -11.3520   25.5460   23.4780 C.3       1 LEU        -0.0425
     43 CD1       -10.0070   25.3830   24.1810 C.3       1 LEU        -0.0625
     44 CD2       -12.2200   26.5670   24.2110 C.3       1 LEU        -0.0625
     45 N         -11.7610   23.4220   20.0540 N.am      1 GLN        -0.2636
     46 CA        -12.3170   22.0850   19.8080 C.3       1 GLN         0.1330
     47 C         -11.2190   21.0500   19.5290 C.2       1 GLN         0.2040
     48 O         -11.3610   19.8800   19.8940 O.2       1 GLN        -0.3944
     49 CB        -13.3010   22.1280   18.6310 C.3       1 GLN         0.0045
     50 CG        -14.0700   20.8340   18.3780 C.3       1 GLN         0.0412
     51 CD        -14.9770   20.9120   17.1590 C.2       1 GLN         0.1737
     52 OE1       -15.8690   20.0770   16.9850 O.2       1 GLN        -0.3973
     53 NE2       -14.7540   21.9160   16.3100 N.am      1 GLN        -0.3009
     54 N         -10.1340   21.4850   18.8840 N.am      1 LEU        -0.2637
     55 CA         -8.9780   20.6190   18.6190 C.3       1 LEU         0.1312
     56 C          -8.1960   20.2440   19.8940 C.2       1 LEU         0.2039
     57 O          -7.4200   19.2840   19.8770 O.2       1 LEU        -0.3944
     58 CB         -8.0400   21.2730   17.5930 C.3       1 LEU        -0.0101
     59 CG         -8.6050   21.4450   16.1760 C.3       1 LEU        -0.0425
     60 CD1        -7.8980   22.5650   15.4230 C.3       1 LEU        -0.0625
     61 CD2        -8.5170   20.1320   15.4050 C.3       1 LEU        -0.0625
     62 N          -8.4010   20.9970   20.9810 N.am      1 LEU        -0.2637
     63 CA         -7.7980   20.6970   22.2930 C.3       1 LEU         0.1312
     64 C          -8.7290   19.8920   23.2180 C.2       1 LEU         0.2040
     65 O          -8.2730   19.0030   23.9430 O.2       1 LEU        -0.3944
     66 CB         -7.3560   21.9840   23.0060 C.3       1 LEU        -0.0101
     67 CG         -6.0880   22.6670   22.4810 C.3       1 LEU        -0.0425
     68 CD1        -6.3840   23.4770   21.2290 C.3       1 LEU        -0.0625
     69 CD2        -5.4740   23.5540   23.5530 C.3       1 LEU        -0.0625
     70 N         -10.0210   20.2160   23.1960 N.am      1 THR        -0.2613
     71 CA        -11.0140   19.5360   24.0340 C.3       1 THR         0.1565
     72 C         -11.2320   18.0780   23.6170 C.2       1 THR         0.2065
     73 O         -11.4610   17.2170   24.4690 O.2       1 THR        -0.3943
     74 CB        -12.3750   20.2670   23.9970 C.3       1 THR         0.0924
     75 OG1       -12.1890   21.6470   24.3330 O.3       1 THR        -0.3874
     76 CG2       -13.3640   19.6360   24.9760 C.3       1 THR        -0.0346
     77 N         -11.1650   17.8090   22.3130 N.am      1 CYS        -0.2628
     78 CA        -11.3830   16.4580   21.7900 C.3       1 CYS         0.1396
     79 C         -10.2400   15.5180   22.1850 C.2       1 CYS         0.2048
     80 O          -9.0890   15.7160   21.7850 O.2       1 CYS        -0.3944
     81 CB        -11.5690   16.4760   20.2640 C.3       1 CYS         0.0311
     82 SG        -10.1620   17.0980   19.3070 S.3       1 CYS        -0.1735
     83 N         -10.5760   14.5080   22.9890 N.am      1 SER        -0.2615
     84 CA         -9.6120   13.5190   23.4800 C.3       1 SER         0.1539
     85 C          -8.4530   14.1850   24.2360 C.2       1 SER         0.2057
     86 O          -7.2790   13.9790   23.9150 O.2       1 SER        -0.3943
     87 CB         -9.0950   12.6500   22.3240 C.3       1 SER         0.0843
     88 OG        -10.1650   12.1500   21.5380 O.3       1 SER        -0.3903
     89 N          -8.8010   14.9850   25.2410 N.am      1 SER        -0.2672
     90 CA         -7.8130   15.7010   26.0450 C.3       1 SER         0.1173
     91 C          -7.0200   14.7400   26.9260 C.2       1 SER         0.0623
     92 O          -5.9320   15.0750   27.4010 O.co2     1 SER        -0.5665
     93 CB         -8.4980   16.7530   26.9190 C.3       1 SER         0.0789
     94 OG         -9.2040   17.6890   26.1260 O.3       1 SER        -0.3910
     95 OXT        -7.4550   13.6130   27.1770 O.co2     1 SER        -0.5665
     96 H1        -11.6821   31.5162   17.2097 H         1 HIS         0.2016
     97 H2        -13.1451   30.7620   17.1985 H         1 HIS         0.2016
     98 H3        -11.7977   29.9518   16.7111 H         1 HIS         0.2016
     99 H4        -10.8486   30.0236   18.8949 H         1 HIS         0.1116
    100 H5        -13.4752   31.4126   19.6026 H         1 HIS         0.0453
    101 H6        -11.8518   32.1792   19.5421 H         1 HIS         0.0453
    102 H7        -14.0835   31.1017   22.2272 H         1 HIS         0.0729
    103 H8        -10.2339   29.9295   23.6274 H         1 HIS         0.1199
    104 H9        -12.6694   30.3332   24.2936 H         1 HIS         0.2361
    105 H10       -14.1692   29.3761   17.8181 H         1 LYS         0.1885
    106 H11       -14.7500   27.2585   19.6403 H         1 LYS         0.0800
    107 H12       -15.7817   27.8282   16.8284 H         1 LYS         0.0312
    108 H13       -16.5315   28.3039   18.3899 H         1 LYS         0.0312
    109 H14       -17.1055   26.0230   18.8986 H         1 LYS         0.0269
    110 H15       -16.1386   25.4087   17.5150 H         1 LYS         0.0269
    111 H16       -17.6910   26.6876   15.9767 H         1 LYS         0.0317
    112 H17       -18.7146   27.0436   17.4093 H         1 LYS         0.0317
    113 H18       -18.8884   24.5750   17.8280 H         1 LYS         0.0813
    114 H19       -17.9915   24.2927   16.2975 H         1 LYS         0.0813
    115 H20       -20.3587   24.1178   15.9968 H         1 LYS         0.1994
    116 H21       -19.7778   25.3947   15.1356 H         1 LYS         0.1994
    117 H22       -20.5996   25.6534   16.5382 H         1 LYS         0.1994
    118 H23       -13.8345   26.9840   16.1643 H         1 LYS         0.1883
    119 H24       -13.4037   24.1724   16.2579 H         1 LYS         0.0800
    120 H25       -12.1866   26.2201   14.3481 H         1 LYS         0.0312
    121 H26       -13.8092   25.4681   14.1801 H         1 LYS         0.0312
    122 H27       -12.7716   23.2552   13.9188 H         1 LYS         0.0269
    123 H28       -11.1427   23.9832   14.1272 H         1 LYS         0.0269
    124 H29       -11.5967   25.4145   12.1100 H         1 LYS         0.0317
    125 H30       -13.1288   24.5078   11.8703 H         1 LYS         0.0317
    126 H31       -11.9101   22.4234   11.5894 H         1 LYS         0.0813
    127 H32       -10.3578   23.2340   11.9897 H         1 LYS         0.0813
    128 H33       -10.6453   22.9608    9.6269 H         1 LYS         0.1994
    129 H34       -10.6273   24.5620   10.0081 H         1 LYS         0.1994
    130 H35       -12.0497   23.8192    9.6413 H         1 LYS         0.1994
    131 H36       -11.2040   26.8989   16.8284 H         1 LEU         0.1883
    132 H37        -8.7643   25.4017   16.7809 H         1 LEU         0.0800
    133 H38        -9.4304   27.9415   18.3151 H         1 LEU         0.0315
    134 H39        -8.9488   27.8653   16.5863 H         1 LEU         0.0315
    135 H40        -7.2373   27.2298   19.0114 H         1 LEU         0.0298
    136 H41        -5.3743   26.9346   17.4223 H         1 LEU         0.0232
    137 H42        -6.5218   27.0904   16.0491 H         1 LEU         0.0232
    138 H43        -6.6589   25.7025   17.1812 H         1 LEU         0.0232
    139 H44        -7.6874   29.6250   18.5678 H         1 LEU         0.0232
    140 H45        -7.0752   29.4205   16.8915 H         1 LEU         0.0232
    141 H46        -5.9657   29.1969   18.2864 H         1 LEU         0.0232
    142 H47       -10.8325   26.4543   19.5225 H         1 LEU         0.1883
    143 H48        -9.3075   25.0380   21.5192 H         1 LEU         0.0800
    144 H49       -12.1899   26.0098   21.5688 H         1 LEU         0.0315
    145 H50       -10.7414   26.9750   22.0127 H         1 LEU         0.0315
    146 H51       -11.8662   24.5738   23.4984 H         1 LEU         0.0298
    147 H52       -10.1735   25.0810   25.2256 H         1 LEU         0.0232
    148 H53        -9.4630   26.3388   24.1579 H         1 LEU         0.0232
    149 H54        -9.4153   24.6117   23.6663 H         1 LEU         0.0232
    150 H55       -13.1834   26.6704   23.6902 H         1 LEU         0.0232
    151 H56       -11.7065   27.5396   24.2285 H         1 LEU         0.0232
    152 H57       -12.3954   26.2263   25.2421 H         1 LEU         0.0232
    153 H58       -12.0473   24.1762   19.4631 H         1 GLN         0.1883
    154 H59       -12.8637   21.7711   20.7094 H         1 GLN         0.0801
    155 H60       -12.7323   22.3691   17.7208 H         1 GLN         0.0337
    156 H61       -14.0326   22.9254   18.8283 H         1 GLN         0.0337
    157 H62       -14.6877   20.6145   19.2613 H         1 GLN         0.0504
    158 H63       -13.3462   20.0199   18.2252 H         1 GLN         0.0504
    159 H64       -15.3210   22.0145   15.4922 H         1 GLN         0.1814
    160 H65       -14.0198   22.5703   16.4912 H         1 GLN         0.1814
    161 H66       -10.1076   22.4341   18.5702 H         1 LEU         0.1883
    162 H67        -9.3608   19.6853   18.1812 H         1 LEU         0.0800
    163 H68        -7.1350   20.6519   17.5210 H         1 LEU         0.0315
    164 H69        -7.7711   22.2704   17.9711 H         1 LEU         0.0315
    165 H70        -9.6670   21.7173   16.2657 H         1 LEU         0.0298
    166 H71        -8.3287   22.6580   14.4151 H         1 LEU         0.0232
    167 H72        -6.8256   22.3335   15.3435 H         1 LEU         0.0232
    168 H73        -8.0293   23.5122   15.9666 H         1 LEU         0.0232
    169 H74        -9.0337   19.3408   15.9681 H         1 LEU         0.0232
    170 H75        -7.4608   19.8560   15.2702 H         1 LEU         0.0232
    171 H76        -8.9931   20.2521   14.4207 H         1 LEU         0.0232
    172 H77        -8.9906   21.8006   20.8999 H         1 LEU         0.1883
    173 H78        -6.9024   20.0855   22.1088 H         1 LEU         0.0800
    174 H79        -7.1861   21.7362   24.0642 H         1 LEU         0.0315
    175 H80        -8.1805   22.7078   22.9267 H         1 LEU         0.0315
    176 H81        -5.3595   21.8850   22.2207 H         1 LEU         0.0298
    177 H82        -5.4590   23.9552   20.8745 H         1 LEU         0.0232
    178 H83        -7.1310   24.2505   21.4607 H         1 LEU         0.0232
    179 H84        -6.7761   22.8115   20.4459 H         1 LEU         0.0232
    180 H85        -5.2662   22.9536   24.4509 H         1 LEU         0.0232
    181 H86        -6.1759   24.3620   23.8067 H         1 LEU         0.0232
    182 H87        -4.5358   23.9879   23.1769 H         1 LEU         0.0232
    183 H88       -10.3244   20.9486   22.5867 H         1 THR         0.1884
    184 H89       -10.6413   19.5459   25.0689 H         1 THR         0.0826
    185 H90       -12.7878   20.1961   22.9799 H         1 THR         0.0639
    186 H91       -11.5980   22.0475   23.7063 H         1 THR         0.2101
    187 H92       -14.3216   20.1752   24.9284 H         1 THR         0.0257
    188 H93       -12.9591   19.6973   25.9969 H         1 THR         0.0257
    189 H94       -13.5234   18.5813   24.7075 H         1 THR         0.0257
    190 H95       -10.9602   18.5503   21.6738 H         1 CYS         0.1884
    191 H96       -12.3094   16.0699   22.2385 H         1 CYS         0.0808
    192 H97       -12.4385   17.1104   20.0372 H         1 CYS         0.0422
    193 H98       -11.7713   15.4457   19.9362 H         1 CYS         0.0422
    194 H99        -9.9659   18.0486   19.5792 H         1 CYS         0.1019
    195 H100      -11.5317   14.4214   23.2703 H         1 SER         0.1884
    196 H101      -10.1372   12.8609   24.1878 H         1 SER         0.0823
    197 H102       -8.5279   11.8031   22.7378 H         1 SER         0.0606
    198 H103       -8.4350   13.2568   21.6866 H         1 SER         0.0606
    199 H104       -9.8164   11.6176   20.8326 H         1 SER         0.2097
    200 H105       -9.7715   15.1000   25.4531 H         1 SER         0.1876
    201 H106       -7.1141   16.2092   25.3644 H         1 SER         0.0749
    202 H107       -7.7354   17.2834   27.5081 H         1 SER         0.0599
    203 H108       -9.2036   16.2524   27.5984 H         1 SER         0.0599
    204 H109       -8.5980   18.1267   25.5398 H         1 SER         0.2096
@<TRIPOS>BOND
     1    1    2 1  
     2    2    3 1  
     3    2    5 1  
     4    3    4 2  
     5    3   11 am 
     6    5    6 1  
     7    6    7 1  
     8    6    8 2  
     9    7    9 2  
    10    8   10 1  
    11    9   10 1  
    12   11   12 1  
    13   12   13 1  
    14   12   15 1  
    15   13   14 2  
    16   13   20 am 
    17   15   16 1  
    18   16   17 1  
    19   17   18 1  
    20   18   19 1  
    21   20   21 1  
    22   21   22 1  
    23   21   24 1  
    24   22   23 2  
    25   22   29 am 
    26   24   25 1  
    27   25   26 1  
    28   26   27 1  
    29   27   28 1  
    30   29   30 1  
    31   30   31 1  
    32   30   33 1  
    33   31   32 2  
    34   31   37 am 
    35   33   34 1  
    36   34   35 1  
    37   34   36 1  
    38   37   38 1  
    39   38   39 1  
    40   38   41 1  
    41   39   40 2  
    42   39   45 am 
    43   41   42 1  
    44   42   43 1  
    45   42   44 1  
    46   45   46 1  
    47   46   47 1  
    48   46   49 1  
    49   47   48 2  
    50   47   54 am 
    51   49   50 1  
    52   50   51 1  
    53   51   52 2  
    54   51   53 am 
    55   54   55 1  
    56   55   56 1  
    57   55   58 1  
    58   56   57 2  
    59   56   62 am 
    60   58   59 1  
    61   59   60 1  
    62   59   61 1  
    63   62   63 1  
    64   63   64 1  
    65   63   66 1  
    66   64   65 2  
    67   64   70 am 
    68   66   67 1  
    69   67   68 1  
    70   67   69 1  
    71   70   71 1  
    72   71   72 1  
    73   71   74 1  
    74   72   73 2  
    75   72   77 am 
    76   74   75 1  
    77   74   76 1  
    78   77   78 1  
    79   78   79 1  
    80   78   81 1  
    81   79   80 2  
    82   79   83 am 
    83   81   82 1  
    84   83   84 1  
    85   84   85 1  
    86   84   87 1  
    87   85   86 2  
    88   85   89 am 
    89   87   88 1  
    90   89   90 1  
    91   90   91 1  
    92   90   93 1  
    93   91   92 ar 
    94   91   95 ar 
    95   93   94 1  
    96    1   96 1  
    97    1   97 1  
    98    1   98 1  
    99    2   99 1  
   100    5  100 1  
   101    5  101 1  
   102    8  102 1  
   103    9  103 1  
   104   10  104 1  
   105   11  105 1  
   106   12  106 1  
   107   15  107 1  
   108   15  108 1  
   109   16  109 1  
   110   16  110 1  
   111   17  111 1  
   112   17  112 1  
   113   18  113 1  
   114   18  114 1  
   115   19  115 1  
   116   19  116 1  
   117   19  117 1  
   118   20  118 1  
   119   21  119 1  
   120   24  120 1  
   121   24  121 1  
   122   25  122 1  
   123   25  123 1  
   124   26  124 1  
   125   26  125 1  
   126   27  126 1  
   127   27  127 1  
   128   28  128 1  
   129   28  129 1  
   130   28  130 1  
   131   29  131 1  
   132   30  132 1  
   133   33  133 1  
   134   33  134 1  
   135   34  135 1  
   136   35  136 1  
   137   35  137 1  
   138   35  138 1  
   139   36  139 1  
   140   36  140 1  
   141   36  141 1  
   142   37  142 1  
   143   38  143 1  
   144   41  144 1  
   145   41  145 1  
   146   42  146 1  
   147   43  147 1  
   148   43  148 1  
   149   43  149 1  
   150   44  150 1  
   151   44  151 1  
   152   44  152 1  
   153   45  153 1  
   154   46  154 1  
   155   49  155 1  
   156   49  156 1  
   157   50  157 1  
   158   50  158 1  
   159   53  159 1  
   160   53  160 1  
   161   54  161 1  
   162   55  162 1  
   163   58  163 1  
   164   58  164 1  
   165   59  165 1  
   166   60  166 1  
   167   60  167 1  
   168   60  168 1  
   169   61  169 1  
   170   61  170 1  
   171   61  171 1  
   172   62  172 1  
   173   63  173 1  
   174   66  174 1  
   175   66  175 1  
   176   67  176 1  
   177   68  177 1  
   178   68  178 1  
   179   68  179 1  
   180   69  180 1  
   181   69  181 1  
   182   69  182 1  
   183   70  183 1  
   184   71  184 1  
   185   74  185 1  
   186   75  186 1  
   187   76  187 1  
   188   76  188 1  
   189   76  189 1  
   190   77  190 1  
   191   78  191 1  
   192   81  192 1  
   193   81  193 1  
   194   82  194 1  
   195   83  195 1  
   196   84  196 1  
   197   87  197 1  
   198   87  198 1  
   199   88  199 1  
   200   89  200 1  
   201   90  201 1  
   202   93  202 1  
   203   93  203 1  
   204   94  204 1  
@<TRIPOS>SUBSTRUCTURE
     1 HIS         1

