### 
### Created by X-TOOL on Mon Sep 10 21:13:09 2018
### 

@<TRIPOS>MOLECULE
4ge7_ligand
   55    58     1     0     0
SMALL
GAST_HUCK


@<TRIPOS>ATOM
      1 C35         3.8910    0.8100  -53.0980 C.ar      1 0K5        -0.0292
      2 C33         2.3100   -0.5850  -51.9100 C.ar      1 0K5        -0.0726
      3 C34         2.6060    0.3020  -52.9420 C.ar      1 0K5        -0.0700
      4 C32         3.2940   -0.9750  -51.0110 C.ar      1 0K5        -0.0700
      5 C4          2.5650   10.9950  -51.8900 C.ar      1 0K5        -0.0131
      6 C7          3.4140    9.8890  -51.8260 C.ar      1 0K5         0.0026
      7 C6          6.1570    4.3170  -53.8140 C.ar      1 0K5        -0.0180
      8 C9          7.0170    1.7150  -54.4010 C.ar      1 0K5        -0.0433
      9 C13         5.3300    8.5900  -52.9200 C.3       1 0K5         0.0605
     10 C8          6.6670    4.0640  -55.0490 C.ar      1 0K5         0.1030
     11 C16         3.5200   12.8110  -54.9260 C.3       1 0K5        -0.0224
     12 C3          7.1300    2.7540  -55.3370 C.ar      1 0K5        -0.0440
     13 C31         4.5650   -0.4380  -51.1560 C.ar      1 0K5        -0.0292
     14 C1          6.0520    3.2840  -52.8600 C.ar      1 0K5        -0.0405
     15 C5          4.3630    9.7530  -52.8570 C.ar      1 0K5         0.0252
     16 C30         4.8770    0.4440  -52.1910 C.ar      1 0K5         0.1125
     17 C2          6.4340    1.9680  -53.1560 C.ar      1 0K5         0.0973
     18 C10         4.3820   10.7330  -53.8660 C.ar      1 0K5         0.1136
     19 C11         3.4610   11.7840  -53.8260 C.ar      1 0K5         0.0389
     20 C14         5.7450    5.6830  -53.5140 C.2       1 0K5        -0.0410
     21 C15         5.7210    6.6310  -54.4600 C.2       1 0K5         0.1192
     22 C12         6.2360    6.3610  -55.8020 C.2       1 0K5         0.2711
     23 C17         3.1890    8.9320  -50.6640 C.3       1 0K5         0.1104
     24 N18         2.5550   11.9270  -52.8510 N.ar      1 0K5        -0.3257
     25 N20         6.7230    5.0670  -55.9980 N.am      1 0K5        -0.0878
     26 N19         5.1390    7.9060  -54.1970 N.pl3     1 0K5        -0.3049
     27 O22         4.7140    9.7170  -47.5340 O.co2     1 0K5        -0.5536
     28 O24         5.4980    7.4700  -48.2890 O.co2     1 0K5        -0.5536
     29 O23         6.2430    7.1990  -56.6830 O.2       1 0K5        -0.3919
     30 O21         2.9810    7.8950  -47.9600 O.co2     1 0K5        -0.5536
     31 O25         5.2740   10.6650  -54.9050 O.3       1 0K5        -0.3348
     32 O26         7.2650    4.8350  -57.2920 O.3       1 0K5        -0.2399
     33 O29         6.1480    0.9500  -52.2940 O.3       1 0K5        -0.2680
     34 O27         4.3270    8.9680  -49.8290 O.3       1 0K5        -0.2651
     35 P28         4.3520    8.4800  -48.3170 P.3       1 0K5         0.2035
     36 H1          4.1201    1.4827  -53.9166 H         1 0K5         0.0549
     37 H2          1.3034   -0.9741  -51.8076 H         1 0K5         0.0526
     38 H3          1.8251    0.6001  -53.6322 H         1 0K5         0.0590
     39 H4          3.0749   -1.6801  -50.2173 H         1 0K5         0.0590
     40 H5          1.8466   11.1101  -51.0865 H         1 0K5         0.0621
     41 H6          7.3795    0.7222  -54.6418 H         1 0K5         0.0496
     42 H7          5.1304    7.8944  -52.0916 H         1 0K5         0.0666
     43 H8          6.3632    8.9604  -52.8469 H         1 0K5         0.0666
     44 H9          2.7408   13.5698  -54.7614 H         1 0K5         0.0382
     45 H10         3.3539   12.3194  -55.8959 H         1 0K5         0.0382
     46 H11         4.5083   13.2940  -54.9241 H         1 0K5         0.0382
     47 H12         7.5811    2.5515  -56.3017 H         1 0K5         0.0480
     48 H13         5.3369   -0.7112  -50.4456 H         1 0K5         0.0549
     49 H14         5.6663    3.5131  -51.8732 H         1 0K5         0.0457
     50 H15         5.4500    5.9385  -52.4973 H         1 0K5         0.0413
     51 H16         3.0415    7.9114  -51.0467 H         1 0K5         0.0762
     52 H17         2.3006    9.2420  -50.0943 H         1 0K5         0.0762
     53 H18         4.5687    8.3568  -54.9267 H         1 0K5         0.1819
     54 H19         5.8091   11.4499  -54.9134 H         1 0K5         0.2454
     55 H20         6.5924    4.9814  -57.9467 H         1 0K5         0.2596
@<TRIPOS>BOND
     1    1    3 ar 
     2   16    1 ar 
     3    3    2 ar 
     4    4    2 ar 
     5   13    4 ar 
     6    6    5 ar 
     7    5   24 ar 
     8    6   15 ar 
     9   23    6 1  
    10    7   10 ar 
    11    7   14 ar 
    12   20    7 1  
    13   12    8 ar 
    14   17    8 ar 
    15   15    9 1  
    16    9   26 1  
    17   10   12 ar 
    18   25   10 1  
    19   19   11 1  
    20   16   13 ar 
    21   14   17 ar 
    22   15   18 ar 
    23   33   16 1  
    24   17   33 1  
    25   18   19 ar 
    26   18   31 1  
    27   24   19 ar 
    28   21   20 2  
    29   21   22 1  
    30   26   21 1  
    31   22   25 am 
    32   22   29 2  
    33   34   23 1  
    34   25   32 1  
    35   35   27 ar 
    36   35   28 ar 
    37   35   30 ar 
    38   34   35 1  
    39    1   36 1  
    40    2   37 1  
    41    3   38 1  
    42    4   39 1  
    43    5   40 1  
    44    8   41 1  
    45    9   42 1  
    46    9   43 1  
    47   11   44 1  
    48   11   45 1  
    49   11   46 1  
    50   12   47 1  
    51   13   48 1  
    52   14   49 1  
    53   20   50 1  
    54   23   51 1  
    55   23   52 1  
    56   26   53 1  
    57   31   54 1  
    58   32   55 1  
@<TRIPOS>SUBSTRUCTURE
     1 0K5         1

