4bw2_ligand
  -I-interpret- 

 55 58  0  0  0  0  0  0  0  0999 V2000
   11.4140    5.6450   12.6060 C   0  0  0  0  0
   12.3490    6.6330   11.9990 C   0  0  0  0  0
   12.1260    7.9090   12.1630 N   0  0  0  0  0
   13.1700    8.5850   11.4770 O   0  0  0  0  0
   13.9700    7.6640   10.9260 C   0  0  0  0  0
   15.1320    8.1760   10.1600 C   0  0  0  0  0
   13.5040    6.4240   11.2170 C   0  0  0  0  0
   14.0590    5.1180   10.8010 C   0  0  0  0  0
   14.3530    4.8670    9.4670 C   0  0  0  0  0
   14.8540    3.6550    9.1230 C   0  0  0  0  0
   15.0610    2.6670   10.1100 C   0  0  0  0  0
   15.5980    1.3650    9.8230 C   0  0  0  0  0
   15.9190    0.8990    8.5440 N   0  0  0  0  0
   16.2890    1.6630    7.3760 C   0  0  0  0  0
   17.5690    2.2130    7.3440 C   0  0  0  0  0
   17.9910    2.9520    6.2520 C   0  0  0  0  0
   17.1540    3.1540    5.1790 C   0  0  0  0  0
   15.8780    2.6200    5.1730 C   0  0  0  0  0
   15.4040    1.8760    6.2490 C   0  0  0  0  0
   13.9680    1.2950    6.1670 C   0  0  0  0  0
   13.1340    2.0010    5.0800 C   0  0  0  0  0
   13.1660    1.4280    7.4640 C   0  0  0  0  0
   14.0170   -0.1790    5.7880 C   0  0  0  0  0
   15.7240    0.5090   10.9520 C   0  0  0  0  0
   15.3700    0.9720   12.2140 C   0  0  0  0  0
   14.8780    2.1510   12.4910 N   0  0  0  0  0
   14.7290    3.0130   11.4440 C   0  0  0  0  0
   16.2880   -0.8680   10.8760 C   0  0  0  0  0
   16.6760   -1.2260    9.6910 O   0  0  0  0  0
   16.4470   -1.5570   11.8760 O   0  0  0  0  0
   14.2230    4.2340   11.7880 N   0  0  0  0  0
   11.3965    5.7801   13.6875 H   0  0  0  0  0
   10.4130    5.7990   12.2031 H   0  0  0  0  0
   11.7507    4.6355   12.3700 H   0  0  0  0  0
   14.7780    8.7971    9.3372 H   0  0  0  0  0
   15.7664    8.7696   10.8182 H   0  0  0  0  0
   15.7027    7.3362    9.7635 H   0  0  0  0  0
   14.1837    5.6318    8.7091 H   0  0  0  0  0
   15.0975    3.4429    8.0819 H   0  0  0  0  0
   15.8876   -0.1130    8.4201 H   0  0  0  0  0
   18.2439    2.0600    8.1861 H   0  0  0  0  0
   18.9946    3.3773    6.2423 H   0  0  0  0  0
   17.4991    3.7395    4.3268 H   0  0  0  0  0
   15.2326    2.7849    4.3103 H   0  0  0  0  0
   13.0640    3.0640    5.3108 H   0  0  0  0  0
   13.6159    1.8692    4.1113 H   0  0  0  0  0
   12.1344    1.5674    5.0520 H   0  0  0  0  0
   13.6822    0.8984    8.2648 H   0  0  0  0  0
   13.0722    2.4821    7.7252 H   0  0  0  0  0
   12.1745    0.9979    7.3223 H   0  0  0  0  0
   14.5020   -0.2875    4.8179 H   0  0  0  0  0
   14.5818   -0.7280    6.5415 H   0  0  0  0  0
   13.0021   -0.5730    5.7343 H   0  0  0  0  0
   15.5163    0.2884   13.0503 H   0  0  0  0  0
   16.4513   -0.5379    9.0604 H   0  0  0  0  0
  1  2  1  0  0  0
  2  3  4  0  0  0
  2  7  4  0  0  0
  3  4  4  0  0  0
  4  5  4  0  0  0
  5  6  1  0  0  0
  5  7  4  0  0  0
  7  8  1  0  0  0
  8  9  4  0  0  0
  8 31  4  0  0  0
  9 10  4  0  0  0
 10 11  4  0  0  0
 11 12  4  0  0  0
 11 27  4  0  0  0
 12 13  1  0  0  0
 12 24  4  0  0  0
 13 14  1  0  0  0
 14 15  4  0  0  0
 14 19  4  0  0  0
 15 16  4  0  0  0
 16 17  4  0  0  0
 17 18  4  0  0  0
 18 19  4  0  0  0
 19 20  1  0  0  0
 20 21  1  0  0  0
 20 22  1  0  0  0
 20 23  1  0  0  0
 24 25  4  0  0  0
 24 28  1  0  0  0
 25 26  4  0  0  0
 26 27  4  0  0  0
 27 31  4  0  0  0
 28 29  1  0  0  0
 28 30  2  0  0  0
  1 32  1  0  0  0
  1 33  1  0  0  0
  1 34  1  0  0  0
  6 35  1  0  0  0
  6 36  1  0  0  0
  6 37  1  0  0  0
  9 38  1  0  0  0
 10 39  1  0  0  0
 13 40  1  0  0  0
 15 41  1  0  0  0
 16 42  1  0  0  0
 17 43  1  0  0  0
 18 44  1  0  0  0
 21 45  1  0  0  0
 21 46  1  0  0  0
 21 47  1  0  0  0
 22 48  1  0  0  0
 22 49  1  0  0  0
 22 50  1  0  0  0
 23 51  1  0  0  0
 23 52  1  0  0  0
 23 53  1  0  0  0
 25 54  1  0  0  0
 29 55  1  0  0  0
M  END
$$$$
