4g11_ligand
  -I-interpret- 

 41 43  0  0  0  0  0  0  0  0999 V2000
  -42.8510   16.4030  -34.5880 O   0  0  0  0  0
  -43.6060   16.6460  -33.6580 C   0  0  0  0  0
  -44.9420   16.7010  -33.7450 N   0  0  0  0  0
  -45.6640   16.4970  -34.9370 C   0  0  0  0  0
  -47.0560   16.5830  -34.9220 C   0  0  0  0  0
  -47.7790   16.3860  -36.1000 C   0  0  0  0  0
  -45.0190   16.2100  -36.1420 C   0  0  0  0  0
  -45.7420   16.0110  -37.3160 C   0  0  0  0  0
  -47.1290   16.0960  -37.2970 C   0  0  0  0  0
  -43.0170   16.8810  -32.2890 C   0  0  0  0  0
  -42.7580   15.5110  -31.7050 C   0  0  0  0  0
  -41.5020   14.9970  -31.6720 N   0  0  0  0  0
  -41.2820   13.7630  -31.1530 C   0  0  0  0  0
  -40.1310   13.2810  -31.1180 O   0  0  0  0  0
  -42.3450   13.0180  -30.6600 C   0  0  0  0  0
  -43.8050   14.7940  -31.2310 N   0  0  0  0  0
  -43.6290   13.5590  -30.7010 C   0  0  0  0  0
  -44.7290   12.8190  -30.2100 N   0  0  0  0  0
  -45.9620   13.6270  -30.2540 C   0  0  0  0  0
  -44.4670   12.3310  -28.8410 C   0  0  0  0  0
  -45.6660   11.5410  -28.3230 C   0  0  0  0  0
  -46.8460   12.3460  -28.3970 O   0  0  0  0  0
  -47.1380   12.8160  -29.7160 C   0  0  0  0  0
  -45.4688   16.9031  -32.8953 H   0  0  0  0  0
  -47.5789   16.8038  -33.9915 H   0  0  0  0  0
  -48.8663   16.4601  -36.0826 H   0  0  0  0  0
  -43.9314   16.1405  -36.1643 H   0  0  0  0  0
  -45.2210   15.7891  -38.2474 H   0  0  0  0  0
  -47.7026   15.9372  -38.2102 H   0  0  0  0  0
  -43.6972   17.4556  -31.6603 H   0  0  0  0  0
  -42.0980   17.4640  -32.3498 H   0  0  0  0  0
  -40.7207   15.5406  -32.0388 H   0  0  0  0  0
  -42.1777   12.0235  -30.2465 H   0  0  0  0  0
  -46.1662   13.9132  -31.2857 H   0  0  0  0  0
  -45.8293   14.5171  -29.6390 H   0  0  0  0  0
  -44.2927   13.1845  -28.1858 H   0  0  0  0  0
  -43.5918   11.6815  -28.8557 H   0  0  0  0  0
  -45.4888   11.2562  -27.2859 H   0  0  0  0  0
  -45.8002   10.6482  -28.9338 H   0  0  0  0  0
  -47.3136   11.9620  -30.3702 H   0  0  0  0  0
  -48.0247   13.4491  -29.6828 H   0  0  0  0  0
  1  2  2  0  0  0
  2  3  1  0  0  0
  2 10  1  0  0  0
  3  4  1  0  0  0
  4  5  4  0  0  0
  4  7  4  0  0  0
  5  6  4  0  0  0
  6  9  4  0  0  0
  7  8  4  0  0  0
  8  9  4  0  0  0
 10 11  1  0  0  0
 11 12  1  0  0  0
 11 16  2  0  0  0
 12 13  1  0  0  0
 13 14  2  0  0  0
 13 15  1  0  0  0
 15 17  2  0  0  0
 16 17  1  0  0  0
 17 18  1  0  0  0
 18 19  1  0  0  0
 18 20  1  0  0  0
 19 23  1  0  0  0
 20 21  1  0  0  0
 21 22  1  0  0  0
 22 23  1  0  0  0
  3 24  1  0  0  0
  5 25  1  0  0  0
  6 26  1  0  0  0
  7 27  1  0  0  0
  8 28  1  0  0  0
  9 29  1  0  0  0
 10 30  1  0  0  0
 10 31  1  0  0  0
 12 32  1  0  0  0
 15 33  1  0  0  0
 19 34  1  0  0  0
 19 35  1  0  0  0
 20 36  1  0  0  0
 20 37  1  0  0  0
 21 38  1  0  0  0
 21 39  1  0  0  0
 23 40  1  0  0  0
 23 41  1  0  0  0
M  END
$$$$
