### 
### Created by X-TOOL on Mon Sep 10 21:12:49 2018
### 

@<TRIPOS>MOLECULE
1l2z_ligand
  175   180     1     0     0
SMALL
GAST_HUCK


@<TRIPOS>ATOM
      1 N          12.4080   13.0110   -5.7830 N.4       1 SER         0.2396
      2 CA         12.3420   11.8890   -6.7560 C.3       1 SER         0.0885
      3 C          12.5010   10.5420   -6.0580 C.2       1 SER         0.2291
      4 O          11.5750    9.7310   -6.0340 O.2       1 SER        -0.3906
      5 CB         13.4500   12.0780   -7.7940 C.3       1 SER         0.1041
      6 OG         13.7340   13.4520   -7.9920 O.3       1 SER        -0.3870
      7 H1         12.3002   13.8861   -6.2715 H         1 SER         0.2016
      8 H2         13.2996   12.9962   -5.3130 H         1 SER         0.2016
      9 H3         11.6689   12.9116   -5.1048 H         1 SER         0.2016
     10 H4         11.3652   11.9107   -7.2614 H         1 SER         0.1122
     11 H5         13.1273   11.6366   -8.7485 H         1 SER         0.0640
     12 H6         14.3606   11.5697   -7.4442 H         1 SER         0.0640
     13 H7         14.4235   13.5416   -8.6394 H         1 SER         0.2099
     14 N          13.6810   10.3100   -5.4900 N.am      1 HIS        -0.2597
     15 CA         13.9590    9.0620   -4.7900 C.3       1 HIS         0.1370
     16 C          13.0350    8.8960   -3.5880 C.2       1 HIS         0.2054
     17 O          12.2270    9.7760   -3.2890 O.2       1 HIS        -0.3942
     18 CB         15.4190    9.0210   -4.3370 C.3       1 HIS         0.0145
     19 CG         15.7900   10.1380   -3.4120 C.2       1 HIS        -0.0027
     20 ND1        16.9180   10.9130   -3.5800 N.2       1 HIS        -0.3252
     21 CD2        15.1740   10.6110   -2.3020 C.2       1 HIS         0.0291
     22 CE1        16.9800   11.8130   -2.6150 C.2       1 HIS         0.0907
     23 NE2        15.9340   11.6510   -1.8270 N.pl3     1 HIS        -0.2752
     24 H8         14.3946   11.0084   -5.5444 H         1 HIS         0.1886
     25 H9         13.7830    8.2269   -5.4839 H         1 HIS         0.0817
     26 H10        16.0615    9.0791   -5.2279 H         1 HIS         0.0420
     27 H11        15.5959    8.0669   -3.8189 H         1 HIS         0.0420
     28 H12        14.2485   10.2361   -1.8675 H         1 HIS         0.0729
     29 H13        17.7614   12.5613   -2.4909 H         1 HIS         0.1199
     30 H14        15.7220   12.2138   -0.9908 H         1 HIS         0.2361
     31 H15        13.8361    7.0890   -3.1909 H         1 ARG         0.1883
     32 N          13.1600    7.7660   -2.9000 N.am      1 ARG        -0.2636
     33 CA         12.3340    7.4910   -1.7310 C.3       1 ARG         0.1313
     34 C          12.9660    6.4110   -0.8530 C.2       1 ARG         0.2064
     35 O          13.7470    5.5870   -1.3270 O.2       1 ARG        -0.3942
     36 CB         10.9210    7.0740   -2.1620 C.3       1 ARG        -0.0092
     37 CG         10.7560    5.5830   -2.4190 C.3       1 ARG        -0.0156
     38 CD         11.5570    5.1280   -3.6300 C.3       1 ARG         0.0627
     39 NE         12.6690    4.2570   -3.2570 N.pl3     1 ARG        -0.2723
     40 CZ         13.3050    3.4590   -4.1120 C.cat     1 ARG         0.2882
     41 NH1        12.9430    3.4180   -5.3880 N.pl3     1 ARG        -0.2849
     42 NH2        14.3080    2.7020   -3.6890 N.pl3     1 ARG        -0.2849
     43 H16        12.2572    8.4146   -1.1385 H         1 ARG         0.0800
     44 H17        10.6709    7.6123   -3.0881 H         1 ARG         0.0313
     45 H18        10.2188    7.3658   -1.3672 H         1 ARG         0.0313
     46 H19         9.6917    5.3672   -2.5942 H         1 ARG         0.0301
     47 H20        11.1018    5.0284   -1.5342 H         1 ARG         0.0301
     48 H21        11.9575    6.0143   -4.1439 H         1 ARG         0.0689
     49 H22        10.8897    4.5795   -4.3111 H         1 ARG         0.0689
     50 H23        12.9792    4.2605   -2.2748 H         1 ARG         0.2642
     51 H24        13.4391    2.7984   -6.0444 H         1 ARG         0.2615
     52 H25        12.1659    4.0057   -5.7220 H         1 ARG         0.2615
     53 H26        14.5928    2.7302   -2.6996 H         1 ARG         0.2615
     54 H27        14.8024    2.0857   -4.3498 H         1 ARG         0.2615
     55 H28        14.2332    5.3024    1.2689 H         1 PRO         0.0802
     56 N          12.6260    6.4090    0.4440 N.am      1 PRO        -0.2498
     57 CA         13.1490    5.4330    1.4010 C.3       1 PRO         0.1340
     58 C          12.4610    4.0760    1.2830 C.2       1 PRO         0.2066
     59 O          11.4270    3.9470    0.6290 O.2       1 PRO        -0.3942
     60 CB         12.8330    6.0710    2.7500 C.3       1 PRO        -0.0104
     61 CG         11.6010    6.8730    2.5020 C.3       1 PRO        -0.0281
     62 CD         11.6980    7.3620    1.0790 C.3       1 PRO         0.0369
     63 H29        13.6596    6.7187    3.0773 H         1 PRO         0.0313
     64 H30        12.6481    5.2993    3.5117 H         1 PRO         0.0313
     65 H31        11.5545    7.7253    3.1959 H         1 PRO         0.0287
     66 H32        10.7058    6.2467    2.6299 H         1 PRO         0.0287
     67 H33        10.7140    7.3375    0.5880 H         1 PRO         0.0524
     68 H34        12.1007    8.3850    1.0425 H         1 PRO         0.0524
     69 H35        12.3391    1.3534    0.8597 H         1 PRO         0.0802
     70 N          13.0330    3.0460    1.9230 N.am      1 PRO        -0.2498
     71 CA         12.4780    1.6920    1.8970 C.3       1 PRO         0.1340
     72 C          11.1450    1.6050    2.6390 C.2       1 PRO         0.2066
     73 O          11.0200    2.0990    3.7590 O.2       1 PRO        -0.3942
     74 CB         13.5370    0.8390    2.6140 C.3       1 PRO        -0.0104
     75 CG         14.7510    1.7030    2.7210 C.3       1 PRO        -0.0281
     76 CD         14.2610    3.1210    2.7240 C.3       1 PRO         0.0369
     77 H36        13.7608   -0.0653    2.0290 H         1 PRO         0.0313
     78 H37        13.1830    0.5502    3.6146 H         1 PRO         0.0313
     79 H38        15.4168    1.5322    1.8622 H         1 PRO         0.0287
     80 H39        15.2922    1.4853    3.6536 H         1 PRO         0.0287
     81 H40        14.0458    3.4630    3.7471 H         1 PRO         0.0524
     82 H41        14.9960    3.7945    2.2592 H         1 PRO         0.0524
     83 H42         8.3995    1.8054    2.9252 H         1 PRO         0.0802
     84 N          10.1280    0.9690    2.0290 N.am      1 PRO        -0.2498
     85 CA          8.8110    0.8220    2.6540 C.3       1 PRO         0.1340
     86 C           8.8680   -0.0590    3.8970 C.2       1 PRO         0.2066
     87 O           9.7640   -0.8930    4.0340 O.2       1 PRO        -0.3942
     88 CB          7.9640    0.1580    1.5630 C.3       1 PRO        -0.0104
     89 CG          8.9480   -0.5160    0.6720 C.3       1 PRO        -0.0281
     90 CD         10.1820    0.3410    0.6990 C.3       1 PRO         0.0369
     91 H43         7.3903    0.9128    1.0052 H         1 PRO         0.0313
     92 H44         7.2732   -0.5766    2.0026 H         1 PRO         0.0313
     93 H45         8.5524   -0.5850   -0.3521 H         1 PRO         0.0287
     94 H46         9.1747   -1.5252    1.0463 H         1 PRO         0.0287
     95 H47        11.0894   -0.2709    0.5885 H         1 PRO         0.0524
     96 H48        10.1524    1.0998   -0.0968 H         1 PRO         0.0524
     97 H49         8.7851   -0.5216    6.6450 H         1 PRO         0.0802
     98 N           7.9130    0.1100    4.8250 N.am      1 PRO        -0.2498
     99 CA          7.8690   -0.6800    6.0570 C.3       1 PRO         0.1338
    100 C           7.7050   -2.1670    5.7800 C.2       1 PRO         0.2039
    101 O           7.6330   -2.5920    4.6270 O.2       1 PRO        -0.3944
    102 CB          6.6460   -0.1430    6.8050 C.3       1 PRO        -0.0104
    103 CG          5.8350    0.5710    5.7780 C.3       1 PRO        -0.0281
    104 CD          6.8060    1.0760    4.7470 C.3       1 PRO         0.0369
    105 H50         6.9556    0.5503    7.6009 H         1 PRO         0.0313
    106 H51         6.0692   -0.9706    7.2435 H         1 PRO         0.0313
    107 H52         5.2953    1.4125    6.2368 H         1 PRO         0.0287
    108 H53         5.1137   -0.1188    5.3156 H         1 PRO         0.0287
    109 H54         6.3525    1.0760    3.7449 H         1 PRO         0.0524
    110 H55         7.1504    2.0912    4.9936 H         1 PRO         0.0524
    111 H56         7.7088   -2.5459    7.7599 H         1 GLY         0.1881
    112 N           7.6450   -2.9490    6.8470 N.am      1 GLY        -0.2664
    113 CA          7.4880   -4.3810    6.7060 C.3       1 GLY         0.1201
    114 C           8.7760   -5.0670    6.3010 C.2       1 GLY         0.2008
    115 O           9.4710   -5.6330    7.1430 O.2       1 GLY        -0.3947
    116 H57         6.7261   -4.5787    5.9377 H         1 GLY         0.0763
    117 H58         7.1545   -4.7961    7.6685 H         1 GLY         0.0763
    118 H59         8.4752   -4.5312    4.3825 H         1 HIS         0.1884
    119 N           9.0920   -5.0090    5.0080 N.am      1 HIS        -0.2627
    120 CA         10.3090   -5.6190    4.4690 C.3       1 HIS         0.1369
    121 C          10.5690   -6.9960    5.0730 C.2       1 HIS         0.2054
    122 O           9.6840   -7.5970    5.6810 O.2       1 HIS        -0.3942
    123 CB         11.5100   -4.6920    4.7030 C.3       1 HIS         0.0145
    124 CG         12.0110   -4.6340    6.1160 C.2       1 HIS        -0.0027
    125 ND1        12.5270   -3.4850    6.6470 N.2       1 HIS        -0.3252
    126 CD2        12.0960   -5.5710    7.0970 C.2       1 HIS         0.0291
    127 CE1        12.9110   -3.7020    7.8930 C.2       1 HIS         0.0907
    128 NE2        12.6590   -4.9610    8.1900 N.pl3     1 HIS        -0.2752
    129 H60        10.1758   -5.7444    3.3843 H         1 HIS         0.0817
    130 H61        11.2169   -3.6746    4.4046 H         1 HIS         0.0420
    131 H62        12.3357   -5.0381    4.0639 H         1 HIS         0.0420
    132 H63        11.7774   -6.6101    7.0286 H         1 HIS         0.0729
    133 H64        13.3588   -2.9666    8.5598 H         1 HIS         0.1199
    134 H65        12.8529   -5.4134    9.0948 H         1 HIS         0.2361
    135 H66        12.4707   -6.9436    4.4061 H         1 ARG         0.1883
    136 H67        12.1390   -8.7228    6.5478 H         1 ARG         0.0800
    137 N          11.7960   -7.4820    4.9110 N.am      1 ARG        -0.2636
    138 CA         12.1820   -8.7780    5.4500 C.3       1 ARG         0.1311
    139 C          13.6080   -9.1350    5.0390 C.2       1 ARG         0.2033
    140 O          13.8660   -9.4720    3.8840 O.2       1 ARG        -0.3944
    141 CB         11.2160   -9.8680    4.9800 C.3       1 ARG        -0.0092
    142 CG         10.9130   -9.8140    3.4910 C.3       1 ARG        -0.0156
    143 CD          9.4940  -10.2710    3.1930 C.3       1 ARG         0.0627
    144 NE          9.3800  -11.7290    3.1730 N.pl3     1 ARG        -0.2723
    145 CZ          8.3270  -12.3840    2.6930 C.cat     1 ARG         0.2882
    146 NH1         7.2940  -11.7180    2.1910 N.pl3     1 ARG        -0.2849
    147 NH2         8.3050  -13.7100    2.7140 N.pl3     1 ARG        -0.2849
    148 H68        10.2707   -9.7559    5.5312 H         1 ARG         0.0313
    149 H69        11.6599  -10.8481    5.2089 H         1 ARG         0.0313
    150 H70        11.6184  -10.4692    2.9589 H         1 ARG         0.0301
    151 H71        11.0364   -8.7793    3.1386 H         1 ARG         0.0301
    152 H72         9.1934   -9.8780    2.2106 H         1 ARG         0.0689
    153 H73         8.8227   -9.8731    3.9682 H         1 ARG         0.0689
    154 H74        10.1618  -12.2813    3.5533 H         1 ARG         0.2642
    155 H75         6.4813  -12.2311    1.8207 H         1 ARG         0.2615
    156 H76         7.3053  -10.6882    2.1718 H         1 ARG         0.2615
    157 H77         9.1034  -14.2322    3.1022 H         1 ARG         0.2615
    158 H78         7.4895  -14.2175    2.3421 H         1 ARG         0.2615
    159 H79        14.2539   -8.7748    6.9127 H         1 VAL         0.1875
    160 H80        15.9832   -9.9285    4.7875 H         1 VAL         0.0729
    161 N          14.5280   -9.0560    5.9930 N.am      1 VAL        -0.2692
    162 CA         15.9280   -9.3690    5.7330 C.3       1 VAL         0.0967
    163 C          16.5140  -10.2340    6.8440 C.2       1 VAL         0.0603
    164 O          16.6160  -11.4630    6.6440 O.co2     1 VAL        -0.5666
    165 CB         16.7730   -8.0900    5.5940 C.3       1 VAL        -0.0118
    166 CG1        16.4430   -7.3690    4.2970 C.3       1 VAL        -0.0590
    167 CG2        16.5570   -7.1760    6.7910 C.3       1 VAL        -0.0590
    168 OXT        16.8660   -9.6750    7.9040 O.co2     1 VAL        -0.5666
    169 H81        17.8342   -8.3782    5.5674 H         1 VAL         0.0336
    170 H82        17.0563   -6.4594    4.2169 H         1 VAL         0.0234
    171 H83        15.3778   -7.0946    4.2907 H         1 VAL         0.0234
    172 H84        16.6561   -8.0311    3.4449 H         1 VAL         0.0234
    173 H85        16.8018   -7.7190    7.7158 H         1 VAL         0.0234
    174 H86        15.5055   -6.8546    6.8220 H         1 VAL         0.0234
    175 H87        17.2076   -6.2936    6.7007 H         1 VAL         0.0234
@<TRIPOS>BOND
     1    2    1 1  
     2    1    7 1  
     3    1    8 1  
     4    1    9 1  
     5    3    2 1  
     6    2    5 1  
     7    2   10 1  
     8    3    4 2  
     9   14    3 am 
    10    5    6 1  
    11    5   11 1  
    12    5   12 1  
    13    6   13 1  
    14   15   14 1  
    15   14   24 1  
    16   16   15 1  
    17   15   18 1  
    18   15   25 1  
    19   16   17 2  
    20   32   16 am 
    21   18   19 1  
    22   18   26 1  
    23   18   27 1  
    24   19   20 1  
    25   19   21 2  
    26   20   22 2  
    27   21   28 1  
    28   21   23 1  
    29   22   29 1  
    30   23   22 1  
    31   23   30 1  
    32   32   31 1  
    33   33   32 1  
    34   33   43 1  
    35   34   33 1  
    36   33   36 1  
    37   36   44 1  
    38   34   35 2  
    39   56   34 am 
    40   36   37 1  
    41   36   45 1  
    42   37   46 1  
    43   37   38 1  
    44   37   47 1  
    45   38   48 1  
    46   38   39 1  
    47   38   49 1  
    48   39   50 1  
    49   39   40 ar 
    50   41   51 1  
    51   40   41 ar 
    52   40   42 ar 
    53   41   52 1  
    54   42   53 1  
    55   42   54 1  
    56   57   55 1  
    57   57   56 1  
    58   56   62 1  
    59   58   57 1  
    60   57   60 1  
    61   60   63 1  
    62   58   59 2  
    63   70   58 am 
    64   60   61 1  
    65   60   64 1  
    66   61   65 1  
    67   61   62 1  
    68   61   66 1  
    69   62   67 1  
    70   62   68 1  
    71   71   69 1  
    72   71   70 1  
    73   70   76 1  
    74   72   71 1  
    75   71   74 1  
    76   74   77 1  
    77   72   73 2  
    78   84   72 am 
    79   74   75 1  
    80   74   78 1  
    81   75   79 1  
    82   75   76 1  
    83   75   80 1  
    84   76   81 1  
    85   76   82 1  
    86   85   83 1  
    87   85   84 1  
    88   84   90 1  
    89   86   85 1  
    90   85   88 1  
    91   88   91 1  
    92   86   87 2  
    93   98   86 am 
    94   88   89 1  
    95   88   92 1  
    96   89   93 1  
    97   89   90 1  
    98   89   94 1  
    99   90   95 1  
   100   90   96 1  
   101   99   97 1  
   102   99   98 1  
   103   98  104 1  
   104  100   99 1  
   105   99  102 1  
   106  102  105 1  
   107  100  101 2  
   108  112  100 am 
   109  102  103 1  
   110  102  106 1  
   111  103  107 1  
   112  103  104 1  
   113  103  108 1  
   114  104  109 1  
   115  104  110 1  
   116  112  111 1  
   117  113  112 1  
   118  113  116 1  
   119  114  113 1  
   120  113  117 1  
   121  119  118 1  
   122  114  115 2  
   123  119  114 am 
   124  120  119 1  
   125  120  129 1  
   126  121  120 1  
   127  120  123 1  
   128  123  130 1  
   129  121  122 2  
   130  137  121 am 
   131  123  124 1  
   132  123  131 1  
   133  126  132 1  
   134  124  125 1  
   135  124  126 2  
   136  125  127 2  
   137  127  133 1  
   138  126  128 1  
   139  128  134 1  
   140  128  127 1  
   141  137  135 1  
   142  138  136 1  
   143  138  137 1  
   144  141  148 1  
   145  139  138 1  
   146  138  141 1  
   147  141  149 1  
   148  139  140 2  
   149  161  139 am 
   150  141  142 1  
   151  142  150 1  
   152  142  151 1  
   153  142  143 1  
   154  143  152 1  
   155  143  153 1  
   156  143  144 1  
   157  144  154 1  
   158  146  155 1  
   159  144  145 ar 
   160  146  156 1  
   161  145  146 ar 
   162  145  147 ar 
   163  147  157 1  
   164  147  158 1  
   165  161  159 1  
   166  162  160 1  
   167  162  161 1  
   168  165  169 1  
   169  162  163 1  
   170  165  162 1  
   171  166  170 1  
   172  163  164 ar 
   173  163  168 ar 
   174  165  166 1  
   175  165  167 1  
   176  166  171 1  
   177  166  172 1  
   178  167  173 1  
   179  167  174 1  
   180  167  175 1  
@<TRIPOS>SUBSTRUCTURE
     1 SER         1

