1l2z_ligand
  -I-interpret- 

172177  0  0  0  0  0  0  0  0999 V2000
   12.4080   13.0110   -5.7830 N   0  3  0  0  0
   12.3420   11.8890   -6.7560 C   0  0  0  0  0
   12.5010   10.5420   -6.0580 C   0  0  0  0  0
   11.5750    9.7310   -6.0340 O   0  0  0  0  0
   13.4500   12.0780   -7.7940 C   0  0  0  0  0
   13.7340   13.4520   -7.9920 O   0  0  0  0  0
   13.6810   10.3100   -5.4900 N   0  0  0  0  0
   13.9590    9.0620   -4.7900 C   0  0  0  0  0
   13.0350    8.8960   -3.5880 C   0  0  0  0  0
   12.2270    9.7760   -3.2890 O   0  0  0  0  0
   15.4190    9.0210   -4.3370 C   0  0  0  0  0
   15.7900   10.1380   -3.4120 C   0  0  0  0  0
   16.9180   10.9130   -3.5800 N   0  0  0  0  0
   15.1740   10.6110   -2.3020 C   0  0  0  0  0
   16.9800   11.8130   -2.6150 C   0  0  0  0  0
   15.9340   11.6510   -1.8270 N   0  0  0  0  0
   13.1600    7.7660   -2.9000 N   0  0  0  0  0
   12.3340    7.4910   -1.7310 C   0  0  0  0  0
   12.9660    6.4110   -0.8530 C   0  0  0  0  0
   13.7470    5.5870   -1.3270 O   0  0  0  0  0
   10.9210    7.0740   -2.1620 C   0  0  0  0  0
   10.7560    5.5830   -2.4190 C   0  0  0  0  0
   11.5570    5.1280   -3.6300 C   0  0  0  0  0
   12.6690    4.2570   -3.2570 N   0  0  0  0  0
   13.3050    3.4590   -4.1120 C   0  0  0  0  0
   12.9430    3.4180   -5.3880 N   0  0  0  0  0
   14.3080    2.7020   -3.6890 N   0  0  0  0  0
   12.6260    6.4090    0.4440 N   0  0  0  0  0
   13.1490    5.4330    1.4010 C   0  0  0  0  0
   12.4610    4.0760    1.2830 C   0  0  0  0  0
   11.4270    3.9470    0.6290 O   0  0  0  0  0
   12.8330    6.0710    2.7500 C   0  0  0  0  0
   11.6010    6.8730    2.5020 C   0  0  0  0  0
   11.6980    7.3620    1.0790 C   0  0  0  0  0
   13.0330    3.0460    1.9230 N   0  0  0  0  0
   12.4780    1.6920    1.8970 C   0  0  0  0  0
   11.1450    1.6050    2.6390 C   0  0  0  0  0
   11.0200    2.0990    3.7590 O   0  0  0  0  0
   13.5370    0.8390    2.6140 C   0  0  0  0  0
   14.7510    1.7030    2.7210 C   0  0  0  0  0
   14.2610    3.1210    2.7240 C   0  0  0  0  0
   10.1280    0.9690    2.0290 N   0  0  0  0  0
    8.8110    0.8220    2.6540 C   0  0  0  0  0
    8.8680   -0.0590    3.8970 C   0  0  0  0  0
    9.7640   -0.8930    4.0340 O   0  0  0  0  0
    7.9640    0.1580    1.5630 C   0  0  0  0  0
    8.9480   -0.5160    0.6720 C   0  0  0  0  0
   10.1820    0.3410    0.6990 C   0  0  0  0  0
    7.9130    0.1100    4.8250 N   0  0  0  0  0
    7.8690   -0.6800    6.0570 C   0  0  0  0  0
    7.7050   -2.1670    5.7800 C   0  0  0  0  0
    7.6330   -2.5920    4.6270 O   0  0  0  0  0
    6.6460   -0.1430    6.8050 C   0  0  0  0  0
    5.8350    0.5710    5.7780 C   0  0  0  0  0
    6.8060    1.0760    4.7470 C   0  0  0  0  0
    7.6450   -2.9490    6.8470 N   0  0  0  0  0
    7.4880   -4.3810    6.7060 C   0  0  0  0  0
    8.7760   -5.0670    6.3010 C   0  0  0  0  0
    9.4710   -5.6330    7.1430 O   0  0  0  0  0
    9.0920   -5.0090    5.0080 N   0  0  0  0  0
   10.3090   -5.6190    4.4690 C   0  0  0  0  0
   10.5690   -6.9960    5.0730 C   0  0  0  0  0
    9.6840   -7.5970    5.6810 O   0  0  0  0  0
   11.5100   -4.6920    4.7030 C   0  0  0  0  0
   12.0110   -4.6340    6.1160 C   0  0  0  0  0
   12.5270   -3.4850    6.6470 N   0  0  0  0  0
   12.0960   -5.5710    7.0970 C   0  0  0  0  0
   12.9110   -3.7020    7.8930 C   0  0  0  0  0
   12.6590   -4.9610    8.1900 N   0  0  0  0  0
   11.7960   -7.4820    4.9110 N   0  0  0  0  0
   12.1820   -8.7780    5.4500 C   0  0  0  0  0
   13.6080   -9.1350    5.0390 C   0  0  0  0  0
   13.8660   -9.4720    3.8840 O   0  0  0  0  0
   11.2160   -9.8680    4.9800 C   0  0  0  0  0
   10.9130   -9.8140    3.4910 C   0  0  0  0  0
    9.4940  -10.2710    3.1930 C   0  0  0  0  0
    9.3800  -11.7290    3.1730 N   0  0  0  0  0
    8.3270  -12.3840    2.6930 C   0  0  0  0  0
    7.2940  -11.7180    2.1910 N   0  0  0  0  0
    8.3050  -13.7100    2.7140 N   0  0  0  0  0
   14.5280   -9.0560    5.9930 N   0  0  0  0  0
   15.9280   -9.3690    5.7330 C   0  0  0  0  0
   16.5140  -10.2340    6.8440 C   0  0  0  0  0
   16.6160  -11.4630    6.6440 O   0  0  0  0  0
   16.7730   -8.0900    5.5940 C   0  0  0  0  0
   16.4430   -7.3690    4.2970 C   0  0  0  0  0
   16.5570   -7.1760    6.7910 C   0  0  0  0  0
   16.8660   -9.6750    7.9040 O   0  0  0  0  0
   11.6736   12.8972   -5.0843 H   0  0  0  0  0
   13.3189   13.0083   -5.3241 H   0  0  0  0  0
   12.2766   13.8946   -6.2753 H   0  0  0  0  0
   11.3659   11.8943   -7.2410 H   0  0  0  0  0
   13.1184   11.6503   -8.7402 H   0  0  0  0  0
   14.3525   11.5833   -7.4350 H   0  0  0  0  0
   14.4307   13.5426   -8.6462 H   0  0  0  0  0
   14.4089   11.0224   -5.5455 H   0  0  0  0  0
   13.7782    8.2383   -5.4806 H   0  0  0  0  0
   16.0406    9.1135   -5.2276 H   0  0  0  0  0
   15.5679    8.0859   -3.7971 H   0  0  0  0  0
   14.2476   10.2358   -1.8671 H   0  0  0  0  0
   17.7621   12.5620   -2.4908 H   0  0  0  0  0
   13.8496    7.0755   -3.1967 H   0  0  0  0  0
   12.2649    8.4056   -1.1420 H   0  0  0  0  0
   10.7090    7.5856   -3.1008 H   0  0  0  0  0
   10.2478    7.3341   -1.3452 H   0  0  0  0  0
    9.7018    5.3822   -2.6097 H   0  0  0  0  0
   11.1183    5.0419   -1.5449 H   0  0  0  0  0
   11.9665    6.0121   -4.1188 H   0  0  0  0  0
   10.8917    4.5679   -4.2870 H   0  0  0  0  0
   12.9761    4.2605   -2.2843 H   0  0  0  0  0
   13.4357    2.8061   -6.0385 H   0  0  0  0  0
   12.1720    3.9984   -5.7183 H   0  0  0  0  0
   14.5914    2.7315   -2.7096 H   0  0  0  0  0
   14.2077    5.2287    1.2413 H   0  0  0  0  0
   13.6555    6.6865    3.1143 H   0  0  0  0  0
   12.6854    5.3251    3.5310 H   0  0  0  0  0
   11.5272    7.7067    3.2002 H   0  0  0  0  0
   10.7039    6.2721    2.6511 H   0  0  0  0  0
   10.7281    7.3912    0.5825 H   0  0  0  0  0
   12.0518    8.3911    1.0164 H   0  0  0  0  0
   12.2724    1.3629    0.8784 H   0  0  0  0  0
   13.7492   -0.0765    2.0618 H   0  0  0  0  0
   13.1899    0.5193    3.5966 H   0  0  0  0  0
   15.4324    1.5258    1.8889 H   0  0  0  0  0
   15.3114    1.4803    3.6290 H   0  0  0  0  0
   14.0878    3.5066    3.7287 H   0  0  0  0  0
   14.9899    3.8213    2.3162 H   0  0  0  0  0
    8.4089    1.7768    2.9928 H   0  0  0  0  0
    7.3589    0.8851    1.0214 H   0  0  0  0  0
    7.2462   -0.5479    1.9810 H   0  0  0  0  0
    8.5593   -0.6183   -0.3412 H   0  0  0  0  0
    9.1620   -1.5288    1.0133 H   0  0  0  0  0
   11.0954   -0.2329    0.5423 H   0  0  0  0  0
   10.2038    1.0715   -0.1097 H   0  0  0  0  0
    8.7961   -0.5879    6.6227 H   0  0  0  0  0
    6.9350    0.5214    7.6193 H   0  0  0  0  0
    6.0792   -0.9471    7.2742 H   0  0  0  0  0
    5.2748    1.3929    6.2238 H   0  0  0  0  0
    5.0983   -0.0950    5.3287 H   0  0  0  0  0
    6.3683    1.1340    3.7504 H   0  0  0  0  0
    7.1274    2.0998    4.9384 H   0  0  0  0  0
    7.7101   -2.5378    7.7782 H   0  0  0  0  0
    6.7493   -4.5637    5.9256 H   0  0  0  0  0
    7.1815   -4.7830    7.6717 H   0  0  0  0  0
    8.4628   -4.5216    4.3700 H   0  0  0  0  0
   10.1668   -5.7572    3.3972 H   0  0  0  0  0
   11.1807   -3.6848    4.4475 H   0  0  0  0  0
   12.3281   -5.0831    4.0981 H   0  0  0  0  0
   11.7771   -6.6110    7.0285 H   0  0  0  0  0
   13.3592   -2.9659    8.5604 H   0  0  0  0  0
   12.4842   -6.9328    4.3960 H   0  0  0  0  0
   12.1385   -8.7139    6.5372 H   0  0  0  0  0
   10.2750   -9.7208    5.5100 H   0  0  0  0  0
   11.6862  -10.8303    5.1826 H   0  0  0  0  0
   11.6051  -10.4787    2.9739 H   0  0  0  0  0
   11.0211   -8.7830    3.1543 H   0  0  0  0  0
    9.2143   -9.8940    2.2093 H   0  0  0  0  0
    8.8413   -9.8891    3.9780 H   0  0  0  0  0
   10.1542  -12.2759    3.5496 H   0  0  0  0  0
    6.4892  -12.2261    1.8242 H   0  0  0  0  0
    7.3052  -10.6982    2.1721 H   0  0  0  0  0
    9.0957  -14.2272    3.0983 H   0  0  0  0  0
   14.2484   -8.7692    6.9311 H   0  0  0  0  0
   15.9591   -9.9199    4.7930 H   0  0  0  0  0
   16.2866  -11.6717    5.7668 H   0  0  0  0  0
   17.8253   -8.3729    5.5664 H   0  0  0  0  0
   16.6546   -8.0261    3.4535 H   0  0  0  0  0
   15.3873   -7.0978    4.2920 H   0  0  0  0  0
   17.0513   -6.4679    4.2188 H   0  0  0  0  0
   15.5040   -6.9007    6.8510 H   0  0  0  0  0
   16.8500   -7.6974    7.7022 H   0  0  0  0  0
   17.1627   -6.2774    6.6743 H   0  0  0  0  0
  2  1  1  0  0  0
  3  2  1  0  0  0
  2  5  1  0  0  0
  3  4  2  0  0  0
  7  3  1  0  0  0
  5  6  1  0  0  0
  8  7  1  0  0  0
  9  8  1  0  0  0
  8 11  1  0  0  0
  9 10  2  0  0  0
 17  9  1  0  0  0
 11 12  1  0  0  0
 12 13  4  0  0  0
 12 14  4  0  0  0
 13 15  4  0  0  0
 14 16  4  0  0  0
 16 15  4  0  0  0
 18 17  1  0  0  0
 19 18  1  0  0  0
 18 21  1  0  0  0
 19 20  2  0  0  0
 28 19  1  0  0  0
 21 22  1  0  0  0
 22 23  1  0  0  0
 23 24  1  0  0  0
 24 25  1  0  0  0
 25 26  1  0  0  0
 25 27  2  0  0  0
 29 28  1  0  0  0
 28 34  1  0  0  0
 30 29  1  0  0  0
 29 32  1  0  0  0
 30 31  2  0  0  0
 35 30  1  0  0  0
 32 33  1  0  0  0
 33 34  1  0  0  0
 36 35  1  0  0  0
 35 41  1  0  0  0
 37 36  1  0  0  0
 36 39  1  0  0  0
 37 38  2  0  0  0
 42 37  1  0  0  0
 39 40  1  0  0  0
 40 41  1  0  0  0
 43 42  1  0  0  0
 42 48  1  0  0  0
 44 43  1  0  0  0
 43 46  1  0  0  0
 44 45  2  0  0  0
 49 44  1  0  0  0
 46 47  1  0  0  0
 47 48  1  0  0  0
 50 49  1  0  0  0
 49 55  1  0  0  0
 51 50  1  0  0  0
 50 53  1  0  0  0
 51 52  2  0  0  0
 56 51  1  0  0  0
 53 54  1  0  0  0
 54 55  1  0  0  0
 57 56  1  0  0  0
 58 57  1  0  0  0
 58 59  2  0  0  0
 60 58  1  0  0  0
 61 60  1  0  0  0
 62 61  1  0  0  0
 61 64  1  0  0  0
 62 63  2  0  0  0
 70 62  1  0  0  0
 64 65  1  0  0  0
 65 66  4  0  0  0
 65 67  4  0  0  0
 66 68  4  0  0  0
 67 69  4  0  0  0
 69 68  4  0  0  0
 71 70  1  0  0  0
 72 71  1  0  0  0
 71 74  1  0  0  0
 72 73  2  0  0  0
 81 72  1  0  0  0
 74 75  1  0  0  0
 75 76  1  0  0  0
 76 77  1  0  0  0
 77 78  1  0  0  0
 78 79  1  0  0  0
 78 80  2  0  0  0
 82 81  1  0  0  0
 82 83  1  0  0  0
 85 82  1  0  0  0
 83 84  1  0  0  0
 83 88  2  0  0  0
 85 86  1  0  0  0
 85 87  1  0  0  0
  1 89  1  0  0  0
  1 90  1  0  0  0
  1 91  1  0  0  0
  2 92  1  0  0  0
  5 93  1  0  0  0
  5 94  1  0  0  0
  6 95  1  0  0  0
  7 96  1  0  0  0
  8 97  1  0  0  0
 11 98  1  0  0  0
 11 99  1  0  0  0
 14100  1  0  0  0
 15101  1  0  0  0
 17102  1  0  0  0
 18103  1  0  0  0
 21104  1  0  0  0
 21105  1  0  0  0
 22106  1  0  0  0
 22107  1  0  0  0
 23108  1  0  0  0
 23109  1  0  0  0
 24110  1  0  0  0
 26111  1  0  0  0
 26112  1  0  0  0
 27113  1  0  0  0
 29114  1  0  0  0
 32115  1  0  0  0
 32116  1  0  0  0
 33117  1  0  0  0
 33118  1  0  0  0
 34119  1  0  0  0
 34120  1  0  0  0
 36121  1  0  0  0
 39122  1  0  0  0
 39123  1  0  0  0
 40124  1  0  0  0
 40125  1  0  0  0
 41126  1  0  0  0
 41127  1  0  0  0
 43128  1  0  0  0
 46129  1  0  0  0
 46130  1  0  0  0
 47131  1  0  0  0
 47132  1  0  0  0
 48133  1  0  0  0
 48134  1  0  0  0
 50135  1  0  0  0
 53136  1  0  0  0
 53137  1  0  0  0
 54138  1  0  0  0
 54139  1  0  0  0
 55140  1  0  0  0
 55141  1  0  0  0
 56142  1  0  0  0
 57143  1  0  0  0
 57144  1  0  0  0
 60145  1  0  0  0
 61146  1  0  0  0
 64147  1  0  0  0
 64148  1  0  0  0
 67149  1  0  0  0
 68150  1  0  0  0
 70151  1  0  0  0
 71152  1  0  0  0
 74153  1  0  0  0
 74154  1  0  0  0
 75155  1  0  0  0
 75156  1  0  0  0
 76157  1  0  0  0
 76158  1  0  0  0
 77159  1  0  0  0
 79160  1  0  0  0
 79161  1  0  0  0
 80162  1  0  0  0
 81163  1  0  0  0
 82164  1  0  0  0
 84165  1  0  0  0
 85166  1  0  0  0
 86167  1  0  0  0
 86168  1  0  0  0
 86169  1  0  0  0
 87170  1  0  0  0
 87171  1  0  0  0
 87172  1  0  0  0
M  END
$$$$
