3d7b_ligand
  -I-interpret- 

 41 43  0  0  0  0  0  0  0  0999 V2000
   34.7880   -4.5920   12.4660 C   0  0  0  0  0
   35.9710   -4.4960   13.1880 C   0  0  0  0  0
   36.7710   -3.3640   13.0400 C   0  0  0  0  0
   36.3910   -2.3050   12.1840 N   0  0  0  0  0
   34.4070   -3.5580   11.6020 N   0  0  0  0  0
   41.8210   -1.0330   13.6490 C   0  0  0  0  0
   39.7510   -0.6220   14.7610 C   0  0  0  0  0
   38.4620   -0.7610   13.9310 C   0  0  0  0  0
   38.5660   -1.3530   12.5990 O   0  0  0  0  0
   37.9340    0.5980   13.5640 C   0  0  0  0  0
   37.4460    1.3310   14.6780 O   0  0  0  0  0
   36.7750    0.2180   12.6760 C   0  0  0  0  0
   36.7160    1.2770   11.7260 O   0  0  0  0  0
   37.2630   -1.0930   12.0120 C   0  0  0  0  0
   34.0700   -5.5840   12.5750 O   0  0  0  0  0
   35.2020   -2.4120   11.4570 C   0  0  0  0  0
   34.8450   -1.5110   10.7030 O   0  0  0  0  0
   41.3370   -2.1220   15.7040 C   0  0  0  0  0
   42.8030   -1.6820   15.6860 C   0  0  0  0  0
   43.1050   -1.6430   14.1990 C   0  0  0  0  0
   40.7370   -1.6580   14.4320 N   0  3  0  0  0
   36.2706   -5.2975   13.8632 H   0  0  0  0  0
   37.7068   -3.2941   13.5945 H   0  0  0  0  0
   33.5398   -3.6395   11.0712 H   0  0  0  0  0
   41.7089   -1.2210   12.5812 H   0  0  0  0  0
   41.8154    0.0527   13.7453 H   0  0  0  0  0
   39.4890   -0.7255   15.8140 H   0  0  0  0  0
   40.1934    0.3494   14.5401 H   0  0  0  0  0
   37.8656   -1.3914   14.5906 H   0  0  0  0  0
   38.6968    1.2394   13.1227 H   0  0  0  0  0
   37.1242    2.1854   14.3813 H   0  0  0  0  0
   35.8030    0.0790   13.1494 H   0  0  0  0  0
   35.9959    1.1150   11.1121 H   0  0  0  0  0
   37.2611   -0.9350   10.9335 H   0  0  0  0  0
   40.8137   -1.6938   16.5589 H   0  0  0  0  0
   41.2580   -3.2051   15.7981 H   0  0  0  0  0
   43.4604   -2.3507   16.2418 H   0  0  0  0  0
   42.9727   -0.7280   16.1853 H   0  0  0  0  0
   44.0016   -1.0759   13.9488 H   0  0  0  0  0
   43.3435   -2.6183   13.7747 H   0  0  0  0  0
   40.2997   -2.4210   13.9153 H   0  0  0  0  0
  2  1  1  0  0  0
  5  1  1  0  0  0
  1 15  2  0  0  0
  3  2  2  0  0  0
  4  3  1  0  0  0
 14  4  1  0  0  0
  4 16  1  0  0  0
 16  5  1  0  0  0
  6 20  1  0  0  0
 21  6  1  0  0  0
  7  8  1  0  0  0
 21  7  1  0  0  0
  8  9  1  0  0  0
  8 10  1  0  0  0
  9 14  1  0  0  0
 10 11  1  0  0  0
 10 12  1  0  0  0
 12 13  1  0  0  0
 12 14  1  0  0  0
 16 17  2  0  0  0
 18 19  1  0  0  0
 18 21  1  0  0  0
 19 20  1  0  0  0
  2 22  1  0  0  0
  3 23  1  0  0  0
  5 24  1  0  0  0
  6 25  1  0  0  0
  6 26  1  0  0  0
  7 27  1  0  0  0
  7 28  1  0  0  0
  8 29  1  0  0  0
 10 30  1  0  0  0
 11 31  1  0  0  0
 12 32  1  0  0  0
 13 33  1  0  0  0
 14 34  1  0  0  0
 18 35  1  0  0  0
 18 36  1  0  0  0
 19 37  1  0  0  0
 19 38  1  0  0  0
 20 39  1  0  0  0
 20 40  1  0  0  0
 21 41  1  0  0  0
M  END
$$$$
