6bsk_ligand
  -I-interpret- 

 47 50  0  0  0  0  0  0  0  0999 V2000
  -38.4570    3.5120    3.5560 O   0  0  0  0  0
  -38.5230    3.0010    2.4550 C   0  0  0  0  0
  -37.5180    2.9680    1.6330 O   0  0  0  0  0
  -39.8160    2.4870    1.9280 C   0  0  0  0  0
  -39.9370    2.0770    0.6030 C   0  0  0  0  0
  -41.1720    1.7210    0.0860 C   0  0  0  0  0
  -40.9550    2.4920    2.7280 C   0  0  0  0  0
  -42.1850    2.1240    2.2080 C   0  0  0  0  0
  -42.3170    1.7360    0.8760 C   0  0  0  0  0
  -43.6340    1.3420    0.3150 C   0  0  0  0  0
  -43.6780    1.1710   -1.0170 N   0  0  0  0  0
  -44.8020    1.2240    1.0860 C   0  0  0  0  0
  -45.9930    0.9840    0.5110 N   0  0  0  0  0
  -46.0380    0.8560   -0.8240 C   0  0  0  0  0
  -44.8660    0.9540   -1.5840 C   0  0  0  0  0
  -44.9040    0.9580   -3.0130 N   0  0  0  0  0
  -43.9490    1.3780   -3.9150 C   0  0  0  0  0
  -42.6370    1.8060   -3.7520 C   0  0  0  0  0
  -46.1100    0.6920   -3.6550 N   0  0  0  0  0
  -45.9080    0.9690   -4.9260 C   0  0  0  0  0
  -44.5850    1.4200   -5.1740 C   0  0  0  0  0
  -43.8690    1.9220   -6.2690 C   0  0  0  0  0
  -42.5640    2.3650   -6.1100 C   0  0  0  0  0
  -41.9490    2.3140   -4.8520 C   0  0  0  0  0
  -40.6600    2.8070   -4.6510 N   0  0  0  0  0
  -39.7930    2.6390   -3.4480 C   0  0  0  0  0
  -39.3670    1.1890   -3.3020 C   0  0  0  0  0
  -38.6080    3.5760   -3.5840 C   0  0  0  0  0
  -37.7815    2.5218    0.8249 H   0  0  0  0  0
  -39.0527    2.0358   -0.0329 H   0  0  0  0  0
  -41.2480    1.4234   -0.9598 H   0  0  0  0  0
  -40.8783    2.7885    3.7741 H   0  0  0  0  0
  -43.0646    2.1381    2.8516 H   0  0  0  0  0
  -44.7416    1.3288    2.1693 H   0  0  0  0  0
  -46.9919    0.6748   -1.3194 H   0  0  0  0  0
  -42.1529    1.7452   -2.7773 H   0  0  0  0  0
  -46.6691    0.8641   -5.6992 H   0  0  0  0  0
  -44.3400    1.9646   -7.2511 H   0  0  0  0  0
  -42.0148    2.7544   -6.9672 H   0  0  0  0  0
  -40.2618    3.3476   -5.4188 H   0  0  0  0  0
  -40.3391    2.8942   -2.5399 H   0  0  0  0  0
  -40.2513    0.5610   -3.1939 H   0  0  0  0  0
  -38.8096    0.8845   -4.1878 H   0  0  0  0  0
  -38.7354    1.0843   -2.4199 H   0  0  0  0  0
  -38.0504    3.3259   -4.4865 H   0  0  0  0  0
  -38.9648    4.6039   -3.6490 H   0  0  0  0  0
  -37.9603    3.4692   -2.7139 H   0  0  0  0  0
  1  2  2  0  0  0
  2  3  1  0  0  0
  2  4  1  0  0  0
  4  5  4  0  0  0
  4  7  4  0  0  0
  5  6  4  0  0  0
  6  9  4  0  0  0
  7  8  4  0  0  0
  8  9  4  0  0  0
  9 10  1  0  0  0
 10 11  4  0  0  0
 10 12  4  0  0  0
 11 15  4  0  0  0
 12 13  4  0  0  0
 13 14  4  0  0  0
 14 15  4  0  0  0
 15 16  1  0  0  0
 16 17  4  0  0  0
 16 19  4  0  0  0
 17 18  4  0  0  0
 17 21  4  0  0  0
 18 24  4  0  0  0
 19 20  4  0  0  0
 20 21  4  0  0  0
 21 22  4  0  0  0
 22 23  4  0  0  0
 23 24  4  0  0  0
 24 25  1  0  0  0
 25 26  1  0  0  0
 26 27  1  0  0  0
 26 28  1  0  0  0
  3 29  1  0  0  0
  5 30  1  0  0  0
  6 31  1  0  0  0
  7 32  1  0  0  0
  8 33  1  0  0  0
 12 34  1  0  0  0
 14 35  1  0  0  0
 18 36  1  0  0  0
 20 37  1  0  0  0
 22 38  1  0  0  0
 23 39  1  0  0  0
 25 40  1  0  0  0
 26 41  1  0  0  0
 27 42  1  0  0  0
 27 43  1  0  0  0
 27 44  1  0  0  0
 28 45  1  0  0  0
 28 46  1  0  0  0
 28 47  1  0  0  0
M  END
$$$$
