6mwe_ligand
  -I-interpret- 

 69 73  0  0  0  0  0  0  0  0999 V2000
  -12.1270   34.4850  108.2580 C   0  0  0  0  0
  -12.3760   34.2590  106.9040 C   0  0  0  0  0
  -13.6490   33.8680  106.4830 C   0  0  0  0  0
  -14.6730   33.7000  107.4070 C   0  0  0  0  0
  -14.4270   33.9310  108.7580 C   0  0  0  0  0
  -13.1540   34.3280  109.1870 C   0  0  0  0  0
  -16.9220   33.1460  107.8650 C   0  0  0  0  0
  -15.9050   33.3140  106.9850 N   0  0  0  0  0
  -15.4570   33.7670  109.6780 C   0  0  0  0  0
  -16.7180   33.3630  109.2250 C   0  0  0  0  0
   -6.6010   30.6090  118.8030 C   0  0  0  0  0
   -6.7320   30.7880  120.1330 N   0  0  0  0  0
   -7.9680   30.8950  120.6880 C   0  0  0  0  0
   -9.1120   30.8530  119.9000 C   0  0  0  0  0
   -8.9990   30.6960  118.5330 C   0  0  0  0  0
   -7.7300   30.5650  117.9760 C   0  0  0  0  0
   -9.6430   32.6160  114.6670 C   0  0  0  0  0
   -9.5460   32.2220  116.0110 C   0  0  0  0  0
  -10.2160   31.0830  116.4680 C   0  0  0  0  0
  -10.9740   30.3490  115.5830 C   0  0  0  0  0
  -11.0670   30.7390  114.2500 C   0  0  0  0  0
  -10.4090   31.8720  113.7740 C   0  0  0  0  0
   -8.9690   35.9560  108.6040 C   0  0  0  0  0
   -8.9760   35.1160  109.7180 C   0  0  0  0  0
  -10.2070   34.4490  109.7310 C   0  0  0  0  0
  -10.8970   34.8690  108.6410 N   0  0  0  0  0
  -10.1400   35.7840  107.9650 N   0  0  0  0  0
  -10.6670   33.5210  110.6240 N   0  0  0  0  0
  -10.1580   33.3280  111.8510 C   0  0  0  0  0
  -10.5490   32.1810  112.4420 N   0  0  0  0  0
   -9.3870   34.1370  112.3730 O   0  0  0  0  0
  -10.1570   30.6620  117.7750 O   0  0  0  0  0
  -11.8110   29.9980  113.4210 F   0  0  0  0  0
   -8.1490   31.0700  122.1560 C   0  0  0  0  0
   -9.2870   30.9990  122.5970 O   0  0  0  0  0
   -7.0950   31.3500  122.9140 N   0  0  0  0  0
   -7.2080   31.5160  124.3540 C   0  0  0  0  0
   -7.8610   36.8750  108.1460 C   0  0  0  0  0
   -7.5880   37.9390  109.2040 C   0  0  0  0  0
   -6.6150   36.0250  107.9280 C   0  0  0  0  0
   -8.2510   37.5500  106.8290 C   0  0  0  0  0
  -11.5766   34.3877  106.1743 H   0  0  0  0  0
  -13.8402   33.6937  105.4241 H   0  0  0  0  0
  -12.9671   34.5137  110.2447 H   0  0  0  0  0
  -17.9045   32.8395  107.5062 H   0  0  0  0  0
  -15.2843   33.9508  110.7384 H   0  0  0  0  0
  -17.5349   33.2192  109.9322 H   0  0  0  0  0
   -5.6078   30.4976  118.3680 H   0  0  0  0  0
  -10.0960   30.9438  120.3601 H   0  0  0  0  0
   -7.6157   30.4287  116.9006 H   0  0  0  0  0
   -9.1174   33.5064  114.3220 H   0  0  0  0  0
   -8.9433   32.8090  116.7041 H   0  0  0  0  0
  -11.5026   29.4601  115.9273 H   0  0  0  0  0
   -8.1715   35.0003  110.4443 H   0  0  0  0  0
  -11.4512   32.9349  110.3379 H   0  0  0  0  0
  -10.9885   31.4789  111.8467 H   0  0  0  0  0
   -6.1806   31.4514  122.4736 H   0  0  0  0  0
   -7.8918   32.3366  124.5713 H   0  0  0  0  0
   -7.5907   30.5959  124.7956 H   0  0  0  0  0
   -6.2260   31.7396  124.7708 H   0  0  0  0  0
   -8.4922   38.5246  109.3703 H   0  0  0  0  0
   -7.2900   37.4561  110.1347 H   0  0  0  0  0
   -6.7874   38.5941  108.8605 H   0  0  0  0  0
   -6.3414   35.5370  108.8635 H   0  0  0  0  0
   -6.8201   35.2698  107.1692 H   0  0  0  0  0
   -5.7955   36.6623  107.5959 H   0  0  0  0  0
   -8.4229   36.7881  106.0687 H   0  0  0  0  0
   -9.1617   38.1308  106.9756 H   0  0  0  0  0
   -7.4452   38.2102  106.5080 H   0  0  0  0  0
  1  2  4  0  0  0
  1  6  4  0  0  0
 26  1  1  0  0  0
  2  3  4  0  0  0
  3  4  4  0  0  0
  5  4  4  0  0  0
  4  8  4  0  0  0
  6  5  4  0  0  0
  5  9  4  0  0  0
  8  7  4  0  0  0
 10  7  4  0  0  0
  9 10  4  0  0  0
 11 12  4  0  0  0
 16 11  4  0  0  0
 13 12  4  0  0  0
 14 13  4  0  0  0
 13 34  1  0  0  0
 15 14  4  0  0  0
 15 16  4  0  0  0
 32 15  1  0  0  0
 17 18  4  0  0  0
 22 17  4  0  0  0
 18 19  4  0  0  0
 20 19  4  0  0  0
 19 32  1  0  0  0
 21 20  4  0  0  0
 22 21  4  0  0  0
 21 33  1  0  0  0
 30 22  1  0  0  0
 24 23  4  0  0  0
 27 23  4  0  0  0
 23 38  1  0  0  0
 25 24  4  0  0  0
 25 26  4  0  0  0
 28 25  1  0  0  0
 26 27  4  0  0  0
 29 28  1  0  0  0
 29 30  1  0  0  0
 29 31  2  0  0  0
 34 35  2  0  0  0
 34 36  1  0  0  0
 36 37  1  0  0  0
 38 39  1  0  0  0
 38 40  1  0  0  0
 38 41  1  0  0  0
  2 42  1  0  0  0
  3 43  1  0  0  0
  6 44  1  0  0  0
  7 45  1  0  0  0
  9 46  1  0  0  0
 10 47  1  0  0  0
 11 48  1  0  0  0
 14 49  1  0  0  0
 16 50  1  0  0  0
 17 51  1  0  0  0
 18 52  1  0  0  0
 20 53  1  0  0  0
 24 54  1  0  0  0
 28 55  1  0  0  0
 30 56  1  0  0  0
 36 57  1  0  0  0
 37 58  1  0  0  0
 37 59  1  0  0  0
 37 60  1  0  0  0
 39 61  1  0  0  0
 39 62  1  0  0  0
 39 63  1  0  0  0
 40 64  1  0  0  0
 40 65  1  0  0  0
 40 66  1  0  0  0
 41 67  1  0  0  0
 41 68  1  0  0  0
 41 69  1  0  0  0
M  END
$$$$
