3afk_ligand
  -I-interpret- 

 66 67  0  0  0  0  0  0  0  0999 V2000
   13.2640    6.2850  -19.2990 C   0  0  0  0  0
   12.5760    7.6050  -18.9450 C   0  0  0  0  0
   13.4270    8.4650  -18.0100 C   0  0  0  0  0
   13.8370    7.6200  -16.8030 C   0  0  0  0  0
   14.5580    6.3670  -17.3050 C   0  0  0  0  0
   15.0530    5.5340  -16.1220 C   0  0  0  0  0
   12.2630    8.3260  -20.1400 O   0  0  0  0  0
   12.6550    9.5860  -17.5720 O   0  0  0  0  0
   12.6650    7.2300  -16.0820 O   0  0  0  0  0
   13.6650    5.5830  -18.1110 O   0  0  0  0  0
   15.7760    4.4010  -16.6110 O   0  0  0  0  0
   12.5530    1.9970  -22.1450 O   0  0  0  0  0
   11.9950    3.1270  -22.8340 C   0  0  0  0  0
   11.6040    4.2330  -21.8520 C   0  0  0  0  0
   11.2450    5.4370  -22.6160 N   0  0  0  0  0
   12.7770    4.6150  -20.9490 C   0  0  0  0  0
   12.2530    5.5140  -19.9630 O   0  0  0  0  0
   13.4110    3.3670  -20.3320 C   0  0  0  0  0
   12.5190    2.7720  -19.3850 O   0  0  0  0  0
   13.7470    2.3570  -21.4310 C   0  0  0  0  0
   14.3530    1.1010  -20.8010 C   0  0  0  0  0
   14.7040    0.1770  -21.8350 O   0  0  0  0  0
    9.9900    5.8490  -22.7750 C   0  0  0  0  0
    8.9630    5.1470  -22.2260 O   0  0  0  0  0
    9.7310    7.0160  -23.4850 C   0  0  0  0  0
   13.5820    4.7050  -26.2940 N   0  3  0  0  0
   12.6280    3.5920  -26.1880 C   0  0  0  0  0
   11.2090    4.1530  -26.0790 C   0  0  0  0  0
   11.0850    5.3960  -26.1130 O   0  0  0  0  0
   12.9500    2.7690  -24.9380 C   0  0  0  0  0
   12.9370    3.6310  -23.7910 O   0  0  0  0  0
   14.3220    2.1090  -25.0800 C   0  0  0  0  0
   10.2780    3.3260  -25.9650 O   0  0  0  0  0
   14.1549    6.4512  -19.9047 H   0  0  0  0  0
   11.6553    7.3667  -18.4125 H   0  0  0  0  0
   14.3167    8.8204  -18.5299 H   0  0  0  0  0
   14.4938    8.1943  -16.1497 H   0  0  0  0  0
   15.4149    6.6699  -17.9068 H   0  0  0  0  0
   14.2011    5.1962  -15.5319 H   0  0  0  0  0
   15.7067    6.1415  -15.4962 H   0  0  0  0  0
   11.7293    7.7732  -20.7154 H   0  0  0  0  0
   12.3996   10.1138  -18.3321 H   0  0  0  0  0
   12.2099    8.0137  -15.7654 H   0  0  0  0  0
   16.0874    3.8771  -15.8693 H   0  0  0  0  0
   11.0941    2.7989  -23.3524 H   0  0  0  0  0
   10.7764    3.8655  -21.2453 H   0  0  0  0  0
   11.9934    5.9820  -23.0442 H   0  0  0  0  0
   13.5766    5.1032  -21.5061 H   0  0  0  0  0
   14.3268    3.6582  -19.8176 H   0  0  0  0  0
   12.9300    1.9912  -19.0068 H   0  0  0  0  0
   14.4610    2.8055  -22.1217 H   0  0  0  0  0
   13.6262    0.6411  -20.1314 H   0  0  0  0  0
   15.2440    1.3703  -20.2339 H   0  0  0  0  0
   15.0845   -0.6119  -21.4420 H   0  0  0  0  0
    9.0832    6.7885  -24.3316 H   0  0  0  0  0
    9.2378    7.7355  -22.8314 H   0  0  0  0  0
   10.6697    7.4357  -23.8467 H   0  0  0  0  0
   14.5292    4.3336  -26.3668 H   0  0  0  0  0
   13.3673    5.2573  -27.1242 H   0  0  0  0  0
   13.5092    5.2938  -25.4643 H   0  0  0  0  0
   12.7018    2.9572  -27.0710 H   0  0  0  0  0
   12.2002    1.9873  -24.8163 H   0  0  0  0  0
   14.3195    1.4521  -25.9498 H   0  0  0  0  0
   15.0828    2.8791  -25.2069 H   0  0  0  0  0
   14.5382    1.5269  -24.1841 H   0  0  0  0  0
   10.6396    2.4367  -25.9653 H   0  0  0  0  0
  1  2  1  0  0  0
  1 10  1  0  0  0
 17  1  1  0  0  0
  2  3  1  0  0  0
  2  7  1  0  0  0
  3  4  1  0  0  0
  3  8  1  0  0  0
  5  4  1  0  0  0
  4  9  1  0  0  0
  5  6  1  0  0  0
 10  5  1  0  0  0
  6 11  1  0  0  0
 13 12  1  0  0  0
 12 20  1  0  0  0
 13 14  1  0  0  0
 31 13  1  0  0  0
 14 15  1  0  0  0
 14 16  1  0  0  0
 15 23  1  0  0  0
 16 17  1  0  0  0
 16 18  1  0  0  0
 18 19  1  0  0  0
 20 18  1  0  0  0
 20 21  1  0  0  0
 21 22  1  0  0  0
 23 24  2  0  0  0
 23 25  1  0  0  0
 27 26  1  0  0  0
 27 28  1  0  0  0
 30 27  1  0  0  0
 28 29  2  0  0  0
 28 33  1  0  0  0
 30 31  1  0  0  0
 30 32  1  0  0  0
  1 34  1  0  0  0
  2 35  1  0  0  0
  3 36  1  0  0  0
  4 37  1  0  0  0
  5 38  1  0  0  0
  6 39  1  0  0  0
  6 40  1  0  0  0
  7 41  1  0  0  0
  8 42  1  0  0  0
  9 43  1  0  0  0
 11 44  1  0  0  0
 13 45  1  0  0  0
 14 46  1  0  0  0
 15 47  1  0  0  0
 16 48  1  0  0  0
 18 49  1  0  0  0
 19 50  1  0  0  0
 20 51  1  0  0  0
 21 52  1  0  0  0
 21 53  1  0  0  0
 22 54  1  0  0  0
 25 55  1  0  0  0
 25 56  1  0  0  0
 25 57  1  0  0  0
 26 58  1  0  0  0
 26 59  1  0  0  0
 26 60  1  0  0  0
 27 61  1  0  0  0
 30 62  1  0  0  0
 32 63  1  0  0  0
 32 64  1  0  0  0
 32 65  1  0  0  0
 33 66  1  0  0  0
M  END
$$$$
