### 
### Created by X-TOOL on Mon Sep 10 21:13:30 2018
### 

@<TRIPOS>MOLECULE
5l0c_ligand
   45    45     1     0     0
SMALL
GAST_HUCK


@<TRIPOS>ATOM
      1 C1         46.1670    8.2570   14.7750 C.3       1 PIO         0.1512
      2 O1         45.6390    7.5850   15.9380 O.3       1 PIO        -0.2454
      3 P1         44.0680    7.2630   16.1380 P.3       1 PIO         0.2557
      4 C2         46.5470    7.2480   13.7010 C.3       1 PIO         0.1175
      5 O2         47.5160    6.3350   14.2020 O.3       1 PIO        -0.3861
      6 C3         47.0960    7.9720   12.4790 C.3       1 PIO         0.1172
      7 O3         47.4820    7.0280   11.4860 O.3       1 PIO        -0.3861
      8 C4         48.2840    8.8340   12.8780 C.3       1 PIO         0.1503
      9 O4         48.6160    9.5990   11.7000 O.3       1 PIO        -0.2672
     10 P4         49.7420    9.3640   10.5790 P.3       1 PIO         0.2013
     11 C5         47.9170    9.8040   13.9860 C.3       1 PIO         0.1507
     12 O5         49.1150   10.4970   14.3940 O.3       1 PIO        -0.2672
     13 P5         49.3010   12.0350   14.8460 P.3       1 PIO         0.2013
     14 C6         47.3740    9.0760   15.2060 C.3       1 PIO         0.1222
     15 O6         47.0030   10.0100   16.2130 O.3       1 PIO        -0.3857
     16 O11        43.1630    8.2780   15.5510 O.co2     1 PIO        -0.6177
     17 O12        44.0500    5.8550   15.5360 O.co2     1 PIO        -0.6177
     18 O13        43.7860    6.9160   17.6810 O.3       1 PIO        -0.2514
     19 C1C        43.4620    7.9830   18.5960 C.3       1 PIO         0.1117
     20 C2C        42.5020    7.4620   19.6320 C.3       1 PIO         0.1065
     21 O2C        41.1440    7.7150   19.1530 O.3       1 PIO        -0.3869
     22 C3C        42.6670    8.1690   20.9500 C.3       1 PIO         0.0727
     23 O3C        41.6940    7.6470   21.8810 O.3       1 PIO        -0.3924
     24 O41        49.5330    7.8960   10.1990 O.co2     1 PIO        -0.5537
     25 O42        49.1800   10.2470    9.4620 O.co2     1 PIO        -0.5537
     26 O43        51.1560    9.6880   10.9330 O.co2     1 PIO        -0.5537
     27 O51        50.8100   12.2800   14.9100 O.co2     1 PIO        -0.5537
     28 O52        48.5800   12.4590   16.0830 O.co2     1 PIO        -0.5537
     29 O53        48.7510   12.6830   13.5730 O.co2     1 PIO        -0.5537
     30 H1         45.4002    8.9324   14.3678 H         1 PIO         0.0711
     31 H2         45.6481    6.6859   13.4078 H         1 PIO         0.0651
     32 H3         47.7436    5.7118   13.5221 H         1 PIO         0.2100
     33 H4         46.3094    8.6204   12.0657 H         1 PIO         0.0650
     34 H5         47.8229    7.4886   10.7283 H         1 PIO         0.2100
     35 H6         49.1287    8.2043   13.1943 H         1 PIO         0.0706
     36 H7         47.1675   10.5193   13.6164 H         1 PIO         0.0706
     37 H8         48.1479    8.4048   15.6066 H         1 PIO         0.0654
     38 H9         47.7640   10.5185   16.4676 H         1 PIO         0.2100
     39 H10        42.9959    8.8132   18.0451 H         1 PIO         0.0647
     40 H11        44.3792    8.3387   19.0882 H         1 PIO         0.0647
     41 H12        42.6623    6.3827   19.7716 H         1 PIO         0.0643
     42 H13        40.5189    7.3938   19.7922 H         1 PIO         0.2100
     43 H14        42.5064    9.2486   20.8135 H         1 PIO         0.0584
     44 H15        43.6813    7.9954   21.3387 H         1 PIO         0.0584
     45 H16        40.8197    7.7972   21.5410 H         1 PIO         0.2095
@<TRIPOS>BOND
     1    1    2 1  
     2    1    4 1  
     3    1   14 1  
     4    2    3 1  
     5    3   16 ar 
     6    3   17 ar 
     7    3   18 1  
     8    4    5 1  
     9    4    6 1  
    10    6    7 1  
    11    6    8 1  
    12    8    9 1  
    13    8   11 1  
    14    9   10 1  
    15   10   24 ar 
    16   10   25 ar 
    17   10   26 ar 
    18   11   12 1  
    19   11   14 1  
    20   12   13 1  
    21   13   27 ar 
    22   13   28 ar 
    23   13   29 ar 
    24   14   15 1  
    25   18   19 1  
    26   19   20 1  
    27   20   21 1  
    28   20   22 1  
    29   22   23 1  
    30    1   30 1  
    31    4   31 1  
    32    5   32 1  
    33    6   33 1  
    34    7   34 1  
    35    8   35 1  
    36   11   36 1  
    37   14   37 1  
    38   15   38 1  
    39   19   39 1  
    40   19   40 1  
    41   20   41 1  
    42   21   42 1  
    43   22   43 1  
    44   22   44 1  
    45   23   45 1  
@<TRIPOS>SUBSTRUCTURE
     1 PIO         1

