5l0c_ligand
  -I-interpret- 

 50 50  0  0  0  0  0  0  0  0999 V2000
   46.1670    8.2570   14.7750 C   0  0  0  0  0
   45.6390    7.5850   15.9380 O   0  0  0  0  0
   44.0680    7.2630   16.1380 P   0  0  0  0  0
   46.5470    7.2480   13.7010 C   0  0  0  0  0
   47.5160    6.3350   14.2020 O   0  0  0  0  0
   47.0960    7.9720   12.4790 C   0  0  0  0  0
   47.4820    7.0280   11.4860 O   0  0  0  0  0
   48.2840    8.8340   12.8780 C   0  0  0  0  0
   48.6160    9.5990   11.7000 O   0  0  0  0  0
   49.7420    9.3640   10.5790 P   0  0  0  0  0
   47.9170    9.8040   13.9860 C   0  0  0  0  0
   49.1150   10.4970   14.3940 O   0  0  0  0  0
   49.3010   12.0350   14.8460 P   0  0  0  0  0
   47.3740    9.0760   15.2060 C   0  0  0  0  0
   47.0030   10.0100   16.2130 O   0  0  0  0  0
   43.1630    8.2780   15.5510 O   0  0  0  0  0
   44.0500    5.8550   15.5360 O   0  0  0  0  0
   43.7860    6.9160   17.6810 O   0  0  0  0  0
   43.4620    7.9830   18.5960 C   0  0  0  0  0
   42.5020    7.4620   19.6320 C   0  0  0  0  0
   41.1440    7.7150   19.1530 O   0  0  0  0  0
   42.6670    8.1690   20.9500 C   0  0  0  0  0
   41.6940    7.6470   21.8810 O   0  0  0  0  0
   49.5330    7.8960   10.1990 O   0  0  0  0  0
   49.1800   10.2470    9.4620 O   0  0  0  0  0
   51.1560    9.6880   10.9330 O   0  0  0  0  0
   50.8100   12.2800   14.9100 O   0  0  0  0  0
   48.5800   12.4590   16.0830 O   0  0  0  0  0
   48.7510   12.6830   13.5730 O   0  0  0  0  0
   45.4111    8.9155   14.3471 H   0  0  0  0  0
   45.6562    6.6894   13.4137 H   0  0  0  0  0
   47.1612    5.8838   14.9715 H   0  0  0  0  0
   46.3185    8.6149   12.0663 H   0  0  0  0  0
   46.7235    6.4916   11.2440 H   0  0  0  0  0
   49.1032    8.2115   13.2380 H   0  0  0  0  0
   47.1540   10.4842   13.6074 H   0  0  0  0  0
   48.1399    8.4207   15.6208 H   0  0  0  0  0
   46.6625    9.5376   16.9762 H   0  0  0  0  0
   44.6776    5.2998   16.0045 H   0  0  0  0  0
   43.0043    8.8090   18.0517 H   0  0  0  0  0
   44.3700    8.3405   19.0816 H   0  0  0  0  0
   42.6969    6.4001   19.7822 H   0  0  0  0  0
   40.5124    7.3904   19.7990 H   0  0  0  0  0
   42.5146    9.2401   20.8171 H   0  0  0  0  0
   43.6733    8.0040   21.3350 H   0  0  0  0  0
   41.7907    8.0919   22.7262 H   0  0  0  0  0
   48.6089    7.7510    9.9830 H   0  0  0  0  0
   48.2725    9.9921    9.2801 H   0  0  0  0  0
   51.2154   11.9885   14.0901 H   0  0  0  0  0
   49.2524   12.3731   12.8152 H   0  0  0  0  0
  1  2  1  0  0  0
  1  4  1  0  0  0
  1 14  1  0  0  0
  2  3  1  0  0  0
  3 16  2  0  0  0
  3 17  1  0  0  0
  3 18  1  0  0  0
  4  5  1  0  0  0
  4  6  1  0  0  0
  6  7  1  0  0  0
  6  8  1  0  0  0
  8  9  1  0  0  0
  8 11  1  0  0  0
  9 10  1  0  0  0
 10 24  1  0  0  0
 10 25  1  0  0  0
 10 26  2  0  0  0
 11 12  1  0  0  0
 11 14  1  0  0  0
 12 13  1  0  0  0
 13 27  1  0  0  0
 13 28  2  0  0  0
 13 29  1  0  0  0
 14 15  1  0  0  0
 18 19  1  0  0  0
 19 20  1  0  0  0
 20 21  1  0  0  0
 20 22  1  0  0  0
 22 23  1  0  0  0
  1 30  1  0  0  0
  4 31  1  0  0  0
  5 32  1  0  0  0
  6 33  1  0  0  0
  7 34  1  0  0  0
  8 35  1  0  0  0
 11 36  1  0  0  0
 14 37  1  0  0  0
 15 38  1  0  0  0
 17 39  1  0  0  0
 19 40  1  0  0  0
 19 41  1  0  0  0
 20 42  1  0  0  0
 21 43  1  0  0  0
 22 44  1  0  0  0
 22 45  1  0  0  0
 23 46  1  0  0  0
 24 47  1  0  0  0
 25 48  1  0  0  0
 27 49  1  0  0  0
 29 50  1  0  0  0
M  END
$$$$
