3fw3_ligand
  -I-interpret- 

 36 37  0  0  0  0  0  0  0  0999 V2000
    3.5390    7.3870   21.0440 S   0  0  0  0  0
    3.3660    7.0790   19.3060 C   0  0  0  0  0
    2.1230    7.5230   18.9740 C   0  0  0  0  0
    1.3540    8.0980   20.0050 C   0  0  0  0  0
   -0.0230    8.7530   19.8020 C   0  0  0  0  0
   -0.3310    9.7780   20.8950 C   0  0  0  0  0
   -0.2740    9.2020   22.3320 C   0  0  0  0  0
    1.4540    8.8690   22.7280 S   0  0  0  0  0
    1.9710    8.1570   21.2190 C   0  0  0  0  0
    4.7520    6.4260   18.5050 S   0  0  0  0  0
    5.4310    5.6620   19.5070 O   0  0  0  0  0
    5.3820    7.5460   17.8690 O   0  0  0  0  0
    4.1370    5.4950   17.2910 N   0  0  0  0  0
   -1.0620    7.7060   19.8070 N   0  3  0  0  0
   -0.7580   10.2000   23.3920 C   0  0  0  0  0
    2.1600   10.0790   22.7470 O   0  0  0  0  0
    1.6480    7.8690   23.7090 O   0  0  0  0  0
   -1.2840    7.1270   18.4880 C   0  0  0  0  0
   -2.5530    6.2770   18.5180 C   0  0  0  0  0
    1.7400    7.4376   17.9571 H   0  0  0  0  0
   -0.0111    9.2767   18.8461 H   0  0  0  0  0
   -1.3482   10.1327   20.7287 H   0  0  0  0  0
    0.4266   10.5589   20.8291 H   0  0  0  0  0
   -0.9126    8.3188   22.3501 H   0  0  0  0  0
    4.2621    4.4829   17.3111 H   0  0  0  0  0
    3.6315    5.9312   16.5199 H   0  0  0  0  0
   -1.9362    8.1339   20.1122 H   0  0  0  0  0
   -0.7510    6.9593   20.4283 H   0  0  0  0  0
   -0.6563    9.7547   24.3817 H   0  0  0  0  0
   -0.1562   11.1071   23.3367 H   0  0  0  0  0
   -1.8041   10.4447   23.2080 H   0  0  0  0  0
   -0.4329    6.5032   18.2150 H   0  0  0  0  0
   -1.3957    7.9243   17.7532 H   0  0  0  0  0
   -2.4377    5.4801   19.2527 H   0  0  0  0  0
   -3.4022    6.9038   18.7901 H   0  0  0  0  0
   -2.7213    5.8428   17.5325 H   0  0  0  0  0
  1  2  4  0  0  0
  1  9  4  0  0  0
  2  3  4  0  0  0
  2 10  1  0  0  0
  3  4  4  0  0  0
  4  5  1  0  0  0
  4  9  4  0  0  0
  5  6  1  0  0  0
  5 14  1  0  0  0
  6  7  1  0  0  0
  7  8  1  0  0  0
  7 15  1  0  0  0
  8  9  1  0  0  0
  8 16  2  0  0  0
  8 17  2  0  0  0
 10 11  2  0  0  0
 10 12  2  0  0  0
 10 13  1  0  0  0
 14 18  1  0  0  0
 18 19  1  0  0  0
  3 20  1  0  0  0
  5 21  1  0  0  0
  6 22  1  0  0  0
  6 23  1  0  0  0
  7 24  1  0  0  0
 13 25  1  0  0  0
 13 26  1  0  0  0
 14 27  1  0  0  0
 14 28  1  0  0  0
 15 29  1  0  0  0
 15 30  1  0  0  0
 15 31  1  0  0  0
 18 32  1  0  0  0
 18 33  1  0  0  0
 19 34  1  0  0  0
 19 35  1  0  0  0
 19 36  1  0  0  0
M  END
$$$$
