4xh2_ligand
  -I-interpret- 

230229  0  0  0  0  0  0  0  0999 V2000
   30.5360    3.3680  140.7900 N   0  3  0  0  0
   31.0210    3.2910  139.3720 C   0  0  0  0  0
   32.4960    3.6450  139.2920 C   0  0  0  0  0
   33.3570    2.8290  139.6330 O   0  0  0  0  0
   32.7960    4.8660  138.8530 N   0  0  0  0  0
   34.1590    5.3790  138.9520 C   0  0  0  0  0
   34.4930    5.6900  140.4140 C   0  0  0  0  0
   35.6640    5.7540  140.7710 O   0  0  0  0  0
   34.3740    6.6130  138.0580 C   0  0  0  0  0
   33.8550    7.7960  138.6450 O   0  0  0  0  0
   33.4670    5.8720  141.2530 N   0  0  0  0  0
   33.6620    6.1030  142.6880 C   0  0  0  0  0
   34.2760    4.9010  143.3960 C   0  0  0  0  0
   35.0490    5.0670  144.3250 O   0  0  0  0  0
   32.3520    6.4820  143.3520 C   0  0  0  0  0
   33.9340    3.6960  142.9520 N   0  0  0  0  0
   34.4370    2.4650  143.5690 C   0  0  0  0  0
   35.7160    1.9010  142.9210 C   0  0  0  0  0
   36.3510    1.0240  143.4820 O   0  0  0  0  0
   33.3540    1.3650  143.5490 C   0  0  0  0  0
   33.6880    0.3490  144.5010 O   0  0  0  0  0
   33.2260    0.7510  142.1600 C   0  0  0  0  0
   36.0940    2.4090  141.7560 N   0  0  0  0  0
   37.1400    1.7880  140.9330 C   0  0  0  0  0
   38.5490    1.7880  141.5550 C   0  0  0  0  0
   39.2550    0.7780  141.5050 O   0  0  0  0  0
   37.1720    2.4750  139.5670 C   0  0  0  0  0
   38.1950    1.9490  138.5630 C   0  0  0  0  0
   38.2330    2.8610  137.3370 C   0  0  0  0  0
   36.8920    3.0210  136.7440 N   0  0  0  0  0
   36.3710    4.1600  136.2640 C   0  0  0  0  0
   37.0520    5.3080  136.2880 N   0  0  0  0  0
   35.1370    4.1540  135.7580 N   0  0  0  0  0
   38.9680    2.9140  142.1170 N   0  0  0  0  0
   40.3440    3.0400  142.6080 C   0  0  0  0  0
   40.6250    2.0780  143.7560 C   0  0  0  0  0
   41.6130    1.3470  143.7300 O   0  0  0  0  0
   40.6300    4.4770  143.0530 C   0  0  0  0  0
   40.6800    5.4720  141.9100 C   0  0  0  0  0
   40.8130    6.8950  142.4060 C   0  0  0  0  0
   39.8280    7.4410  142.9570 O   0  0  0  0  0
   41.9130    7.4510  142.2570 O   0  0  0  0  0
   39.7470    2.0740  144.7520 N   0  0  0  0  0
   39.9090    1.1890  145.9020 C   0  0  0  0  0
   39.7780   -0.2700  145.4850 C   0  0  0  0  0
   40.5590   -1.0990  145.9330 O   0  0  0  0  0
   38.9030    1.5110  147.0120 C   0  0  0  0  0
   39.0700    0.7180  148.3120 C   0  0  0  0  0
   40.5340    0.7080  148.7860 C   0  0  0  0  0
   38.1540    1.2870  149.3810 C   0  0  0  0  0
   38.8090   -0.5820  144.6240 N   0  0  0  0  0
   38.6570   -1.9530  144.1320 C   0  0  0  0  0
   39.9340   -2.4410  143.4110 C   0  0  0  0  0
   40.3900   -3.5520  143.6480 O   0  0  0  0  0
   37.4240   -2.0880  143.2260 C   0  0  0  0  0
   36.1160   -1.9150  143.9800 C   0  0  0  0  0
   36.1150   -1.9970  145.2320 O   0  0  0  0  0
   35.0840   -1.6960  143.3130 O   0  0  0  0  0
   40.5210   -1.6020  142.5600 N   0  0  0  0  0
   41.7860   -1.9540  141.9010 C   0  0  0  0  0
   42.9430   -2.0770  142.9070 C   0  0  0  0  0
   43.7540   -2.9950  142.8120 O   0  0  0  0  0
   42.1110   -0.9650  140.7770 C   0  0  0  0  0
   41.2510   -1.1760  139.5330 C   0  0  0  0  0
   41.5040   -0.1600  138.4300 C   0  0  0  0  0
   42.4810    0.6140  138.5280 O   0  0  0  0  0
   40.7160   -0.1350  137.4550 O   0  0  0  0  0
   43.0030   -1.1750  143.8870 N   0  0  0  0  0
   43.9640   -1.3080  144.9780 C   0  0  0  0  0
   43.8400   -2.6730  145.6590 C   0  0  0  0  0
   44.8360   -3.3600  145.8350 O   0  0  0  0  0
   43.8020   -0.1780  146.0140 C   0  0  0  0  0
   44.8920   -0.1110  147.1030 C   0  0  0  0  0
   45.2110    1.3170  147.5370 C   0  0  0  0  0
   44.5110   -0.9450  148.3130 C   0  0  0  0  0
   42.6210   -3.0720  146.0280 N   0  0  0  0  0
   42.4340   -4.3330  146.7710 C   0  0  0  0  0
   42.7810   -5.5610  145.9120 C   0  0  0  0  0
   43.4470   -6.4950  146.3820 O   0  0  0  0  0
   41.0020   -4.4540  147.3140 C   0  0  0  0  0
   40.5870   -3.3540  148.2860 C   0  0  0  0  0
   41.5430   -3.2820  149.8140 S   0  0  0  0  0
   41.0890   -4.8400  150.5760 C   0  0  0  0  0
   42.3440   -5.5380  144.6530 N   0  0  0  0  0
   42.5710   -6.6480  143.7300 C   0  0  0  0  0
   44.0600   -6.8750  143.4420 C   0  0  0  0  0
   44.4870   -8.0050  143.2010 O   0  0  0  0  0
   41.8030   -6.4190  142.4400 C   0  0  0  0  0
   44.8450   -5.8020  143.4940 N   0  0  0  0  0
   46.2760   -5.8580  143.1960 C   0  0  0  0  0
   47.1550   -6.3830  144.3440 C   0  0  0  0  0
   48.3330   -6.6300  144.1290 O   0  0  0  0  0
   46.7690   -4.4640  142.7850 C   0  0  0  0  0
   46.8590   -3.6190  143.9200 O   0  0  0  0  0
   46.6010   -6.5630  145.5430 N   0  0  0  0  0
   47.4100   -6.9250  146.7080 C   0  0  0  0  0
   48.0220   -8.3290  146.5960 C   0  0  0  0  0
   47.3850   -9.2630  146.0990 O   0  0  0  0  0
   46.5790   -6.8600  147.9870 C   0  0  0  0  0
   45.8930   -5.5420  148.3550 C   0  0  0  0  0
   44.9260   -5.7860  149.5000 C   0  0  0  0  0
   46.9110   -4.4740  148.7250 C   0  0  0  0  0
   49.2550   -8.4730  147.0770 N   0  0  0  0  0
   49.9540   -9.7650  147.0640 C   0  0  0  0  0
   50.5810  -10.1790  148.4140 C   0  0  0  0  0
   51.1700  -11.2620  148.5130 O   0  0  0  0  0
   51.0270   -9.7600  145.9670 C   0  0  0  0  0
   51.8920   -8.6470  146.1050 O   0  0  0  0  0
   50.4470   -9.3450  149.4460 N   0  0  0  0  0
   51.0620   -9.6250  150.7480 C   0  0  0  0  0
   50.5750   -8.6480  151.8120 C   0  0  0  0  0
   51.3600   -8.1730  152.6340 O   0  0  0  0  0
   52.5900   -9.5470  150.6450 C   0  0  0  0  0
   49.3890   -8.3190  151.8660 O   0  0  0  0  0
   29.5453    3.1273  140.8228 H   0  0  0  0  0
   31.0655    2.7129  141.3652 H   0  0  0  0  0
   30.6687    4.3159  141.1424 H   0  0  0  0  0
   30.4545    3.9980  138.7659 H   0  0  0  0  0
   30.8813    2.2740  139.0055 H   0  0  0  0  0
   32.0659    5.4487  138.4434 H   0  0  0  0  0
   34.8390    4.6074  138.5909 H   0  0  0  0  0
   33.8525    6.4446  137.1158 H   0  0  0  0  0
   35.4464    6.7467  137.9161 H   0  0  0  0  0
   34.0098    8.5384  138.0564 H   0  0  0  0  0
   32.5171    5.8493  140.8821 H   0  0  0  0  0
   34.3668    6.9295  142.7785 H   0  0  0  0  0
   31.9659    7.3940  142.8967 H   0  0  0  0  0
   31.6318    5.6748  143.2188 H   0  0  0  0  0
   32.5203    6.6487  144.4160 H   0  0  0  0  0
   33.3006    3.6253  142.1556 H   0  0  0  0  0
   34.6932    2.7503  144.5893 H   0  0  0  0  0
   32.3966    1.8150  143.8118 H   0  0  0  0  0
   33.0139   -0.3344  144.4877 H   0  0  0  0  0
   32.9510    1.5266  141.4452 H   0  0  0  0  0
   34.1795    0.3094  141.8701 H   0  0  0  0  0
   32.4563   -0.0207  142.1748 H   0  0  0  0  0
   35.6430    3.2599  141.4200 H   0  0  0  0  0
   36.8702    0.7354  140.8473 H   0  0  0  0  0
   37.4431    3.5133  139.7579 H   0  0  0  0  0
   36.1934    2.3018  139.1193 H   0  0  0  0  0
   37.9129    0.9423  138.2548 H   0  0  0  0  0
   39.1803    1.9299  139.0287 H   0  0  0  0  0
   38.8899    2.4123  136.5918 H   0  0  0  0  0
   38.5942    3.8419  137.6461 H   0  0  0  0  0
   36.3060    2.1876  136.6943 H   0  0  0  0  0
   36.6273    6.1606  135.9233 H   0  0  0  0  0
   37.9970    5.3325  136.6711 H   0  0  0  0  0
   34.5980    3.2882  135.7384 H   0  0  0  0  0
   38.3258    3.7012  142.2087 H   0  0  0  0  0
   41.0055    2.7820  141.7810 H   0  0  0  0  0
   41.6097    4.4808  143.5308 H   0  0  0  0  0
   39.8180    4.7808  143.7136 H   0  0  0  0  0
   39.7504    5.3920  141.3464 H   0  0  0  0  0
   41.5497    5.2420  141.2945 H   0  0  0  0  0
   39.0871    6.8306  142.9630 H   0  0  0  0  0
   38.9437    2.7014  144.7130 H   0  0  0  0  0
   40.9110    1.3553  146.2976 H   0  0  0  0  0
   37.9187    1.2557  146.6195 H   0  0  0  0  0
   39.0528    2.5596  147.2691 H   0  0  0  0  0
   38.7904   -0.3180  148.1209 H   0  0  0  0  0
   41.1594    0.2495  148.0200 H   0  0  0  0  0
   40.8646    1.7316  148.9620 H   0  0  0  0  0
   40.6113    0.1358  149.7105 H   0  0  0  0  0
   38.4103    2.3314  149.5590 H   0  0  0  0  0
   37.1192    1.2176  149.0455 H   0  0  0  0  0
   38.2772    0.7190  150.3031 H   0  0  0  0  0
   38.1661    0.1425  144.3043 H   0  0  0  0  0
   38.5036   -2.5945  144.9998 H   0  0  0  0  0
   37.4324   -3.0907  142.7987 H   0  0  0  0  0
   37.4788   -1.3052  142.4695 H   0  0  0  0  0
   37.0075   -2.1688  145.5410 H   0  0  0  0  0
   40.0857   -0.7009  142.3625 H   0  0  0  0  0
   41.6597   -2.9383  141.4500 H   0  0  0  0  0
   43.1521   -1.1157  140.4916 H   0  0  0  0  0
   41.9150    0.0400  141.1508 H   0  0  0  0  0
   40.2095   -1.0719  139.8372 H   0  0  0  0  0
   41.4973   -2.1589  139.1313 H   0  0  0  0  0
   40.0399   -0.8061  137.5741 H   0  0  0  0  0
   42.3664   -0.3781  143.8743 H   0  0  0  0  0
   44.9598   -1.2281  144.5420 H   0  0  0  0  0
   42.8600   -0.3639  146.5300 H   0  0  0  0  0
   43.8591    0.7595  145.4609 H   0  0  0  0  0
   45.7938   -0.5240  146.6510 H   0  0  0  0  0
   45.5643    1.8863  146.6773 H   0  0  0  0  0
   44.3110    1.7831  147.9381 H   0  0  0  0  0
   45.9847    1.2978  148.3045 H   0  0  0  0  0
   43.5769   -0.5702  148.7315 H   0  0  0  0  0
   44.3839   -1.9845  148.0108 H   0  0  0  0  0
   45.2995   -0.8770  149.0624 H   0  0  0  0  0
   41.8101   -2.4992  145.7939 H   0  0  0  0  0
   43.1241   -4.3063  147.6143 H   0  0  0  0  0
   40.9515   -5.3946  147.8625 H   0  0  0  0  0
   40.3330   -4.3853  146.4562 H   0  0  0  0  0
   39.5552   -3.5599  148.5709 H   0  0  0  0  0
   40.7446   -2.4056  147.7724 H   0  0  0  0  0
   40.0113   -4.8636  150.7374 H   0  0  0  0  0
   41.3775   -5.6614  149.9202 H   0  0  0  0  0
   41.6031   -4.9388  151.5320 H   0  0  0  0  0
   41.8343   -4.7185  144.3228 H   0  0  0  0  0
   42.2028   -7.5537  144.2119 H   0  0  0  0  0
   40.7379   -6.3482  142.6605 H   0  0  0  0  0
   42.1418   -5.4924  141.9766 H   0  0  0  0  0
   41.9801   -7.2526  141.7604 H   0  0  0  0  0
   44.4328   -4.9053  143.7517 H   0  0  0  0  0
   46.3779   -6.5783  142.3842 H   0  0  0  0  0
   46.0635   -4.0322  142.0751 H   0  0  0  0  0
   47.7555   -4.5553  142.3304 H   0  0  0  0  0
   47.1681   -2.7517  143.6482 H   0  0  0  0  0
   45.5935   -6.4462  145.6508 H   0  0  0  0  0
   48.2222   -6.1990  146.7441 H   0  0  0  0  0
   47.2881   -7.0441  148.7941 H   0  0  0  0  0
   45.7650   -7.5680  147.8311 H   0  0  0  0  0
   45.3427   -5.1760  147.4882 H   0  0  0  0  0
   44.1771   -6.5157  149.1922 H   0  0  0  0  0
   45.4740   -6.1673  150.3617 H   0  0  0  0  0
   44.4352   -4.8496  149.7652 H   0  0  0  0  0
   47.4958   -4.8121  149.5805 H   0  0  0  0  0
   47.5734   -4.2963  147.8778 H   0  0  0  0  0
   46.3907   -3.5510  148.9809 H   0  0  0  0  0
   49.7301   -7.6592  147.4675 H   0  0  0  0  0
   49.1882  -10.5133  146.8598 H   0  0  0  0  0
   50.5337   -9.7002  144.9968 H   0  0  0  0  0
   51.6168  -10.6727  146.0517 H   0  0  0  0  0
   52.5520   -8.6678  145.4082 H   0  0  0  0  0
   49.9029   -8.4905  149.3269 H   0  0  0  0  0
   50.7677  -10.6328  151.0412 H   0  0  0  0  0
   52.9420  -10.2810  149.9202 H   0  0  0  0  0
   52.8805   -8.5473  150.3220 H   0  0  0  0  0
   53.0298   -9.7574  151.6199 H   0  0  0  0  0
   48.9023   -8.7649  151.1689 H   0  0  0  0  0
  1  2  1  0  0  0
  2  3  1  0  0  0
  3  4  2  0  0  0
  3  5  1  0  0  0
  5  6  1  0  0  0
  6  7  1  0  0  0
  6  9  1  0  0  0
  7  8  2  0  0  0
  7 11  1  0  0  0
  9 10  1  0  0  0
 11 12  1  0  0  0
 12 13  1  0  0  0
 12 15  1  0  0  0
 13 14  2  0  0  0
 13 16  1  0  0  0
 16 17  1  0  0  0
 17 18  1  0  0  0
 17 20  1  0  0  0
 18 19  2  0  0  0
 18 23  1  0  0  0
 20 21  1  0  0  0
 20 22  1  0  0  0
 23 24  1  0  0  0
 24 25  1  0  0  0
 24 27  1  0  0  0
 25 26  2  0  0  0
 25 34  1  0  0  0
 27 28  1  0  0  0
 28 29  1  0  0  0
 29 30  1  0  0  0
 30 31  1  0  0  0
 31 32  1  0  0  0
 31 33  2  0  0  0
 34 35  1  0  0  0
 35 36  1  0  0  0
 35 38  1  0  0  0
 36 37  2  0  0  0
 36 43  1  0  0  0
 38 39  1  0  0  0
 39 40  1  0  0  0
 40 41  1  0  0  0
 40 42  2  0  0  0
 43 44  1  0  0  0
 44 45  1  0  0  0
 44 47  1  0  0  0
 45 46  2  0  0  0
 45 51  1  0  0  0
 47 48  1  0  0  0
 48 49  1  0  0  0
 48 50  1  0  0  0
 51 52  1  0  0  0
 52 53  1  0  0  0
 52 55  1  0  0  0
 53 54  2  0  0  0
 53 59  1  0  0  0
 55 56  1  0  0  0
 56 57  1  0  0  0
 56 58  2  0  0  0
 59 60  1  0  0  0
 60 61  1  0  0  0
 60 63  1  0  0  0
 61 62  2  0  0  0
 61 68  1  0  0  0
 63 64  1  0  0  0
 64 65  1  0  0  0
 65 66  2  0  0  0
 65 67  1  0  0  0
 68 69  1  0  0  0
 69 70  1  0  0  0
 69 72  1  0  0  0
 70 71  2  0  0  0
 70 76  1  0  0  0
 72 73  1  0  0  0
 73 74  1  0  0  0
 73 75  1  0  0  0
 76 77  1  0  0  0
 77 78  1  0  0  0
 77 80  1  0  0  0
 78 79  2  0  0  0
 78 84  1  0  0  0
 80 81  1  0  0  0
 81 82  1  0  0  0
 82 83  1  0  0  0
 84 85  1  0  0  0
 85 86  1  0  0  0
 85 88  1  0  0  0
 86 87  2  0  0  0
 86 89  1  0  0  0
 89 90  1  0  0  0
 90 91  1  0  0  0
 90 93  1  0  0  0
 91 92  2  0  0  0
 91 95  1  0  0  0
 93 94  1  0  0  0
 95 96  1  0  0  0
 96 97  1  0  0  0
 96 99  1  0  0  0
 97 98  2  0  0  0
 97103  1  0  0  0
 99100  1  0  0  0
100101  1  0  0  0
100102  1  0  0  0
103104  1  0  0  0
104105  1  0  0  0
104107  1  0  0  0
105106  2  0  0  0
105109  1  0  0  0
107108  1  0  0  0
109110  1  0  0  0
110111  1  0  0  0
110113  1  0  0  0
111112  2  0  0  0
111114  1  0  0  0
  1115  1  0  0  0
  1116  1  0  0  0
  1117  1  0  0  0
  2118  1  0  0  0
  2119  1  0  0  0
  5120  1  0  0  0
  6121  1  0  0  0
  9122  1  0  0  0
  9123  1  0  0  0
 10124  1  0  0  0
 11125  1  0  0  0
 12126  1  0  0  0
 15127  1  0  0  0
 15128  1  0  0  0
 15129  1  0  0  0
 16130  1  0  0  0
 17131  1  0  0  0
 20132  1  0  0  0
 21133  1  0  0  0
 22134  1  0  0  0
 22135  1  0  0  0
 22136  1  0  0  0
 23137  1  0  0  0
 24138  1  0  0  0
 27139  1  0  0  0
 27140  1  0  0  0
 28141  1  0  0  0
 28142  1  0  0  0
 29143  1  0  0  0
 29144  1  0  0  0
 30145  1  0  0  0
 32146  1  0  0  0
 32147  1  0  0  0
 33148  1  0  0  0
 34149  1  0  0  0
 35150  1  0  0  0
 38151  1  0  0  0
 38152  1  0  0  0
 39153  1  0  0  0
 39154  1  0  0  0
 41155  1  0  0  0
 43156  1  0  0  0
 44157  1  0  0  0
 47158  1  0  0  0
 47159  1  0  0  0
 48160  1  0  0  0
 49161  1  0  0  0
 49162  1  0  0  0
 49163  1  0  0  0
 50164  1  0  0  0
 50165  1  0  0  0
 50166  1  0  0  0
 51167  1  0  0  0
 52168  1  0  0  0
 55169  1  0  0  0
 55170  1  0  0  0
 57171  1  0  0  0
 59172  1  0  0  0
 60173  1  0  0  0
 63174  1  0  0  0
 63175  1  0  0  0
 64176  1  0  0  0
 64177  1  0  0  0
 67178  1  0  0  0
 68179  1  0  0  0
 69180  1  0  0  0
 72181  1  0  0  0
 72182  1  0  0  0
 73183  1  0  0  0
 74184  1  0  0  0
 74185  1  0  0  0
 74186  1  0  0  0
 75187  1  0  0  0
 75188  1  0  0  0
 75189  1  0  0  0
 76190  1  0  0  0
 77191  1  0  0  0
 80192  1  0  0  0
 80193  1  0  0  0
 81194  1  0  0  0
 81195  1  0  0  0
 83196  1  0  0  0
 83197  1  0  0  0
 83198  1  0  0  0
 84199  1  0  0  0
 85200  1  0  0  0
 88201  1  0  0  0
 88202  1  0  0  0
 88203  1  0  0  0
 89204  1  0  0  0
 90205  1  0  0  0
 93206  1  0  0  0
 93207  1  0  0  0
 94208  1  0  0  0
 95209  1  0  0  0
 96210  1  0  0  0
 99211  1  0  0  0
 99212  1  0  0  0
100213  1  0  0  0
101214  1  0  0  0
101215  1  0  0  0
101216  1  0  0  0
102217  1  0  0  0
102218  1  0  0  0
102219  1  0  0  0
103220  1  0  0  0
104221  1  0  0  0
107222  1  0  0  0
107223  1  0  0  0
108224  1  0  0  0
109225  1  0  0  0
110226  1  0  0  0
113227  1  0  0  0
113228  1  0  0  0
113229  1  0  0  0
114230  1  0  0  0
M  END
$$$$
