### 
### Created by X-TOOL on Mon Sep 10 21:13:25 2018
### 

@<TRIPOS>MOLECULE
4xh2_ligand
  227   226     1     0     0
SMALL
GAST_HUCK


@<TRIPOS>ATOM
      1 N          30.5360    3.3680  140.7900 N.4       1 GLY         0.2357
      2 CA         31.0210    3.2910  139.3720 C.3       1 GLY         0.0545
      3 C          32.4960    3.6450  139.2920 C.2       1 GLY         0.2237
      4 O          33.3570    2.8290  139.6330 O.2       1 GLY        -0.3910
      5 N          32.7960    4.8660  138.8530 N.am      1 SER        -0.2591
      6 CA         34.1590    5.3790  138.9520 C.3       1 SER         0.1540
      7 C          34.4930    5.6900  140.4140 C.2       1 SER         0.2062
      8 O          35.6640    5.7540  140.7710 O.2       1 SER        -0.3943
      9 CB         34.3740    6.6130  138.0580 C.3       1 SER         0.0843
     10 OG         33.8550    7.7960  138.6450 O.3       1 SER        -0.3903
     11 N          33.4670    5.8720  141.2530 N.am      1 ALA        -0.2639
     12 CA         33.6620    6.1030  142.6880 C.3       1 ALA         0.1282
     13 C          34.2760    4.9010  143.3960 C.2       1 ALA         0.2037
     14 O          35.0490    5.0670  144.3250 O.2       1 ALA        -0.3944
     15 CB         32.3520    6.4820  143.3520 C.3       1 ALA        -0.0244
     16 N          33.9340    3.6960  142.9520 N.am      1 THR        -0.2613
     17 CA         34.4370    2.4650  143.5690 C.3       1 THR         0.1565
     18 C          35.7160    1.9010  142.9210 C.2       1 THR         0.2065
     19 O          36.3510    1.0240  143.4820 O.2       1 THR        -0.3943
     20 CB         33.3540    1.3650  143.5490 C.3       1 THR         0.0924
     21 OG1        33.6880    0.3490  144.5010 O.3       1 THR        -0.3874
     22 CG2        33.2260    0.7510  142.1600 C.3       1 THR        -0.0346
     23 N          36.0940    2.4090  141.7560 N.am      1 ARG        -0.2636
     24 CA         37.1400    1.7880  140.9330 C.3       1 ARG         0.1311
     25 C          38.5490    1.7880  141.5550 C.2       1 ARG         0.2039
     26 O          39.2550    0.7780  141.5050 O.2       1 ARG        -0.3944
     27 CB         37.1720    2.4750  139.5670 C.3       1 ARG        -0.0092
     28 CG         38.1950    1.9490  138.5630 C.3       1 ARG        -0.0156
     29 CD         38.2330    2.8610  137.3370 C.3       1 ARG         0.0627
     30 NE         36.8920    3.0210  136.7440 N.pl3     1 ARG        -0.2723
     31 CZ         36.3710    4.1600  136.2640 C.cat     1 ARG         0.2882
     32 NH1        37.0520    5.3080  136.2880 N.pl3     1 ARG        -0.2849
     33 NH2        35.1370    4.1540  135.7580 N.pl3     1 ARG        -0.2849
     34 N          38.9680    2.9140  142.1170 N.am      1 GLU        -0.2636
     35 CA         40.3440    3.0400  142.6080 C.3       1 GLU         0.1325
     36 C          40.6250    2.0780  143.7560 C.2       1 GLU         0.2040
     37 O          41.6130    1.3470  143.7300 O.2       1 GLU        -0.3944
     38 CB         40.6300    4.4770  143.0530 C.3       1 GLU        -0.0008
     39 CG         40.6800    5.4720  141.9100 C.3       1 GLU         0.0044
     40 CD         40.8130    6.8950  142.4060 C.2       1 GLU         0.0350
     41 OE1        39.8280    7.4410  142.9570 O.co2     1 GLU        -0.5690
     42 OE2        41.9130    7.4510  142.2570 O.co2     1 GLU        -0.5690
     43 N          39.7470    2.0740  144.7520 N.am      1 LEU        -0.2637
     44 CA         39.9090    1.1890  145.9020 C.3       1 LEU         0.1312
     45 C          39.7780   -0.2700  145.4850 C.2       1 LEU         0.2040
     46 O          40.5590   -1.0990  145.9330 O.2       1 LEU        -0.3944
     47 CB         38.9030    1.5110  147.0120 C.3       1 LEU        -0.0101
     48 CG         39.0700    0.7180  148.3120 C.3       1 LEU        -0.0425
     49 CD1        40.5340    0.7080  148.7860 C.3       1 LEU        -0.0625
     50 CD2        38.1540    1.2870  149.3810 C.3       1 LEU        -0.0625
     51 N          38.8090   -0.5820  144.6240 N.am      1 ASP        -0.2622
     52 CA         38.6570   -1.9530  144.1320 C.3       1 ASP         0.1423
     53 C          39.9340   -2.4410  143.4110 C.2       1 ASP         0.2056
     54 O          40.3900   -3.5520  143.6480 O.2       1 ASP        -0.3943
     55 CB         37.4240   -2.0880  143.2260 C.3       1 ASP         0.0406
     56 CG         36.1160   -1.9150  143.9800 C.2       1 ASP         0.0393
     57 OD1        36.1150   -1.9970  145.2320 O.co2     1 ASP        -0.5688
     58 OD2        35.0840   -1.6960  143.3130 O.co2     1 ASP        -0.5688
     59 N          40.5210   -1.6020  142.5600 N.am      1 GLU        -0.2635
     60 CA         41.7860   -1.9540  141.9010 C.3       1 GLU         0.1325
     61 C          42.9430   -2.0770  142.9070 C.2       1 GLU         0.2040
     62 O          43.7540   -2.9950  142.8120 O.2       1 GLU        -0.3944
     63 CB         42.1110   -0.9650  140.7770 C.3       1 GLU        -0.0008
     64 CG         41.2510   -1.1760  139.5330 C.3       1 GLU         0.0044
     65 CD         41.5040   -0.1600  138.4300 C.2       1 GLU         0.0350
     66 OE1        42.4810    0.6140  138.5280 O.co2     1 GLU        -0.5690
     67 OE2        40.7160   -0.1350  137.4550 O.co2     1 GLU        -0.5690
     68 N          43.0030   -1.1750  143.8870 N.am      1 LEU        -0.2637
     69 CA         43.9640   -1.3080  144.9780 C.3       1 LEU         0.1312
     70 C          43.8400   -2.6730  145.6590 C.2       1 LEU         0.2039
     71 O          44.8360   -3.3600  145.8350 O.2       1 LEU        -0.3944
     72 CB         43.8020   -0.1780  146.0140 C.3       1 LEU        -0.0101
     73 CG         44.8920   -0.1110  147.1030 C.3       1 LEU        -0.0425
     74 CD1        45.2110    1.3170  147.5370 C.3       1 LEU        -0.0625
     75 CD2        44.5110   -0.9450  148.3130 C.3       1 LEU        -0.0625
     76 N          42.6210   -3.0720  146.0280 N.am      1 MET        -0.2637
     77 CA         42.4340   -4.3330  146.7710 C.3       1 MET         0.1317
     78 C          42.7810   -5.5610  145.9120 C.2       1 MET         0.2039
     79 O          43.4470   -6.4950  146.3820 O.2       1 MET        -0.3944
     80 CB         41.0020   -4.4540  147.3140 C.3       1 MET        -0.0034
     81 CG         40.5870   -3.3540  148.2860 C.3       1 MET        -0.0024
     82 SD         41.5430   -3.2820  149.8140 S.3       1 MET        -0.1639
     83 CE         41.0890   -4.8400  150.5760 C.3       1 MET        -0.0181
     84 N          42.3440   -5.5380  144.6530 N.am      1 ALA        -0.2640
     85 CA         42.5710   -6.6480  143.7300 C.3       1 ALA         0.1282
     86 C          44.0600   -6.8750  143.4420 C.2       1 ALA         0.2037
     87 O          44.4870   -8.0050  143.2010 O.2       1 ALA        -0.3944
     88 CB         41.8030   -6.4190  142.4400 C.3       1 ALA        -0.0244
     89 N          44.8450   -5.8020  143.4940 N.am      1 SER        -0.2616
     90 CA         46.2760   -5.8580  143.1960 C.3       1 SER         0.1539
     91 C          47.1550   -6.3830  144.3440 C.2       1 SER         0.2062
     92 O          48.3330   -6.6300  144.1290 O.2       1 SER        -0.3943
     93 CB         46.7690   -4.4640  142.7850 C.3       1 SER         0.0843
     94 OG         46.8590   -3.6190  143.9200 O.3       1 SER        -0.3903
     95 N          46.6010   -6.5630  145.5430 N.am      1 LEU        -0.2636
     96 CA         47.4100   -6.9250  146.7080 C.3       1 LEU         0.1312
     97 C          48.0220   -8.3290  146.5960 C.2       1 LEU         0.2040
     98 O          47.3850   -9.2630  146.0990 O.2       1 LEU        -0.3944
     99 CB         46.5790   -6.8600  147.9870 C.3       1 LEU        -0.0101
    100 CG         45.8930   -5.5420  148.3550 C.3       1 LEU        -0.0425
    101 CD1        44.9260   -5.7860  149.5000 C.3       1 LEU        -0.0625
    102 CD2        46.9110   -4.4740  148.7250 C.3       1 LEU        -0.0625
    103 N          49.2550   -8.4730  147.0770 N.am      1 SER        -0.2616
    104 CA         49.9540   -9.7650  147.0640 C.3       1 SER         0.1539
    105 C          50.5810  -10.1790  148.4140 C.2       1 SER         0.2056
    106 O          51.1700  -11.2620  148.5130 O.2       1 SER        -0.3943
    107 CB         51.0270   -9.7600  145.9670 C.3       1 SER         0.0843
    108 OG         51.8920   -8.6470  146.1050 O.3       1 SER        -0.3903
    109 N          50.4470   -9.3450  149.4460 N.am      1 ASP        -0.2697
    110 CA         51.0620   -9.6250  150.7480 C.3       1 ASP         0.0916
    111 C          50.5750   -8.6480  151.8120 C.2       1 ASP         0.0598
    112 O          51.3600   -8.1730  152.6340 O.co2     1 ASP        -0.5666
    113 CB         52.5900   -9.5470  150.6450 C.3       1 ASP        -0.0300
    114 OXT        49.3890   -8.3190  151.8660 O.co2     1 ASP        -0.5666
    115 H1         29.5570    3.1303  140.8236 H         1 GLY         0.2012
    116 H2         30.6666    4.3044  141.1394 H         1 GLY         0.2012
    117 H3         31.0585    2.7209  141.3595 H         1 GLY         0.2012
    118 H4         30.4459    3.9964  138.7543 H         1 GLY         0.1061
    119 H5         30.8736    2.2684  138.9944 H         1 GLY         0.1061
    120 H6         32.0802    5.4373  138.4514 H         1 SER         0.1885
    121 H7         34.8439    4.5913  138.6050 H         1 SER         0.0823
    122 H8         33.8702    6.4449  137.0947 H         1 SER         0.0606
    123 H9         35.4530    6.7449  137.8895 H         1 SER         0.0606
    124 H10        34.0082    8.5307  138.0626 H         1 SER         0.2097
    125 H11        32.5357    5.8498  140.8894 H         1 ALA         0.1883
    126 H12        34.3579    6.9478  142.7974 H         1 ALA         0.0797
    127 H13        32.5205    6.6505  144.4259 H         1 ALA         0.0277
    128 H14        31.6242    5.6681  143.2184 H         1 ALA         0.0277
    129 H15        31.9612    7.4023  142.8934 H         1 ALA         0.0277
    130 H16        33.3130    3.6267  142.1712 H         1 THR         0.1884
    131 H17        34.6721    2.7005  144.6175 H         1 THR         0.0826
    132 H18        32.3887    1.8131  143.8270 H         1 THR         0.0639
    133 H19        34.5295   -0.0302  144.2758 H         1 THR         0.2101
    134 H20        32.4495   -0.0280  142.1736 H         1 THR         0.0257
    135 H21        34.1876    0.3050  141.8662 H         1 THR         0.0257
    136 H22        32.9485    1.5328  141.4377 H         1 THR         0.0257
    137 H23        35.6519    3.2433  141.4266 H         1 ARG         0.1883
    138 H24        36.8544    0.7364  140.7829 H         1 ARG         0.0800
    139 H25        37.3856    3.5410  139.7341 H         1 ARG         0.0313
    140 H26        36.1748    2.3672  139.1154 H         1 ARG         0.0313
    141 H27        37.9130    0.9320  138.2530 H         1 ARG         0.0301
    142 H28        39.1895    1.9267  139.0325 H         1 ARG         0.0301
    143 H29        38.9066    2.4230  136.5858 H         1 ARG         0.0689
    144 H30        38.6117    3.8491  137.6374 H         1 ARG         0.0689
    145 H31        36.3003    2.1794  136.6938 H         1 ARG         0.2642
    146 H32        36.6263    6.1673  135.9121 H         1 ARG         0.2615
    147 H33        38.0031    5.3344  136.6824 H         1 ARG         0.2615
    148 H34        34.5958    3.2781  135.7308 H         1 ARG         0.2615
    149 H35        34.7252    5.0253  135.3944 H         1 ARG         0.2615
    150 H36        38.3384    3.6857  142.2069 H         1 GLU         0.1883
    151 H37        41.0239    2.7923  141.7795 H         1 GLU         0.0801
    152 H38        41.6008    4.4935  143.5701 H         1 GLU         0.0330
    153 H39        39.8380    4.7886  143.7499 H         1 GLU         0.0330
    154 H40        39.7542    5.3854  141.3224 H         1 GLU         0.0433
    155 H41        41.5435    5.2361  141.2707 H         1 GLU         0.0433
    156 H42        38.9595    2.6891  144.7138 H         1 LEU         0.1883
    157 H43        40.9209    1.3415  146.3054 H         1 LEU         0.0800
    158 H44        37.8941    1.3112  146.6218 H         1 LEU         0.0315
    159 H45        38.9976    2.5799  147.2539 H         1 LEU         0.0315
    160 H46        38.7701   -0.3227  148.1195 H         1 LEU         0.0298
    161 H47        40.6134    0.1308  149.7190 H         1 LEU         0.0232
    162 H48        40.8688    1.7405  148.9641 H         1 LEU         0.0232
    163 H49        41.1663    0.2454  148.0138 H         1 LEU         0.0232
    164 H50        37.1165    1.2819  149.0155 H         1 LEU         0.0232
    165 H51        38.4564    2.3192  149.6116 H         1 LEU         0.0232
    166 H52        38.2254    0.6721  150.2903 H         1 LEU         0.0232
    167 H53        38.1787    0.1283  144.3106 H         1 ASP         0.1884
    168 H54        38.5003   -2.6028  145.0056 H         1 ASP         0.0819
    169 H55        37.4343   -3.0868  142.7653 H         1 ASP         0.0478
    170 H56        37.4802   -1.3208  142.4397 H         1 ASP         0.0478
    171 H57        40.0942   -0.7186  142.3664 H         1 GLU         0.1883
    172 H58        41.6510   -2.9431  141.4390 H         1 GLU         0.0801
    173 H59        43.1680   -1.0861  140.4976 H         1 GLU         0.0330
    174 H60        41.9448    0.0566  141.1494 H         1 GLU         0.0330
    175 H61        40.1933   -1.1109  139.8279 H         1 GLU         0.0433
    176 H62        41.4594   -2.1796  139.1339 H         1 GLU         0.0433
    177 H63        42.3789   -0.3938  143.8745 H         1 LEU         0.1883
    178 H64        44.9736   -1.2321  144.5481 H         1 LEU         0.0800
    179 H65        42.8318   -0.3140  146.5142 H         1 LEU         0.0315
    180 H66        43.8047    0.7799  145.4732 H         1 LEU         0.0315
    181 H67        45.8095   -0.5394  146.6733 H         1 LEU         0.0298
    182 H68        45.9918    1.2990  148.3116 H         1 LEU         0.0232
    183 H69        44.3035    1.7885  147.9420 H         1 LEU         0.0232
    184 H70        45.5677    1.8927  146.6702 H         1 LEU         0.0232
    185 H71        44.2825   -1.9723  147.9930 H         1 LEU         0.0232
    186 H72        43.6258   -0.5063  148.7968 H         1 LEU         0.0232
    187 H73        45.3485   -0.9608  149.0259 H         1 LEU         0.0232
    188 H74        41.8260   -2.5104  145.7985 H         1 MET         0.1883
    189 H75        43.1214   -4.3179  147.6296 H         1 MET         0.0800
    190 H76        40.9143   -5.4196  147.8336 H         1 MET         0.0320
    191 H77        40.3099   -4.4333  146.4593 H         1 MET         0.0320
    192 H78        39.5317   -3.5143  148.5516 H         1 MET         0.0378
    193 H79        40.6930   -2.3873  147.7720 H         1 MET         0.0378
    194 H80        41.6073   -4.9409  151.5410 H         1 MET         0.0340
    195 H81        41.3797   -5.6699  149.9151 H         1 MET         0.0340
    196 H82        40.0015   -4.8651  150.7395 H         1 MET         0.0340
    197 H83        41.8443   -4.7346  144.3293 H         1 ALA         0.1883
    198 H84        42.1804   -7.5615  144.2021 H         1 ALA         0.0797
    199 H85        41.9809   -7.2597  141.7532 H         1 ALA         0.0277
    200 H86        42.1440   -5.4842  141.9712 H         1 ALA         0.0277
    201 H87        40.7278   -6.3474  142.6611 H         1 ALA         0.0277
    202 H88        44.4409   -4.9229  143.7467 H         1 SER         0.1884
    203 H89        46.4067   -6.5398  142.3428 H         1 SER         0.0823
    204 H90        46.0630   -4.0277  142.0630 H         1 SER         0.0606
    205 H91        47.7616   -4.5529  142.3193 H         1 SER         0.0606
    206 H92        46.0023   -3.5392  144.3227 H         1 SER         0.2097
    207 H93        45.6132   -6.4485  145.6487 H         1 LEU         0.1883
    208 H94        48.2312   -6.1972  146.7854 H         1 LEU         0.0800
    209 H95        47.2479   -7.1199  148.8206 H         1 LEU         0.0315
    210 H96        45.7900   -7.6214  147.8989 H         1 LEU         0.0315
    211 H97        45.3238   -5.1878  147.4829 H         1 LEU         0.0298
    212 H98        44.4300   -4.8416  149.7686 H         1 LEU         0.0232
    213 H99        45.4778   -6.1708  150.3703 H         1 LEU         0.0232
    214 H100       44.1696   -6.5223  149.1906 H         1 LEU         0.0232
    215 H101       47.5989   -4.3153  147.8815 H         1 LEU         0.0232
    216 H102       47.4815   -4.8010  149.6068 H         1 LEU         0.0232
    217 H103       46.3888   -3.5334  148.9542 H         1 LEU         0.0232
    218 H104       49.7208   -7.6752  147.4598 H         1 SER         0.1884
    219 H105       49.2086  -10.5322  146.8074 H         1 SER         0.0823
    220 H106       50.5356   -9.7133  144.9840 H         1 SER         0.0606
    221 H107       51.6178  -10.6851  146.0381 H         1 SER         0.0606
    222 H108       52.5451   -8.6676  145.4155 H         1 SER         0.2097
    223 H109       49.9136   -8.5072  149.3293 H         1 ASP         0.1875
    224 H110       50.7800  -10.6436  151.0527 H         1 ASP         0.0723
    225 H111       53.0351   -9.7592  151.6283 H         1 ASP         0.0270
    226 H112       52.8846   -8.5385  150.3191 H         1 ASP         0.0270
    227 H113       52.9465  -10.2874  149.9138 H         1 ASP         0.0270
@<TRIPOS>BOND
     1    1    2 1  
     2    2    3 1  
     3    3    4 2  
     4    3    5 am 
     5    5    6 1  
     6    6    7 1  
     7    6    9 1  
     8    7    8 2  
     9    7   11 am 
    10    9   10 1  
    11   11   12 1  
    12   12   13 1  
    13   12   15 1  
    14   13   14 2  
    15   13   16 am 
    16   16   17 1  
    17   17   18 1  
    18   17   20 1  
    19   18   19 2  
    20   18   23 am 
    21   20   21 1  
    22   20   22 1  
    23   23   24 1  
    24   24   25 1  
    25   24   27 1  
    26   25   26 2  
    27   25   34 am 
    28   27   28 1  
    29   28   29 1  
    30   29   30 1  
    31   30   31 ar 
    32   31   32 ar 
    33   31   33 ar 
    34   34   35 1  
    35   35   36 1  
    36   35   38 1  
    37   36   37 2  
    38   36   43 am 
    39   38   39 1  
    40   39   40 1  
    41   40   41 ar 
    42   40   42 ar 
    43   43   44 1  
    44   44   45 1  
    45   44   47 1  
    46   45   46 2  
    47   45   51 am 
    48   47   48 1  
    49   48   49 1  
    50   48   50 1  
    51   51   52 1  
    52   52   53 1  
    53   52   55 1  
    54   53   54 2  
    55   53   59 am 
    56   55   56 1  
    57   56   57 ar 
    58   56   58 ar 
    59   59   60 1  
    60   60   61 1  
    61   60   63 1  
    62   61   62 2  
    63   61   68 am 
    64   63   64 1  
    65   64   65 1  
    66   65   66 ar 
    67   65   67 ar 
    68   68   69 1  
    69   69   70 1  
    70   69   72 1  
    71   70   71 2  
    72   70   76 am 
    73   72   73 1  
    74   73   74 1  
    75   73   75 1  
    76   76   77 1  
    77   77   78 1  
    78   77   80 1  
    79   78   79 2  
    80   78   84 am 
    81   80   81 1  
    82   81   82 1  
    83   82   83 1  
    84   84   85 1  
    85   85   86 1  
    86   85   88 1  
    87   86   87 2  
    88   86   89 am 
    89   89   90 1  
    90   90   91 1  
    91   90   93 1  
    92   91   92 2  
    93   91   95 am 
    94   93   94 1  
    95   95   96 1  
    96   96   97 1  
    97   96   99 1  
    98   97   98 2  
    99   97  103 am 
   100   99  100 1  
   101  100  101 1  
   102  100  102 1  
   103  103  104 1  
   104  104  105 1  
   105  104  107 1  
   106  105  106 2  
   107  105  109 am 
   108  107  108 1  
   109  109  110 1  
   110  110  111 1  
   111  110  113 1  
   112  111  112 ar 
   113  111  114 ar 
   114    1  115 1  
   115    1  116 1  
   116    1  117 1  
   117    2  118 1  
   118    2  119 1  
   119    5  120 1  
   120    6  121 1  
   121    9  122 1  
   122    9  123 1  
   123   10  124 1  
   124   11  125 1  
   125   12  126 1  
   126   15  127 1  
   127   15  128 1  
   128   15  129 1  
   129   16  130 1  
   130   17  131 1  
   131   20  132 1  
   132   21  133 1  
   133   22  134 1  
   134   22  135 1  
   135   22  136 1  
   136   23  137 1  
   137   24  138 1  
   138   27  139 1  
   139   27  140 1  
   140   28  141 1  
   141   28  142 1  
   142   29  143 1  
   143   29  144 1  
   144   30  145 1  
   145   32  146 1  
   146   32  147 1  
   147   33  148 1  
   148   33  149 1  
   149   34  150 1  
   150   35  151 1  
   151   38  152 1  
   152   38  153 1  
   153   39  154 1  
   154   39  155 1  
   155   43  156 1  
   156   44  157 1  
   157   47  158 1  
   158   47  159 1  
   159   48  160 1  
   160   49  161 1  
   161   49  162 1  
   162   49  163 1  
   163   50  164 1  
   164   50  165 1  
   165   50  166 1  
   166   51  167 1  
   167   52  168 1  
   168   55  169 1  
   169   55  170 1  
   170   59  171 1  
   171   60  172 1  
   172   63  173 1  
   173   63  174 1  
   174   64  175 1  
   175   64  176 1  
   176   68  177 1  
   177   69  178 1  
   178   72  179 1  
   179   72  180 1  
   180   73  181 1  
   181   74  182 1  
   182   74  183 1  
   183   74  184 1  
   184   75  185 1  
   185   75  186 1  
   186   75  187 1  
   187   76  188 1  
   188   77  189 1  
   189   80  190 1  
   190   80  191 1  
   191   81  192 1  
   192   81  193 1  
   193   83  194 1  
   194   83  195 1  
   195   83  196 1  
   196   84  197 1  
   197   85  198 1  
   198   88  199 1  
   199   88  200 1  
   200   88  201 1  
   201   89  202 1  
   202   90  203 1  
   203   93  204 1  
   204   93  205 1  
   205   94  206 1  
   206   95  207 1  
   207   96  208 1  
   208   99  209 1  
   209   99  210 1  
   210  100  211 1  
   211  101  212 1  
   212  101  213 1  
   213  101  214 1  
   214  102  215 1  
   215  102  216 1  
   216  102  217 1  
   217  103  218 1  
   218  104  219 1  
   219  107  220 1  
   220  107  221 1  
   221  108  222 1  
   222  109  223 1  
   223  110  224 1  
   224  113  225 1  
   225  113  226 1  
   226  113  227 1  
@<TRIPOS>SUBSTRUCTURE
     1 GLY         1

