4l7r_ligand
  -I-interpret- 

 40 41  0  0  0  0  0  0  0  0999 V2000
   24.9690   -3.6490   14.1050 C   0  0  0  0  0
   23.8120   -3.5370   15.0350 C   0  0  0  0  0
   22.8480   -2.4850   14.4850 C   0  0  0  0  0
   23.4670   -1.1810   13.9410 C   0  0  0  0  0
   22.3240   -0.4110   13.4670 O   0  0  0  0  0
   21.8970   -3.1260   13.4870 N   0  0  0  0  0
   20.5800   -3.2470   13.7350 C   0  0  0  0  0
   20.0250   -2.8470   14.8080 O   0  0  0  0  0
   19.8460   -3.9320   12.5820 C   0  0  0  0  0
   19.2130   -5.1140   13.2450 C   0  0  0  0  0
   18.3000   -5.8270   12.4850 C   0  0  0  0  0
   18.6900   -7.0680   12.1340 N   0  0  0  0  0
   17.8690   -7.8560   11.4180 C   0  0  0  0  0
   18.3100   -9.1380   11.1300 C   0  0  0  0  0
   17.4400   -9.9670   10.4310 C   0  0  0  0  0
   16.2260   -9.5180    9.9860 C   0  0  0  0  0
   15.7520   -8.2400   10.2830 C   0  0  0  0  0
   16.5410   -7.3830   11.0040 C   0  0  0  0  0
   16.1210   -6.0820   11.3640 C   0  0  0  0  0
   15.0040   -5.6060   11.1070 O   0  0  0  0  0
   17.0190   -5.3510   12.0960 N   0  0  0  0  0
   24.6134   -3.9484   13.1191 H   0  0  0  0  0
   25.4711   -2.6842   14.0340 H   0  0  0  0  0
   25.6667   -4.3961   14.4834 H   0  0  0  0  0
   24.1580   -3.2429   16.0259 H   0  0  0  0  0
   23.3059   -4.4989   15.1171 H   0  0  0  0  0
   22.3017   -2.1296   15.3587 H   0  0  0  0  0
   24.1918   -1.3697   13.1491 H   0  0  0  0  0
   24.0344   -0.6467   14.7030 H   0  0  0  0  0
   22.6296    0.4256   13.1087 H   0  0  0  0  0
   22.2683   -3.4747   12.6033 H   0  0  0  0  0
   20.5097   -4.2106   11.7635 H   0  0  0  0  0
   19.1203   -3.2804   12.0953 H   0  0  0  0  0
   18.6586   -4.7231   14.0982 H   0  0  0  0  0
   20.0244   -5.8053   13.4728 H   0  0  0  0  0
   19.2973   -9.4818   11.4385 H   0  0  0  0  0
   17.7314  -10.9984   10.2327 H   0  0  0  0  0
   15.6091  -10.1810    9.3794 H   0  0  0  0  0
   14.7643   -7.9266    9.9450 H   0  0  0  0  0
   16.7519   -4.4081   12.3789 H   0  0  0  0  0
  1  2  1  0  0  0
  2  3  1  0  0  0
  3  4  1  0  0  0
  3  6  1  0  0  0
  4  5  1  0  0  0
  6  7  1  0  0  0
  7  8  2  0  0  0
  7  9  1  0  0  0
  9 10  1  0  0  0
 10 11  1  0  0  0
 11 12  2  0  0  0
 11 21  1  0  0  0
 12 13  1  0  0  0
 13 14  4  0  0  0
 13 18  4  0  0  0
 14 15  4  0  0  0
 15 16  4  0  0  0
 16 17  4  0  0  0
 17 18  4  0  0  0
 18 19  1  0  0  0
 19 20  2  0  0  0
 19 21  1  0  0  0
  1 22  1  0  0  0
  1 23  1  0  0  0
  1 24  1  0  0  0
  2 25  1  0  0  0
  2 26  1  0  0  0
  3 27  1  0  0  0
  4 28  1  0  0  0
  4 29  1  0  0  0
  5 30  1  0  0  0
  6 31  1  0  0  0
  9 32  1  0  0  0
  9 33  1  0  0  0
 10 34  1  0  0  0
 10 35  1  0  0  0
 14 36  1  0  0  0
 15 37  1  0  0  0
 16 38  1  0  0  0
 17 39  1  0  0  0
 21 40  1  0  0  0
M  END
$$$$
