6oe3_ligand
  -I-interpret- 

 47 50  0  0  0  0  0  0  0  0999 V2000
  440.4900   -8.8660  229.7620 C   0  0  0  0  0
  435.9420  -12.6340  224.9830 N   0  0  0  0  0
  436.9570  -10.2330  223.8610 O   0  0  0  0  0
  440.5780   -9.9010  228.8320 C   0  0  0  0  0
  436.8140  -14.7730  224.7640 N   0  0  0  0  0
  438.1600  -15.7090  226.3350 O   0  0  0  0  0
  440.0880   -9.7510  227.5710 C   0  0  0  0  0
  435.4130  -13.9360  223.1750 O   0  0  0  0  0
  439.4400   -8.5580  227.1710 C   0  0  0  0  0
  438.8850   -8.3670  225.8750 C   0  0  0  0  0
  438.9850   -9.1310  223.5920 C   0  0  0  0  0
  439.9650   -8.5510  222.8020 C   0  0  0  0  0
  439.7460   -8.4070  221.4420 C   0  0  0  0  0
  438.5590   -8.8270  220.8740 C   0  0  0  0  0
  437.5710   -9.4030  221.6560 C   0  0  0  0  0
  437.7860   -9.5650  223.0130 C   0  0  0  0  0
  435.7640  -10.8120  223.3250 C   0  0  0  0  0
  435.1150  -11.5210  224.4820 C   0  0  0  0  0
  436.6200  -12.5030  226.1660 C   0  0  0  0  0
  437.3900  -13.4830  226.6670 C   0  0  0  0  0
  437.5170  -14.7180  225.9550 C   0  0  0  0  0
  436.0160  -13.7870  224.2290 C   0  0  0  0  0
  438.1620   -7.2410  225.5700 C   0  0  0  0  0
  438.0020   -6.2840  226.5470 C   0  0  0  0  0
  438.5490   -6.3570  227.7850 C   0  0  0  0  0
  439.2850   -7.5190  228.1320 C   0  0  0  0  0
  439.8320   -7.6960  229.4260 C   0  0  0  0  0
  441.7590   -9.0870  232.0020 N   0  0  0  0  0
  441.1870   -8.9760  231.0190 C   0  0  0  0  0
  439.1450   -9.3670  224.9500 O   0  0  0  0  0
  437.1740   -5.2400  226.2660 F   0  0  0  0  0
  441.0455  -10.8430  229.1186 H   0  0  0  0  0
  436.8959  -15.6355  224.2256 H   0  0  0  0  0
  440.1968  -10.5657  226.8551 H   0  0  0  0  0
  440.9001   -8.2111  223.2472 H   0  0  0  0  0
  440.5165   -7.9586  220.8148 H   0  0  0  0  0
  438.3985   -8.7044  219.8029 H   0  0  0  0  0
  436.6322   -9.7258  221.2059 H   0  0  0  0  0
  435.9825  -11.4966  222.5055 H   0  0  0  0  0
  435.1066  -10.0548  222.8976 H   0  0  0  0  0
  434.9842  -10.8028  225.2914 H   0  0  0  0  0
  434.1641  -11.9301  224.1406 H   0  0  0  0  0
  436.5314  -11.5692  226.7212 H   0  0  0  0  0
  437.9154  -13.3384  227.6110 H   0  0  0  0  0
  437.7258   -7.1078  224.5800 H   0  0  0  0  0
  438.4262   -5.5415  228.4977 H   0  0  0  0  0
  439.7336   -6.9016  230.1658 H   0  0  0  0  0
  4  1  4  0  0  0
  1 27  4  0  0  0
  1 29  1  0  0  0
 18  2  1  0  0  0
  2 19  1  0  0  0
  2 22  1  0  0  0
  3 16  1  0  0  0
 17  3  1  0  0  0
  7  4  4  0  0  0
  5 21  1  0  0  0
 22  5  1  0  0  0
 21  6  2  0  0  0
  9  7  4  0  0  0
 22  8  2  0  0  0
 10  9  4  0  0  0
  9 26  4  0  0  0
 10 23  4  0  0  0
 30 10  1  0  0  0
 11 12  4  0  0  0
 16 11  4  0  0  0
 11 30  1  0  0  0
 12 13  4  0  0  0
 14 13  4  0  0  0
 15 14  4  0  0  0
 16 15  4  0  0  0
 17 18  1  0  0  0
 19 20  2  0  0  0
 20 21  1  0  0  0
 23 24  4  0  0  0
 24 25  4  0  0  0
 24 31  1  0  0  0
 25 26  4  0  0  0
 26 27  4  0  0  0
 29 28  3  0  0  0
  4 32  1  0  0  0
  5 33  1  0  0  0
  7 34  1  0  0  0
 12 35  1  0  0  0
 13 36  1  0  0  0
 14 37  1  0  0  0
 15 38  1  0  0  0
 17 39  1  0  0  0
 17 40  1  0  0  0
 18 41  1  0  0  0
 18 42  1  0  0  0
 19 43  1  0  0  0
 20 44  1  0  0  0
 23 45  1  0  0  0
 25 46  1  0  0  0
 27 47  1  0  0  0
M  END
$$$$
