4own_ligand
  -I-interpret- 

 17 17  0  0  0  0  0  0  0  0999 V2000
  -20.2430  -23.5810   14.9860 N   0  0  0  0  0
  -19.4720  -25.1620   16.6730 O   0  0  0  0  0
  -19.9520  -27.2540   16.3110 O   0  0  0  0  0
  -19.9060  -27.5250   11.5300 F   0  0  0  0  0
  -20.3170  -24.2950   12.7230 C   0  0  0  0  0
  -20.2230  -25.3510   11.8340 C   0  0  0  0  0
  -19.8160  -26.8850   13.6450 C   0  0  0  0  0
  -19.7670  -26.0900   15.8880 C   0  0  0  0  0
  -20.1630  -24.5470   14.0740 C   0  0  0  0  0
  -19.9790  -26.6280   12.3000 C   0  0  0  0  0
  -19.9120  -25.8340   14.5370 C   0  0  0  0  0
  -20.4229  -22.6197   14.6963 H   0  0  0  0  0
  -20.1244  -23.8019   15.9747 H   0  0  0  0  0
  -20.1680  -27.8304   15.5743 H   0  0  0  0  0
  -20.5088  -23.2834   12.3652 H   0  0  0  0  0
  -20.3416  -25.1749   10.7649 H   0  0  0  0  0
  -19.6155  -27.8968   13.9974 H   0  0  0  0  0
  9  1  1  0  0  0
  8  2  2  0  0  0
  8  3  1  0  0  0
 10  4  1  0  0  0
  6  5  4  0  0  0
  5  9  4  0  0  0
 10  6  4  0  0  0
  7 10  4  0  0  0
 11  7  4  0  0  0
  8 11  1  0  0  0
  9 11  4  0  0  0
  1 12  1  0  0  0
  1 13  1  0  0  0
  3 14  1  0  0  0
  5 15  1  0  0  0
  6 16  1  0  0  0
  7 17  1  0  0  0
M  END
$$$$
