3ryw_ligand
  -I-interpret- 

 58 58  0  0  0  0  0  0  0  0999 V2000
   35.4510    5.7750   31.6180 C   0  0  0  0  0
   33.9950   11.1190   14.8190 O   0  0  0  0  0
   30.3270   10.7850   16.3160 O   0  0  0  0  0
   34.4310   11.4940   17.4030 O   0  0  0  0  0
   35.4890    9.5200   16.1770 O   0  0  0  0  0
   31.7970   10.4780   14.1840 O   0  0  0  0  0
   30.6570    8.4530   15.3130 O   0  0  0  0  0
   34.8410    6.8610   16.6190 C   0  0  0  0  0
   36.4530    6.1220   18.0770 C   0  0  0  0  0
   34.5200    7.2240   18.9730 C   0  0  0  0  0
   34.7710    6.4910   30.4320 C   0  0  0  0  0
   35.8080    6.8730   29.3530 C   0  0  0  0  0
   35.7830    5.9440   28.1340 C   0  0  0  0  0
   36.1730    6.7370   26.8850 C   0  0  0  0  0
   36.9720    5.8970   25.9050 C   0  0  0  0  0
   37.1960    6.7020   24.6430 C   0  0  0  0  0
   36.7050    5.9120   23.4480 C   0  0  0  0  0
   35.5930    6.6750   22.7820 C   0  0  0  0  0
   36.0630    7.2860   21.4600 C   0  0  0  0  0
   32.7400    8.0250   17.2340 C   0  0  0  0  0
   35.9980    6.2710   16.8380 N   0  0  0  0  0
   36.3570    6.3440   20.3920 O   0  0  0  0  0
   34.0760    7.3690   17.6540 C   0  0  0  0  0
   35.7510    6.5820   19.1810 C   0  0  0  0  0
   32.6850    9.5190   16.7910 C   0  0  0  0  0
   34.2600   10.3560   16.2160 P   0  0  0  0  0
   31.3100    9.7310   15.5620 P   0  0  0  0  0
   35.9384    4.8674   31.2618 H   0  0  0  0  0
   36.1938    6.4371   32.0630 H   0  0  0  0  0
   34.6995    5.5165   32.3640 H   0  0  0  0  0
   33.1948   11.6446   14.8895 H   0  0  0  0  0
   30.7952   11.6106   16.4602 H   0  0  0  0  0
   33.6422   12.0401   17.4372 H   0  0  0  0  0
   32.2188   11.3115   14.4051 H   0  0  0  0  0
   34.4766    6.9515   15.5957 H   0  0  0  0  0
   37.4092    5.6219   18.2310 H   0  0  0  0  0
   33.9302    7.5968   19.8104 H   0  0  0  0  0
   34.2937    7.4001   30.7977 H   0  0  0  0  0
   34.0362    5.8180   29.9901 H   0  0  0  0  0
   36.7971    6.7978   29.8048 H   0  0  0  0  0
   35.5685    7.8783   29.0066 H   0  0  0  0  0
   34.7806    5.5348   28.0079 H   0  0  0  0  0
   36.4897    5.1277   28.2831 H   0  0  0  0  0
   36.7913    7.5794   27.1952 H   0  0  0  0  0
   35.2589    7.0627   26.3887 H   0  0  0  0  0
   36.4250    4.9842   25.6689 H   0  0  0  0  0
   37.9314    5.6269   26.3462 H   0  0  0  0  0
   38.2597    6.9110   24.5288 H   0  0  0  0  0
   36.6471    7.6414   24.7085 H   0  0  0  0  0
   36.3392    4.9387   23.7752 H   0  0  0  0  0
   37.5232    5.7637   22.7433 H   0  0  0  0  0
   35.2742    7.4790   23.4453 H   0  0  0  0  0
   34.7712    5.9887   22.5777 H   0  0  0  0  0
   36.9970    7.8043   21.6770 H   0  0  0  0  0
   35.2434    7.9090   21.1019 H   0  0  0  0  0
   32.1339    7.9948   18.1395 H   0  0  0  0  0
   32.4429    7.4732   16.3422 H   0  0  0  0  0
   32.5017   10.0582   17.7204 H   0  0  0  0  0
 11  1  1  0  0  0
 26  2  1  0  0  0
 27  3  1  0  0  0
 26  4  1  0  0  0
 26  5  2  0  0  0
 27  6  1  0  0  0
 27  7  2  0  0  0
  8 21  4  0  0  0
 23  8  4  0  0  0
 21  9  4  0  0  0
 24  9  4  0  0  0
 23 10  4  0  0  0
 10 24  4  0  0  0
 12 11  1  0  0  0
 13 12  1  0  0  0
 14 13  1  0  0  0
 15 14  1  0  0  0
 16 15  1  0  0  0
 17 16  1  0  0  0
 18 17  1  0  0  0
 19 18  1  0  0  0
 22 19  1  0  0  0
 20 23  1  0  0  0
 25 20  1  0  0  0
 24 22  1  0  0  0
 25 26  1  0  0  0
 25 27  1  0  0  0
  1 28  1  0  0  0
  1 29  1  0  0  0
  1 30  1  0  0  0
  2 31  1  0  0  0
  3 32  1  0  0  0
  4 33  1  0  0  0
  6 34  1  0  0  0
  8 35  1  0  0  0
  9 36  1  0  0  0
 10 37  1  0  0  0
 11 38  1  0  0  0
 11 39  1  0  0  0
 12 40  1  0  0  0
 12 41  1  0  0  0
 13 42  1  0  0  0
 13 43  1  0  0  0
 14 44  1  0  0  0
 14 45  1  0  0  0
 15 46  1  0  0  0
 15 47  1  0  0  0
 16 48  1  0  0  0
 16 49  1  0  0  0
 17 50  1  0  0  0
 17 51  1  0  0  0
 18 52  1  0  0  0
 18 53  1  0  0  0
 19 54  1  0  0  0
 19 55  1  0  0  0
 20 56  1  0  0  0
 20 57  1  0  0  0
 25 58  1  0  0  0
M  END
$$$$
