### 
### Created by X-TOOL on Mon Sep 10 21:13:11 2018
### 

@<TRIPOS>MOLECULE
3ryw_ligand
   54    54     1     0     0
SMALL
GAST_HUCK


@<TRIPOS>ATOM
      1 CAA        35.4510    5.7750   31.6180 C.3       1 K9H        -0.0653
      2 OAB        33.9950   11.1190   14.8190 O.co2     1 K9H        -0.5610
      3 OAC        30.3270   10.7850   16.3160 O.co2     1 K9H        -0.5610
      4 OAD        34.4310   11.4940   17.4030 O.co2     1 K9H        -0.5610
      5 OAE        35.4890    9.5200   16.1770 O.co2     1 K9H        -0.5610
      6 OAF        31.7970   10.4780   14.1840 O.co2     1 K9H        -0.5610
      7 OAG        30.6570    8.4530   15.3130 O.co2     1 K9H        -0.5610
      8 CAH        34.8410    6.8610   16.6190 C.ar      1 K9H         0.0011
      9 CAI        36.4530    6.1220   18.0770 C.ar      1 K9H         0.0324
     10 CAJ        34.5200    7.2240   18.9730 C.ar      1 K9H        -0.0124
     11 CAK        34.7710    6.4910   30.4320 C.3       1 K9H        -0.0559
     12 CAL        35.8080    6.8730   29.3530 C.3       1 K9H        -0.0533
     13 CAM        35.7830    5.9440   28.1340 C.3       1 K9H        -0.0531
     14 CAN        36.1730    6.7370   26.8850 C.3       1 K9H        -0.0531
     15 CAO        36.9720    5.8970   25.9050 C.3       1 K9H        -0.0531
     16 CAP        37.1960    6.7020   24.6430 C.3       1 K9H        -0.0530
     17 CAQ        36.7050    5.9120   23.4480 C.3       1 K9H        -0.0506
     18 CAR        35.5930    6.6750   22.7820 C.3       1 K9H        -0.0248
     19 CAS        36.0630    7.2860   21.4600 C.3       1 K9H         0.0720
     20 CAT        32.7400    8.0250   17.2340 C.3       1 K9H         0.0176
     21 NAU        35.9980    6.2710   16.8380 N.ar      1 K9H        -0.3145
     22 OAV        36.3570    6.3440   20.3920 O.3       1 K9H        -0.3120
     23 CAW        34.0760    7.3690   17.6540 C.ar      1 K9H        -0.0213
     24 CAX        35.7510    6.5820   19.1810 C.ar      1 K9H         0.1124
     25 CAY        32.6850    9.5190   16.7910 C.3       1 K9H         0.1109
     26 PAZ        34.2600   10.3560   16.2160 P.3       1 K9H         0.0801
     27 PBA        31.3100    9.7310   15.5620 P.3       1 K9H         0.0801
     28 H          35.9384    4.8674   31.2618 H         1 K9H         0.0230
     29 H          36.1938    6.4371   32.0630 H         1 K9H         0.0230
     30 H          34.6995    5.5165   32.3640 H         1 K9H         0.0230
     31 H          34.4766    6.9515   15.5957 H         1 K9H         0.0671
     32 H          37.4092    5.6219   18.2310 H         1 K9H         0.0694
     33 H          33.9302    7.5968   19.8104 H         1 K9H         0.0597
     34 H          34.2937    7.4001   30.7977 H         1 K9H         0.0263
     35 H          34.0362    5.8180   29.9901 H         1 K9H         0.0263
     36 H          36.7971    6.7978   29.8048 H         1 K9H         0.0265
     37 H          35.5685    7.8783   29.0066 H         1 K9H         0.0265
     38 H          34.7806    5.5348   28.0079 H         1 K9H         0.0265
     39 H          36.4897    5.1277   28.2831 H         1 K9H         0.0265
     40 H          36.7913    7.5794   27.1952 H         1 K9H         0.0265
     41 H          35.2589    7.0627   26.3887 H         1 K9H         0.0265
     42 H          36.4250    4.9842   25.6689 H         1 K9H         0.0265
     43 H          37.9314    5.6269   26.3462 H         1 K9H         0.0265
     44 H          38.2597    6.9110   24.5288 H         1 K9H         0.0265
     45 H          36.6471    7.6414   24.7085 H         1 K9H         0.0265
     46 H          36.3392    4.9387   23.7752 H         1 K9H         0.0266
     47 H          37.5232    5.7637   22.7433 H         1 K9H         0.0266
     48 H          35.2742    7.4790   23.4453 H         1 K9H         0.0291
     49 H          34.7712    5.9887   22.5777 H         1 K9H         0.0291
     50 H          36.9970    7.8043   21.6770 H         1 K9H         0.0616
     51 H          35.2434    7.9090   21.1019 H         1 K9H         0.0616
     52 H          32.1339    7.9948   18.1395 H         1 K9H         0.0470
     53 H          32.4429    7.4732   16.3422 H         1 K9H         0.0470
     54 H          32.5017   10.0582   17.7204 H         1 K9H         0.0702
@<TRIPOS>BOND
     1   11    1 1  
     2   26    2 ar 
     3   27    3 ar 
     4   26    4 ar 
     5   26    5 ar 
     6   27    6 ar 
     7   27    7 ar 
     8    8   21 ar 
     9   23    8 ar 
    10   21    9 ar 
    11   24    9 ar 
    12   23   10 ar 
    13   10   24 ar 
    14   12   11 1  
    15   13   12 1  
    16   14   13 1  
    17   15   14 1  
    18   16   15 1  
    19   17   16 1  
    20   18   17 1  
    21   19   18 1  
    22   22   19 1  
    23   20   23 1  
    24   25   20 1  
    25   24   22 1  
    26   25   26 1  
    27   25   27 1  
    28    1   28 1  
    29    1   29 1  
    30    1   30 1  
    31    8   31 1  
    32    9   32 1  
    33   10   33 1  
    34   11   34 1  
    35   11   35 1  
    36   12   36 1  
    37   12   37 1  
    38   13   38 1  
    39   13   39 1  
    40   14   40 1  
    41   14   41 1  
    42   15   42 1  
    43   15   43 1  
    44   16   44 1  
    45   16   45 1  
    46   17   46 1  
    47   17   47 1  
    48   18   48 1  
    49   18   49 1  
    50   19   50 1  
    51   19   51 1  
    52   20   52 1  
    53   20   53 1  
    54   25   54 1  
@<TRIPOS>SUBSTRUCTURE
     1 K9H         1

