5alh_ligand
  -I-interpret- 

 72 75  0  0  0  0  0  0  0  0999 V2000
    9.4960   11.2630   19.7010 C   0  0  0  0  0
   10.1530   12.4000   20.1160 C   0  0  0  0  0
   10.2280   10.1790   19.2660 C   0  0  0  0  0
   11.5320   12.4450   20.0930 C   0  0  0  0  0
   11.6050   10.2370   19.2460 C   0  0  0  0  0
   18.4760   10.3530   11.0880 C   0  0  0  0  0
   16.1650   10.4820   11.6660 C   0  0  0  0  0
   18.8260   10.6860   12.3840 C   0  0  0  0  0
   16.5130   10.8130   12.9620 C   0  0  0  0  0
   10.3010    7.3050   21.9690 C   0  0  0  0  0
   10.0120    8.4400   22.6920 C   0  0  0  0  0
   12.6440    7.8370   22.0600 C   0  0  0  0  0
   12.2900   11.3720   19.6500 C   0  0  0  0  0
   17.1480   10.2600   10.7220 C   0  0  0  0  0
   17.8420   10.9230   13.3250 C   0  0  0  0  0
   11.6140    7.0220   21.6650 C   0  0  0  0  0
   11.0340    9.2830   23.0960 C   0  0  0  0  0
   12.3530    8.9710   22.7770 C   0  0  0  0  0
   16.6810   10.7610   16.5340 C   0  0  0  0  0
   14.2940   12.6360   18.8210 C   0  0  0  0  0
   14.3920   10.1350   19.0760 C   0  0  0  0  0
   15.5580   12.4040   18.0020 C   0  0  0  0  0
   14.5960   10.1650   17.5750 C   0  0  0  0  0
   13.8060   11.4330   19.6300 C   0  0  0  0  0
   16.7720    9.9070    9.3250 C   0  0  0  0  0
   11.9640    5.8200   20.9070 C   0  0  0  0  0
    9.4820   10.9470   23.3600 C   0  0  0  0  0
   18.2400   11.2860   14.7110 C   0  0  0  0  0
   14.2560   11.6100   21.0730 C   0  0  0  0  0
   15.5540   11.1860   17.2170 N   0  0  0  0  0
   17.1310   11.6240   15.5750 N   0  0  0  0  0
   14.4820   10.2880   21.6940 N   0  0  0  0  0
   17.2170    9.6830   16.7380 O   0  0  0  0  0
   13.3750   11.0800   23.9500 O   0  0  0  0  0
   14.6920    8.9500   23.8500 O   0  0  0  0  0
   10.7150   10.4140   23.8390 O   0  0  0  0  0
   13.8050    9.9080   23.2250 S   0  0  0  0  0
    8.4069   11.2206   19.7164 H   0  0  0  0  0
    9.5845   13.2632   20.4622 H   0  0  0  0  0
    9.7169    9.2742   18.9372 H   0  0  0  0  0
   12.0389   13.3484   20.4322 H   0  0  0  0  0
   12.1689    9.3691   18.9041 H   0  0  0  0  0
   19.2549   10.1625   10.3497 H   0  0  0  0  0
   15.1143   10.3962   11.3890 H   0  0  0  0  0
   19.8770   10.7614   12.6629 H   0  0  0  0  0
   15.7335   10.9886   13.7033 H   0  0  0  0  0
    9.5020    6.6397   21.6417 H   0  0  0  0  0
    8.9787    8.6755   22.9467 H   0  0  0  0  0
   13.6753    7.5888   21.8091 H   0  0  0  0  0
   13.5025   12.8750   18.1107 H   0  0  0  0  0
   14.5291   13.4202   19.5406 H   0  0  0  0  0
   15.3679    9.9891   19.5391 H   0  0  0  0  0
   13.6873    9.3335   19.2976 H   0  0  0  0  0
   16.3842   12.3241   18.7084 H   0  0  0  0  0
   15.6389   13.2341   17.3003 H   0  0  0  0  0
   13.6443   10.3861   17.0918 H   0  0  0  0  0
   14.9719    9.1954   17.2484 H   0  0  0  0  0
   17.1776   10.6529    8.6414 H   0  0  0  0  0
   17.1783    8.9263    9.0775 H   0  0  0  0  0
   15.6858    9.8844    9.2371 H   0  0  0  0  0
   11.6310    4.9376   21.4535 H   0  0  0  0  0
   11.4759    5.8513   19.9329 H   0  0  0  0  0
   13.0448    5.7790   20.7721 H   0  0  0  0  0
    9.5869   11.2132   22.3082 H   0  0  0  0  0
    8.6970   10.1988   23.4702 H   0  0  0  0  0
    9.2230   11.8349   23.9367 H   0  0  0  0  0
   18.8761   12.1685   14.6429 H   0  0  0  0  0
   18.7317   10.4147   15.1437 H   0  0  0  0  0
   13.4831   12.1412   21.6285 H   0  0  0  0  0
   15.1845   12.1805   21.0931 H   0  0  0  0  0
   16.6733   12.5290   15.4659 H   0  0  0  0  0
   15.0473    9.5927   21.2068 H   0  0  0  0  0
  2  1  4  0  0  0
  3  1  4  0  0  0
  4  2  4  0  0  0
  5  3  4  0  0  0
 13  4  4  0  0  0
 13  5  4  0  0  0
  8  6  4  0  0  0
  6 14  4  0  0  0
  9  7  4  0  0  0
  7 14  4  0  0  0
 15  8  4  0  0  0
 15  9  4  0  0  0
 11 10  4  0  0  0
 16 10  4  0  0  0
 17 11  4  0  0  0
 12 16  4  0  0  0
 18 12  4  0  0  0
 24 13  1  0  0  0
 14 25  1  0  0  0
 28 15  1  0  0  0
 16 26  1  0  0  0
 18 17  4  0  0  0
 17 36  1  0  0  0
 37 18  1  0  0  0
 30 19  1  0  0  0
 19 31  1  0  0  0
 19 33  2  0  0  0
 20 22  1  0  0  0
 24 20  1  0  0  0
 21 23  1  0  0  0
 24 21  1  0  0  0
 22 30  1  0  0  0
 23 30  1  0  0  0
 29 24  1  0  0  0
 36 27  1  0  0  0
 31 28  1  0  0  0
 32 29  1  0  0  0
 32 37  1  0  0  0
 37 34  2  0  0  0
 37 35  2  0  0  0
  1 38  1  0  0  0
  2 39  1  0  0  0
  3 40  1  0  0  0
  4 41  1  0  0  0
  5 42  1  0  0  0
  6 43  1  0  0  0
  7 44  1  0  0  0
  8 45  1  0  0  0
  9 46  1  0  0  0
 10 47  1  0  0  0
 11 48  1  0  0  0
 12 49  1  0  0  0
 20 50  1  0  0  0
 20 51  1  0  0  0
 21 52  1  0  0  0
 21 53  1  0  0  0
 22 54  1  0  0  0
 22 55  1  0  0  0
 23 56  1  0  0  0
 23 57  1  0  0  0
 25 58  1  0  0  0
 25 59  1  0  0  0
 25 60  1  0  0  0
 26 61  1  0  0  0
 26 62  1  0  0  0
 26 63  1  0  0  0
 27 64  1  0  0  0
 27 65  1  0  0  0
 27 66  1  0  0  0
 28 67  1  0  0  0
 28 68  1  0  0  0
 29 69  1  0  0  0
 29 70  1  0  0  0
 31 71  1  0  0  0
 32 72  1  0  0  0
M  END
$$$$
