4io7_ligand
  -I-interpret- 

 24 24  0  0  0  0  0  0  0  0999 V2000
    3.3810   49.3590   -7.7330 N   0  3  0  0  0
    2.9120   50.7750   -7.8620 C   0  0  0  0  0
    1.5410   50.9110   -7.2860 C   0  0  0  0  0
    0.8500   49.8900   -7.1010 O   0  0  0  0  0
    2.8380   51.2060   -9.3200 C   0  0  0  0  0
    4.1670   51.2040  -10.0040 C   0  0  0  0  0
    5.1110   52.1840   -9.7090 C   0  0  0  0  0
    4.4820   50.2110  -10.9350 C   0  0  0  0  0
    6.3690   52.1710  -10.3440 C   0  0  0  0  0
    5.7280   50.1780  -11.5850 C   0  0  0  0  0
    6.6920   51.1470  -11.2690 C   0  0  0  0  0
    1.1390   52.0640   -7.0460 O   0  0  0  0  0
    3.4190   49.1032   -6.7463 H   0  0  0  0  0
    2.7321   48.7414   -8.2208 H   0  0  0  0  0
    4.3102   49.2711   -8.1443 H   0  0  0  0  0
    3.6279   51.4012   -7.3296 H   0  0  0  0  0
    1.3553   49.1132   -7.3517 H   0  0  0  0  0
    2.4566   52.2268   -9.3433 H   0  0  0  0  0
    2.1973   50.4953   -9.8420 H   0  0  0  0  0
    4.8762   52.9638   -8.9845 H   0  0  0  0  0
    3.7432   49.4427  -11.1630 H   0  0  0  0  0
    7.0967   52.9518  -10.1228 H   0  0  0  0  0
    5.9427   49.4082  -12.3262 H   0  0  0  0  0
    7.6791   51.1127  -11.7301 H   0  0  0  0  0
  1  2  1  0  0  0
  2  3  1  0  0  0
  2  5  1  0  0  0
  3  4  1  0  0  0
  3 12  2  0  0  0
  5  6  1  0  0  0
  6  7  4  0  0  0
  6  8  4  0  0  0
  7  9  4  0  0  0
  8 10  4  0  0  0
  9 11  4  0  0  0
 10 11  4  0  0  0
  1 13  1  0  0  0
  1 14  1  0  0  0
  1 15  1  0  0  0
  2 16  1  0  0  0
  4 17  1  0  0  0
  5 18  1  0  0  0
  5 19  1  0  0  0
  7 20  1  0  0  0
  8 21  1  0  0  0
  9 22  1  0  0  0
 10 23  1  0  0  0
 11 24  1  0  0  0
M  END
$$$$
