### 
### Created by X-TOOL on Mon Sep 10 21:13:13 2018
### 

@<TRIPOS>MOLECULE
4gxl_ligand
  155   158     1     0     0
SMALL
GAST_HUCK


@<TRIPOS>ATOM
      1 N          -2.4320   25.5710    4.5280 N.4       1 ASN         0.2396
      2 CA         -2.6260   24.3130    5.2460 C.3       1 ASN         0.0820
      3 C          -1.4190   23.3880    5.0720 C.2       1 ASN         0.2316
      4 O          -1.0470   23.0630    3.9470 O.2       1 ASN        -0.3903
      5 CB         -3.9150   23.6200    4.7770 C.3       1 ASN         0.0972
      6 CG         -4.4070   22.5600    5.7600 C.2       1 ASN         0.1813
      7 OD1        -3.6150   21.7960    6.3180 O.2       1 ASN        -0.3969
      8 ND2        -5.7240   22.5140    5.9770 N.am      1 ASN        -0.3006
      9 N          -0.7910   22.9840    6.1910 N.am      1 PRO        -0.2470
     10 CA          0.3490   22.0590    6.1570 C.3       1 PRO         0.1339
     11 C          -0.0700   20.6080    5.9030 C.2       1 PRO         0.2039
     12 O           0.8050   19.7530    5.7450 O.2       1 PRO        -0.3944
     13 CB          0.9450   22.1880    7.5610 C.3       1 PRO        -0.0104
     14 CG         -0.2060   22.6100    8.4250 C.3       1 PRO        -0.0281
     15 CD         -1.0430   23.5050    7.5480 C.3       1 PRO         0.0371
     16 N          -1.3780   20.3340    5.8770 N.am      1 GLY        -0.2664
     17 CA         -1.8720   18.9950    5.5930 C.3       1 GLY         0.1201
     18 C          -1.3990   17.9410    6.5810 C.2       1 GLY         0.2007
     19 O          -0.8150   16.9250    6.1940 O.2       1 GLY        -0.3947
     20 N          -1.6580   18.1840    7.8590 N.am      1 LEU        -0.2640
     21 CA         -1.2210   17.3010    8.9320 C.3       1 LEU         0.1312
     22 C          -2.3920   16.4840    9.4450 C.2       1 LEU         0.2039
     23 O          -3.2820   17.0040   10.1110 O.2       1 LEU        -0.3944
     24 CB         -0.6350   18.1210   10.0900 C.3       1 LEU        -0.0101
     25 CG          0.5980   18.9670    9.7760 C.3       1 LEU        -0.0425
     26 CD1         0.9750   19.8370   10.9640 C.3       1 LEU        -0.0625
     27 CD2         1.7530   18.0690    9.4100 C.3       1 LEU        -0.0625
     28 N          -2.3890   15.1940    9.1510 N.am      1 ALA        -0.2640
     29 CA         -3.4830   14.3400    9.5910 C.3       1 ALA         0.1282
     30 C          -3.5290   14.2840   11.1240 C.2       1 ALA         0.2037
     31 O          -4.5980   14.1330   11.7210 O.2       1 ALA        -0.3944
     32 CB         -3.3340   12.9480    8.9760 C.3       1 ALA        -0.0244
     33 N          -2.3710   14.4440   11.7660 N.am      1 TYR        -0.2621
     34 CA         -2.2920   14.3280   13.2260 C.3       1 TYR         0.1390
     35 C          -2.1680   15.6500   13.9860 C.2       1 TYR         0.2055
     36 O          -2.0680   15.6550   15.2110 O.2       1 TYR        -0.3942
     37 CB         -1.1260   13.4180   13.6090 C.3       1 TYR         0.0163
     38 CG         -1.3440   11.9720   13.2410 C.ar      1 TYR        -0.0493
     39 CD1        -2.2320   11.1790   13.9660 C.ar      1 TYR        -0.0685
     40 CD2        -0.6660   11.3970   12.1760 C.ar      1 TYR        -0.0685
     41 CE1        -2.4330    9.8470   13.6420 C.ar      1 TYR        -0.0398
     42 CE2        -0.8660   10.0710   11.8410 C.ar      1 TYR        -0.0398
     43 CZ         -1.7480    9.3030   12.5800 C.ar      1 TYR         0.0805
     44 OH         -1.9460    7.9810   12.2470 O.3       1 TYR        -0.3376
     45 N          -2.1710   16.7660   13.2660 N.am      1 GLY        -0.2663
     46 CA         -1.9860   18.0640   13.8860 C.3       1 GLY         0.1201
     47 C          -0.5470   18.3730   14.2700 C.2       1 GLY         0.2009
     48 O           0.3770   17.5810   14.0200 O.2       1 GLY        -0.3947
     49 N          -0.3610   19.5360   14.8880 N.am      1 ASN        -0.2618
     50 CA          0.9650   20.0260   15.2410 C.3       1 ASN         0.1478
     51 C           0.9800   20.4320   16.7140 C.2       1 ASN         0.2088
     52 O           0.4020   21.4540   17.0720 O.2       1 ASN        -0.3940
     53 CB          1.3180   21.2220   14.3450 C.3       1 ASN         0.0773
     54 CG          2.7060   21.7930   14.6280 C.2       1 ASN         0.1780
     55 OD1         3.4090   21.3480   15.5400 O.2       1 ASN        -0.3970
     56 ND2         3.1060   22.7840   13.8370 N.am      1 ASN        -0.3007
     57 N           1.6560   19.6400   17.5670 N.am      1 PRO        -0.2497
     58 CA          1.7090   19.9040   19.0140 C.3       1 PRO         0.1338
     59 C           2.5160   21.1500   19.3470 C.2       1 PRO         0.2042
     60 O           2.5280   21.5770   20.5010 O.2       1 PRO        -0.3944
     61 CB          2.4350   18.6790   19.5670 C.3       1 PRO        -0.0104
     62 CG          3.3210   18.2260   18.4200 C.3       1 PRO        -0.0281
     63 CD          2.5030   18.4930   17.1790 C.3       1 PRO         0.0369
     64 N           3.1880   21.7260   18.3540 N.am      1 TYR        -0.2621
     65 CA          4.0220   22.8960   18.6050 C.3       1 TYR         0.1390
     66 C           3.3480   24.1950   18.1540 C.2       1 TYR         0.2053
     67 O           3.9190   25.2770   18.3040 O.2       1 TYR        -0.3942
     68 CB          5.3870   22.7250   17.9340 C.3       1 TYR         0.0163
     69 CG          6.0760   21.4200   18.3090 C.ar      1 TYR        -0.0493
     70 CD1         6.5290   20.5450   17.3250 C.ar      1 TYR        -0.0685
     71 CD2         6.2660   21.0670   19.6400 C.ar      1 TYR        -0.0685
     72 CE1         7.1540   19.3550   17.6540 C.ar      1 TYR        -0.0398
     73 CE2         6.8890   19.8730   19.9850 C.ar      1 TYR        -0.0398
     74 CZ          7.3300   19.0250   18.9820 C.ar      1 TYR         0.0805
     75 OH          7.9510   17.8360   19.3060 O.3       1 TYR        -0.3376
     76 N           2.1380   24.0960   17.6060 N.am      1 SER        -0.2671
     77 CA          1.4170   25.2990   17.1770 C.3       1 SER         0.1173
     78 C           0.6820   25.9280   18.3570 C.2       1 SER         0.0623
     79 O           0.1389   25.2036   19.2333 O.co2     1 SER        -0.5665
     80 CB          0.4250   24.9900   16.0510 C.3       1 SER         0.0789
     81 OG         -0.6350   24.1770   16.5280 O.3       1 SER        -0.3910
     82 O           0.6176   27.1825   18.4560 O.co2     1 SER        -0.5665
     83 H1         -3.2392   26.1604    4.6587 H         1 ASN         0.2017
     84 H2         -2.3097   25.3818    3.5455 H         1 ASN         0.2017
     85 H3         -1.6133   26.0386    4.8846 H         1 ASN         0.2017
     86 H4         -2.7291   24.5422    6.3169 H         1 ASN         0.1125
     87 H5         -3.7222   23.1378    3.8073 H         1 ASN         0.0585
     88 H6         -4.7003   24.3811    4.6584 H         1 ASN         0.0585
     89 H7         -6.1030   21.8399    6.6110 H         1 ASN         0.1814
     90 H8         -6.3311   23.1536    5.5055 H         1 ASN         0.1814
     91 H9          1.0730   22.3671    5.3883 H         1 PRO         0.0802
     92 H10         1.7407   22.9474    7.5766 H         1 PRO         0.0313
     93 H11         1.3516   21.2238    7.9001 H         1 PRO         0.0313
     94 H12         0.1538   23.1598    9.3072 H         1 PRO         0.0287
     95 H13        -0.7869   21.7344    8.7503 H         1 PRO         0.0287
     96 H14        -2.1088   23.4265    7.8084 H         1 PRO         0.0524
     97 H15        -0.7208   24.5533    7.6336 H         1 PRO         0.0524
     98 H16        -2.0334   21.0674    6.0572 H         1 GLY         0.1881
     99 H17        -1.5304   18.7058    4.5882 H         1 GLY         0.0763
    100 H18        -2.9715   19.0200    5.6134 H         1 GLY         0.0763
    101 H19        -2.1744   19.0070    8.0956 H         1 LEU         0.1883
    102 H20        -0.4483   16.6213    8.5435 H         1 LEU         0.0800
    103 H21        -0.3621   17.4186   10.8913 H         1 LEU         0.0315
    104 H22        -1.4223   18.7998   10.4497 H         1 LEU         0.0315
    105 H23         0.3693   19.6194    8.9204 H         1 LEU         0.0298
    106 H24         1.8635   20.4350   10.7132 H         1 LEU         0.0232
    107 H25         1.1963   19.1975   11.8312 H         1 LEU         0.0232
    108 H26         0.1381   20.5081   11.2073 H         1 LEU         0.0232
    109 H27         1.4725   17.4430    8.5501 H         1 LEU         0.0232
    110 H28         2.0026   17.4252   10.2663 H         1 LEU         0.0232
    111 H29         2.6263   18.6838    9.1466 H         1 LEU         0.0232
    112 H30        -1.6330   14.8044    8.6250 H         1 ALA         0.1883
    113 H31        -4.4295   14.7734    9.2356 H         1 ALA         0.0797
    114 H32        -4.1631   12.3080    9.3121 H         1 ALA         0.0277
    115 H33        -2.3780   12.5068    9.2944 H         1 ALA         0.0277
    116 H34        -3.3538   13.0277    7.8791 H         1 ALA         0.0277
    117 H35        -1.5429   14.6464   11.2433 H         1 TYR         0.1885
    118 H36        -3.2247   13.8502   13.5603 H         1 TYR         0.0821
    119 H37        -0.9778   13.4816   14.6971 H         1 TYR         0.0453
    120 H38        -0.2220   13.7755   13.0943 H         1 TYR         0.0453
    121 H39        -2.7750   11.6122   14.7982 H         1 TYR         0.0530
    122 H40         0.0297   11.9954   11.5990 H         1 TYR         0.0530
    123 H41        -3.1220    9.2405   14.2186 H         1 TYR         0.0525
    124 H42        -0.3342    9.6349   11.0031 H         1 TYR         0.0525
    125 H43        -1.1216    7.5132   12.3087 H         1 TYR         0.2458
    126 H44        -2.3035   16.7102   12.2764 H         1 GLY         0.1881
    127 H45        -2.6016   18.1020   14.7968 H         1 GLY         0.0763
    128 H46        -2.3276   18.8352   13.1800 H         1 GLY         0.0763
    129 H47        -1.1587   20.0933   15.1183 H         1 ASN         0.1885
    130 H48         1.7035   19.2266   15.0812 H         1 ASN         0.0826
    131 H49         0.5732   22.0146   14.5094 H         1 ASN         0.0551
    132 H50         1.2809   20.8960   13.2951 H         1 ASN         0.0551
    133 H51         4.0054   23.1997   13.9722 H         1 ASN         0.1814
    134 H52         2.5074   23.1137   13.1069 H         1 ASN         0.1814
    135 H53         0.6957   19.9957   19.4321 H         1 PRO         0.0802
    136 H54         1.7183   17.8911   19.8418 H         1 PRO         0.0313
    137 H55         3.0400   18.9470   20.4457 H         1 PRO         0.0313
    138 H56         3.5537   17.1546   18.5087 H         1 PRO         0.0287
    139 H57         4.2566   18.8041   18.4002 H         1 PRO         0.0287
    140 H58         3.1510   18.7521   16.3288 H         1 PRO         0.0524
    141 H59         1.8873   17.6196   16.9180 H         1 PRO         0.0524
    142 H60         3.1209   21.3540   17.4282 H         1 TYR         0.1885
    143 H61         4.1838   22.9654   19.6908 H         1 TYR         0.0821
    144 H62         6.0335   23.5620   18.2366 H         1 TYR         0.0453
    145 H63         5.2463   22.7460   16.8432 H         1 TYR         0.0453
    146 H64         6.3893   20.8010   16.2810 H         1 TYR         0.0530
    147 H65         5.9225   21.7341   20.4223 H         1 TYR         0.0530
    148 H66         7.5026   18.6873   16.8744 H         1 TYR         0.0525
    149 H67         7.0282   19.6085   21.0270 H         1 TYR         0.0525
    150 H68         7.3569   17.2986   19.8166 H         1 TYR         0.2458
    151 H69         1.7187   23.1961   17.4864 H         1 SER         0.1876
    152 H70         2.1534   26.0232   16.7984 H         1 SER         0.0749
    153 H71         0.9500   24.4613   15.2418 H         1 SER         0.0599
    154 H72         0.0113   25.9332   15.6648 H         1 SER         0.0599
    155 H73        -0.2814   23.3602   16.8599 H         1 SER         0.2096
@<TRIPOS>BOND
     1    1    2 1  
     2    2    3 1  
     3    2    5 1  
     4    3    4 2  
     5    3    9 am 
     6    5    6 1  
     7    6    7 2  
     8    6    8 am 
     9    9   10 1  
    10    9   15 1  
    11   10   11 1  
    12   10   13 1  
    13   11   12 2  
    14   11   16 am 
    15   13   14 1  
    16   14   15 1  
    17   16   17 1  
    18   17   18 1  
    19   18   19 2  
    20   18   20 am 
    21   20   21 1  
    22   21   22 1  
    23   21   24 1  
    24   22   23 2  
    25   22   28 am 
    26   24   25 1  
    27   25   26 1  
    28   25   27 1  
    29   28   29 1  
    30   29   30 1  
    31   29   32 1  
    32   30   31 2  
    33   30   33 am 
    34   33   34 1  
    35   34   35 1  
    36   34   37 1  
    37   35   36 2  
    38   35   45 am 
    39   37   38 1  
    40   38   39 ar 
    41   38   40 ar 
    42   39   41 ar 
    43   40   42 ar 
    44   41   43 ar 
    45   42   43 ar 
    46   43   44 1  
    47   45   46 1  
    48   46   47 1  
    49   47   48 2  
    50   47   49 am 
    51   49   50 1  
    52   50   51 1  
    53   50   53 1  
    54   51   52 2  
    55   51   57 am 
    56   53   54 1  
    57   54   55 2  
    58   54   56 am 
    59   57   58 1  
    60   57   63 1  
    61   58   59 1  
    62   58   61 1  
    63   59   60 2  
    64   59   64 am 
    65   61   62 1  
    66   62   63 1  
    67   64   65 1  
    68   65   66 1  
    69   65   68 1  
    70   66   67 2  
    71   66   76 am 
    72   68   69 1  
    73   69   70 ar 
    74   69   71 ar 
    75   70   72 ar 
    76   71   73 ar 
    77   72   74 ar 
    78   73   74 ar 
    79   74   75 1  
    80   76   77 1  
    81   77   78 1  
    82   77   80 1  
    83   78   79 ar 
    84   80   81 1  
    85   78   82 ar 
    86    1   83 1  
    87    1   84 1  
    88    1   85 1  
    89    2   86 1  
    90    5   87 1  
    91    5   88 1  
    92    8   89 1  
    93    8   90 1  
    94   10   91 1  
    95   13   92 1  
    96   13   93 1  
    97   14   94 1  
    98   14   95 1  
    99   15   96 1  
   100   15   97 1  
   101   16   98 1  
   102   17   99 1  
   103   17  100 1  
   104   20  101 1  
   105   21  102 1  
   106   24  103 1  
   107   24  104 1  
   108   25  105 1  
   109   26  106 1  
   110   26  107 1  
   111   26  108 1  
   112   27  109 1  
   113   27  110 1  
   114   27  111 1  
   115   28  112 1  
   116   29  113 1  
   117   32  114 1  
   118   32  115 1  
   119   32  116 1  
   120   33  117 1  
   121   34  118 1  
   122   37  119 1  
   123   37  120 1  
   124   39  121 1  
   125   40  122 1  
   126   41  123 1  
   127   42  124 1  
   128   44  125 1  
   129   45  126 1  
   130   46  127 1  
   131   46  128 1  
   132   49  129 1  
   133   50  130 1  
   134   53  131 1  
   135   53  132 1  
   136   56  133 1  
   137   56  134 1  
   138   58  135 1  
   139   61  136 1  
   140   61  137 1  
   141   62  138 1  
   142   62  139 1  
   143   63  140 1  
   144   63  141 1  
   145   64  142 1  
   146   65  143 1  
   147   68  144 1  
   148   68  145 1  
   149   70  146 1  
   150   71  147 1  
   151   72  148 1  
   152   73  149 1  
   153   75  150 1  
   154   76  151 1  
   155   77  152 1  
   156   80  153 1  
   157   80  154 1  
   158   81  155 1  
@<TRIPOS>SUBSTRUCTURE
     1 ASN         1

