4gxl_ligand
  -I-interpret- 

156159  0  0  0  0  0  0  0  0999 V2000
   -2.4320   25.5710    4.5280 N   0  3  0  0  0
   -2.6260   24.3130    5.2460 C   0  0  0  0  0
   -1.4190   23.3880    5.0720 C   0  0  0  0  0
   -1.0470   23.0630    3.9470 O   0  0  0  0  0
   -3.9150   23.6200    4.7770 C   0  0  0  0  0
   -4.4070   22.5600    5.7600 C   0  0  0  0  0
   -3.6150   21.7960    6.3180 O   0  0  0  0  0
   -5.7240   22.5140    5.9770 N   0  0  0  0  0
   -0.7910   22.9840    6.1910 N   0  0  0  0  0
    0.3490   22.0590    6.1570 C   0  0  0  0  0
   -0.0700   20.6080    5.9030 C   0  0  0  0  0
    0.8050   19.7530    5.7450 O   0  0  0  0  0
    0.9450   22.1880    7.5610 C   0  0  0  0  0
   -0.2060   22.6100    8.4250 C   0  0  0  0  0
   -1.0430   23.5050    7.5480 C   0  0  0  0  0
   -1.3780   20.3340    5.8770 N   0  0  0  0  0
   -1.8720   18.9950    5.5930 C   0  0  0  0  0
   -1.3990   17.9410    6.5810 C   0  0  0  0  0
   -0.8150   16.9250    6.1940 O   0  0  0  0  0
   -1.6580   18.1840    7.8590 N   0  0  0  0  0
   -1.2210   17.3010    8.9320 C   0  0  0  0  0
   -2.3920   16.4840    9.4450 C   0  0  0  0  0
   -3.2820   17.0040   10.1110 O   0  0  0  0  0
   -0.6350   18.1210   10.0900 C   0  0  0  0  0
    0.5980   18.9670    9.7760 C   0  0  0  0  0
    0.9750   19.8370   10.9640 C   0  0  0  0  0
    1.7530   18.0690    9.4100 C   0  0  0  0  0
   -2.3890   15.1940    9.1510 N   0  0  0  0  0
   -3.4830   14.3400    9.5910 C   0  0  0  0  0
   -3.5290   14.2840   11.1240 C   0  0  0  0  0
   -4.5980   14.1330   11.7210 O   0  0  0  0  0
   -3.3340   12.9480    8.9760 C   0  0  0  0  0
   -2.3710   14.4440   11.7660 N   0  0  0  0  0
   -2.2920   14.3280   13.2260 C   0  0  0  0  0
   -2.1680   15.6500   13.9860 C   0  0  0  0  0
   -2.0680   15.6550   15.2110 O   0  0  0  0  0
   -1.1260   13.4180   13.6090 C   0  0  0  0  0
   -1.3440   11.9720   13.2410 C   0  0  0  0  0
   -2.2320   11.1790   13.9660 C   0  0  0  0  0
   -0.6660   11.3970   12.1760 C   0  0  0  0  0
   -2.4330    9.8470   13.6420 C   0  0  0  0  0
   -0.8660   10.0710   11.8410 C   0  0  0  0  0
   -1.7480    9.3030   12.5800 C   0  0  0  0  0
   -1.9460    7.9810   12.2470 O   0  0  0  0  0
   -2.1710   16.7660   13.2660 N   0  0  0  0  0
   -1.9860   18.0640   13.8860 C   0  0  0  0  0
   -0.5470   18.3730   14.2700 C   0  0  0  0  0
    0.3770   17.5810   14.0200 O   0  0  0  0  0
   -0.3610   19.5360   14.8880 N   0  0  0  0  0
    0.9650   20.0260   15.2410 C   0  0  0  0  0
    0.9800   20.4320   16.7140 C   0  0  0  0  0
    0.4020   21.4540   17.0720 O   0  0  0  0  0
    1.3180   21.2220   14.3450 C   0  0  0  0  0
    2.7060   21.7930   14.6280 C   0  0  0  0  0
    3.4090   21.3480   15.5400 O   0  0  0  0  0
    3.1060   22.7840   13.8370 N   0  0  0  0  0
    1.6560   19.6400   17.5670 N   0  0  0  0  0
    1.7090   19.9040   19.0140 C   0  0  0  0  0
    2.5160   21.1500   19.3470 C   0  0  0  0  0
    2.5280   21.5770   20.5010 O   0  0  0  0  0
    2.4350   18.6790   19.5670 C   0  0  0  0  0
    3.3210   18.2260   18.4200 C   0  0  0  0  0
    2.5030   18.4930   17.1790 C   0  0  0  0  0
    3.1880   21.7260   18.3540 N   0  0  0  0  0
    4.0220   22.8960   18.6050 C   0  0  0  0  0
    3.3480   24.1950   18.1540 C   0  0  0  0  0
    3.9190   25.2770   18.3040 O   0  0  0  0  0
    5.3870   22.7250   17.9340 C   0  0  0  0  0
    6.0760   21.4200   18.3090 C   0  0  0  0  0
    6.5290   20.5450   17.3250 C   0  0  0  0  0
    6.2660   21.0670   19.6400 C   0  0  0  0  0
    7.1540   19.3550   17.6540 C   0  0  0  0  0
    6.8890   19.8730   19.9850 C   0  0  0  0  0
    7.3300   19.0250   18.9820 C   0  0  0  0  0
    7.9510   17.8360   19.3060 O   0  0  0  0  0
    2.1380   24.0960   17.6060 N   0  0  0  0  0
    1.4170   25.2990   17.1770 C   0  0  0  0  0
    0.6820   25.9280   18.3570 C   0  0  0  0  0
    0.1389   25.2036   19.2333 O   0  0  0  0  0
    0.4250   24.9900   16.0510 C   0  0  0  0  0
   -0.6350   24.1770   16.5280 O   0  0  0  0  0
    0.6176   27.1825   18.4560 O   0  0  0  0  0
   -1.5734   26.0167    4.8513 H   0  0  0  0  0
   -2.3632   25.3831    3.5278 H   0  0  0  0  0
   -3.2245   26.1881    4.7055 H   0  0  0  0  0
   -2.7223   24.5399    6.3078 H   0  0  0  0  0
   -3.7023   23.1243    3.8298 H   0  0  0  0  0
   -4.6907   24.3807    4.6899 H   0  0  0  0  0
   -6.1104   21.8280    6.6255 H   0  0  0  0  0
   -6.3435   23.1648    5.4942 H   0  0  0  0  0
    1.0384   22.3025    5.3486 H   0  0  0  0  0
    1.7623   22.9085    7.5915 H   0  0  0  0  0
    1.3886   21.2527    7.9023 H   0  0  0  0  0
    0.1312   23.1257    9.3242 H   0  0  0  0  0
   -0.7742   21.7536    8.7881 H   0  0  0  0  0
   -2.0995   23.4848    7.8153 H   0  0  0  0  0
   -0.7781   24.5575    7.6489 H   0  0  0  0  0
   -2.0465   21.0821    6.0608 H   0  0  0  0  0
   -1.4935   18.7115    4.6109 H   0  0  0  0  0
   -2.9597   19.0313    5.6539 H   0  0  0  0  0
   -2.1847   19.0235    8.1003 H   0  0  0  0  0
   -0.4553   16.6332    8.5372 H   0  0  0  0  0
   -0.3192   17.3970   10.8412 H   0  0  0  0  0
   -1.4143   18.8237   10.3850 H   0  0  0  0  0
    0.3641   19.6190    8.9344 H   0  0  0  0  0
    0.1450   20.5015   11.2040 H   0  0  0  0  0
    1.1939   19.2022   11.8226 H   0  0  0  0  0
    1.8555   20.4290   10.7143 H   0  0  0  0  0
    1.9739   17.4046   10.2454 H   0  0  0  0  0
    1.4881   17.4773    8.5337 H   0  0  0  0  0
    2.6289   18.6783    9.1873 H   0  0  0  0  0
   -1.6179   14.7966    8.6145 H   0  0  0  0  0
   -4.4307   14.7569    9.2502 H   0  0  0  0  0
   -3.3537   13.0284    7.8891 H   0  0  0  0  0
   -2.3864   12.5120    9.2922 H   0  0  0  0  0
   -4.1561   12.3148    9.3098 H   0  0  0  0  0
   -1.5263   14.6505   11.2328 H   0  0  0  0  0
   -3.2510   13.9063   13.5269 H   0  0  0  0  0
   -1.0150   13.4668   14.6922 H   0  0  0  0  0
   -0.2476   13.7652   13.0650 H   0  0  0  0  0
   -2.7780   11.6146   14.8028 H   0  0  0  0  0
    0.0336   11.9987   11.5958 H   0  0  0  0  0
   -3.1258    9.2371   14.2218 H   0  0  0  0  0
   -0.3313    9.6325   10.9985 H   0  0  0  0  0
   -1.3991    7.7574   11.4903 H   0  0  0  0  0
   -2.3061   16.7091   12.2566 H   0  0  0  0  0
   -2.5717   18.0674   14.8053 H   0  0  0  0  0
   -2.2925   18.8147   13.1575 H   0  0  0  0  0
   -1.1747   20.1045   15.1229 H   0  0  0  0  0
    1.7068   19.2422   15.0880 H   0  0  0  0  0
    0.5897   22.0090   14.5407 H   0  0  0  0  0
    1.3063   20.8765   13.3113 H   0  0  0  0  0
    4.0248   23.2057   13.9727 H   0  0  0  0  0
    2.4941   23.1226   13.0945 H   0  0  0  0  0
    0.7140   20.0705   19.4267 H   0  0  0  0  0
    1.7437   17.8994   19.8871 H   0  0  0  0  0
    3.0083   18.9097   20.4649 H   0  0  0  0  0
    3.5967   17.1752   18.5083 H   0  0  0  0  0
    4.2717   18.7590   18.4041 H   0  0  0  0  0
    3.1220   18.7057   16.3074 H   0  0  0  0  0
    1.9184   17.6270   16.8687 H   0  0  0  0  0
    3.1195   21.3465   17.4097 H   0  0  0  0  0
    4.1650   22.9741   19.6827 H   0  0  0  0  0
    6.0248   23.5442   18.2660 H   0  0  0  0  0
    5.2280   22.7182   16.8557 H   0  0  0  0  0
    6.3886   20.8024   16.2752 H   0  0  0  0  0
    5.9206   21.7378   20.4267 H   0  0  0  0  0
    7.5045   18.6836   16.8701 H   0  0  0  0  0
    7.0289   19.6070   21.0327 H   0  0  0  0  0
    7.9982   17.7508   20.2610 H   0  0  0  0  0
    1.7103   23.1781   17.4840 H   0  0  0  0  0
    2.1546   26.0043   16.7942 H   0  0  0  0  0
    0.9477   24.4580   15.2561 H   0  0  0  0  0
    0.0111   25.9269   15.6783 H   0  0  0  0  0
   -1.2450   23.9945   15.8096 H   0  0  0  0  0
    1.0771   27.5848   17.7153 H   0  0  0  0  0
  1  2  1  0  0  0
  2  3  1  0  0  0
  2  5  1  0  0  0
  3  4  2  0  0  0
  3  9  1  0  0  0
  5  6  1  0  0  0
  6  7  2  0  0  0
  6  8  1  0  0  0
  9 10  1  0  0  0
  9 15  1  0  0  0
 10 11  1  0  0  0
 10 13  1  0  0  0
 11 12  2  0  0  0
 11 16  1  0  0  0
 13 14  1  0  0  0
 14 15  1  0  0  0
 16 17  1  0  0  0
 17 18  1  0  0  0
 18 19  2  0  0  0
 18 20  1  0  0  0
 20 21  1  0  0  0
 21 22  1  0  0  0
 21 24  1  0  0  0
 22 23  2  0  0  0
 22 28  1  0  0  0
 24 25  1  0  0  0
 25 26  1  0  0  0
 25 27  1  0  0  0
 28 29  1  0  0  0
 29 30  1  0  0  0
 29 32  1  0  0  0
 30 31  2  0  0  0
 30 33  1  0  0  0
 33 34  1  0  0  0
 34 35  1  0  0  0
 34 37  1  0  0  0
 35 36  2  0  0  0
 35 45  1  0  0  0
 37 38  1  0  0  0
 38 39  4  0  0  0
 38 40  4  0  0  0
 39 41  4  0  0  0
 40 42  4  0  0  0
 41 43  4  0  0  0
 42 43  4  0  0  0
 43 44  1  0  0  0
 45 46  1  0  0  0
 46 47  1  0  0  0
 47 48  2  0  0  0
 47 49  1  0  0  0
 49 50  1  0  0  0
 50 51  1  0  0  0
 50 53  1  0  0  0
 51 52  2  0  0  0
 51 57  1  0  0  0
 53 54  1  0  0  0
 54 55  2  0  0  0
 54 56  1  0  0  0
 57 58  1  0  0  0
 57 63  1  0  0  0
 58 59  1  0  0  0
 58 61  1  0  0  0
 59 60  2  0  0  0
 59 64  1  0  0  0
 61 62  1  0  0  0
 62 63  1  0  0  0
 64 65  1  0  0  0
 65 66  1  0  0  0
 65 68  1  0  0  0
 66 67  2  0  0  0
 66 76  1  0  0  0
 68 69  1  0  0  0
 69 70  4  0  0  0
 69 71  4  0  0  0
 70 72  4  0  0  0
 71 73  4  0  0  0
 72 74  4  0  0  0
 73 74  4  0  0  0
 74 75  1  0  0  0
 76 77  1  0  0  0
 77 78  1  0  0  0
 77 80  1  0  0  0
 78 79  2  0  0  0
 80 81  1  0  0  0
 78 82  1  0  0  0
  1 83  1  0  0  0
  1 84  1  0  0  0
  1 85  1  0  0  0
  2 86  1  0  0  0
  5 87  1  0  0  0
  5 88  1  0  0  0
  8 89  1  0  0  0
  8 90  1  0  0  0
 10 91  1  0  0  0
 13 92  1  0  0  0
 13 93  1  0  0  0
 14 94  1  0  0  0
 14 95  1  0  0  0
 15 96  1  0  0  0
 15 97  1  0  0  0
 16 98  1  0  0  0
 17 99  1  0  0  0
 17100  1  0  0  0
 20101  1  0  0  0
 21102  1  0  0  0
 24103  1  0  0  0
 24104  1  0  0  0
 25105  1  0  0  0
 26106  1  0  0  0
 26107  1  0  0  0
 26108  1  0  0  0
 27109  1  0  0  0
 27110  1  0  0  0
 27111  1  0  0  0
 28112  1  0  0  0
 29113  1  0  0  0
 32114  1  0  0  0
 32115  1  0  0  0
 32116  1  0  0  0
 33117  1  0  0  0
 34118  1  0  0  0
 37119  1  0  0  0
 37120  1  0  0  0
 39121  1  0  0  0
 40122  1  0  0  0
 41123  1  0  0  0
 42124  1  0  0  0
 44125  1  0  0  0
 45126  1  0  0  0
 46127  1  0  0  0
 46128  1  0  0  0
 49129  1  0  0  0
 50130  1  0  0  0
 53131  1  0  0  0
 53132  1  0  0  0
 56133  1  0  0  0
 56134  1  0  0  0
 58135  1  0  0  0
 61136  1  0  0  0
 61137  1  0  0  0
 62138  1  0  0  0
 62139  1  0  0  0
 63140  1  0  0  0
 63141  1  0  0  0
 64142  1  0  0  0
 65143  1  0  0  0
 68144  1  0  0  0
 68145  1  0  0  0
 70146  1  0  0  0
 71147  1  0  0  0
 72148  1  0  0  0
 73149  1  0  0  0
 75150  1  0  0  0
 76151  1  0  0  0
 77152  1  0  0  0
 80153  1  0  0  0
 80154  1  0  0  0
 81155  1  0  0  0
 82156  1  0  0  0
M  END
$$$$
