2ccs_ligand
  -I-interpret- 

 35 37  0  0  0  0  0  0  0  0999 V2000
   33.4180   12.4120   23.0680 Cl  0  0  0  0  0
   31.8580   11.7320   23.5930 C   0  0  0  0  0
   30.7280   11.9710   22.8700 C   0  0  0  0  0
   30.8540   12.7170   21.6860 O   0  0  0  0  0
   29.4780   11.4760   23.2290 C   0  0  0  0  0
   29.4140   10.7440   24.4030 C   0  0  0  0  0
   28.1680   10.2570   24.8080 O   0  0  0  0  0
   31.8220   10.9560   24.7300 C   0  0  0  0  0
   30.5660   10.4780   25.1420 C   0  0  0  0  0
   30.4910    9.6030   26.3430 C   0  0  0  0  0
   29.6900    9.6490   27.3800 N   0  0  0  0  0
   29.9620    8.6100   28.1630 N   0  0  0  0  0
   30.9230    7.8140   27.6910 C   0  0  0  0  0
   31.2860    8.4410   26.4960 C   0  0  0  0  0
   32.1990    7.8090   25.6810 N   0  0  0  0  0
   31.8170    7.3560   24.3430 C   0  0  0  0  0
   32.9930    7.1640   23.3710 C   0  0  0  0  0
   33.4830    7.3880   26.2540 C   0  0  0  0  0
   34.6030    7.1890   25.2260 C   0  0  0  0  0
   34.1340    6.4390   24.0180 N   0  3  0  0  0
   29.9912   12.8127   21.2761 H   0  0  0  0  0
   28.5939   11.6553   22.6172 H   0  0  0  0  0
   28.2672    9.7718   25.6304 H   0  0  0  0  0
   32.7293   10.7223   25.2871 H   0  0  0  0  0
   31.3254    6.9006   28.1291 H   0  0  0  0  0
   31.1757    8.1277   23.9173 H   0  0  0  0  0
   31.3402    6.3829   24.4610 H   0  0  0  0  0
   33.3441    8.1473   23.0581 H   0  0  0  0  0
   32.6457    6.5719   22.5243 H   0  0  0  0  0
   33.3169    6.4243   26.7355 H   0  0  0  0  0
   33.8064    8.1805   26.9289 H   0  0  0  0  0
   35.3976    6.6106   25.6974 H   0  0  0  0  0
   34.9461    8.1720   24.9032 H   0  0  0  0  0
   34.9028    6.3635   23.3520 H   0  0  0  0  0
   33.8222    5.5101   24.3014 H   0  0  0  0  0
  1  2  1  0  0  0
  2  3  4  0  0  0
  2  8  4  0  0  0
  3  4  1  0  0  0
  3  5  4  0  0  0
  5  6  4  0  0  0
  6  7  1  0  0  0
  6  9  4  0  0  0
  8  9  4  0  0  0
  9 10  1  0  0  0
 10 11  4  0  0  0
 10 14  4  0  0  0
 11 12  4  0  0  0
 12 13  4  0  0  0
 13 14  4  0  0  0
 14 15  1  0  0  0
 15 16  1  0  0  0
 15 18  1  0  0  0
 16 17  1  0  0  0
 17 20  1  0  0  0
 18 19  1  0  0  0
 19 20  1  0  0  0
  4 21  1  0  0  0
  5 22  1  0  0  0
  7 23  1  0  0  0
  8 24  1  0  0  0
 13 25  1  0  0  0
 16 26  1  0  0  0
 16 27  1  0  0  0
 17 28  1  0  0  0
 17 29  1  0  0  0
 18 30  1  0  0  0
 18 31  1  0  0  0
 19 32  1  0  0  0
 19 33  1  0  0  0
 20 34  1  0  0  0
 20 35  1  0  0  0
M  END
$$$$
