4qz4_ligand
  -I-interpret- 

 87 89  0  0  0  0  0  0  0  0999 V2000
   59.1220 -134.0870   34.7930 C   0  0  0  0  0
   59.1440 -135.3150   34.8710 O   0  0  0  0  0
   57.9670 -133.3660   34.0780 C   0  0  0  0  0
   56.7200 -133.7710   34.7360 N   0  3  0  0  0
   54.1760 -132.7810   35.3190 O   0  0  0  0  0
   55.6610 -133.8050   33.6910 C   0  0  0  0  0
   56.4380 -132.8360   35.8510 C   0  0  0  0  0
   54.2990 -133.7980   34.3020 C   0  0  0  0  0
   55.0730 -132.9920   36.4250 C   0  0  0  0  0
   60.0840 -133.2790   35.2710 N   0  0  0  0  0
   61.2500 -133.7960   35.9940 C   0  0  0  0  0
   60.8830 -133.8730   37.4690 C   0  0  0  0  0
   60.3480 -132.9110   38.0200 O   0  0  0  0  0
   62.4310 -132.8380   35.8190 C   0  0  0  0  0
   61.1580 -135.0390   38.0750 N   0  0  0  0  0
   60.8620 -135.2270   39.5000 C   0  0  0  0  0
   60.2570 -136.5820   39.7690 C   0  0  0  0  0
   58.8930 -136.4700   39.4490 C   0  0  0  0  0
   58.4640 -136.6520   38.1340 C   0  0  0  0  0
   57.1150 -136.5420   37.8060 C   0  0  0  0  0
   56.1730 -136.2590   38.7940 C   0  0  0  0  0
   54.8450 -136.1470   38.4810 O   0  0  0  0  0
   54.2880 -137.2900   37.8030 C   0  0  0  0  0
   56.5980 -136.0740   40.1110 C   0  0  0  0  0
   57.9490 -136.1820   40.4380 C   0  0  0  0  0
   62.1750 -135.0940   40.2660 C   0  0  0  0  0
   63.2590 -135.0990   39.6810 O   0  0  0  0  0
   62.0110 -134.9690   41.5870 N   0  0  0  0  0
   63.1250 -134.7970   42.5170 C   0  0  0  0  0
   63.0230 -135.8220   43.6640 C   0  0  0  0  0
   61.6680 -135.8420   44.1830 O   0  0  0  0  0
   63.4730 -137.3210   43.3180 C   0  0  0  0  0
   64.7970 -137.3300   42.5110 C   0  0  0  0  0
   62.3710 -137.9270   42.4520 C   0  0  0  0  0
   62.1570 -139.2900   42.8650 O   0  0  0  0  0
   62.9940 -133.4140   43.1460 C   0  0  0  0  0
   63.7670 -132.4090   42.5210 C   0  0  0  0  0
   64.6200 -132.6040   41.4260 C   0  0  0  0  0
   65.3300 -131.5320   40.8890 C   0  0  0  0  0
   65.1990 -130.2540   41.4240 C   0  0  0  0  0
   64.3530 -130.0430   42.5060 C   0  0  0  0  0
   63.6480 -131.1170   43.0430 C   0  0  0  0  0
   57.9455 -133.6346   33.0218 H   0  0  0  0  0
   58.0965 -132.2854   34.1385 H   0  0  0  0  0
   56.7744 -134.6996   35.1546 H   0  0  0  0  0
   55.7763 -134.7191   33.1086 H   0  0  0  0  0
   55.7646 -132.9209   33.0619 H   0  0  0  0  0
   56.5140 -131.8228   35.4565 H   0  0  0  0  0
   57.1539 -133.0475   36.6453 H   0  0  0  0  0
   53.5715 -133.5894   33.5176 H   0  0  0  0  0
   54.1249 -134.7695   34.7646 H   0  0  0  0  0
   54.9345 -133.9751   36.8750 H   0  0  0  0  0
   54.8915 -132.2829   37.2327 H   0  0  0  0  0
   60.0000 -132.2729   35.1259 H   0  0  0  0  0
   61.5302 -134.7774   35.6114 H   0  0  0  0  0
   62.6716 -132.7496   34.7596 H   0  0  0  0  0
   62.1642 -131.8582   36.2153 H   0  0  0  0  0
   63.2952 -133.2263   36.3580 H   0  0  0  0  0
   61.5761 -135.8005   37.5405 H   0  0  0  0  0
   60.1372 -134.4779   39.8187 H   0  0  0  0  0
   60.3947 -136.8754   40.8097 H   0  0  0  0  0
   60.7398 -137.3548   39.1709 H   0  0  0  0  0
   59.1916 -136.8825   37.3559 H   0  0  0  0  0
   56.7945 -136.6777   36.7731 H   0  0  0  0  0
   54.8210 -137.4502   36.8658 H   0  0  0  0  0
   54.3901 -138.1716   38.4358 H   0  0  0  0  0
   53.2331 -137.1097   37.5963 H   0  0  0  0  0
   55.8692 -135.8438   40.8882 H   0  0  0  0  0
   58.2703 -136.0411   41.4700 H   0  0  0  0  0
   61.0634 -134.9949   41.9635 H   0  0  0  0  0
   64.0659 -134.9249   41.9818 H   0  0  0  0  0
   63.7437 -135.4731   44.4036 H   0  0  0  0  0
   61.6093 -136.4814   44.8967 H   0  0  0  0  0
   63.6299 -137.8833   44.2385 H   0  0  0  0  0
   64.6568 -136.7821   41.5792 H   0  0  0  0  0
   65.5825 -136.8549   43.0987 H   0  0  0  0  0
   65.0792 -138.3593   42.2898 H   0  0  0  0  0
   62.6668 -137.8997   41.4033 H   0  0  0  0  0
   61.4505 -137.3553   42.5700 H   0  0  0  0  0
   61.4653 -139.6815   42.3266 H   0  0  0  0  0
   63.3490 -133.4963   44.1733 H   0  0  0  0  0
   61.9493 -133.1181   43.0503 H   0  0  0  0  0
   64.7284 -133.5983   40.9928 H   0  0  0  0  0
   65.9949 -131.6961   40.0411 H   0  0  0  0  0
   65.7578 -129.4218   40.9960 H   0  0  0  0  0
   64.2422 -129.0453   42.9307 H   0  0  0  0  0
   62.9863 -130.9464   43.8922 H   0  0  0  0  0
  1  2  2  0  0  0
  3  1  1  0  0  0
  1 10  1  0  0  0
  4  3  1  0  0  0
  6  4  1  0  0  0
  4  7  1  0  0  0
  8  5  1  0  0  0
  5  9  1  0  0  0
  6  8  1  0  0  0
  7  9  1  0  0  0
 10 11  1  0  0  0
 11 12  1  0  0  0
 11 14  1  0  0  0
 12 13  2  0  0  0
 12 15  1  0  0  0
 15 16  1  0  0  0
 16 17  1  0  0  0
 16 26  1  0  0  0
 17 18  1  0  0  0
 18 19  4  0  0  0
 18 25  4  0  0  0
 19 20  4  0  0  0
 20 21  4  0  0  0
 21 22  1  0  0  0
 21 24  4  0  0  0
 22 23  1  0  0  0
 24 25  4  0  0  0
 26 27  2  0  0  0
 26 28  1  0  0  0
 28 29  1  0  0  0
 29 30  1  0  0  0
 29 36  1  0  0  0
 30 31  1  0  0  0
 30 32  1  0  0  0
 32 33  1  0  0  0
 32 34  1  0  0  0
 34 35  1  0  0  0
 36 37  1  0  0  0
 37 38  4  0  0  0
 37 42  4  0  0  0
 38 39  4  0  0  0
 39 40  4  0  0  0
 40 41  4  0  0  0
 41 42  4  0  0  0
  3 43  1  0  0  0
  3 44  1  0  0  0
  4 45  1  0  0  0
  6 46  1  0  0  0
  6 47  1  0  0  0
  7 48  1  0  0  0
  7 49  1  0  0  0
  8 50  1  0  0  0
  8 51  1  0  0  0
  9 52  1  0  0  0
  9 53  1  0  0  0
 10 54  1  0  0  0
 11 55  1  0  0  0
 14 56  1  0  0  0
 14 57  1  0  0  0
 14 58  1  0  0  0
 15 59  1  0  0  0
 16 60  1  0  0  0
 17 61  1  0  0  0
 17 62  1  0  0  0
 19 63  1  0  0  0
 20 64  1  0  0  0
 23 65  1  0  0  0
 23 66  1  0  0  0
 23 67  1  0  0  0
 24 68  1  0  0  0
 25 69  1  0  0  0
 28 70  1  0  0  0
 29 71  1  0  0  0
 30 72  1  0  0  0
 31 73  1  0  0  0
 32 74  1  0  0  0
 33 75  1  0  0  0
 33 76  1  0  0  0
 33 77  1  0  0  0
 34 78  1  0  0  0
 34 79  1  0  0  0
 35 80  1  0  0  0
 36 81  1  0  0  0
 36 82  1  0  0  0
 38 83  1  0  0  0
 39 84  1  0  0  0
 40 85  1  0  0  0
 41 86  1  0  0  0
 42 87  1  0  0  0
M  END
$$$$
