4r5w_ligand
  -I-interpret- 

 32 34  0  0  0  0  0  0  0  0999 V2000
  -21.5810   -7.7740  -18.1020 N   0  0  0  0  0
  -21.1000   -6.5710  -18.4400 C   0  0  0  0  0
  -21.4190   -5.4510  -17.7230 N   0  0  0  0  0
  -22.2000   -5.5310  -16.6910 C   0  0  0  0  0
  -22.7480   -6.8040  -16.2730 C   0  0  0  0  0
  -22.4020   -7.9020  -17.0250 C   0  0  0  0  0
  -22.8880   -9.0600  -16.6390 O   0  0  0  0  0
  -17.6480   -3.7960  -22.6980 F   0  0  0  0  0
  -16.4090   -5.7180  -22.5120 F   0  0  0  0  0
  -18.3050   -5.5390  -23.9200 F   0  0  0  0  0
  -20.6780   -6.5570  -20.8110 C   0  0  0  0  0
  -19.0380   -5.6530  -19.2360 C   0  0  0  0  0
  -19.8330   -6.2040  -21.8760 C   0  0  0  0  0
  -18.2120   -5.2940  -20.3060 C   0  0  0  0  0
  -23.6440   -4.2650  -15.1900 C   0  0  0  0  0
  -22.4290   -4.1800  -16.0730 C   0  0  0  0  0
  -23.6370   -7.0130  -15.1210 C   0  0  0  0  0
  -23.3410   -5.6330  -14.0250 S   0  0  0  0  0
  -20.2860   -6.2950  -19.5000 C   0  0  0  0  0
  -18.6070   -5.5800  -21.6110 C   0  0  0  0  0
  -17.6720   -5.1630  -22.7510 C   0  0  0  0  0
  -23.0770   -6.0116  -15.6007 H   0  0  0  0  0
  -21.6375   -7.0345  -21.0096 H   0  0  0  0  0
  -18.7322   -5.4448  -18.2107 H   0  0  0  0  0
  -20.1296   -6.4145  -22.9035 H   0  0  0  0  0
  -17.2625   -4.7922  -20.1195 H   0  0  0  0  0
  -24.5431   -4.4456  -15.7791 H   0  0  0  0  0
  -23.8065   -3.3277  -14.6579 H   0  0  0  0  0
  -22.5842   -3.4337  -16.8521 H   0  0  0  0  0
  -21.5595   -3.8851  -15.4855 H   0  0  0  0  0
  -23.4320   -7.9633  -14.6280 H   0  0  0  0  0
  -24.6817   -7.0595  -15.4284 H   0  0  0  0  0
  2  1  2  0  0  0
  1  6  1  0  0  0
  2  3  1  0  0  0
 19  2  1  0  0  0
  3  4  2  0  0  0
  4  5  1  0  0  0
  4 16  1  0  0  0
  6  5  1  0  0  0
  5 17  1  0  0  0
  6  7  2  0  0  0
 21  8  1  0  0  0
 21  9  1  0  0  0
 21 10  1  0  0  0
 13 11  4  0  0  0
 11 19  4  0  0  0
 14 12  4  0  0  0
 12 19  4  0  0  0
 20 13  4  0  0  0
 20 14  4  0  0  0
 16 15  1  0  0  0
 15 18  1  0  0  0
 17 18  1  0  0  0
 20 21  1  0  0  0
  5 22  1  0  0  0
 11 23  1  0  0  0
 12 24  1  0  0  0
 13 25  1  0  0  0
 14 26  1  0  0  0
 15 27  1  0  0  0
 15 28  1  0  0  0
 16 29  1  0  0  0
 16 30  1  0  0  0
 17 31  1  0  0  0
 17 32  1  0  0  0
M  END
$$$$
