6b7c_ligand
  -I-interpret- 

 34 36  0  0  0  0  0  0  0  0999 V2000
   37.3480   99.6320  192.6180 C   0  0  0  0  0
   35.4370   99.9240  191.7180 C   0  0  0  0  0
   40.3210  100.1200  192.1230 C   0  0  0  0  0
   39.9390  101.3590  191.7760 C   0  0  0  0  0
   40.9030  101.7670  190.7500 C   0  0  0  0  0
   42.1180   98.5450  191.5130 C   0  0  0  0  0
   40.9610  103.0630  189.9950 C   0  0  0  0  0
   39.6630   99.2510  193.1560 C   0  0  0  0  0
   32.2430  100.2060  189.9440 C   0  0  0  0  0
   36.1590   98.9970  190.9790 C   0  0  0  0  0
   33.6520   99.7460  190.2880 C   0  0  0  0  0
   34.3350   98.7980  189.5140 C   0  0  0  0  0
   35.6330   98.3960  189.8380 C   0  0  0  0  0
   41.3840   99.7960  191.4310 N   0  0  0  0  0
   41.7080  100.8080  190.6100 N   0  0  0  0  0
   38.3340   99.7710  193.4600 N   0  0  0  0  0
   36.2600  100.2730  192.7180 N   0  0  0  0  0
   37.3620   98.8470  191.5710 N   0  0  0  0  0
   34.2010  100.2910  191.3930 N   0  0  0  0  0
   39.1000  101.9331  192.1691 H   0  0  0  0  0
   42.4929   98.4110  192.5277 H   0  0  0  0  0
   41.4548   97.7187  191.2572 H   0  0  0  0  0
   42.9551   98.5700  190.8154 H   0  0  0  0  0
   40.0348  103.1984  189.4365 H   0  0  0  0  0
   41.0865  103.8864  190.6982 H   0  0  0  0  0
   41.8037  103.0421  189.3040 H   0  0  0  0  0
   40.2665   99.2477  194.0636 H   0  0  0  0  0
   39.5747   98.2351  192.7710 H   0  0  0  0  0
   32.2412  100.6556  188.9510 H   0  0  0  0  0
   31.5690   99.3494  189.9576 H   0  0  0  0  0
   31.9129  100.9414  190.6778 H   0  0  0  0  0
   33.8438   98.3659  188.6422 H   0  0  0  0  0
   36.1896   97.6701  189.2453 H   0  0  0  0  0
   38.1736  100.2511  194.3456 H   0  0  0  0  0
  1 16  1  0  0  0
 17  1  4  0  0  0
  1 18  4  0  0  0
  2 10  4  0  0  0
  2 17  4  0  0  0
 19  2  4  0  0  0
  3  4  4  0  0  0
  8  3  1  0  0  0
  3 14  4  0  0  0
  4  5  4  0  0  0
  5  7  1  0  0  0
  5 15  4  0  0  0
 14  6  1  0  0  0
 16  8  1  0  0  0
 11  9  1  0  0  0
 10 13  4  0  0  0
 10 18  4  0  0  0
 11 12  4  0  0  0
 11 19  4  0  0  0
 12 13  4  0  0  0
 14 15  4  0  0  0
  4 20  1  0  0  0
  6 21  1  0  0  0
  6 22  1  0  0  0
  6 23  1  0  0  0
  7 24  1  0  0  0
  7 25  1  0  0  0
  7 26  1  0  0  0
  8 27  1  0  0  0
  8 28  1  0  0  0
  9 29  1  0  0  0
  9 30  1  0  0  0
  9 31  1  0  0  0
 12 32  1  0  0  0
 13 33  1  0  0  0
 16 34  1  0  0  0
M  END
$$$$
