3h0z_ligand
  -I-interpret- 

 72 76  0  0  0  0  0  0  0  0999 V2000
   31.8790   23.4760   57.8890 Cl  0  0  0  0  0
   31.1680   23.8490   56.2940 C   0  0  0  0  0
   30.6250   22.8310   55.5200 C   0  0  0  0  0
   30.0680   23.1320   54.2880 C   0  0  0  0  0
   30.0650   24.4490   53.8390 C   0  0  0  0  0
   30.6150   25.4630   54.6210 C   0  0  0  0  0
   31.1730   25.1570   55.8550 C   0  0  0  0  0
   31.7280   26.1660   56.6570 N   0  0  0  0  0
   33.0380   26.4390   56.6790 C   0  0  0  0  0
   33.8790   25.7190   56.1590 O   0  0  0  0  0
   33.4840   27.6910   57.3840 C   0  0  0  0  0
   34.8320   27.9770   57.5340 C   0  0  0  0  0
   35.2340   29.1400   58.1810 C   0  0  0  0  0
   32.5460   28.5840   57.8990 C   0  0  0  0  0
   32.9480   29.7480   58.5450 C   0  0  0  0  0
   34.2960   30.0340   58.6880 C   0  0  0  0  0
   34.6800   31.2110   59.3560 N   0  0  0  0  0
   35.6160   31.2290   60.3190 C   0  0  0  0  0
   36.1680   30.1200   60.8180 N   0  0  0  0  0
   36.0240   32.4300   60.7290 C   0  0  0  0  0
   35.5100   33.5190   60.1980 F   0  0  0  0  0
   36.9530   32.5660   61.6830 C   0  0  0  0  0
   37.5460   31.5100   62.2320 N   0  0  0  0  0
   37.0310   30.1900   61.9770 C   0  0  0  0  0
   37.8190   29.0820   62.5120 N   0  0  0  0  0
   37.9220   27.7980   62.0520 C   0  0  0  0  0
   38.9320   27.0180   62.6110 C   0  0  0  0  0
   39.1340   25.6950   62.2170 C   0  0  0  0  0
   38.3260   25.1110   61.2500 C   0  0  0  0  0
   37.3110   25.8750   60.6880 C   0  0  0  0  0
   37.1100   27.1970   61.0840 C   0  0  0  0  0
   38.5450   23.6640   60.8390 C   0  0  0  0  0
   37.8160   22.7370   61.8220 C   0  0  0  0  0
   36.6190   22.9470   62.0120 O   0  0  0  0  0
   38.4460   21.7190   62.4640 N   0  0  0  0  0
   37.7380   20.8560   63.4010 C   0  0  0  0  0
   38.3590   21.1740   64.7580 C   0  0  0  0  0
   39.7320   20.6860   64.6760 N   0  0  0  0  0
   40.5250   21.4480   63.7110 C   0  0  0  0  0
   39.8550   21.3170   62.3430 C   0  0  0  0  0
   40.2230   19.6590   65.4030 C   0  0  0  0  0
   41.3800   19.2720   65.3070 O   0  0  0  0  0
   39.2960   18.9700   66.3660 C   0  0  0  0  0
   30.6372   21.8022   55.8799 H   0  0  0  0  0
   29.6348   22.3422   53.6742 H   0  0  0  0  0
   29.6295   24.6892   52.8691 H   0  0  0  0  0
   30.6071   26.4932   54.2649 H   0  0  0  0  0
   31.1055   26.7156   57.2493 H   0  0  0  0  0
   35.5799   27.2872   57.1431 H   0  0  0  0  0
   36.2969   29.3541   58.2925 H   0  0  0  0  0
   31.4830   28.3671   57.7940 H   0  0  0  0  0
   32.2010   30.4367   58.9396 H   0  0  0  0  0
   34.2282   32.0883   59.0979 H   0  0  0  0  0
   37.2299   33.5657   62.0177 H   0  0  0  0  0
   38.3687   29.2957   63.3442 H   0  0  0  0  0
   39.5792   27.4513   63.3736 H   0  0  0  0  0
   39.9349   25.1132   62.6732 H   0  0  0  0  0
   36.6640   25.4360   59.9285 H   0  0  0  0  0
   36.3040   27.7737   60.6302 H   0  0  0  0  0
   39.6117   23.4402   60.8514 H   0  0  0  0  0
   38.1529   23.5084   59.8339 H   0  0  0  0  0
   37.8396   19.8020   63.1423 H   0  0  0  0  0
   36.6632   21.0373   63.3911 H   0  0  0  0  0
   37.8116   20.6980   65.5716 H   0  0  0  0  0
   38.3246   22.2416   64.9751 H   0  0  0  0  0
   41.5433   21.0614   63.6708 H   0  0  0  0  0
   40.5751   22.4957   64.0076 H   0  0  0  0  0
   40.3610   21.9583   61.6213 H   0  0  0  0  0
   39.9159   20.2843   61.9996 H   0  0  0  0  0
   39.2092   17.9178   66.0950 H   0  0  0  0  0
   39.6957   19.0544   67.3765 H   0  0  0  0  0
   38.3136   19.4401   66.3220 H   0  0  0  0  0
  1  2  1  0  0  0
  2  3  4  0  0  0
  2  7  4  0  0  0
  3  4  4  0  0  0
  4  5  4  0  0  0
  5  6  4  0  0  0
  6  7  4  0  0  0
  7  8  1  0  0  0
  8  9  1  0  0  0
  9 10  2  0  0  0
  9 11  1  0  0  0
 11 12  4  0  0  0
 11 14  4  0  0  0
 12 13  4  0  0  0
 13 16  4  0  0  0
 14 15  4  0  0  0
 15 16  4  0  0  0
 16 17  1  0  0  0
 17 18  1  0  0  0
 18 19  4  0  0  0
 18 20  4  0  0  0
 19 24  4  0  0  0
 20 21  1  0  0  0
 20 22  4  0  0  0
 22 23  4  0  0  0
 23 24  4  0  0  0
 24 25  1  0  0  0
 25 26  1  0  0  0
 26 27  4  0  0  0
 26 31  4  0  0  0
 27 28  4  0  0  0
 28 29  4  0  0  0
 29 30  4  0  0  0
 29 32  1  0  0  0
 30 31  4  0  0  0
 32 33  1  0  0  0
 33 34  2  0  0  0
 33 35  1  0  0  0
 35 36  1  0  0  0
 35 40  1  0  0  0
 36 37  1  0  0  0
 37 38  1  0  0  0
 38 39  1  0  0  0
 38 41  1  0  0  0
 39 40  1  0  0  0
 41 42  2  0  0  0
 41 43  1  0  0  0
  3 44  1  0  0  0
  4 45  1  0  0  0
  5 46  1  0  0  0
  6 47  1  0  0  0
  8 48  1  0  0  0
 12 49  1  0  0  0
 13 50  1  0  0  0
 14 51  1  0  0  0
 15 52  1  0  0  0
 17 53  1  0  0  0
 22 54  1  0  0  0
 25 55  1  0  0  0
 27 56  1  0  0  0
 28 57  1  0  0  0
 30 58  1  0  0  0
 31 59  1  0  0  0
 32 60  1  0  0  0
 32 61  1  0  0  0
 36 62  1  0  0  0
 36 63  1  0  0  0
 37 64  1  0  0  0
 37 65  1  0  0  0
 39 66  1  0  0  0
 39 67  1  0  0  0
 40 68  1  0  0  0
 40 69  1  0  0  0
 43 70  1  0  0  0
 43 71  1  0  0  0
 43 72  1  0  0  0
M  END
$$$$
