1kui_ligand
  -I-interpret- 

 56 58  0  0  0  0  0  0  0  0999 V2000
   14.4190    8.8560    3.4020 N   0  0  0  0  0
   14.1520    9.0600    4.8420 C   0  0  0  0  0
   12.6460    9.0430    5.1030 C   0  0  0  0  0
   11.8800    9.7360    4.4280 O   0  0  0  0  0
   14.7590   10.4020    5.2550 C   0  0  0  0  0
   15.1420   11.0440    3.9910 C   0  0  0  0  0
   14.8330   10.0340    2.9230 C   0  0  0  0  0
   14.9360   10.2910    1.7250 O   0  0  0  0  0
   12.2230    8.2400    6.0760 N   0  0  0  0  0
   10.8100    8.1190    6.4210 C   0  0  0  0  0
   10.5230    8.7760    7.7650 C   0  0  0  0  0
   11.2560    8.5700    8.7340 O   0  0  0  0  0
   10.4010    6.6440    6.4680 C   0  0  0  0  0
   10.1810    6.0250    5.0920 C   0  0  0  0  0
    9.8380    4.5470    5.1580 C   0  0  0  0  0
    9.1980    4.0870    6.0970 O   0  0  0  0  0
   10.2540    3.8010    4.1510 N   0  0  0  0  0
    9.4560    9.5660    7.8140 N   0  0  0  0  0
    9.0720   10.2640    9.0330 C   0  0  0  0  0
    7.5750   10.5150    9.0310 C   0  0  0  0  0
    7.0060   10.7110   10.1200 O   0  0  0  0  0
    9.8450   11.5890    9.1470 C   0  0  0  0  0
    9.4780   12.6590    8.1430 C   0  0  0  0  0
    8.8150   12.4940    6.9570 C   0  0  0  0  0
    9.8070   14.0520    8.2220 C   0  0  0  0  0
    8.7140   13.6950    6.2950 N   0  0  0  0  0
    9.3160   14.6680    7.0490 C   0  0  0  0  0
   10.4730   14.8390    9.1700 C   0  0  0  0  0
    9.4700   16.0380    6.8000 C   0  0  0  0  0
   10.6270   16.2010    8.9200 C   0  0  0  0  0
   10.1270   16.7840    7.7440 C   0  0  0  0  0
    6.9930   10.5190    7.9300 O   0  0  0  0  0
   14.3091    7.9881    2.8775 H   0  0  0  0  0
   14.6009    8.2585    5.4287 H   0  0  0  0  0
   15.6126   10.2741    5.9206 H   0  0  0  0  0
   14.0536   11.0096    5.8218 H   0  0  0  0  0
   16.1957   11.3230    3.9862 H   0  0  0  0  0
   14.5968   11.9745    3.8326 H   0  0  0  0  0
   12.9075    7.6919    6.5970 H   0  0  0  0  0
   10.2281    8.6286    5.6530 H   0  0  0  0  0
    9.4554    6.5849    7.0070 H   0  0  0  0  0
   11.2127    6.0957    6.9461 H   0  0  0  0  0
   11.1084    6.1271    4.5285 H   0  0  0  0  0
    9.3425    6.5412    4.6245 H   0  0  0  0  0
   10.0451    2.8027    4.1355 H   0  0  0  0  0
   10.7842    4.2230    3.3886 H   0  0  0  0  0
    8.8899    9.6870    6.9742 H   0  0  0  0  0
    9.3204    9.6460    9.8958 H   0  0  0  0  0
   10.8930   11.3483    8.9686 H   0  0  0  0  0
    9.6092   11.9974   10.1297 H   0  0  0  0  0
    8.4229   11.5456    6.5896 H   0  0  0  0  0
   10.8633   14.3946   10.0856 H   0  0  0  0  0
    9.0817   16.4940    5.8893 H   0  0  0  0  0
   11.1442   16.8246    9.6493 H   0  0  0  0  0
   10.2643   17.8526    7.5784 H   0  0  0  0  0
    7.6293   10.3460    7.2323 H   0  0  0  0  0
  3  2  1  0  0  0
  2  5  1  0  0  0
  2  1  1  0  0  0
  5  6  1  0  0  0
  6  7  1  0  0  0
  7  8  2  0  0  0
  3  4  2  0  0  0
 11 10  1  0  0  0
 10 13  1  0  0  0
 10  9  1  0  0  0
 13 14  1  0  0  0
 14 15  1  0  0  0
 15 16  2  0  0  0
 15 17  1  0  0  0
 11 12  2  0  0  0
 19 20  1  0  0  0
 19 22  1  0  0  0
 18 19  1  0  0  0
 22 23  1  0  0  0
 23 25  4  0  0  0
 23 24  4  0  0  0
 24 26  4  0  0  0
 26 27  4  0  0  0
 27 29  4  0  0  0
 25 27  4  0  0  0
 25 28  4  0  0  0
 28 30  4  0  0  0
 30 31  4  0  0  0
 29 31  4  0  0  0
 20 32  1  0  0  0
 20 21  2  0  0  0
  9  3  1  0  0  0
 11 18  1  0  0  0
  7  1  1  0  0  0
  1 33  1  0  0  0
  2 34  1  0  0  0
  5 35  1  0  0  0
  5 36  1  0  0  0
  6 37  1  0  0  0
  6 38  1  0  0  0
  9 39  1  0  0  0
 10 40  1  0  0  0
 13 41  1  0  0  0
 13 42  1  0  0  0
 14 43  1  0  0  0
 14 44  1  0  0  0
 17 45  1  0  0  0
 17 46  1  0  0  0
 18 47  1  0  0  0
 19 48  1  0  0  0
 22 49  1  0  0  0
 22 50  1  0  0  0
 24 51  1  0  0  0
 28 52  1  0  0  0
 29 53  1  0  0  0
 30 54  1  0  0  0
 31 55  1  0  0  0
 32 56  1  0  0  0
M  END
$$$$
