5may_ligand
  -I-interpret- 

 37 38  0  0  0  0  0  0  0  0999 V2000
   33.9960   -6.7950  116.2340 C   0  0  0  0  0
   32.8630   -6.5140  115.2200 C   0  0  0  0  0
   33.2170   -5.7870  114.0190 O   0  0  0  0  0
   32.3600   -7.8450  114.7100 C   0  0  0  0  0
   31.2880   -7.7590  113.7380 O   0  0  0  0  0
   31.8950   -8.7140  115.8680 C   0  0  0  0  0
   30.6570   -8.1500  116.3630 O   0  0  0  0  0
   32.9430   -8.8030  116.9820 C   0  0  0  0  0
   32.4170   -9.5340  118.2100 C   0  0  0  0  0
   33.4170   -7.4750  117.3640 O   0  0  0  0  0
   36.0300   -3.6470  118.4900 O   0  0  0  0  0
   36.7510   -4.7880  118.0240 S   0  0  0  0  0
   37.6050   -5.4020  119.0140 O   0  0  0  0  0
   35.7220   -5.9390  117.5590 N   0  0  0  0  0
   34.6730   -5.5000  116.6190 C   0  0  0  0  0
   37.6620   -4.3080  116.7160 C   0  0  0  0  0
   38.7050   -5.0580  116.1330 C   0  0  0  0  0
   39.2020   -4.3040  115.0550 C   0  0  0  0  0
   38.6020   -3.0380  114.8910 C   0  0  0  0  0
   37.3370   -2.7490  116.0390 S   0  0  0  0  0
   34.7682   -7.4321  115.8028 H   0  0  0  0  0
   32.1571   -5.9005  115.7798 H   0  0  0  0  0
   33.5500   -4.9190  114.2582 H   0  0  0  0  0
   33.2140   -8.2866  114.1965 H   0  0  0  0  0
   31.5692   -7.2123  113.0007 H   0  0  0  0  0
   31.7426   -9.7357  115.5200 H   0  0  0  0  0
   30.0185   -8.1051  115.6475 H   0  0  0  0  0
   33.7763   -9.3788  116.5792 H   0  0  0  0  0
   33.2176   -9.6328  118.9431 H   0  0  0  0  0
   31.5933   -8.9669  118.6437 H   0  0  0  0  0
   32.0649  -10.5237  117.9190 H   0  0  0  0  0
   35.7913   -6.9011  117.8907 H   0  0  0  0  0
   33.9850   -4.7794  117.0611 H   0  0  0  0  0
   35.0744   -4.9621  115.7601 H   0  0  0  0  0
   39.0587   -6.0368  116.4569 H   0  0  0  0  0
   39.9902   -4.6697  114.3969 H   0  0  0  0  0
   38.9011   -2.3209  114.1266 H   0  0  0  0  0
  1  2  1  0  0  0
  1 10  1  0  0  0
 15  1  1  0  0  0
  2  3  1  0  0  0
  2  4  1  0  0  0
  4  5  1  0  0  0
  4  6  1  0  0  0
  6  7  1  0  0  0
  8  6  1  0  0  0
  8  9  1  0  0  0
 10  8  1  0  0  0
 12 11  2  0  0  0
 12 13  2  0  0  0
 14 12  1  0  0  0
 12 16  1  0  0  0
 14 15  1  0  0  0
 16 17  4  0  0  0
 16 20  4  0  0  0
 17 18  4  0  0  0
 18 19  4  0  0  0
 19 20  4  0  0  0
  1 21  1  0  0  0
  2 22  1  0  0  0
  3 23  1  0  0  0
  4 24  1  0  0  0
  5 25  1  0  0  0
  6 26  1  0  0  0
  7 27  1  0  0  0
  8 28  1  0  0  0
  9 29  1  0  0  0
  9 30  1  0  0  0
  9 31  1  0  0  0
 14 32  1  0  0  0
 15 33  1  0  0  0
 15 34  1  0  0  0
 17 35  1  0  0  0
 18 36  1  0  0  0
 19 37  1  0  0  0
M  END
$$$$
