5fue_ligand
  -I-interpret- 

 29 30  0  0  0  0  0  0  0  0999 V2000
   43.8500   35.4970   85.1610 C   0  0  0  0  0
   44.3270   34.6710   84.1510 C   0  0  0  0  0
   45.2780   33.6920   84.4340 C   0  0  0  0  0
   45.7600   33.5300   85.7320 C   0  0  0  0  0
   46.7890   32.4610   86.0260 C   0  0  0  0  0
   47.4810   32.5330   87.0340 O   0  0  0  0  0
   46.9410   31.4380   85.1830 N   0  0  0  0  0
   47.5620   30.4270   85.5130 O   0  0  0  0  0
   45.2790   34.3730   86.7430 C   0  0  0  0  0
   44.3240   35.3540   86.4650 C   0  0  0  0  0
   43.8430   36.1620   87.4490 N   0  0  0  0  0
   44.4810   37.2530   87.8800 C   0  0  0  0  0
   45.3600   37.7810   87.2330 O   0  0  0  0  0
   44.1420   37.8660   89.2090 C   0  0  0  0  0
   42.9410   37.5780   89.8480 C   0  0  0  0  0
   42.6450   38.1550   91.0800 C   0  0  0  0  0
   43.5570   39.0190   91.6740 C   0  0  0  0  0
   44.7620   39.3050   91.0390 C   0  0  0  0  0
   45.0560   38.7260   89.8100 C   0  0  0  0  0
   43.1038   36.2584   84.9340 H   0  0  0  0  0
   43.9560   34.7890   83.1329 H   0  0  0  0  0
   45.6472   33.0489   83.6351 H   0  0  0  0  0
   45.6551   34.2617   87.7600 H   0  0  0  0  0
   42.9498   35.9220   87.8791 H   0  0  0  0  0
   42.2282   36.8975   89.3823 H   0  0  0  0  0
   41.7013   37.9298   91.5768 H   0  0  0  0  0
   43.3284   39.4732   92.6382 H   0  0  0  0  0
   45.4758   39.9837   91.5059 H   0  0  0  0  0
   46.0029   38.9457   89.3168 H   0  0  0  0  0
  1  2  4  0  0  0
  1 10  4  0  0  0
  2  3  4  0  0  0
  3  4  4  0  0  0
  4  5  1  0  0  0
  4  9  4  0  0  0
  5  6  2  0  0  0
  5  7  1  0  0  0
  7  8  2  0  0  0
  9 10  4  0  0  0
 10 11  1  0  0  0
 11 12  1  0  0  0
 12 13  2  0  0  0
 12 14  1  0  0  0
 14 15  4  0  0  0
 14 19  4  0  0  0
 15 16  4  0  0  0
 16 17  4  0  0  0
 17 18  4  0  0  0
 18 19  4  0  0  0
  1 20  1  0  0  0
  2 21  1  0  0  0
  3 22  1  0  0  0
  9 23  1  0  0  0
 11 24  1  0  0  0
 15 25  1  0  0  0
 16 26  1  0  0  0
 17 27  1  0  0  0
 18 28  1  0  0  0
 19 29  1  0  0  0
M  END
$$$$
