2y4a_ligand
  -I-interpret- 

 23 23  0  0  0  0  0  0  0  0999 V2000
   -0.9490   -2.9790   36.4080 B   0  0  0  0  0
   -2.4290    2.2580   37.2110 Cl  0  0  0  0  0
   -2.2520   -3.5730   35.8590 O   0  0  0  0  0
   -1.2240   -2.0050   37.5790 O   0  0  0  0  0
   -0.3040   -2.1990   35.1660 C   0  0  0  0  0
   -1.1420   -1.1090   34.7030 N   0  0  0  0  0
   -1.2320    0.0900   35.2650 C   0  0  0  0  0
   -0.5800    0.3810   36.2520 O   0  0  0  0  0
   -2.0970    1.1390   34.6480 C   0  0  0  0  0
   -2.2670    1.0990   33.2650 C   0  0  0  0  0
   -3.0290    2.0870   32.6470 C   0  0  0  0  0
   -3.6020    3.1110   33.4060 C   0  0  0  0  0
   -3.4240    3.1530   34.7850 C   0  0  0  0  0
   -2.6600    2.1670   35.4120 C   0  0  0  0  0
   -2.6985   -4.0604   36.5552 H   0  0  0  0  0
   -1.6096   -2.4893   38.3127 H   0  0  0  0  0
   -0.1880   -2.9075   34.3458 H   0  0  0  0  0
    0.6484   -1.7788   35.4891 H   0  0  0  0  0
   -1.7113   -1.2788   33.8738 H   0  0  0  0  0
   -1.8094    0.3048   32.6752 H   0  0  0  0  0
   -3.1791    2.0617   31.5677 H   0  0  0  0  0
   -4.1932    3.8830   32.9135 H   0  0  0  0  0
   -3.8783    3.9509   35.3724 H   0  0  0  0  0
  1  3  1  0  0  0
  1  4  1  0  0  0
  5  1  1  0  0  0
 14  2  1  0  0  0
  6  5  1  0  0  0
  7  6  1  0  0  0
  7  8  2  0  0  0
  9  7  1  0  0  0
  9 10  4  0  0  0
  9 14  4  0  0  0
 10 11  4  0  0  0
 11 12  4  0  0  0
 12 13  4  0  0  0
 13 14  4  0  0  0
  3 15  1  0  0  0
  4 16  1  0  0  0
  5 17  1  0  0  0
  5 18  1  0  0  0
  6 19  1  0  0  0
 10 20  1  0  0  0
 11 21  1  0  0  0
 12 22  1  0  0  0
 13 23  1  0  0  0
M  END
$$$$
