### 
### Created by X-TOOL on Mon Sep 10 21:13:06 2018
### 

@<TRIPOS>MOLECULE
2y4a_ligand
   23    23     1     0     0
SMALL
GAST_HUCK


@<TRIPOS>ATOM
      1 B          -0.9490   -2.9790   36.4080 B         1 BH6         3.0000
      2 CL         -2.4290    2.2580   37.2110 Cl        1 BH6        -0.0647
      3 O1         -2.2520   -3.5730   35.8590 O.3       1 BH6        -0.8710
      4 O2         -1.2240   -2.0050   37.5790 O.3       1 BH6        -0.8710
      5 C3         -0.3040   -2.1990   35.1660 C.3       1 BH6        -0.2413
      6 N4         -1.1420   -1.1090   34.7030 N.am      1 BH6        -0.4404
      7 C5         -1.2320    0.0900   35.2650 C.2       1 BH6         0.1767
      8 O6         -0.5800    0.3810   36.2520 O.2       1 BH6        -0.3873
      9 C7         -2.0970    1.1390   34.6480 C.ar      1 BH6         0.0611
     10 C8         -2.2670    1.0990   33.2650 C.ar      1 BH6        -0.0417
     11 C11        -3.0290    2.0870   32.6470 C.ar      1 BH6        -0.0561
     12 C12        -3.6020    3.1110   33.4060 C.ar      1 BH6        -0.0571
     13 C13        -3.4240    3.1530   34.7850 C.ar      1 BH6        -0.0423
     14 C14        -2.6600    2.1670   35.4120 C.ar      1 BH6         0.0604
     15 H          -2.8164   -2.8645   35.5413 H         1 BH6        -0.1290
     16 H          -0.3920   -1.6503   37.9008 H         1 BH6        -0.1290
     17 H          -0.1880   -2.9075   34.3458 H         1 BH6        -0.1856
     18 H           0.6484   -1.7788   35.4891 H         1 BH6        -0.1856
     19 H          -1.7113   -1.2788   33.8738 H         1 BH6         0.1452
     20 H          -1.8094    0.3048   32.6752 H         1 BH6         0.0669
     21 H          -3.1791    2.0617   31.5677 H         1 BH6         0.0630
     22 H          -4.1932    3.8830   32.9135 H         1 BH6         0.0652
     23 H          -3.8783    3.9509   35.3724 H         1 BH6         0.0635
@<TRIPOS>BOND
     1    1    3 1  
     2    1    4 1  
     3    5    1 1  
     4   14    2 1  
     5    6    5 1  
     6    7    6 am 
     7    7    8 2  
     8    9    7 1  
     9    9   10 ar 
    10    9   14 ar 
    11   10   11 ar 
    12   11   12 ar 
    13   12   13 ar 
    14   13   14 ar 
    15    3   15 1  
    16    4   16 1  
    17    5   17 1  
    18    5   18 1  
    19    6   19 1  
    20   10   20 1  
    21   11   21 1  
    22   12   22 1  
    23   13   23 1  
@<TRIPOS>SUBSTRUCTURE
     1 BH6         1

