4qp7_ligand
  -I-interpret- 

 19 21  0  0  0  0  0  0  0  0999 V2000
   12.4860   -8.7890    0.9000 N   0  0  0  0  0
   13.7010   -9.2550    0.4550 C   0  0  0  0  0
   14.2880   -9.9820    1.5130 C   0  0  0  0  0
   16.1170  -10.4340    0.1910 C   0  0  0  0  0
   13.3310   -9.9140    2.6190 C   0  0  0  0  0
   12.2800   -9.1910    2.1900 C   0  0  0  0  0
   15.4830  -10.5480    1.3550 N   0  0  0  0  0
   15.5310   -9.7060   -0.8480 C   0  0  0  0  0
   14.3490   -9.1420   -0.6970 N   0  0  0  0  0
   17.4580  -11.0410   -0.0120 C   0  0  0  0  0
   18.4080  -11.2180    0.9500 C   0  0  0  0  0
   19.4830  -11.7790    0.3650 N   0  0  0  0  0
   19.2050  -11.9520   -0.9980 N   0  0  0  0  0
   17.9980  -11.5040   -1.2300 C   0  0  0  0  0
   13.4478  -10.3644    3.6047 H   0  0  0  0  0
   11.3954   -8.9602    2.7835 H   0  0  0  0  0
   16.0585   -9.6031   -1.7963 H   0  0  0  0  0
   18.3140  -10.9530    2.0031 H   0  0  0  0  0
   17.4962  -11.4908   -2.1975 H   0  0  0  0  0
  1  2  4  0  0  0
  1  6  4  0  0  0
  2  3  4  0  0  0
  2  9  4  0  0  0
  3  5  4  0  0  0
  3  7  4  0  0  0
  7  4  4  0  0  0
  4  8  4  0  0  0
  4 10  1  0  0  0
  5  6  4  0  0  0
  8  9  4  0  0  0
 10 11  4  0  0  0
 10 14  4  0  0  0
 11 12  4  0  0  0
 12 13  4  0  0  0
 13 14  4  0  0  0
  5 15  1  0  0  0
  6 16  1  0  0  0
  8 17  1  0  0  0
 11 18  1  0  0  0
 14 19  1  0  0  0
M  END
$$$$
