5idp_ligand
  -I-interpret- 

 43 46  0  0  0  0  0  0  0  0999 V2000
   -3.1210  -12.8530    6.3030 C   0  0  0  0  0
   -4.1110  -13.5980    6.9360 C   0  0  0  0  0
   -4.2280  -13.5910    8.3230 C   0  0  0  0  0
   -3.3500  -12.8410    9.1030 C   0  0  0  0  0
   -2.3670  -12.0860    8.4440 C   0  0  0  0  0
   -2.2450  -12.0970    7.0640 C   0  0  0  0  0
   -3.4660  -12.8110   10.6300 C   0  0  0  0  0
   -1.9260  -13.6870   12.3960 C   0  0  0  0  0
   -2.0910  -15.1150   11.8780 C   0  0  0  0  0
   -5.4390  -13.9040   11.8540 C   0  0  0  0  0
   -6.2390  -12.6540   11.9390 C   0  0  0  0  0
   -6.4150  -11.9010   10.7810 C   0  0  0  0  0
   -7.1310  -10.7220   10.8030 C   0  0  0  0  0
   -7.5720  -11.0460   13.1660 C   0  0  0  0  0
   -3.0030  -12.8610    4.9590 F   0  0  0  0  0
   -2.0620  -12.7110   11.2580 C   0  0  0  0  0
   -3.4590  -15.2630   11.2010 C   0  0  0  0  0
   -4.1980  -13.9740   11.2450 N   0  0  0  0  0
   -5.9450  -14.8960   12.3530 O   0  0  0  0  0
   -7.7260  -10.2740   12.0000 C   0  0  0  0  0
   -6.8420  -12.2120   13.1390 C   0  0  0  0  0
   -8.3530   -9.0980   11.6830 N   0  0  0  0  0
   -8.1490   -8.8130   10.3230 N   0  0  0  0  0
   -7.4400   -9.7560    9.7640 C   0  0  0  0  0
   -7.0180   -9.8480    8.4370 N   0  0  0  0  0
   -4.8022  -14.1934    6.3395 H   0  0  0  0  0
   -5.0123  -14.1766    8.8026 H   0  0  0  0  0
   -1.6824  -11.4757    9.0329 H   0  0  0  0  0
   -1.4627  -11.5130    6.5792 H   0  0  0  0  0
   -4.0713  -11.9314   10.8489 H   0  0  0  0  0
   -0.9392  -13.5794   12.8462 H   0  0  0  0  0
   -2.6966  -13.4826   13.1393 H   0  0  0  0  0
   -2.0230  -15.8127   12.7127 H   0  0  0  0  0
   -1.3043  -15.3307   11.1550 H   0  0  0  0  0
   -5.9807  -12.2482    9.8435 H   0  0  0  0  0
   -8.0342  -10.7182   14.0972 H   0  0  0  0  0
   -1.9138  -11.7000   11.6375 H   0  0  0  0  0
   -1.3158  -12.9446   10.4986 H   0  0  0  0  0
   -4.0366  -16.0227   11.7277 H   0  0  0  0  0
   -3.3119  -15.5537   10.1608 H   0  0  0  0  0
   -6.7277  -12.7996   14.0499 H   0  0  0  0  0
   -6.4482  -10.6389    8.1367 H   0  0  0  0  0
   -7.2794   -9.1244    7.7674 H   0  0  0  0  0
  2  1  4  0  0  0
  6  1  4  0  0  0
  1 15  1  0  0  0
  3  2  4  0  0  0
  4  3  4  0  0  0
  4  5  4  0  0  0
  7  4  1  0  0  0
  5  6  4  0  0  0
  7 16  1  0  0  0
 18  7  1  0  0  0
  8  9  1  0  0  0
 16  8  1  0  0  0
  9 17  1  0  0  0
 10 11  1  0  0  0
 10 18  1  0  0  0
 10 19  2  0  0  0
 11 12  4  0  0  0
 11 21  4  0  0  0
 12 13  4  0  0  0
 13 20  4  0  0  0
 13 24  4  0  0  0
 20 14  4  0  0  0
 14 21  4  0  0  0
 17 18  1  0  0  0
 20 22  4  0  0  0
 22 23  4  0  0  0
 23 24  4  0  0  0
 24 25  1  0  0  0
  2 26  1  0  0  0
  3 27  1  0  0  0
  5 28  1  0  0  0
  6 29  1  0  0  0
  7 30  1  0  0  0
  8 31  1  0  0  0
  8 32  1  0  0  0
  9 33  1  0  0  0
  9 34  1  0  0  0
 12 35  1  0  0  0
 14 36  1  0  0  0
 16 37  1  0  0  0
 16 38  1  0  0  0
 17 39  1  0  0  0
 17 40  1  0  0  0
 21 41  1  0  0  0
 25 42  1  0  0  0
 25 43  1  0  0  0
M  END
$$$$
