### 
### Created by X-TOOL on Mon Sep 10 21:13:29 2018
### 

@<TRIPOS>MOLECULE
5fkj_ligand
  105   107     1     0     0
SMALL
GAST_HUCK


@<TRIPOS>ATOM
      1 C01        10.2920   29.7070   32.4690 C.3       1 G0W        -0.0244
      2 C02        11.2710   28.6590   33.0560 C.3       1 G0W        -0.0314
      3 N03        10.5670   27.5170   33.8900 N.4       1 G0W         0.2558
      4 C04         9.1940   27.2100   33.2350 C.3       1 G0W        -0.0314
      5 C05         9.2410   26.3260   31.9860 C.3       1 G0W        -0.0244
      6 C06        11.5160   26.2860   33.8560 C.3       1 G0W        -0.0285
      7 C07        12.9820   26.5300   34.2900 C.3       1 G0W        -0.0123
      8 C08        14.0710   25.7720   33.4920 C.3       1 G0W        -0.0458
      9 C09        14.6810   24.5410   34.2000 C.3       1 G0W        -0.0251
     10 C10        15.9020   24.8340   35.1140 C.3       1 G0W         0.0665
     11 N11        16.6830   23.6050   35.4450 N.am      1 G0W        -0.1835
     12 C12        16.5900   22.9410   36.6910 C.2       1 G0W         0.0693
     13 C13        15.6590   23.5220   37.7270 C.3       1 G0W         0.0050
     14 C14        17.3390   21.8220   36.8890 C.2       1 G0W        -0.0019
     15 C15        18.2480   21.2500   35.8790 C.2       1 G0W         0.1715
     16 O16        18.9270   20.2470   36.0420 O.2       1 G0W        -0.4212
     17 N17        18.3310   21.9370   34.6090 N.am      1 G0W        -0.1757
     18 C18        19.2400   21.4390   33.4960 C.3       1 G0W         0.0584
     19 C19        20.4000   22.4370   33.1510 C.3       1 G0W        -0.0280
     20 C20        21.7300   21.7770   32.6930 C.3       1 G0W        -0.0461
     21 C21        22.5860   22.5200   31.6010 C.3       1 G0W        -0.0123
     22 C22        21.8530   22.9300   30.2920 C.3       1 G0W        -0.0285
     23 N23        22.7080   22.8950   28.9250 N.4       1 G0W         0.2558
     24 C24        22.4580   24.2400   28.1950 C.3       1 G0W        -0.0314
     25 C25        21.0770   24.3220   27.5580 C.3       1 G0W        -0.0244
     26 C26        24.2280   22.7490   29.2430 C.3       1 G0W        -0.0314
     27 C27        25.0160   24.0600   29.2430 C.3       1 G0W        -0.0244
     28 C28        22.2640   21.7180   28.0090 C.3       1 G0W         0.0095
     29 C29        23.1280   20.4580   27.8590 C.ar      1 G0W         0.0453
     30 C30        24.0670   20.3590   26.8270 C.ar      1 G0W        -0.0466
     31 C31        24.8860   19.2390   26.6300 C.ar      1 G0W        -0.0630
     32 C32        24.7770   18.1560   27.4870 C.ar      1 G0W        -0.0605
     33 C33        23.8490   18.1950   28.5370 C.ar      1 G0W        -0.0250
     34 C34        23.0370   19.3230   28.7210 C.ar      1 G0W         0.2060
     35 N35        22.0940   19.2060   29.9020 N.2       1 G0W         0.3100
     36 O36        21.3080   20.0450   30.2190 O.2       1 G0W         0.1745
     37 O37        22.1940   18.1580   30.5480 O.2       1 G0W         0.1745
     38 C38        17.5490   23.0950   34.4110 C.2       1 G0W         0.3322
     39 O39        17.5890   23.7090   33.3400 O.2       1 G0W        -0.3818
     40 C40        10.2430   27.9850   35.3870 C.3       1 G0W         0.0095
     41 C41         9.8850   26.9040   36.4470 C.ar      1 G0W         0.0453
     42 C42         8.5560   26.4550   36.5120 C.ar      1 G0W        -0.0466
     43 C43         8.1050   25.4850   37.4220 C.ar      1 G0W        -0.0630
     44 C44         8.9860   24.9140   38.3250 C.ar      1 G0W        -0.0605
     45 C45        10.3240   25.3150   38.3180 C.ar      1 G0W        -0.0250
     46 C46        10.7710   26.2790   37.4080 C.ar      1 G0W         0.2060
     47 N47        12.2670   26.5550   37.5900 N.2       1 G0W         0.3100
     48 O48        12.8800   27.3920   36.9740 O.2       1 G0W         0.1745
     49 O49        12.8020   25.8500   38.4330 O.2       1 G0W         0.1745
     50 H1         10.8587   30.4631   31.9058 H         1 G0W         0.0281
     51 H2          9.7430   30.1950   33.2878 H         1 G0W         0.0281
     52 H3          9.5794   29.2069   31.7966 H         1 G0W         0.0281
     53 H4         11.9813   29.1802   33.7146 H         1 G0W         0.0812
     54 H5         11.8177   28.1921   32.2234 H         1 G0W         0.0812
     55 H6          8.7308   28.1676   32.9548 H         1 G0W         0.0812
     56 H7          8.5669   26.7045   33.9841 H         1 G0W         0.0812
     57 H8          8.2200   26.1733   31.6063 H         1 G0W         0.0281
     58 H9          9.6864   25.3533   32.2418 H         1 G0W         0.0281
     59 H10         9.8503   26.8163   31.2125 H         1 G0W         0.0281
     60 H11        11.5322   25.9052   32.8241 H         1 G0W         0.0815
     61 H12        11.0934   25.5201   34.5229 H         1 G0W         0.0815
     62 H13        13.0726   26.2329   35.3452 H         1 G0W         0.0317
     63 H14        13.1849   27.6068   34.1935 H         1 G0W         0.0317
     64 H15        14.8868   26.4780   33.2776 H         1 G0W         0.0268
     65 H16        13.6229   25.4315   32.5469 H         1 G0W         0.0268
     66 H17        15.0004   23.8281   33.4256 H         1 G0W         0.0291
     67 H18        13.8961   24.0824   34.8193 H         1 G0W         0.0291
     68 H19        15.5405   25.2839   36.0504 H         1 G0W         0.0612
     69 H20        16.5653   25.5439   34.5982 H         1 G0W         0.0612
     70 H21        15.6913   22.9043   38.6366 H         1 G0W         0.0484
     71 H22        14.6330   23.5374   37.3306 H         1 G0W         0.0484
     72 H23        15.9740   24.5477   37.9691 H         1 G0W         0.0484
     73 H24        17.2622   21.3187   37.8517 H         1 G0W         0.0111
     74 H25        18.6327   21.2833   32.5922 H         1 G0W         0.0575
     75 H26        19.6837   20.4823   33.8089 H         1 G0W         0.0575
     76 H27        20.6101   23.0372   34.0486 H         1 G0W         0.0288
     77 H28        20.0518   23.0963   32.3422 H         1 G0W         0.0288
     78 H29        21.4811   20.7830   32.2930 H         1 G0W         0.0268
     79 H30        22.3638   21.6651   33.5850 H         1 G0W         0.0268
     80 H31        23.4177   21.8563   31.3223 H         1 G0W         0.0317
     81 H32        22.9859   23.4366   32.0590 H         1 G0W         0.0317
     82 H33        21.4864   23.9584   30.4265 H         1 G0W         0.0815
     83 H34        20.9981   22.2497   30.1647 H         1 G0W         0.0815
     84 H35        23.2156   24.3571   27.4062 H         1 G0W         0.0812
     85 H36        22.5574   25.0583   28.9234 H         1 G0W         0.0812
     86 H37        20.9610   25.2949   27.0581 H         1 G0W         0.0281
     87 H38        20.3072   24.2158   28.3365 H         1 G0W         0.0281
     88 H39        20.9654   23.5146   26.8193 H         1 G0W         0.0281
     89 H40        24.6724   22.0835   28.4883 H         1 G0W         0.0812
     90 H41        24.3262   22.2916   30.2386 H         1 G0W         0.0812
     91 H42        26.0710   23.8536   29.4762 H         1 G0W         0.0281
     92 H43        24.5988   24.7386   30.0016 H         1 G0W         0.0281
     93 H44        24.9450   24.5305   28.2513 H         1 G0W         0.0281
     94 H45        22.1452   22.1367   26.9988 H         1 G0W         0.0999
     95 H46        21.2859   21.3825   28.3843 H         1 G0W         0.0999
     96 H47        24.1666   21.1937   26.1426 H         1 G0W         0.0574
     97 H48        25.5990   19.2202   25.8137 H         1 G0W         0.0643
     98 H49        25.4053   17.2839   27.3465 H         1 G0W         0.0575
     99 H50        23.7589   17.3495   29.2094 H         1 G0W         0.0674
    100 H51         9.3913   28.6790   35.3321 H         1 G0W         0.0999
    101 H52        11.1293   28.5208   35.7577 H         1 G0W         0.0999
    102 H53         7.8378   26.8811   35.8209 H         1 G0W         0.0574
    103 H54         7.0641   25.1824   37.4175 H         1 G0W         0.0643
    104 H55         8.6415   24.1649   39.0287 H         1 G0W         0.0575
    105 H56        11.0210   24.8761   39.0227 H         1 G0W         0.0674
@<TRIPOS>BOND
     1    1    2 1  
     2    2    3 1  
     3    3    4 1  
     4    3    6 1  
     5    3   40 1  
     6    4    5 1  
     7    6    7 1  
     8    7    8 1  
     9    8    9 1  
    10    9   10 1  
    11   10   11 1  
    12   11   12 1  
    13   11   38 am 
    14   12   13 1  
    15   12   14 2  
    16   14   15 1  
    17   15   16 2  
    18   15   17 am 
    19   17   18 1  
    20   17   38 am 
    21   18   19 1  
    22   19   20 1  
    23   20   21 1  
    24   21   22 1  
    25   22   23 1  
    26   23   24 1  
    27   23   26 1  
    28   23   28 1  
    29   24   25 1  
    30   26   27 1  
    31   28   29 1  
    32   29   30 ar 
    33   29   34 ar 
    34   30   31 ar 
    35   31   32 ar 
    36   32   33 ar 
    37   33   34 ar 
    38   34   35 1  
    39   35   36 2  
    40   35   37 2  
    41   38   39 2  
    42   40   41 1  
    43   41   42 ar 
    44   41   46 ar 
    45   42   43 ar 
    46   43   44 ar 
    47   44   45 ar 
    48   45   46 ar 
    49   46   47 1  
    50   47   48 2  
    51   47   49 2  
    52    1   50 1  
    53    1   51 1  
    54    1   52 1  
    55    2   53 1  
    56    2   54 1  
    57    4   55 1  
    58    4   56 1  
    59    5   57 1  
    60    5   58 1  
    61    5   59 1  
    62    6   60 1  
    63    6   61 1  
    64    7   62 1  
    65    7   63 1  
    66    8   64 1  
    67    8   65 1  
    68    9   66 1  
    69    9   67 1  
    70   10   68 1  
    71   10   69 1  
    72   13   70 1  
    73   13   71 1  
    74   13   72 1  
    75   14   73 1  
    76   18   74 1  
    77   18   75 1  
    78   19   76 1  
    79   19   77 1  
    80   20   78 1  
    81   20   79 1  
    82   21   80 1  
    83   21   81 1  
    84   22   82 1  
    85   22   83 1  
    86   24   84 1  
    87   24   85 1  
    88   25   86 1  
    89   25   87 1  
    90   25   88 1  
    91   26   89 1  
    92   26   90 1  
    93   27   91 1  
    94   27   92 1  
    95   27   93 1  
    96   28   94 1  
    97   28   95 1  
    98   30   96 1  
    99   31   97 1  
   100   32   98 1  
   101   33   99 1  
   102   40  100 1  
   103   40  101 1  
   104   42  102 1  
   105   43  103 1  
   106   44  104 1  
   107   45  105 1  
@<TRIPOS>SUBSTRUCTURE
     1 G0W         1

