5fkj_ligand
  -I-interpret- 

105107  0  0  0  0  0  0  0  0999 V2000
   10.2920   29.7070   32.4690 C   0  0  0  0  0
   11.2710   28.6590   33.0560 C   0  0  0  0  0
   10.5670   27.5170   33.8900 N   0  3  0  0  0
    9.1940   27.2100   33.2350 C   0  0  0  0  0
    9.2410   26.3260   31.9860 C   0  0  0  0  0
   11.5160   26.2860   33.8560 C   0  0  0  0  0
   12.9820   26.5300   34.2900 C   0  0  0  0  0
   14.0710   25.7720   33.4920 C   0  0  0  0  0
   14.6810   24.5410   34.2000 C   0  0  0  0  0
   15.9020   24.8340   35.1140 C   0  0  0  0  0
   16.6830   23.6050   35.4450 N   0  0  0  0  0
   16.5900   22.9410   36.6910 C   0  0  0  0  0
   15.6590   23.5220   37.7270 C   0  0  0  0  0
   17.3390   21.8220   36.8890 C   0  0  0  0  0
   18.2480   21.2500   35.8790 C   0  0  0  0  0
   18.9270   20.2470   36.0420 O   0  0  0  0  0
   18.3310   21.9370   34.6090 N   0  0  0  0  0
   19.2400   21.4390   33.4960 C   0  0  0  0  0
   20.4000   22.4370   33.1510 C   0  0  0  0  0
   21.7300   21.7770   32.6930 C   0  0  0  0  0
   22.5860   22.5200   31.6010 C   0  0  0  0  0
   21.8530   22.9300   30.2920 C   0  0  0  0  0
   22.7080   22.8950   28.9250 N   0  3  0  0  0
   22.4580   24.2400   28.1950 C   0  0  0  0  0
   21.0770   24.3220   27.5580 C   0  0  0  0  0
   24.2280   22.7490   29.2430 C   0  0  0  0  0
   25.0160   24.0600   29.2430 C   0  0  0  0  0
   22.2640   21.7180   28.0090 C   0  0  0  0  0
   23.1280   20.4580   27.8590 C   0  0  0  0  0
   24.0670   20.3590   26.8270 C   0  0  0  0  0
   24.8860   19.2390   26.6300 C   0  0  0  0  0
   24.7770   18.1560   27.4870 C   0  0  0  0  0
   23.8490   18.1950   28.5370 C   0  0  0  0  0
   23.0370   19.3230   28.7210 C   0  0  0  0  0
   22.0940   19.2060   29.9020 N   0  0  0  0  0
   21.3080   20.0450   30.2190 O   0  0  0  0  0
   22.1940   18.1580   30.5480 O   0  0  0  0  0
   17.5490   23.0950   34.4110 C   0  0  0  0  0
   17.5890   23.7090   33.3400 O   0  0  0  0  0
   10.2430   27.9850   35.3870 C   0  0  0  0  0
    9.8850   26.9040   36.4470 C   0  0  0  0  0
    8.5560   26.4550   36.5120 C   0  0  0  0  0
    8.1050   25.4850   37.4220 C   0  0  0  0  0
    8.9860   24.9140   38.3250 C   0  0  0  0  0
   10.3240   25.3150   38.3180 C   0  0  0  0  0
   10.7710   26.2790   37.4080 C   0  0  0  0  0
   12.2670   26.5550   37.5900 N   0  0  0  0  0
   12.8800   27.3920   36.9740 O   0  0  0  0  0
   12.8020   25.8500   38.4330 O   0  0  0  0  0
    9.5864   29.2102   31.8030 H   0  0  0  0  0
    9.7487   30.1898   33.2813 H   0  0  0  0  0
   10.8547   30.4556   31.9112 H   0  0  0  0  0
   11.9415   29.1874   33.7337 H   0  0  0  0  0
   11.7749   28.1815   32.2157 H   0  0  0  0  0
    8.7792   28.1679   32.9212 H   0  0  0  0  0
    8.6110   26.6659   33.9780 H   0  0  0  0  0
    9.8450   26.8129   31.2204 H   0  0  0  0  0
    9.6825   25.3625   32.2407 H   0  0  0  0  0
    8.2288   26.1754   31.6107 H   0  0  0  0  0
   11.5591   25.9674   32.8145 H   0  0  0  0  0
   11.1061   25.5698   34.5681 H   0  0  0  0  0
   13.0568   26.1742   35.3176 H   0  0  0  0  0
   13.1726   27.5912   34.1297 H   0  0  0  0  0
   14.8881   26.4765   33.3366 H   0  0  0  0  0
   13.5904   25.4020   32.5863 H   0  0  0  0  0
   15.0342   23.8736   33.4139 H   0  0  0  0  0
   13.9011   24.1346   34.8439 H   0  0  0  0  0
   15.5277   25.2540   36.0476 H   0  0  0  0  0
   16.5631   25.5167   34.5802 H   0  0  0  0  0
   14.8992   22.7844   37.9853 H   0  0  0  0  0
   16.2285   23.7861   38.6181 H   0  0  0  0  0
   15.1793   24.4136   37.3233 H   0  0  0  0  0
   17.2622   21.3183   37.8526 H   0  0  0  0  0
   18.6302   21.3197   32.6005 H   0  0  0  0  0
   19.6953   20.5079   33.8336 H   0  0  0  0  0
   20.6227   22.9850   34.0665 H   0  0  0  0  0
   20.0503   23.0455   32.3170 H   0  0  0  0  0
   21.4410   20.8294   32.2384 H   0  0  0  0  0
   22.3592   21.7470   33.5825 H   0  0  0  0  0
   23.3625   21.8165   31.3006 H   0  0  0  0  0
   22.9160   23.4507   32.0625 H   0  0  0  0  0
   21.5602   23.9707   30.4308 H   0  0  0  0  0
   21.0542   22.2003   30.1597 H   0  0  0  0  0
   23.1972   24.3287   27.3989 H   0  0  0  0  0
   22.5314   25.0380   28.9338 H   0  0  0  0  0
   20.9677   23.5215   26.8263 H   0  0  0  0  0
   20.3152   24.2165   28.3304 H   0  0  0  0  0
   20.9633   25.2864   27.0630 H   0  0  0  0  0
   24.6555   22.1244   28.4586 H   0  0  0  0  0
   24.3012   22.3373   30.2496 H   0  0  0  0  0
   24.9448   24.5252   28.2598 H   0  0  0  0  0
   24.6016   24.7315   29.9950 H   0  0  0  0  0
   26.0611   23.8542   29.4742 H   0  0  0  0  0
   22.2560   22.1518   27.0091 H   0  0  0  0  0
   21.3476   21.3545   28.4738 H   0  0  0  0  0
   24.1671   21.1983   26.1388 H   0  0  0  0  0
   25.6029   19.2201   25.8092 H   0  0  0  0  0
   25.4088   17.2791   27.3458 H   0  0  0  0  0
   23.7584   17.3449   29.2131 H   0  0  0  0  0
    9.3508   28.6055   35.3029 H   0  0  0  0  0
   11.1655   28.4403   35.7473 H   0  0  0  0  0
    7.8338   26.8835   35.8170 H   0  0  0  0  0
    7.0583   25.1807   37.4175 H   0  0  0  0  0
    8.6396   24.1608   39.0326 H   0  0  0  0  0
   11.0249   24.8737   39.0266 H   0  0  0  0  0
  1  2  1  0  0  0
  2  3  1  0  0  0
  3  4  1  0  0  0
  3  6  1  0  0  0
  3 40  1  0  0  0
  4  5  1  0  0  0
  6  7  1  0  0  0
  7  8  1  0  0  0
  8  9  1  0  0  0
  9 10  1  0  0  0
 10 11  1  0  0  0
 11 12  1  0  0  0
 11 38  1  0  0  0
 12 13  1  0  0  0
 12 14  2  0  0  0
 14 15  1  0  0  0
 15 16  2  0  0  0
 15 17  1  0  0  0
 17 18  1  0  0  0
 17 38  1  0  0  0
 18 19  1  0  0  0
 19 20  1  0  0  0
 20 21  1  0  0  0
 21 22  1  0  0  0
 22 23  1  0  0  0
 23 24  1  0  0  0
 23 26  1  0  0  0
 23 28  1  0  0  0
 24 25  1  0  0  0
 26 27  1  0  0  0
 28 29  1  0  0  0
 29 30  4  0  0  0
 29 34  4  0  0  0
 30 31  4  0  0  0
 31 32  4  0  0  0
 32 33  4  0  0  0
 33 34  4  0  0  0
 34 35  1  0  0  0
 35 36  2  0  0  0
 35 37  2  0  0  0
 38 39  2  0  0  0
 40 41  1  0  0  0
 41 42  4  0  0  0
 41 46  4  0  0  0
 42 43  4  0  0  0
 43 44  4  0  0  0
 44 45  4  0  0  0
 45 46  4  0  0  0
 46 47  1  0  0  0
 47 48  2  0  0  0
 47 49  2  0  0  0
  1 50  1  0  0  0
  1 51  1  0  0  0
  1 52  1  0  0  0
  2 53  1  0  0  0
  2 54  1  0  0  0
  4 55  1  0  0  0
  4 56  1  0  0  0
  5 57  1  0  0  0
  5 58  1  0  0  0
  5 59  1  0  0  0
  6 60  1  0  0  0
  6 61  1  0  0  0
  7 62  1  0  0  0
  7 63  1  0  0  0
  8 64  1  0  0  0
  8 65  1  0  0  0
  9 66  1  0  0  0
  9 67  1  0  0  0
 10 68  1  0  0  0
 10 69  1  0  0  0
 13 70  1  0  0  0
 13 71  1  0  0  0
 13 72  1  0  0  0
 14 73  1  0  0  0
 18 74  1  0  0  0
 18 75  1  0  0  0
 19 76  1  0  0  0
 19 77  1  0  0  0
 20 78  1  0  0  0
 20 79  1  0  0  0
 21 80  1  0  0  0
 21 81  1  0  0  0
 22 82  1  0  0  0
 22 83  1  0  0  0
 24 84  1  0  0  0
 24 85  1  0  0  0
 25 86  1  0  0  0
 25 87  1  0  0  0
 25 88  1  0  0  0
 26 89  1  0  0  0
 26 90  1  0  0  0
 27 91  1  0  0  0
 27 92  1  0  0  0
 27 93  1  0  0  0
 28 94  1  0  0  0
 28 95  1  0  0  0
 30 96  1  0  0  0
 31 97  1  0  0  0
 32 98  1  0  0  0
 33 99  1  0  0  0
 40100  1  0  0  0
 40101  1  0  0  0
 42102  1  0  0  0
 43103  1  0  0  0
 44104  1  0  0  0
 45105  1  0  0  0
M  END
$$$$
