6kdi_ligand
  -I-interpret- 

 64 68  0  0  0  0  0  0  0  0999 V2000
  -38.0580  -27.2730    5.3650 O   0  0  0  0  0
  -38.7160  -26.0530    5.0490 C   0  0  0  0  0
  -37.7090  -24.9560    4.7820 C   0  0  0  0  0
  -37.0270  -24.7090    6.0430 O   0  0  0  0  0
  -36.6170  -25.3150    3.7700 C   0  0  0  0  0
  -36.7000  -24.6840    2.5010 O   0  0  0  0  0
  -35.3210  -24.8650    4.4130 C   0  0  0  0  0
  -35.6350  -24.5090    5.8580 C   0  0  0  0  0
  -34.8150  -25.3940    6.8260 N   0  0  0  0  0
  -33.9720  -24.8390    7.6680 C   0  0  0  0  0
  -33.7770  -23.6070    7.7460 O   0  0  0  0  0
  -33.2330  -25.6840    8.5260 N   0  0  0  0  0
  -33.3150  -27.0950    8.5410 C   0  0  0  0  0
  -32.4580  -27.7270    9.1110 O   0  0  0  0  0
  -34.4940  -27.7390    7.8320 C   0  0  0  0  0
  -35.6630  -27.8610    8.8130 C   0  0  0  0  0
  -34.1200  -29.0400    7.3770 O   0  0  0  0  0
  -34.9420  -26.8830    6.5720 C   0  0  0  0  0
  -36.4590  -25.5820    1.1800 P   0  0  0  0  0
  -37.2880  -26.8050    1.3570 O   0  0  0  0  0
  -36.6750  -24.7210   -0.0080 O   0  0  0  0  0
  -34.9110  -26.0100    1.2230 O   0  0  0  0  0
  -33.9280  -25.3130    0.4350 C   0  0  0  0  0
  -32.7480  -26.2050    0.0930 C   0  0  0  0  0
  -31.8760  -26.4060    1.2270 O   0  0  0  0  0
  -31.9940  -27.7350    1.7280 C   0  0  0  0  0
  -32.7570  -27.5660    3.0190 N   0  0  0  0  0
  -32.3300  -26.6440    3.9380 C   0  0  0  0  0
  -31.3020  -25.9490    3.7380 O   0  0  0  0  0
  -33.0750  -26.4790    5.0880 N   0  0  0  0  0
  -34.1830  -27.2310    5.2690 C   0  0  0  0  0
  -34.6470  -28.2050    4.3530 C   0  0  0  0  0
  -35.8870  -29.0670    4.5030 C   0  0  0  0  0
  -33.8860  -28.3360    3.2240 C   0  0  0  0  0
  -32.8110  -28.5330    0.7080 C   0  0  0  0  0
  -33.0560  -27.5960   -0.4640 C   0  0  0  0  0
  -32.1930  -27.9320   -1.5560 O   0  0  0  0  0
  -38.7130  -27.9550    5.5307 H   0  0  0  0  0
  -39.3403  -25.7604    5.8932 H   0  0  0  0  0
  -39.3217  -26.2006    4.1549 H   0  0  0  0  0
  -38.2617  -24.1105    4.3725 H   0  0  0  0  0
  -36.7086  -26.3809    3.5611 H   0  0  0  0  0
  -34.9103  -24.0036    3.8863 H   0  0  0  0  0
  -34.5743  -25.6577    4.3668 H   0  0  0  0  0
  -35.3674  -23.4738    6.0698 H   0  0  0  0  0
  -32.5916  -25.2422    9.1846 H   0  0  0  0  0
  -35.3622  -28.4779    9.6598 H   0  0  0  0  0
  -35.9442  -26.8689    9.1663 H   0  0  0  0  0
  -36.5120  -28.3228    8.3089 H   0  0  0  0  0
  -34.8648  -29.4474    6.9288 H   0  0  0  0  0
  -35.9887  -27.1498    6.4263 H   0  0  0  0  0
  -37.0297  -27.2509    2.1670 H   0  0  0  0  0
  -33.5615  -24.4654    1.0141 H   0  0  0  0  0
  -34.3975  -24.9926   -0.4951 H   0  0  0  0  0
  -32.2825  -25.6326   -0.7093 H   0  0  0  0  0
  -31.0482  -28.2526    1.8884 H   0  0  0  0  0
  -36.5733  -28.8600    3.6819 H   0  0  0  0  0
  -35.6014  -30.1187    4.4831 H   0  0  0  0  0
  -36.3737  -28.8392    5.4513 H   0  0  0  0  0
  -34.1771  -29.0652    2.4679 H   0  0  0  0  0
  -33.7509  -28.8771    1.1396 H   0  0  0  0  0
  -32.2770  -29.4287    0.3906 H   0  0  0  0  0
  -34.0714  -27.6574   -0.8557 H   0  0  0  0  0
  -32.4142  -28.8085   -1.8792 H   0  0  0  0  0
  1  2  1  0  0  0
  2  3  1  0  0  0
  3  4  1  0  0  0
  3  5  1  0  0  0
  4  8  1  0  0  0
  5  6  1  0  0  0
  5  7  1  0  0  0
  6 19  1  0  0  0
  7  8  1  0  0  0
  8  9  1  0  0  0
  9 10  1  0  0  0
  9 18  1  0  0  0
 10 11  2  0  0  0
 10 12  1  0  0  0
 12 13  1  0  0  0
 13 14  2  0  0  0
 13 15  1  0  0  0
 15 16  1  0  0  0
 15 17  1  0  0  0
 15 18  1  0  0  0
 18 31  1  0  0  0
 19 20  1  0  0  0
 19 21  2  0  0  0
 19 22  1  0  0  0
 22 23  1  0  0  0
 23 24  1  0  0  0
 24 25  1  0  0  0
 24 36  1  0  0  0
 25 26  1  0  0  0
 26 27  1  0  0  0
 26 35  1  0  0  0
 27 28  1  0  0  0
 27 34  1  0  0  0
 28 29  2  0  0  0
 28 30  1  0  0  0
 30 31  2  0  0  0
 31 32  1  0  0  0
 32 33  1  0  0  0
 32 34  2  0  0  0
 35 36  1  0  0  0
 36 37  1  0  0  0
  1 38  1  0  0  0
  2 39  1  0  0  0
  2 40  1  0  0  0
  3 41  1  0  0  0
  5 42  1  0  0  0
  7 43  1  0  0  0
  7 44  1  0  0  0
  8 45  1  0  0  0
 12 46  1  0  0  0
 16 47  1  0  0  0
 16 48  1  0  0  0
 16 49  1  0  0  0
 17 50  1  0  0  0
 18 51  1  0  0  0
 20 52  1  0  0  0
 23 53  1  0  0  0
 23 54  1  0  0  0
 24 55  1  0  0  0
 26 56  1  0  0  0
 33 57  1  0  0  0
 33 58  1  0  0  0
 33 59  1  0  0  0
 34 60  1  0  0  0
 35 61  1  0  0  0
 35 62  1  0  0  0
 36 63  1  0  0  0
 37 64  1  0  0  0
M  END
$$$$
