### 
### Created by X-TOOL on Mon Aug  2 16:14:39 2021
### 

@<TRIPOS>MOLECULE
6kdi_ligand
   63    67     1     0     0
SMALL
GAST_HUCK


@<TRIPOS>ATOM
      1 O5'       -38.0580  -27.2730    5.3650 O.3       1 MOL        -0.3924
      2 C5'       -38.7160  -26.0530    5.0490 C.3       1 MOL         0.0733
      3 C4'       -37.7090  -24.9560    4.7820 C.3       1 MOL         0.1156
      4 O4'       -37.0270  -24.7090    6.0430 O.3       1 MOL        -0.3457
      5 C3'       -36.6170  -25.3150    3.7700 C.3       1 MOL         0.1270
      6 O3'       -36.7000  -24.6840    2.5010 O.3       1 MOL        -0.2479
      7 C2'       -35.3210  -24.8650    4.4130 C.3       1 MOL         0.0292
      8 C1'       -35.6350  -24.5090    5.8580 C.3       1 MOL         0.1526
      9 N1        -34.8150  -25.3940    6.8260 N.am      1 MOL        -0.2058
     10 C2        -33.9720  -24.8390    7.6680 C.2       1 MOL         0.2955
     11 O2        -33.7770  -23.6070    7.7460 O.2       1 MOL        -0.3907
     12 N3        -33.2330  -25.6840    8.5260 N.am      1 MOL        -0.1817
     13 C4        -33.3150  -27.0950    8.5410 C.2       1 MOL         0.2609
     14 O4        -32.4580  -27.7270    9.1110 O.2       1 MOL        -0.3307
     15 C5        -34.4940  -27.7390    7.8320 C.3       1 MOL         0.1853
     16 C5M       -35.6630  -27.8610    8.8130 C.3       1 MOL        -0.0237
     17 O5        -34.1200  -29.0400    7.3770 O.3       1 MOL        -0.3796
     18 C6        -34.9420  -26.8830    6.5720 C.3       1 MOL         0.1365
     19 P         -36.4590  -25.5820    1.1800 P.3       1 MOL         0.2556
     20 OP2       -37.2880  -26.8050    1.3570 O.co2     1 MOL        -0.6177
     21 OP1       -36.6750  -24.7210   -0.0080 O.co2     1 MOL        -0.6177
     22 O5'       -34.9110  -26.0100    1.2230 O.3       1 MOL        -0.2514
     23 C5'       -33.9280  -25.3130    0.4350 C.3       1 MOL         0.1123
     24 C4'       -32.7480  -26.2050    0.0930 C.3       1 MOL         0.1165
     25 O4'       -31.8760  -26.4060    1.2270 O.3       1 MOL        -0.3369
     26 C1'       -31.9940  -27.7350    1.7280 C.3       1 MOL         0.1842
     27 N1        -32.7570  -27.5660    3.0190 N.am      1 MOL        -0.1721
     28 C2        -32.3300  -26.6440    3.9380 C.2       1 MOL         0.2558
     29 O2        -31.3020  -25.9490    3.7380 O.2       1 MOL        -0.4063
     30 N3        -33.0750  -26.4790    5.0880 N.2       1 MOL        -0.2783
     31 C4        -34.1830  -27.2310    5.2690 C.2       1 MOL         0.0410
     32 C5        -34.6470  -28.2050    4.3530 C.2       1 MOL         0.0081
     33 C5M       -35.8870  -29.0670    4.5030 C.3       1 MOL        -0.0390
     34 C6        -33.8860  -28.3360    3.2240 C.2       1 MOL         0.0785
     35 C2'       -32.8110  -28.5330    0.7080 C.3       1 MOL         0.0336
     36 C3'       -33.0560  -27.5960   -0.4640 C.3       1 MOL         0.0892
     37 O3'       -32.1930  -27.9320   -1.5560 O.3       1 MOL        -0.3889
     38 H1        -37.5229  -27.1513    6.1405 H         1 MOL         0.2095
     39 H2        -39.3555  -25.7582    5.8940 H         1 MOL         0.0584
     40 H3        -39.3368  -26.1991    4.1528 H         1 MOL         0.0584
     41 H4        -38.2388  -24.0554    4.4383 H         1 MOL         0.0650
     42 H5        -36.6182  -26.4043    3.6173 H         1 MOL         0.0685
     43 H6        -34.9246  -23.9847    3.8858 H         1 MOL         0.0341
     44 H7        -34.5807  -25.6778    4.3776 H         1 MOL         0.0341
     45 H8        -35.3860  -23.4535    6.0422 H         1 MOL         0.0871
     46 H9        -32.6042  -25.2509    9.1717 H         1 MOL         0.2260
     47 H10       -36.5205  -28.3269    8.3054 H         1 MOL         0.0247
     48 H11       -35.9478  -26.8604    9.1703 H         1 MOL         0.0247
     49 H12       -35.3607  -28.4834    9.6681 H         1 MOL         0.0247
     50 H13       -33.8577  -29.5708    8.1199 H         1 MOL         0.2083
     51 H14       -36.0057  -27.1049    6.4008 H         1 MOL         0.0811
     52 H15       -33.5652  -24.4445    1.0042 H         1 MOL         0.0647
     53 H16       -34.3976  -24.9695   -0.4985 H         1 MOL         0.0647
     54 H17       -32.1805  -25.6685   -0.6817 H         1 MOL         0.0650
     55 H18       -31.0142  -28.2053    1.8976 H         1 MOL         0.0996
     56 H19       -35.9825  -29.7273    3.6284 H         1 MOL         0.0311
     57 H20       -36.7754  -28.4223    4.5744 H         1 MOL         0.0311
     58 H21       -35.8019  -29.6764    5.4148 H         1 MOL         0.0311
     59 H22       -34.1768  -29.0645    2.4686 H         1 MOL         0.1229
     60 H23       -33.7674  -28.8500    1.1493 H         1 MOL         0.0347
     61 H24       -32.2483  -29.4185    0.3773 H         1 MOL         0.0347
     62 H25       -34.1028  -27.6537   -0.7971 H         1 MOL         0.0622
     63 H26       -32.3560  -27.3398   -2.2808 H         1 MOL         0.2099
@<TRIPOS>BOND
     1    1    2 1  
     2    2    3 1  
     3    3    4 1  
     4    3    5 1  
     5    4    8 1  
     6    5    6 1  
     7    5    7 1  
     8    6   19 1  
     9    7    8 1  
    10    8    9 1  
    11    9   10 am 
    12    9   18 1  
    13   10   11 2  
    14   10   12 am 
    15   12   13 am 
    16   13   14 2  
    17   13   15 1  
    18   15   16 1  
    19   15   17 1  
    20   15   18 1  
    21   18   31 1  
    22   19   20 ar 
    23   19   21 ar 
    24   19   22 1  
    25   22   23 1  
    26   23   24 1  
    27   24   25 1  
    28   24   36 1  
    29   25   26 1  
    30   26   27 1  
    31   26   35 1  
    32   27   28 am 
    33   27   34 1  
    34   28   29 2  
    35   28   30 1  
    36   30   31 2  
    37   31   32 1  
    38   32   33 1  
    39   32   34 2  
    40   35   36 1  
    41   36   37 1  
    42    1   38 1  
    43    2   39 1  
    44    2   40 1  
    45    3   41 1  
    46    5   42 1  
    47    7   43 1  
    48    7   44 1  
    49    8   45 1  
    50   12   46 1  
    51   16   47 1  
    52   16   48 1  
    53   16   49 1  
    54   17   50 1  
    55   18   51 1  
    56   23   52 1  
    57   23   53 1  
    58   24   54 1  
    59   26   55 1  
    60   33   56 1  
    61   33   57 1  
    62   33   58 1  
    63   34   59 1  
    64   35   60 1  
    65   35   61 1  
    66   36   62 1  
    67   37   63 1  
@<TRIPOS>SUBSTRUCTURE
     1 MOL         1

