1fax_ligand
  -I-interpret- 

 61 64  0  0  0  0  0  0  0  0999 V2000
    7.3860    8.0220   24.6130 C   0  0  0  0  0
    6.8510    8.5690   23.4630 C   0  0  0  0  0
    7.6620    9.4000   22.6650 C   0  0  0  0  0
    8.9470    9.7530   23.0930 C   0  0  0  0  0
    9.4380    9.2310   24.2950 C   0  0  0  0  0
   10.7200    9.5510   24.7430 C   0  0  0  0  0
   11.1950    8.9950   25.9340 C   0  0  0  0  0
   10.4250    8.0720   26.6620 C   0  0  0  0  0
    9.1340    7.8410   26.2190 C   0  0  0  0  0
    8.6490    8.3480   25.0430 C   0  0  0  0  0
   10.9090    7.3820   27.7650 C   0  0  0  0  0
   10.1050    6.5260   28.4000 N   0  0  0  0  0
   12.1710    7.5740   28.1700 N   0  0  0  0  0
    5.4000    8.2470   23.1480 C   0  0  0  0  0
    3.5350    7.7930   21.6200 C   0  0  0  0  0
    2.9820    6.7090   21.8260 O   0  0  0  0  0
    2.9120    8.8320   21.3890 O   0  0  0  0  0
    5.0580    7.9040   21.7030 C   0  0  0  0  0
    7.7040    1.8270   17.2590 N   0  0  0  0  0
    7.4520    2.9440   18.1600 C   0  0  0  0  0
    8.7690    3.1530   18.8680 C   0  0  0  0  0
    9.3440    1.7900   18.7950 C   0  0  0  0  0
    8.9230    1.0600   17.5440 C   0  0  0  0  0
    6.8740    1.5560   16.2570 C   0  0  0  0  0
    7.0060    0.4220   15.5920 N   0  0  0  0  0
    5.7010    2.4500   15.8530 C   0  0  0  0  0
    5.9360    5.5240   21.9400 C   0  0  0  0  0
    6.8210    4.5210   21.5670 C   0  0  0  0  0
    6.7960    6.9530   20.1780 C   0  0  0  0  0
    7.6780    5.9480   19.8020 C   0  0  0  0  0
    7.6880    4.7380   20.5010 C   0  0  0  0  0
    8.6120    3.6880   20.1390 O   0  0  0  0  0
    5.9370    6.7410   21.2500 C   0  0  0  0  0
    6.7921    7.3153   25.1926 H   0  0  0  0  0
    7.2872    9.7695   21.7105 H   0  0  0  0  0
    9.5596   10.4282   22.4956 H   0  0  0  0  0
   11.3478   10.2310   24.1672 H   0  0  0  0  0
   12.1791    9.2821   26.3044 H   0  0  0  0  0
    8.4743    7.2284   26.8335 H   0  0  0  0  0
    9.1490    6.3861   28.0732 H   0  0  0  0  0
   12.5316    7.0623   28.9753 H   0  0  0  0  0
   12.7716    8.2319   27.6731 H   0  0  0  0  0
    4.8402    9.1539   23.3764 H   0  0  0  0  0
    5.1634    7.3544   23.7271 H   0  0  0  0  0
    3.6482    6.0359   21.9833 H   0  0  0  0  0
    5.3017    8.6628   20.9594 H   0  0  0  0  0
    6.6393    2.7359   18.8560 H   0  0  0  0  0
    7.1253    3.8369   17.6269 H   0  0  0  0  0
    9.4307    3.8989   18.4276 H   0  0  0  0  0
    8.9852    1.2241   19.6547 H   0  0  0  0  0
   10.4302    1.8803   18.7856 H   0  0  0  0  0
    9.6616    1.0388   16.7426 H   0  0  0  0  0
    8.7852   -0.0158   17.6529 H   0  0  0  0  0
    7.7405   -0.2374   15.8490 H   0  0  0  0  0
    5.8026    2.7286   14.8041 H   0  0  0  0  0
    4.7663    1.9082   15.9975 H   0  0  0  0  0
    5.7009    3.3482   16.4705 H   0  0  0  0  0
    5.2437    5.3638   22.7666 H   0  0  0  0  0
    6.8362    3.5728   22.1043 H   0  0  0  0  0
    6.7776    7.8993   19.6373 H   0  0  0  0  0
    8.3594    6.1025   18.9654 H   0  0  0  0  0
  2  1  4  0  0  0
  1 10  4  0  0  0
  2  3  4  0  0  0
 14  2  1  0  0  0
  3  4  4  0  0  0
  4  5  4  0  0  0
  5  6  4  0  0  0
 10  5  4  0  0  0
  6  7  4  0  0  0
  8  7  4  0  0  0
  9  8  4  0  0  0
  8 11  1  0  0  0
 10  9  4  0  0  0
 11 12  2  0  0  0
 11 13  1  0  0  0
 18 14  1  0  0  0
 15 16  1  0  0  0
 15 17  2  0  0  0
 18 15  1  0  0  0
 33 18  1  0  0  0
 20 19  1  0  0  0
 23 19  1  0  0  0
 19 24  1  0  0  0
 21 20  1  0  0  0
 21 22  1  0  0  0
 32 21  1  0  0  0
 22 23  1  0  0  0
 24 25  2  0  0  0
 24 26  1  0  0  0
 28 27  4  0  0  0
 27 33  4  0  0  0
 31 28  4  0  0  0
 30 29  4  0  0  0
 29 33  4  0  0  0
 31 30  4  0  0  0
 31 32  1  0  0  0
  1 34  1  0  0  0
  3 35  1  0  0  0
  4 36  1  0  0  0
  6 37  1  0  0  0
  7 38  1  0  0  0
  9 39  1  0  0  0
 12 40  1  0  0  0
 13 41  1  0  0  0
 13 42  1  0  0  0
 14 43  1  0  0  0
 14 44  1  0  0  0
 16 45  1  0  0  0
 18 46  1  0  0  0
 20 47  1  0  0  0
 20 48  1  0  0  0
 21 49  1  0  0  0
 22 50  1  0  0  0
 22 51  1  0  0  0
 23 52  1  0  0  0
 23 53  1  0  0  0
 25 54  1  0  0  0
 26 55  1  0  0  0
 26 56  1  0  0  0
 26 57  1  0  0  0
 27 58  1  0  0  0
 28 59  1  0  0  0
 29 60  1  0  0  0
 30 61  1  0  0  0
M  END
$$$$
