1usk_ligand
  -I-interpret- 

 23 22  0  0  0  0  0  0  0  0999 V2000
   32.7000   -1.4910   39.7910 N   0  3  0  0  0
   33.5930   -1.5670   38.6390 C   0  0  0  0  0
   33.0740   -2.5760   37.6260 C   0  0  0  0  0
   32.0400   -3.2200   37.8510 O   0  0  0  0  0
   35.0040   -1.9670   39.0680 C   0  0  0  0  0
   35.6950   -1.0680   40.0870 C   0  0  0  0  0
   37.0080   -1.7090   40.5270 C   0  0  0  0  0
   35.9190    0.3250   39.5230 C   0  0  0  0  0
   33.6950   -2.7370   36.5760 O   0  0  0  0  0
   31.7666   -1.2229   39.4790 H   0  0  0  0  0
   32.6584   -2.4019   40.2481 H   0  0  0  0  0
   33.0531   -0.7953   40.4481 H   0  0  0  0  0
   33.6266   -0.5783   38.1814 H   0  0  0  0  0
   31.6892   -2.9704   38.7091 H   0  0  0  0  0
   35.6147   -1.9210   38.1663 H   0  0  0  0  0
   34.9057   -2.9411   39.5471 H   0  0  0  0  0
   35.0508   -0.9600   40.9596 H   0  0  0  0  0
   37.6782   -1.7857   39.6708 H   0  0  0  0  0
   37.4708   -1.0934   41.2983 H   0  0  0  0  0
   36.8096   -2.7041   40.9250 H   0  0  0  0  0
   36.3736    0.9560   40.2867 H   0  0  0  0  0
   36.5810    0.2637   38.6592 H   0  0  0  0  0
   34.9626    0.7510   39.2199 H   0  0  0  0  0
  1  2  1  0  0  0
  2  3  1  0  0  0
  2  5  1  0  0  0
  3  4  1  0  0  0
  3  9  2  0  0  0
  5  6  1  0  0  0
  6  7  1  0  0  0
  6  8  1  0  0  0
  1 10  1  0  0  0
  1 11  1  0  0  0
  1 12  1  0  0  0
  2 13  1  0  0  0
  4 14  1  0  0  0
  5 15  1  0  0  0
  5 16  1  0  0  0
  6 17  1  0  0  0
  7 18  1  0  0  0
  7 19  1  0  0  0
  7 20  1  0  0  0
  8 21  1  0  0  0
  8 22  1  0  0  0
  8 23  1  0  0  0
M  END
$$$$
