2wgs_ligand
  -I-interpret- 

 47 50  0  0  0  0  0  0  0  0999 V2000
  -35.0140  -39.2490  -25.3770 O   0  0  0  0  0
  -35.5790  -38.5740  -24.4770 C   0  0  0  0  0
  -36.8990  -38.7310  -24.2350 N   0  0  0  0  0
  -37.6990  -39.6800  -25.0310 C   0  0  0  0  0
  -37.7850  -41.0490  -24.4040 C   0  0  0  0  0
  -36.9830  -42.0680  -24.9020 C   0  0  0  0  0
  -37.0760  -43.3320  -24.3240 C   0  0  0  0  0
  -36.0650  -44.7010  -24.9190 Cl  0  0  0  0  0
  -38.6780  -41.2880  -23.3570 C   0  0  0  0  0
  -38.7720  -42.5540  -22.7770 C   0  0  0  0  0
  -37.9570  -43.5620  -23.2790 C   0  0  0  0  0
  -38.0120  -45.2100  -22.6010 Cl  0  0  0  0  0
  -34.8500  -37.6450  -23.7120 C   0  0  0  0  0
  -33.5480  -37.2640  -23.6970 N   0  0  0  0  0
  -32.4570  -37.7870  -24.5730 C   0  0  0  0  0
  -33.3990  -36.3240  -22.7510 C   0  0  0  0  0
  -34.5940  -36.1100  -22.1610 N   0  0  0  0  0
  -35.5180  -36.9090  -22.7260 C   0  0  0  0  0
  -36.8370  -37.0760  -22.4950 N   0  0  0  0  0
  -37.5390  -36.3140  -21.4590 C   0  0  0  0  0
  -37.5350  -37.9560  -23.2250 C   0  0  0  0  0
  -38.7560  -38.0950  -22.9990 O   0  0  0  0  0
  -32.1400  -35.6370  -22.3770 N   0  0  0  0  0
  -31.7050  -34.6850  -23.3950 C   0  0  0  0  0
  -30.2640  -34.3800  -22.9790 C   0  0  0  0  0
  -30.2340  -33.8070  -21.6540 O   0  0  0  0  0
  -30.8260  -34.6260  -20.6420 C   0  0  0  0  0
  -32.2480  -35.0000  -21.0630 C   0  0  0  0  0
  -37.2156  -39.7892  -26.0018 H   0  0  0  0  0
  -38.7116  -39.2830  -25.1017 H   0  0  0  0  0
  -36.2956  -41.8825  -25.7274 H   0  0  0  0  0
  -39.3077  -40.4778  -22.9893 H   0  0  0  0  0
  -39.4628  -42.7463  -21.9561 H   0  0  0  0  0
  -32.3499  -38.8603  -24.4161 H   0  0  0  0  0
  -32.7066  -37.5941  -25.6164 H   0  0  0  0  0
  -31.5212  -37.2869  -24.3235 H   0  0  0  0  0
  -37.0894  -36.5233  -20.4884 H   0  0  0  0  0
  -37.4587  -35.2488  -21.6760 H   0  0  0  0  0
  -38.5893  -36.6050  -21.4446 H   0  0  0  0  0
  -32.3318  -33.7943  -23.4389 H   0  0  0  0  0
  -31.7797  -35.0822  -24.4073 H   0  0  0  0  0
  -29.8338  -33.6683  -23.6837 H   0  0  0  0  0
  -29.6906  -35.3070  -22.9783 H   0  0  0  0  0
  -30.8563  -34.0780  -19.7003 H   0  0  0  0  0
  -30.2335  -35.5317  -20.5124 H   0  0  0  0  0
  -32.7041  -35.6751  -20.3389 H   0  0  0  0  0
  -32.8858  -34.1173  -21.1090 H   0  0  0  0  0
  1  2  2  0  0  0
  2  3  1  0  0  0
  2 13  1  0  0  0
  3  4  1  0  0  0
  3 21  1  0  0  0
  4  5  1  0  0  0
  5  6  4  0  0  0
  5  9  4  0  0  0
  6  7  4  0  0  0
  7  8  1  0  0  0
  7 11  4  0  0  0
  9 10  4  0  0  0
 10 11  4  0  0  0
 11 12  1  0  0  0
 13 14  4  0  0  0
 13 18  4  0  0  0
 14 15  1  0  0  0
 14 16  4  0  0  0
 16 17  4  0  0  0
 16 23  1  0  0  0
 17 18  4  0  0  0
 18 19  1  0  0  0
 19 20  1  0  0  0
 19 21  1  0  0  0
 21 22  2  0  0  0
 23 24  1  0  0  0
 23 28  1  0  0  0
 24 25  1  0  0  0
 25 26  1  0  0  0
 26 27  1  0  0  0
 27 28  1  0  0  0
  4 29  1  0  0  0
  4 30  1  0  0  0
  6 31  1  0  0  0
  9 32  1  0  0  0
 10 33  1  0  0  0
 15 34  1  0  0  0
 15 35  1  0  0  0
 15 36  1  0  0  0
 20 37  1  0  0  0
 20 38  1  0  0  0
 20 39  1  0  0  0
 24 40  1  0  0  0
 24 41  1  0  0  0
 25 42  1  0  0  0
 25 43  1  0  0  0
 27 44  1  0  0  0
 27 45  1  0  0  0
 28 46  1  0  0  0
 28 47  1  0  0  0
M  END
$$$$
