6df7_ligand
  -I-interpret- 

 56 60  0  0  0  0  0  0  0  0999 V2000
    9.8150   10.8950   74.2720 C   0  0  0  0  0
   10.0880    9.5840   76.3070 C   0  0  0  0  0
    8.1950    9.8250   72.6170 N   0  0  0  0  0
    9.1940    8.6150   75.8470 C   0  0  0  0  0
    8.9250    9.9390   73.7880 C   0  0  0  0  0
   13.0580   10.9950   74.3000 C   0  0  0  0  0
    5.8450    5.8240   78.0030 N   0  0  0  0  0
    6.1710    7.4590   76.5500 C   0  0  0  0  0
    8.8490    7.4510   76.7260 C   0  0  0  0  0
    8.1910   10.7760   71.5090 C   0  0  0  0  0
   10.4070   10.7200   75.5300 C   0  0  0  0  0
    7.2180    5.9970   77.9230 C   0  0  0  0  0
    8.6130    8.7900   74.5630 C   0  0  0  0  0
    8.1030    4.4360   79.3590 O   0  0  0  0  0
    9.5900    5.7230   78.2410 N   0  0  0  0  0
   12.5120    5.4400   80.7030 C   0  0  0  0  0
   13.6910    5.9980   80.5570 C   0  0  0  0  0
   14.9500   12.1910   76.1620 C   0  0  0  0  0
    7.4500    7.0360   76.9970 C   0  0  0  0  0
   10.7630    5.0950   78.9080 C   0  0  0  0  0
   15.2970   11.2800   75.0920 O   0  0  0  0  0
    9.8460    6.7580   77.3650 C   0  0  0  0  0
    5.2210    6.7000   77.1510 C   0  0  0  0  0
    8.3240    5.3470   78.5470 C   0  0  0  0  0
   12.6160   11.8600   75.4300 N   0  0  0  0  0
   13.5910   12.8740   75.9020 C   0  0  0  0  0
    7.4840    8.6630   72.6960 C   0  0  0  0  0
   11.2800    6.0070   80.0400 C   0  0  0  0  0
   11.3900   11.7250   76.0140 C   0  0  0  0  0
   14.3360   10.2760   74.7450 C   0  0  0  0  0
   11.0760   12.4310   76.9550 O   0  0  0  0  0
    7.7360    8.0680   73.8330 N   0  0  0  0  0
   10.0501   11.7758   73.6745 H   0  0  0  0  0
   10.5497    9.4613   77.2867 H   0  0  0  0  0
   13.2480   11.5961   73.4108 H   0  0  0  0  0
   12.2822   10.2726   74.0461 H   0  0  0  0  0
    5.9827    8.2634   75.8390 H   0  0  0  0  0
    7.8485   11.7470   71.8666 H   0  0  0  0  0
    9.2006   10.8701   71.1090 H   0  0  0  0  0
    7.5210   10.4182   70.7272 H   0  0  0  0  0
   12.4202    4.5449   81.3183 H   0  0  0  0  0
   13.7981    6.8934   79.9447 H   0  0  0  0  0
   14.5630    5.5660   81.0480 H   0  0  0  0  0
   15.7184   12.9616   76.2232 H   0  0  0  0  0
   14.8803   11.6239   77.0903 H   0  0  0  0  0
   11.5564    4.9501   78.1747 H   0  0  0  0  0
   10.4634    4.1357   79.3300 H   0  0  0  0  0
   10.8822    7.0363   77.1729 H   0  0  0  0  0
    4.1461    6.7734   76.9855 H   0  0  0  0  0
   13.7101   13.6472   75.1430 H   0  0  0  0  0
   13.2281   13.3281   76.8241 H   0  0  0  0  0
    6.8082    8.2875   71.9276 H   0  0  0  0  0
   11.5391    6.9737   79.6081 H   0  0  0  0  0
   10.4966    6.0940   80.7929 H   0  0  0  0  0
   14.7173    9.6449   73.9422 H   0  0  0  0  0
   14.1325    9.6317   75.6003 H   0  0  0  0  0
  1  5  4  0  0  0
 11  1  4  0  0  0
  2  4  4  0  0  0
 11  2  4  0  0  0
  5  3  4  0  0  0
  3 10  1  0  0  0
  3 27  4  0  0  0
  4  9  1  0  0  0
  4 13  4  0  0  0
  5 13  4  0  0  0
 25  6  1  0  0  0
  6 30  1  0  0  0
 12  7  4  0  0  0
  7 23  4  0  0  0
 19  8  4  0  0  0
  8 23  4  0  0  0
  9 19  1  0  0  0
  9 22  2  0  0  0
 29 11  1  0  0  0
 19 12  4  0  0  0
 12 24  1  0  0  0
 13 32  4  0  0  0
 24 14  2  0  0  0
 15 20  1  0  0  0
 22 15  1  0  0  0
 15 24  1  0  0  0
 16 17  2  0  0  0
 28 16  1  0  0  0
 18 21  1  0  0  0
 26 18  1  0  0  0
 20 28  1  0  0  0
 30 21  1  0  0  0
 25 26  1  0  0  0
 25 29  1  0  0  0
 27 32  4  0  0  0
 29 31  2  0  0  0
  1 33  1  0  0  0
  2 34  1  0  0  0
  6 35  1  0  0  0
  6 36  1  0  0  0
  8 37  1  0  0  0
 10 38  1  0  0  0
 10 39  1  0  0  0
 10 40  1  0  0  0
 16 41  1  0  0  0
 17 42  1  0  0  0
 17 43  1  0  0  0
 18 44  1  0  0  0
 18 45  1  0  0  0
 20 46  1  0  0  0
 20 47  1  0  0  0
 22 48  1  0  0  0
 23 49  1  0  0  0
 26 50  1  0  0  0
 26 51  1  0  0  0
 27 52  1  0  0  0
 28 53  1  0  0  0
 28 54  1  0  0  0
 30 55  1  0  0  0
 30 56  1  0  0  0
M  END
$$$$
