### 
### Created by X-TOOL on Mon Sep 10 21:13:25 2018
### 

@<TRIPOS>MOLECULE
5d11_ligand
   61    64     1     0     0
SMALL
GAST_HUCK


@<TRIPOS>ATOM
      1 C4        -12.7730  -39.6410    5.1620 C.ar      1 56G         0.1050
      2 C5        -13.0120  -38.4170    5.8090 C.ar      1 56G         0.0133
      3 C6        -12.0160  -37.7640    6.4970 C.ar      1 56G         0.1187
      4 N1        -10.8510  -38.3780    6.5400 N.ar      1 56G        -0.2418
      5 N3        -11.5310  -40.1650    5.2560 N.ar      1 56G        -0.2443
      6 CAN       -15.1420  -39.9450    4.5400 C.3       1 56G         0.0715
      7 CAL       -15.7110  -40.1010    3.3090 C.3       1 56G        -0.0111
      8 NBE       -15.6940  -41.5280    2.8830 N.4       1 56G         0.2360
      9 CAC       -16.6020  -41.7080    1.6970 C.3       1 56G        -0.0429
     10 CAM       -14.3880  -42.1230    2.6790 C.3       1 56G        -0.0111
     11 CAO       -13.3960  -41.6460    3.7910 C.3       1 56G         0.0715
     12 NBF       -13.7370  -40.3170    4.4610 N.pl3     1 56G        -0.2830
     13 NAT       -12.2590  -36.5640    7.1600 N.pl3     1 56G        -0.2619
     14 CBA       -11.3070  -35.8770    7.9000 C.2       1 56G         0.0964
     15 CAI       -10.0400  -36.1840    8.2640 C.2       1 56G        -0.0260
     16 CAX        -9.5950  -35.1390    8.9730 C.2       1 56G         0.0559
     17 CAB        -8.2220  -34.9630    9.6180 C.3       1 56G        -0.0040
     18 NAU       -10.5140  -34.2120    9.0260 N.pl3     1 56G        -0.2338
     19 NAP       -11.5220  -34.6460    8.4020 N.2       1 56G        -0.2287
     20 C2        -10.5690  -39.5420    5.9780 C.ar      1 56G         0.2389
     21 OAV        -9.2790  -39.9770    6.1720 O.3       1 56G        -0.2264
     22 CAZ        -8.9860  -41.0240    5.3400 C.ar      1 56G         0.1118
     23 CAH        -8.5420  -40.7860    4.0290 C.ar      1 56G        -0.0077
     24 CAG        -9.1470  -42.3390    5.7910 C.ar      1 56G        -0.0421
     25 CAE        -8.8610  -43.3960    4.9170 C.ar      1 56G        -0.0821
     26 CAF        -8.4090  -43.1710    3.6060 C.ar      1 56G        -0.0510
     27 CAY        -8.2860  -41.8620    3.1300 C.ar      1 56G         0.0587
     28 NAS        -7.8170  -41.8200    1.8600 N.am      1 56G        -0.2361
     29 CAW        -6.9270  -40.9340    1.4420 C.2       1 56G         0.2031
     30 OAD        -6.6550  -39.8930    2.0210 O.2       1 56G        -0.3849
     31 CAK        -6.2700  -41.2760    0.1310 C.3       1 56G         0.0403
     32 CAA        -6.5350  -40.2210   -0.9180 C.3       1 56G        -0.0477
     33 H1        -14.0022  -37.9780    5.7650 H         1 56G         0.0475
     34 H2        -15.6545  -40.5909    5.2681 H         1 56G         0.0577
     35 H3        -15.2286  -38.8951    4.8564 H         1 56G         0.0577
     36 H4        -15.1507  -39.5015    2.5764 H         1 56G         0.0835
     37 H5        -16.7531  -39.7512    3.3488 H         1 56G         0.0835
     38 H6        -16.1061  -42.0469    3.6426 H         1 56G         0.2032
     39 H7        -16.5895  -42.7619    1.3823 H         1 56G         0.0778
     40 H8        -16.2533  -41.0739    0.8686 H         1 56G         0.0778
     41 H9        -17.6271  -41.4199    1.9729 H         1 56G         0.0778
     42 H10       -14.0015  -41.8218    1.6942 H         1 56G         0.0835
     43 H11       -14.4779  -43.2186    2.7183 H         1 56G         0.0835
     44 H12       -12.3998  -41.5481    3.3350 H         1 56G         0.0577
     45 H13       -13.3673  -42.4200    4.5721 H         1 56G         0.0577
     46 H14       -13.2048  -36.1609    7.0973 H         1 56G         0.2115
     47 H15        -9.4935  -37.0959    8.0281 H         1 56G         0.0218
     48 H16        -8.1787  -33.9894   10.1282 H         1 56G         0.0437
     49 H17        -7.4440  -35.0049    8.8415 H         1 56G         0.0437
     50 H18        -8.0544  -35.7677   10.3489 H         1 56G         0.0437
     51 H19       -10.4314  -33.2966    9.4908 H         1 56G         0.2453
     52 H20        -8.3913  -39.7658    3.6949 H         1 56G         0.0435
     53 H21        -9.4877  -42.5367    6.8009 H         1 56G         0.0433
     54 H22        -8.9921  -44.4153    5.2618 H         1 56G         0.0554
     55 H23        -8.1566  -44.0088    2.9661 H         1 56G         0.0423
     56 H24        -8.1607  -42.4927    1.2048 H         1 56G         0.2254
     57 H25        -6.6639  -42.2394   -0.2247 H         1 56G         0.0505
     58 H26        -5.1843  -41.3589    0.2871 H         1 56G         0.0505
     59 H27        -6.0401  -40.5062   -1.8581 H         1 56G         0.0254
     60 H28        -6.1390  -39.2542   -0.5739 H         1 56G         0.0254
     61 H29        -7.6187  -40.1347   -1.0857 H         1 56G         0.0254
@<TRIPOS>BOND
     1    1    2 ar 
     2    1    5 ar 
     3   12    1 1  
     4    2    3 ar 
     5    3    4 ar 
     6    3   13 1  
     7   20    4 ar 
     8    5   20 ar 
     9    6    7 1  
    10    6   12 1  
    11    7    8 1  
    12    8    9 1  
    13    8   10 1  
    14   10   11 1  
    15   11   12 1  
    16   13   14 1  
    17   14   15 1  
    18   14   19 2  
    19   15   16 2  
    20   16   17 1  
    21   16   18 1  
    22   18   19 1  
    23   20   21 1  
    24   21   22 1  
    25   22   23 ar 
    26   22   24 ar 
    27   23   27 ar 
    28   24   25 ar 
    29   25   26 ar 
    30   26   27 ar 
    31   27   28 1  
    32   28   29 am 
    33   29   30 2  
    34   29   31 1  
    35   31   32 1  
    36    2   33 1  
    37    6   34 1  
    38    6   35 1  
    39    7   36 1  
    40    7   37 1  
    41    8   38 1  
    42    9   39 1  
    43    9   40 1  
    44    9   41 1  
    45   10   42 1  
    46   10   43 1  
    47   11   44 1  
    48   11   45 1  
    49   13   46 1  
    50   15   47 1  
    51   17   48 1  
    52   17   49 1  
    53   17   50 1  
    54   18   51 1  
    55   23   52 1  
    56   24   53 1  
    57   25   54 1  
    58   26   55 1  
    59   28   56 1  
    60   31   57 1  
    61   31   58 1  
    62   32   59 1  
    63   32   60 1  
    64   32   61 1  
@<TRIPOS>SUBSTRUCTURE
     1 56G         1

