5d11_ligand
  -I-interpret- 

 60 63  0  0  0  0  0  0  0  0999 V2000
  -12.7730  -39.6410    5.1620 C   0  0  0  0  0
  -13.0120  -38.4170    5.8090 C   0  0  0  0  0
  -12.0160  -37.7640    6.4970 C   0  0  0  0  0
  -10.8510  -38.3780    6.5400 N   0  0  0  0  0
  -11.5310  -40.1650    5.2560 N   0  0  0  0  0
  -15.1420  -39.9450    4.5400 C   0  0  0  0  0
  -15.7110  -40.1010    3.3090 C   0  0  0  0  0
  -15.6940  -41.5280    2.8830 N   0  3  0  0  0
  -16.6020  -41.7080    1.6970 C   0  0  0  0  0
  -14.3880  -42.1230    2.6790 C   0  0  0  0  0
  -13.3960  -41.6460    3.7910 C   0  0  0  0  0
  -13.7370  -40.3170    4.4610 N   0  0  0  0  0
  -12.2590  -36.5640    7.1600 N   0  0  0  0  0
  -11.3070  -35.8770    7.9000 C   0  0  0  0  0
  -10.0400  -36.1840    8.2640 C   0  0  0  0  0
   -9.5950  -35.1390    8.9730 C   0  0  0  0  0
   -8.2220  -34.9630    9.6180 C   0  0  0  0  0
  -10.5140  -34.2120    9.0260 N   0  0  0  0  0
  -11.5220  -34.6460    8.4020 N   0  0  0  0  0
  -10.5690  -39.5420    5.9780 C   0  0  0  0  0
   -9.2790  -39.9770    6.1720 O   0  0  0  0  0
   -8.9860  -41.0240    5.3400 C   0  0  0  0  0
   -8.5420  -40.7860    4.0290 C   0  0  0  0  0
   -9.1470  -42.3390    5.7910 C   0  0  0  0  0
   -8.8610  -43.3960    4.9170 C   0  0  0  0  0
   -8.4090  -43.1710    3.6060 C   0  0  0  0  0
   -8.2860  -41.8620    3.1300 C   0  0  0  0  0
   -7.8170  -41.8200    1.8600 N   0  0  0  0  0
   -6.9270  -40.9340    1.4420 C   0  0  0  0  0
   -6.6550  -39.8930    2.0210 O   0  0  0  0  0
   -6.2700  -41.2760    0.1310 C   0  0  0  0  0
   -6.5350  -40.2210   -0.9180 C   0  0  0  0  0
  -14.0077  -37.9756    5.7648 H   0  0  0  0  0
  -15.6512  -40.5807    5.2643 H   0  0  0  0  0
  -15.2306  -38.9061    4.8577 H   0  0  0  0  0
  -15.1418  -39.5160    2.5866 H   0  0  0  0  0
  -16.7470  -39.7661    3.3603 H   0  0  0  0  0
  -16.0482  -42.0581    3.6792 H   0  0  0  0  0
  -17.6174  -41.4222    1.9717 H   0  0  0  0  0
  -16.2554  -41.0791    0.8769 H   0  0  0  0  0
  -16.5888  -42.7526    1.3861 H   0  0  0  0  0
  -14.0054  -41.8175    1.7052 H   0  0  0  0  0
  -14.4797  -43.2082    2.7248 H   0  0  0  0  0
  -12.4314  -41.5060    3.3032 H   0  0  0  0  0
  -13.4261  -42.4025    4.5752 H   0  0  0  0  0
  -13.1956  -36.1648    7.0979 H   0  0  0  0  0
   -9.4930  -37.0967    8.0279 H   0  0  0  0  0
   -8.0571  -35.7610   10.3420 H   0  0  0  0  0
   -7.4520  -35.0048    8.8476 H   0  0  0  0  0
   -8.1803  -33.9980   10.1232 H   0  0  0  0  0
   -8.3905  -39.7602    3.6931 H   0  0  0  0  0
   -9.4896  -42.5378    6.8065 H   0  0  0  0  0
   -8.9928  -44.4210    5.2637 H   0  0  0  0  0
   -8.1552  -44.0134    2.9625 H   0  0  0  0  0
   -8.1676  -42.5062    1.1917 H   0  0  0  0  0
   -6.6795  -42.2224   -0.2222 H   0  0  0  0  0
   -5.1937  -41.3381    0.2918 H   0  0  0  0  0
   -7.6091  -40.1365   -1.0832 H   0  0  0  0  0
   -6.1423  -39.2635   -0.5758 H   0  0  0  0  0
   -6.0441  -40.5047   -1.8489 H   0  0  0  0  0
  1  2  4  0  0  0
  1  5  4  0  0  0
 12  1  1  0  0  0
  2  3  4  0  0  0
  3  4  4  0  0  0
  3 13  1  0  0  0
 20  4  4  0  0  0
  5 20  4  0  0  0
  6  7  1  0  0  0
  6 12  1  0  0  0
  7  8  1  0  0  0
  8  9  1  0  0  0
  8 10  1  0  0  0
 10 11  1  0  0  0
 11 12  1  0  0  0
 13 14  1  0  0  0
 14 15  4  0  0  0
 14 19  4  0  0  0
 15 16  4  0  0  0
 16 17  1  0  0  0
 16 18  4  0  0  0
 18 19  4  0  0  0
 20 21  1  0  0  0
 21 22  1  0  0  0
 22 23  4  0  0  0
 22 24  4  0  0  0
 23 27  4  0  0  0
 24 25  4  0  0  0
 25 26  4  0  0  0
 26 27  4  0  0  0
 27 28  1  0  0  0
 28 29  1  0  0  0
 29 30  2  0  0  0
 29 31  1  0  0  0
 31 32  1  0  0  0
  2 33  1  0  0  0
  6 34  1  0  0  0
  6 35  1  0  0  0
  7 36  1  0  0  0
  7 37  1  0  0  0
  8 38  1  0  0  0
  9 39  1  0  0  0
  9 40  1  0  0  0
  9 41  1  0  0  0
 10 42  1  0  0  0
 10 43  1  0  0  0
 11 44  1  0  0  0
 11 45  1  0  0  0
 13 46  1  0  0  0
 15 47  1  0  0  0
 17 48  1  0  0  0
 17 49  1  0  0  0
 17 50  1  0  0  0
 23 51  1  0  0  0
 24 52  1  0  0  0
 25 53  1  0  0  0
 26 54  1  0  0  0
 28 55  1  0  0  0
 31 56  1  0  0  0
 31 57  1  0  0  0
 32 58  1  0  0  0
 32 59  1  0  0  0
 32 60  1  0  0  0
M  END
$$$$
