6cmr_ligand
  -I-interpret- 

 43 45  0  0  0  0  0  0  0  0999 V2000
    0.9050   12.2120   21.9060 C   0  0  0  0  0
   -0.1380   13.9740   20.8720 C   0  0  0  0  0
   -4.8610   13.3930   20.7350 C   0  0  0  0  0
   -5.0950   14.3650   19.6180 C   0  0  0  0  0
   -3.8460   14.6880   18.8770 C   0  0  0  0  0
   -2.6280   15.0140   19.7450 C   0  0  0  0  0
    2.3380   10.1070   21.8990 C   0  0  0  0  0
    3.5520    9.4690   22.1140 C   0  0  0  0  0
    4.6460   10.1840   22.5650 C   0  0  0  0  0
    4.5340   11.5420   22.8030 C   0  0  0  0  0
    3.3240   12.1810   22.5900 C   0  0  0  0  0
   -5.6970   15.6520   20.1720 C   0  0  0  0  0
    0.9510   13.2750   21.1260 N   0  0  0  0  0
   -1.3620   13.5960   21.4050 C   0  0  0  0  0
   -1.4030   12.5310   22.1960 N   0  0  0  0  0
   -0.3100   11.8320   22.4590 C   0  0  0  0  0
   -0.3940   10.6660   23.3170 N   0  0  0  0  0
    2.2210   11.4690   22.1480 C   0  0  0  0  0
   -2.5620   14.3890   21.1180 N   0  0  0  0  0
   -3.8310   13.8960   21.7390 C   0  0  0  0  0
    0.9410    9.1600   21.3220 Cl  0  0  0  0  0
    3.7310    7.7180   21.8140 Cl  0  0  0  0  0
   -6.0650   13.7570   18.6480 N   0  3  0  0  0
   -0.0759   14.8577   20.2369 H   0  0  0  0  0
   -4.4841   12.4666   20.3016 H   0  0  0  0  0
   -5.8046   13.2528   21.2624 H   0  0  0  0  0
   -4.0564   15.5822   18.2903 H   0  0  0  0  0
   -3.5878   13.7983   18.3027 H   0  0  0  0  0
   -2.6684   16.0900   19.9144 H   0  0  0  0  0
   -1.7680   14.6213   19.2026 H   0  0  0  0  0
    5.5965    9.6777   22.7330 H   0  0  0  0  0
    5.3958   12.1076   23.1572 H   0  0  0  0  0
    3.2389   13.2524   22.7715 H   0  0  0  0  0
   -5.8852   16.3457   19.3526 H   0  0  0  0  0
   -6.6344   15.4241   20.6794 H   0  0  0  0  0
   -5.0002   16.1028   20.8786 H   0  0  0  0  0
    0.4433   10.1191   23.5177 H   0  0  0  0  0
   -1.2903   10.3928   23.7199 H   0  0  0  0  0
   -3.5699   13.0552   22.3816 H   0  0  0  0  0
   -4.2797   14.7375   22.2669 H   0  0  0  0  0
   -5.6717   12.8946   18.2711 H   0  0  0  0  0
   -6.9407   13.5511   19.1287 H   0  0  0  0  0
   -6.2397   14.4134   17.8871 H   0  0  0  0  0
 13  1  4  0  0  0
  1 16  4  0  0  0
  1 18  1  0  0  0
  2 13  4  0  0  0
 14  2  4  0  0  0
  4  3  1  0  0  0
  3 20  1  0  0  0
  5  4  1  0  0  0
  4 12  1  0  0  0
  4 23  1  0  0  0
  6  5  1  0  0  0
 19  6  1  0  0  0
  7  8  4  0  0  0
 18  7  4  0  0  0
  7 21  1  0  0  0
  8  9  4  0  0  0
  8 22  1  0  0  0
 10  9  4  0  0  0
 11 10  4  0  0  0
 18 11  4  0  0  0
 14 15  4  0  0  0
 14 19  1  0  0  0
 15 16  4  0  0  0
 16 17  1  0  0  0
 19 20  1  0  0  0
  2 24  1  0  0  0
  3 25  1  0  0  0
  3 26  1  0  0  0
  5 27  1  0  0  0
  5 28  1  0  0  0
  6 29  1  0  0  0
  6 30  1  0  0  0
  9 31  1  0  0  0
 10 32  1  0  0  0
 11 33  1  0  0  0
 12 34  1  0  0  0
 12 35  1  0  0  0
 12 36  1  0  0  0
 17 37  1  0  0  0
 17 38  1  0  0  0
 20 39  1  0  0  0
 20 40  1  0  0  0
 23 41  1  0  0  0
 23 42  1  0  0  0
 23 43  1  0  0  0
M  END
$$$$
