### 
### Created by X-TOOL on Mon Sep 10 21:13:21 2018
### 

@<TRIPOS>MOLECULE
4y3b_ligand
  116   117     1     0     0
SMALL
GAST_HUCK


@<TRIPOS>ATOM
      1 N          23.6400    5.3400   14.8000 N.4       1 ARG         0.2379
      2 CA         23.0890    5.5690   16.1290 C.3       1 ARG         0.0651
      3 C          22.3880    6.9240   16.2120 C.2       1 ARG         0.2268
      4 O          21.4250    7.0700   16.9640 O.2       1 ARG        -0.3907
      5 CB         24.1860    5.4680   17.1950 C.3       1 ARG         0.0110
      6 CG         23.6830    5.6680   18.6160 C.3       1 ARG        -0.0125
      7 CD         24.7820    5.4620   19.6460 C.3       1 ARG         0.0629
      8 NE         24.2860    5.6290   21.0100 N.pl3     1 ARG        -0.2723
      9 CZ         24.9820    5.3260   22.1020 C.cat     1 ARG         0.2882
     10 NH1        24.4500    5.5120   23.3040 N.pl3     1 ARG        -0.2849
     11 NH2        26.2100    4.8350   21.9930 N.pl3     1 ARG        -0.2849
     12 N          22.8740    7.9160   15.4610 N.am      1 THR        -0.2586
     13 CA         22.1580    9.1900   15.3510 C.3       1 THR         0.1568
     14 C          20.8000    8.9550   14.6960 C.2       1 THR         0.2090
     15 O          20.7320    8.3570   13.6250 O.2       1 THR        -0.3941
     16 CB         22.9130   10.2350   14.5020 C.3       1 THR         0.0924
     17 OG1        24.2150   10.4780   15.0470 O.3       1 THR        -0.3874
     18 CG2        22.1260   11.5390   14.4700 C.3       1 THR        -0.0346
     19 N          19.7150    9.4260   15.3270 N.am      1 PRO        -0.2498
     20 CA         18.3810    9.1830   14.7610 C.3       1 PRO         0.1338
     21 C          18.0510    9.9600   13.4760 C.2       1 PRO         0.2042
     22 O          18.3520   11.1500   13.3280 O.2       1 PRO        -0.3944
     23 CB         17.4360    9.6000   15.8990 C.3       1 PRO        -0.0104
     24 CG         18.2350   10.5040   16.7700 C.3       1 PRO        -0.0281
     25 CD         19.6560   10.0340   16.6680 C.3       1 PRO         0.0369
     26 N          17.3920    9.2700   12.5530 N.am      1 SEP        -0.2613
     27 CA         16.9340    9.8750   11.3080 C.3       1 SEP         0.1586
     28 CB         17.0600    8.8540   10.1760 C.3       1 SEP         0.1184
     29 OG         16.3180    7.7010   10.5430 O.3       1 SEP        -0.2714
     30 C          15.4750   10.3050   11.4580 C.2       1 SEP         0.2065
     31 O          14.8820   10.1800   12.5370 O.2       1 SEP        -0.3943
     32 P          16.5680    6.4210    9.6030 P.3       1 SEP         0.2010
     33 O1P        16.1920    6.7710    8.0920 O.co2     1 SEP        -0.5537
     34 O2P        15.5210    5.3520   10.1910 O.co2     1 SEP        -0.5537
     35 O3P        18.0930    5.9770    9.7350 O.co2     1 SEP        -0.5537
     36 N          14.8930   10.8060   10.3770 N.am      1 LEU        -0.2636
     37 CA         13.4900   11.2410   10.3860 C.3       1 LEU         0.1314
     38 C          12.5410   10.0780   10.7400 C.2       1 LEU         0.2064
     39 O          12.5520    9.0390   10.0840 O.2       1 LEU        -0.3942
     40 CB         13.1300   11.8330    9.0170 C.3       1 LEU        -0.0101
     41 CG         11.7910   12.5610    8.8740 C.3       1 LEU        -0.0425
     42 CD1        11.7950   13.8860    9.6290 C.3       1 LEU        -0.0625
     43 CD2        11.4700   12.7950    7.3990 C.3       1 LEU        -0.0625
     44 N          11.7370   10.2400   11.8040 N.am      1 PRO        -0.2498
     45 CA         10.8560    9.1360   12.2390 C.3       1 PRO         0.1337
     46 C           9.5700    9.0640   11.4430 C.2       1 PRO         0.2036
     47 O           8.8530    8.0580   11.4340 O.2       1 PRO        -0.3944
     48 CB         10.5790    9.4710   13.7040 C.3       1 PRO        -0.0104
     49 CG         10.6750   10.9700   13.7690 C.3       1 PRO        -0.0281
     50 CD         11.7100   11.3810   12.7370 C.3       1 PRO         0.0369
     51 N           9.2780   10.1640   10.7810 N.am      1 THR        -0.2670
     52 CA          8.2110   10.2250    9.8390 C.3       1 THR         0.1198
     53 C           8.8630    9.9510    8.4880 C.2       1 THR         0.0626
     54 O          10.0810    9.9490    8.3470 O.co2     1 THR        -0.5665
     55 CB          7.5030   11.5850    9.8740 C.3       1 THR         0.0869
     56 OG1         8.4630   12.6110    9.6300 O.3       1 THR        -0.3880
     57 CG2         6.9030   11.8270   11.2510 C.3       1 THR        -0.0352
     58 OXT         8.1970    9.7210    7.4840 O.co2     1 THR        -0.5665
     59 H1         24.0951    4.4409   14.7753 H         1 ARG         0.2015
     60 H2         24.3100    6.0617   14.5851 H         1 ARG         0.2015
     61 H3         22.8961    5.3588   14.1200 H         1 ARG         0.2015
     62 H4         22.3430    4.7856   16.3282 H         1 ARG         0.1098
     63 H5         24.9452    6.2358   16.9849 H         1 ARG         0.0347
     64 H6         24.6446    4.4705   17.1269 H         1 ARG         0.0347
     65 H7         22.8748    4.9477   18.8109 H         1 ARG         0.0302
     66 H8         23.2931    6.6919   18.7134 H         1 ARG         0.0302
     67 H9         25.5812    6.1960   19.4655 H         1 ARG         0.0689
     68 H10        25.1865    4.4450   19.5364 H         1 ARG         0.0689
     69 H11        23.3355    6.0059   21.1340 H         1 ARG         0.2642
     70 H12        24.9907    5.2767   24.1485 H         1 ARG         0.2615
     71 H13        23.4966    5.8916   23.3921 H         1 ARG         0.2615
     72 H14        26.6257    4.6895   21.0619 H         1 ARG         0.2615
     73 H15        26.7475    4.5994   22.8395 H         1 ARG         0.2615
     74 H16        23.7351    7.7881   14.9689 H         1 THR         0.1885
     75 H17        22.0120    9.5952   16.3632 H         1 THR         0.0826
     76 H18        23.0195    9.8523   13.4762 H         1 THR         0.0639
     77 H19        24.7109    9.6677   15.0528 H         1 THR         0.2101
     78 H20        22.6683   12.2797   13.8640 H         1 THR         0.0257
     79 H21        22.0065   11.9204   15.4948 H         1 THR         0.0257
     80 H22        21.1350   11.3585   14.0281 H         1 THR         0.0257
     81 H23        18.2688    8.1103   14.5447 H         1 PRO         0.0802
     82 H24        17.1027    8.7174   16.4645 H         1 PRO         0.0313
     83 H25        16.5601   10.1298   15.4964 H         1 PRO         0.0313
     84 H26        17.8853   10.4382   17.8108 H         1 PRO         0.0287
     85 H27        18.1510   11.5434   16.4200 H         1 PRO         0.0287
     86 H28        20.3571   10.8776   16.7496 H         1 PRO         0.0524
     87 H29        19.8828    9.2920   17.4477 H         1 PRO         0.0524
     88 H30        17.2032    8.3018   12.7173 H         1 SEP         0.1884
     89 H31        17.5524   10.7551   11.0778 H         1 SEP         0.0827
     90 H32        18.1170    8.5870   10.0295 H         1 SEP         0.0662
     91 H33        16.6562    9.2772    9.2444 H         1 SEP         0.0662
     92 H34        15.4232   10.8899    9.5333 H         1 LEU         0.1883
     93 H35        13.3734   12.0246   11.1491 H         1 LEU         0.0800
     94 H36        13.1300   11.0048    8.2931 H         1 LEU         0.0315
     95 H37        13.9211   12.5504    8.7534 H         1 LEU         0.0315
     96 H38        11.0051   11.9226    9.3039 H         1 LEU         0.0298
     97 H39        10.8207   14.3814    9.5054 H         1 LEU         0.0232
     98 H40        12.5889   14.5337    9.2288 H         1 LEU         0.0232
     99 H41        11.9782   13.6987   10.6973 H         1 LEU         0.0232
    100 H42        11.4703   11.8325    6.8665 H         1 LEU         0.0232
    101 H43        12.2298   13.4576    6.9590 H         1 LEU         0.0232
    102 H44        10.4787   13.2633    7.3093 H         1 LEU         0.0232
    103 H45        11.3797    8.1725   12.1532 H         1 PRO         0.0802
    104 H46        11.3295    9.0041   14.3588 H         1 PRO         0.0313
    105 H47         9.5745    9.1322   13.9977 H         1 PRO         0.0313
    106 H48        10.9929   11.2872   14.7731 H         1 PRO         0.0287
    107 H49         9.7013   11.4238   13.5322 H         1 PRO         0.0287
    108 H50        11.4060   12.3037   12.2211 H         1 PRO         0.0524
    109 H51        12.6943   11.5297   13.2049 H         1 PRO         0.0524
    110 H52         9.8243   10.9854   10.9452 H         1 THR         0.1876
    111 H53         7.4713    9.4417   10.0607 H         1 THR         0.0752
    112 H54         6.7129   11.6133    9.1092 H         1 THR         0.0632
    113 H55         8.0322   13.4575    9.6500 H         1 THR         0.2100
    114 H56         6.3983   12.8043   11.2644 H         1 THR         0.0256
    115 H57         7.7026   11.8169   12.0063 H         1 THR         0.0256
    116 H58         6.1743   11.0349   11.4778 H         1 THR         0.0256
@<TRIPOS>BOND
     1    1    2 1  
     2    2    3 1  
     3    2    5 1  
     4    3    4 2  
     5    3   12 am 
     6    5    6 1  
     7    6    7 1  
     8    7    8 1  
     9    8    9 ar 
    10    9   10 ar 
    11    9   11 ar 
    12   12   13 1  
    13   13   14 1  
    14   13   16 1  
    15   14   15 2  
    16   14   19 am 
    17   16   17 1  
    18   16   18 1  
    19   19   20 1  
    20   19   25 1  
    21   20   21 1  
    22   20   23 1  
    23   21   22 2  
    24   21   26 am 
    25   23   24 1  
    26   24   25 1  
    27   26   27 1  
    28   27   28 1  
    29   27   30 1  
    30   28   29 1  
    31   29   32 1  
    32   30   31 2  
    33   30   36 am 
    34   32   33 ar 
    35   32   34 ar 
    36   32   35 ar 
    37   36   37 1  
    38   37   38 1  
    39   37   40 1  
    40   38   39 2  
    41   38   44 am 
    42   40   41 1  
    43   41   42 1  
    44   41   43 1  
    45   44   45 1  
    46   44   50 1  
    47   45   46 1  
    48   45   48 1  
    49   46   47 2  
    50   46   51 am 
    51   48   49 1  
    52   49   50 1  
    53   51   52 1  
    54   52   53 1  
    55   52   55 1  
    56   53   54 ar 
    57   53   58 ar 
    58   55   56 1  
    59   55   57 1  
    60    1   59 1  
    61    1   60 1  
    62    1   61 1  
    63    2   62 1  
    64    5   63 1  
    65    5   64 1  
    66    6   65 1  
    67    6   66 1  
    68    7   67 1  
    69    7   68 1  
    70    8   69 1  
    71   10   70 1  
    72   10   71 1  
    73   11   72 1  
    74   11   73 1  
    75   12   74 1  
    76   13   75 1  
    77   16   76 1  
    78   17   77 1  
    79   18   78 1  
    80   18   79 1  
    81   18   80 1  
    82   20   81 1  
    83   23   82 1  
    84   23   83 1  
    85   24   84 1  
    86   24   85 1  
    87   25   86 1  
    88   25   87 1  
    89   26   88 1  
    90   27   89 1  
    91   28   90 1  
    92   28   91 1  
    93   36   92 1  
    94   37   93 1  
    95   40   94 1  
    96   40   95 1  
    97   41   96 1  
    98   42   97 1  
    99   42   98 1  
   100   42   99 1  
   101   43  100 1  
   102   43  101 1  
   103   43  102 1  
   104   45  103 1  
   105   48  104 1  
   106   48  105 1  
   107   49  106 1  
   108   49  107 1  
   109   50  108 1  
   110   50  109 1  
   111   51  110 1  
   112   52  111 1  
   113   55  112 1  
   114   56  113 1  
   115   57  114 1  
   116   57  115 1  
   117   57  116 1  
@<TRIPOS>SUBSTRUCTURE
     1 ARG         1

