4y3b_ligand
  -I-interpret- 

118119  0  0  0  0  0  0  0  0999 V2000
   23.6400    5.3400   14.8000 N   0  3  0  0  0
   23.0890    5.5690   16.1290 C   0  0  0  0  0
   22.3880    6.9240   16.2120 C   0  0  0  0  0
   21.4250    7.0700   16.9640 O   0  0  0  0  0
   24.1860    5.4680   17.1950 C   0  0  0  0  0
   23.6830    5.6680   18.6160 C   0  0  0  0  0
   24.7820    5.4620   19.6460 C   0  0  0  0  0
   24.2860    5.6290   21.0100 N   0  0  0  0  0
   24.9820    5.3260   22.1020 C   0  0  0  0  0
   24.4500    5.5120   23.3040 N   0  0  0  0  0
   26.2100    4.8350   21.9930 N   0  0  0  0  0
   22.8740    7.9160   15.4610 N   0  0  0  0  0
   22.1580    9.1900   15.3510 C   0  0  0  0  0
   20.8000    8.9550   14.6960 C   0  0  0  0  0
   20.7320    8.3570   13.6250 O   0  0  0  0  0
   22.9130   10.2350   14.5020 C   0  0  0  0  0
   24.2150   10.4780   15.0470 O   0  0  0  0  0
   22.1260   11.5390   14.4700 C   0  0  0  0  0
   19.7150    9.4260   15.3270 N   0  0  0  0  0
   18.3810    9.1830   14.7610 C   0  0  0  0  0
   18.0510    9.9600   13.4760 C   0  0  0  0  0
   18.3520   11.1500   13.3280 O   0  0  0  0  0
   17.4360    9.6000   15.8990 C   0  0  0  0  0
   18.2350   10.5040   16.7700 C   0  0  0  0  0
   19.6560   10.0340   16.6680 C   0  0  0  0  0
   17.3920    9.2700   12.5530 N   0  0  0  0  0
   16.9340    9.8750   11.3080 C   0  0  0  0  0
   17.0600    8.8540   10.1760 C   0  0  0  0  0
   16.3180    7.7010   10.5430 O   0  0  0  0  0
   15.4750   10.3050   11.4580 C   0  0  0  0  0
   14.8820   10.1800   12.5370 O   0  0  0  0  0
   16.5680    6.4210    9.6030 P   0  0  0  0  0
   16.1920    6.7710    8.0920 O   0  0  0  0  0
   15.5210    5.3520   10.1910 O   0  0  0  0  0
   18.0930    5.9770    9.7350 O   0  0  0  0  0
   14.8930   10.8060   10.3770 N   0  0  0  0  0
   13.4900   11.2410   10.3860 C   0  0  0  0  0
   12.5410   10.0780   10.7400 C   0  0  0  0  0
   12.5520    9.0390   10.0840 O   0  0  0  0  0
   13.1300   11.8330    9.0170 C   0  0  0  0  0
   11.7910   12.5610    8.8740 C   0  0  0  0  0
   11.7950   13.8860    9.6290 C   0  0  0  0  0
   11.4700   12.7950    7.3990 C   0  0  0  0  0
   11.7370   10.2400   11.8040 N   0  0  0  0  0
   10.8560    9.1360   12.2390 C   0  0  0  0  0
    9.5700    9.0640   11.4430 C   0  0  0  0  0
    8.8530    8.0580   11.4340 O   0  0  0  0  0
   10.5790    9.4710   13.7040 C   0  0  0  0  0
   10.6750   10.9700   13.7690 C   0  0  0  0  0
   11.7100   11.3810   12.7370 C   0  0  0  0  0
    9.2780   10.1640   10.7810 N   0  0  0  0  0
    8.2110   10.2250    9.8390 C   0  0  0  0  0
    8.8630    9.9510    8.4880 C   0  0  0  0  0
   10.0810    9.9490    8.3470 O   0  0  0  0  0
    7.5030   11.5850    9.8740 C   0  0  0  0  0
    8.4630   12.6110    9.6300 O   0  0  0  0  0
    6.9030   11.8270   11.2510 C   0  0  0  0  0
    8.1970    9.7210    7.4840 O   0  0  0  0  0
   22.8947    5.4116   14.1073 H   0  0  0  0  0
   24.3557    6.0400   14.6047 H   0  0  0  0  0
   24.0540    4.4086   14.7607 H   0  0  0  0  0
   22.3470    4.7934   16.3189 H   0  0  0  0  0
   24.9091    6.2580   16.9925 H   0  0  0  0  0
   24.6034    4.4628   17.1369 H   0  0  0  0  0
   22.8982    4.9356   18.8051 H   0  0  0  0  0
   23.3193    6.6915   18.7070 H   0  0  0  0  0
   25.5593    6.2058   19.4708 H   0  0  0  0  0
   25.1627    4.4460   19.5420 H   0  0  0  0  0
   23.3447    6.0022   21.1328 H   0  0  0  0  0
   24.9849    5.2777   24.1403 H   0  0  0  0  0
   23.5063    5.8892   23.3912 H   0  0  0  0  0
   26.6211    4.6896   21.0709 H   0  0  0  0  0
   23.7523    7.7855   14.9590 H   0  0  0  0  0
   22.0597    9.5783   16.3647 H   0  0  0  0  0
   23.0206    9.8467   13.4892 H   0  0  0  0  0
   24.6699   11.1291   14.5078 H   0  0  0  0  0
   21.1443   11.3588   14.0319 H   0  0  0  0  0
   22.0083   11.9159   15.4860 H   0  0  0  0  0
   22.6643   12.2721   13.8693 H   0  0  0  0  0
   18.2946    8.1445   14.4414 H   0  0  0  0  0
   17.0704    8.7343   16.4513 H   0  0  0  0  0
   16.5461   10.0992   15.5158 H   0  0  0  0  0
   17.8825   10.4696   17.8009 H   0  0  0  0  0
   18.1403   11.5421   16.4513 H   0  0  0  0  0
   20.3761   10.8424   16.7949 H   0  0  0  0  0
   19.9248    9.3338   17.4590 H   0  0  0  0  0
   17.1994    8.2825   12.7206 H   0  0  0  0  0
   17.5429   10.7490   11.0767 H   0  0  0  0  0
   18.1066    8.5943   10.0170 H   0  0  0  0  0
   16.6730    9.2716    9.2465 H   0  0  0  0  0
   15.2699    7.0340    8.0456 H   0  0  0  0  0
   14.6278    5.6850   10.0777 H   0  0  0  0  0
   15.4338   10.8916    9.5164 H   0  0  0  0  0
   13.3692   12.0045   11.1545 H   0  0  0  0  0
   13.0670   10.9795    8.3420 H   0  0  0  0  0
   13.8907   12.5887    8.8213 H   0  0  0  0  0
   11.0184   11.9282    9.3107 H   0  0  0  0  0
   11.9766   13.6991   10.6874 H   0  0  0  0  0
   12.5821   14.5268    9.2316 H   0  0  0  0  0
   10.8291   14.3758    9.5058 H   0  0  0  0  0
   12.2557   13.4021    6.9494 H   0  0  0  0  0
   11.4110   11.8358    6.8847 H   0  0  0  0  0
   10.5150   13.3135    7.3141 H   0  0  0  0  0
   11.3177    8.1597   12.0917 H   0  0  0  0  0
   11.2868    8.9857   14.3760 H   0  0  0  0  0
    9.6040    9.1085   14.0298 H   0  0  0  0  0
   10.9662   11.2995   14.7664 H   0  0  0  0  0
    9.7103   11.4322   13.5597 H   0  0  0  0  0
   11.4577   12.3192   12.2427 H   0  0  0  0  0
   12.6854   11.5816   13.1803 H   0  0  0  0  0
    9.8352   11.0018   10.9484 H   0  0  0  0  0
    7.4291    9.4984   10.0598 H   0  0  0  0  0
    6.7169   11.5938    9.1190 H   0  0  0  0  0
    8.0277   13.4664    9.6502 H   0  0  0  0  0
    6.1812   11.0415   11.4746 H   0  0  0  0  0
    7.6963   11.8167   11.9985 H   0  0  0  0  0
    6.4032   12.7956   11.2630 H   0  0  0  0  0
    7.2637    9.7472    7.7075 H   0  0  0  0  0
  1  2  1  0  0  0
  2  3  1  0  0  0
  2  5  1  0  0  0
  3  4  2  0  0  0
  3 12  1  0  0  0
  5  6  1  0  0  0
  6  7  1  0  0  0
  7  8  1  0  0  0
  8  9  1  0  0  0
  9 10  1  0  0  0
  9 11  2  0  0  0
 12 13  1  0  0  0
 13 14  1  0  0  0
 13 16  1  0  0  0
 14 15  2  0  0  0
 14 19  1  0  0  0
 16 17  1  0  0  0
 16 18  1  0  0  0
 19 20  1  0  0  0
 19 25  1  0  0  0
 20 21  1  0  0  0
 20 23  1  0  0  0
 21 22  2  0  0  0
 21 26  1  0  0  0
 23 24  1  0  0  0
 24 25  1  0  0  0
 26 27  1  0  0  0
 27 28  1  0  0  0
 27 30  1  0  0  0
 28 29  1  0  0  0
 29 32  1  0  0  0
 30 31  2  0  0  0
 30 36  1  0  0  0
 32 33  1  0  0  0
 32 34  1  0  0  0
 32 35  2  0  0  0
 36 37  1  0  0  0
 37 38  1  0  0  0
 37 40  1  0  0  0
 38 39  2  0  0  0
 38 44  1  0  0  0
 40 41  1  0  0  0
 41 42  1  0  0  0
 41 43  1  0  0  0
 44 45  1  0  0  0
 44 50  1  0  0  0
 45 46  1  0  0  0
 45 48  1  0  0  0
 46 47  2  0  0  0
 46 51  1  0  0  0
 48 49  1  0  0  0
 49 50  1  0  0  0
 51 52  1  0  0  0
 52 53  1  0  0  0
 52 55  1  0  0  0
 53 54  2  0  0  0
 53 58  1  0  0  0
 55 56  1  0  0  0
 55 57  1  0  0  0
  1 59  1  0  0  0
  1 60  1  0  0  0
  1 61  1  0  0  0
  2 62  1  0  0  0
  5 63  1  0  0  0
  5 64  1  0  0  0
  6 65  1  0  0  0
  6 66  1  0  0  0
  7 67  1  0  0  0
  7 68  1  0  0  0
  8 69  1  0  0  0
 10 70  1  0  0  0
 10 71  1  0  0  0
 11 72  1  0  0  0
 12 73  1  0  0  0
 13 74  1  0  0  0
 16 75  1  0  0  0
 17 76  1  0  0  0
 18 77  1  0  0  0
 18 78  1  0  0  0
 18 79  1  0  0  0
 20 80  1  0  0  0
 23 81  1  0  0  0
 23 82  1  0  0  0
 24 83  1  0  0  0
 24 84  1  0  0  0
 25 85  1  0  0  0
 25 86  1  0  0  0
 26 87  1  0  0  0
 27 88  1  0  0  0
 28 89  1  0  0  0
 28 90  1  0  0  0
 33 91  1  0  0  0
 34 92  1  0  0  0
 36 93  1  0  0  0
 37 94  1  0  0  0
 40 95  1  0  0  0
 40 96  1  0  0  0
 41 97  1  0  0  0
 42 98  1  0  0  0
 42 99  1  0  0  0
 42100  1  0  0  0
 43101  1  0  0  0
 43102  1  0  0  0
 43103  1  0  0  0
 45104  1  0  0  0
 48105  1  0  0  0
 48106  1  0  0  0
 49107  1  0  0  0
 49108  1  0  0  0
 50109  1  0  0  0
 50110  1  0  0  0
 51111  1  0  0  0
 52112  1  0  0  0
 55113  1  0  0  0
 56114  1  0  0  0
 57115  1  0  0  0
 57116  1  0  0  0
 57117  1  0  0  0
 58118  1  0  0  0
M  END
$$$$
