5em9_ligand
  -I-interpret- 

 97 97  0  0  0  0  0  0  0  0999 V2000
  -16.4310   -1.5490  -10.9320 N   0  3  0  0  0
  -15.0740   -0.9110  -10.8430 C   0  0  0  0  0
  -14.1950   -1.6190   -9.8140 C   0  0  0  0  0
  -13.6530   -2.8150  -10.3240 O   0  0  0  0  0
  -14.4000   -0.9090  -12.2130 C   0  0  0  0  0
  -14.7120   -1.7460  -13.0600 O   0  0  0  0  0
  -13.8080   -4.0090   -9.2700 P   0  0  0  0  0
  -13.0490   -5.2890   -9.8590 O   0  0  0  0  0
  -15.3720   -4.3040   -9.0600 O   0  0  0  0  0
  -13.1240   -3.6310   -7.8750 O   0  0  0  0  0
  -13.4900    0.0430  -12.4260 N   0  0  0  0  0
  -12.8650    0.2730  -13.7330 C   0  0  0  0  0
  -11.3640    0.2760  -13.6090 C   0  0  0  0  0
  -10.8530    0.7180  -12.5880 O   0  0  0  0  0
  -13.2880    1.6170  -14.3060 C   0  0  0  0  0
  -14.7700    1.9480  -14.3300 C   0  0  0  0  0
  -14.9610    3.3960  -14.7580 C   0  0  0  0  0
  -15.4320    1.0250  -15.2780 C   0  0  0  0  0
  -10.6600   -0.1780  -14.6540 N   0  0  0  0  0
   -9.2050   -0.2320  -14.6470 C   0  0  0  0  0
   -8.6570    0.5790  -15.8210 C   0  0  0  0  0
   -9.1900    0.5060  -16.9300 O   0  0  0  0  0
   -8.7300   -1.6820  -14.7130 C   0  0  0  0  0
   -7.2490   -1.8510  -14.6720 C   0  0  0  0  0
   -6.8030   -3.2680  -14.3780 C   0  0  0  0  0
   -7.6540   -4.1740  -14.3780 O   0  0  0  0  0
   -5.5910   -3.4610  -14.1480 O   0  0  0  0  0
   -7.5820    1.3220  -15.5760 N   0  0  0  0  0
   -6.9100    2.1090  -16.6070 C   0  0  0  0  0
   -5.4190    1.8560  -16.5840 C   0  0  0  0  0
   -4.8690    1.4500  -15.5680 O   0  0  0  0  0
   -7.2050    3.6050  -16.3880 C   0  0  0  0  0
   -8.5930    3.8170  -16.4760 O   0  0  0  0  0
   -4.7640    2.0880  -17.7260 N   0  0  0  0  0
   -3.3320    1.8070  -17.9280 C   0  0  0  0  0
   -2.5800    3.0960  -18.0780 C   0  0  0  0  0
   -3.0580    4.0370  -18.7410 O   0  0  0  0  0
   -3.0800    0.9750  -19.1790 C   0  0  0  0  0
   -4.1550   -0.3360  -19.2940 S   0  0  0  0  0
   -1.3830    3.1280  -17.5040 N   0  0  0  0  0
   -0.5210    4.3040  -17.5500 C   0  0  0  0  0
    0.9230    3.9530  -17.8680 C   0  0  0  0  0
    1.3600    2.8060  -17.6920 O   0  0  0  0  0
   -0.6080    5.0430  -16.2190 C   0  0  0  0  0
   -2.0040    5.4210  -15.8520 C   0  0  0  0  0
   -2.5770    6.5510  -16.3920 C   0  0  0  0  0
   -2.7640    4.6430  -14.9960 C   0  0  0  0  0
   -3.8620    6.9130  -16.0730 C   0  0  0  0  0
   -4.0610    4.9950  -14.6870 C   0  0  0  0  0
   -4.6130    6.1350  -15.2370 C   0  0  0  0  0
    1.6560    4.8530  -18.3050 O   0  0  0  0  0
  -16.8691   -1.5435  -10.0109 H   0  0  0  0  0
  -17.0096   -1.0245  -11.5881 H   0  0  0  0  0
  -16.3325   -2.5107  -11.2572 H   0  0  0  0  0
  -15.2060    0.1198  -10.5143 H   0  0  0  0  0
  -14.8101   -1.8634   -8.9479 H   0  0  0  0  0
  -13.3720   -0.9545   -9.5511 H   0  0  0  0  0
  -13.4435   -5.5351  -10.6989 H   0  0  0  0  0
  -15.7701   -4.5294   -9.9040 H   0  0  0  0  0
  -13.2163    0.6382  -11.6442 H   0  0  0  0  0
  -13.1882   -0.5325  -14.3924 H   0  0  0  0  0
  -12.9799    1.5953  -15.3513 H   0  0  0  0  0
  -12.8356    2.3643  -13.6541 H   0  0  0  0  0
  -15.2101    1.8283  -13.3400 H   0  0  0  0  0
  -14.4534    4.0524  -14.0512 H   0  0  0  0  0
  -14.5408    3.5377  -15.7537 H   0  0  0  0  0
  -16.0252    3.6313  -14.7745 H   0  0  0  0  0
  -15.0014    1.1555  -16.2708 H   0  0  0  0  0
  -15.2815   -0.0027  -14.9475 H   0  0  0  0  0
  -16.4991    1.2446  -15.3117 H   0  0  0  0  0
  -11.1605   -0.4970  -15.4835 H   0  0  0  0  0
   -8.8304    0.2017  -13.7198 H   0  0  0  0  0
   -9.0705   -2.0858  -15.6665 H   0  0  0  0  0
   -9.1330   -2.1895  -13.8366 H   0  0  0  0  0
   -6.8719   -1.2184  -13.8684 H   0  0  0  0  0
   -6.8645   -1.5872  -15.6572 H   0  0  0  0  0
   -5.1198   -2.6262  -14.1996 H   0  0  0  0  0
   -7.2102    1.3434  -14.6264 H   0  0  0  0  0
   -7.2884    1.8089  -17.5842 H   0  0  0  0  0
   -6.6945    4.1951  -17.1491 H   0  0  0  0  0
   -6.8488    3.9092  -15.4038 H   0  0  0  0  0
   -8.7826    4.7482  -16.3402 H   0  0  0  0  0
   -5.2883    2.4842  -18.5061 H   0  0  0  0  0
   -2.9928    1.2469  -17.0566 H   0  0  0  0  0
   -2.0647    0.5815  -19.1294 H   0  0  0  0  0
   -3.2254    1.6141  -20.0499 H   0  0  0  0  0
   -3.8926   -1.0268  -20.3998 H   0  0  0  0  0
   -1.0533    2.2978  -17.0116 H   0  0  0  0  0
   -0.8722    4.9460  -18.3578 H   0  0  0  0  0
   -0.0285    5.9616  -16.3108 H   0  0  0  0  0
   -0.2299    4.3765  -15.4439 H   0  0  0  0  0
   -2.0015    7.1670  -17.0830 H   0  0  0  0  0
   -2.3323    3.7416  -14.5611 H   0  0  0  0  0
   -4.2863    7.8268  -16.4890 H   0  0  0  0  0
   -4.6490    4.3749  -14.0103 H   0  0  0  0  0
   -5.6414    6.4127  -15.0059 H   0  0  0  0  0
    1.1529    5.6675  -18.3764 H   0  0  0  0  0
  1  2  1  0  0  0
  2  3  1  0  0  0
  2  5  1  0  0  0
  3  4  1  0  0  0
  4  7  1  0  0  0
  5  6  2  0  0  0
  5 11  1  0  0  0
  7  8  1  0  0  0
  7  9  1  0  0  0
  7 10  2  0  0  0
 11 12  1  0  0  0
 12 13  1  0  0  0
 12 15  1  0  0  0
 13 14  2  0  0  0
 13 19  1  0  0  0
 15 16  1  0  0  0
 16 17  1  0  0  0
 16 18  1  0  0  0
 19 20  1  0  0  0
 20 21  1  0  0  0
 20 23  1  0  0  0
 21 22  2  0  0  0
 21 28  1  0  0  0
 23 24  1  0  0  0
 24 25  1  0  0  0
 25 26  2  0  0  0
 25 27  1  0  0  0
 28 29  1  0  0  0
 29 30  1  0  0  0
 29 32  1  0  0  0
 30 31  2  0  0  0
 30 34  1  0  0  0
 32 33  1  0  0  0
 34 35  1  0  0  0
 35 36  1  0  0  0
 35 38  1  0  0  0
 36 37  2  0  0  0
 36 40  1  0  0  0
 38 39  1  0  0  0
 40 41  1  0  0  0
 41 42  1  0  0  0
 41 44  1  0  0  0
 42 43  2  0  0  0
 42 51  1  0  0  0
 44 45  1  0  0  0
 45 46  4  0  0  0
 45 47  4  0  0  0
 46 48  4  0  0  0
 47 49  4  0  0  0
 48 50  4  0  0  0
 49 50  4  0  0  0
  1 52  1  0  0  0
  1 53  1  0  0  0
  1 54  1  0  0  0
  2 55  1  0  0  0
  3 56  1  0  0  0
  3 57  1  0  0  0
  8 58  1  0  0  0
  9 59  1  0  0  0
 11 60  1  0  0  0
 12 61  1  0  0  0
 15 62  1  0  0  0
 15 63  1  0  0  0
 16 64  1  0  0  0
 17 65  1  0  0  0
 17 66  1  0  0  0
 17 67  1  0  0  0
 18 68  1  0  0  0
 18 69  1  0  0  0
 18 70  1  0  0  0
 19 71  1  0  0  0
 20 72  1  0  0  0
 23 73  1  0  0  0
 23 74  1  0  0  0
 24 75  1  0  0  0
 24 76  1  0  0  0
 27 77  1  0  0  0
 28 78  1  0  0  0
 29 79  1  0  0  0
 32 80  1  0  0  0
 32 81  1  0  0  0
 33 82  1  0  0  0
 34 83  1  0  0  0
 35 84  1  0  0  0
 38 85  1  0  0  0
 38 86  1  0  0  0
 39 87  1  0  0  0
 40 88  1  0  0  0
 41 89  1  0  0  0
 44 90  1  0  0  0
 44 91  1  0  0  0
 46 92  1  0  0  0
 47 93  1  0  0  0
 48 94  1  0  0  0
 49 95  1  0  0  0
 50 96  1  0  0  0
 51 97  1  0  0  0
M  END
$$$$
