### 
### Created by X-TOOL on Mon Sep 10 21:13:27 2018
### 

@<TRIPOS>MOLECULE
5em9_ligand
   93    93     1     0     0
SMALL
GAST_HUCK


@<TRIPOS>ATOM
      1 N         -16.4310   -1.5490  -10.9320 N.4       1 SEP         0.2398
      2 CA        -15.0740   -0.9110  -10.8430 C.3       1 SEP         0.0932
      3 CB        -14.1950   -1.6190   -9.8140 C.3       1 SEP         0.1380
      4 OG        -13.6530   -2.8150  -10.3240 O.3       1 SEP        -0.2680
      5 C         -14.4000   -0.9090  -12.2130 C.2       1 SEP         0.2293
      6 O         -14.7120   -1.7460  -13.0600 O.2       1 SEP        -0.3906
      7 P         -13.8080   -4.0090   -9.2700 P.3       1 SEP         0.2012
      8 O1P       -13.0490   -5.2890   -9.8590 O.co2     1 SEP        -0.5537
      9 O2P       -15.3720   -4.3040   -9.0600 O.co2     1 SEP        -0.5537
     10 O3P       -13.1240   -3.6310   -7.8750 O.co2     1 SEP        -0.5537
     11 N         -13.4900    0.0430  -12.4260 N.am      1 LEU        -0.2609
     12 CA        -12.8650    0.2730  -13.7330 C.3       1 LEU         0.1313
     13 C         -11.3640    0.2760  -13.6090 C.2       1 LEU         0.2039
     14 O         -10.8530    0.7180  -12.5880 O.2       1 LEU        -0.3944
     15 CB        -13.2880    1.6170  -14.3060 C.3       1 LEU        -0.0101
     16 CG        -14.7700    1.9480  -14.3300 C.3       1 LEU        -0.0425
     17 CD1       -14.9610    3.3960  -14.7580 C.3       1 LEU        -0.0625
     18 CD2       -15.4320    1.0250  -15.2780 C.3       1 LEU        -0.0625
     19 N         -10.6600   -0.1780  -14.6540 N.am      1 GLU        -0.2636
     20 CA         -9.2050   -0.2320  -14.6470 C.3       1 GLU         0.1325
     21 C          -8.6570    0.5790  -15.8210 C.2       1 GLU         0.2041
     22 O          -9.1900    0.5060  -16.9300 O.2       1 GLU        -0.3944
     23 CB         -8.7300   -1.6820  -14.7130 C.3       1 GLU        -0.0008
     24 CG         -7.2490   -1.8510  -14.6720 C.3       1 GLU         0.0044
     25 CD         -6.8030   -3.2680  -14.3780 C.2       1 GLU         0.0350
     26 OE1        -7.6540   -4.1740  -14.3780 O.co2     1 GLU        -0.5690
     27 OE2        -5.5910   -3.4610  -14.1480 O.co2     1 GLU        -0.5690
     28 N          -7.5820    1.3220  -15.5760 N.am      1 SER        -0.2616
     29 CA         -6.9100    2.1090  -16.6070 C.3       1 SER         0.1539
     30 C          -5.4190    1.8560  -16.5840 C.2       1 SER         0.2062
     31 O          -4.8690    1.4500  -15.5680 O.2       1 SER        -0.3943
     32 CB         -7.2050    3.6050  -16.3880 C.3       1 SER         0.0843
     33 OG         -8.5930    3.8170  -16.4760 O.3       1 SER        -0.3903
     34 N          -4.7640    2.0880  -17.7260 N.am      1 CYS        -0.2629
     35 CA         -3.3320    1.8070  -17.9280 C.3       1 CYS         0.1396
     36 C          -2.5800    3.0960  -18.0780 C.2       1 CYS         0.2043
     37 O          -3.0580    4.0370  -18.7410 O.2       1 CYS        -0.3944
     38 CB         -3.0800    0.9750  -19.1790 C.3       1 CYS         0.0311
     39 SG         -4.1550   -0.3360  -19.2940 S.3       1 CYS        -0.1735
     40 N          -1.3830    3.1280  -17.5040 N.am      1 PHE        -0.2677
     41 CA         -0.5210    4.3040  -17.5500 C.3       1 PHE         0.1039
     42 C           0.9230    3.9530  -17.8680 C.2       1 PHE         0.0621
     43 O           1.3600    2.8060  -17.6920 O.co2     1 PHE        -0.5664
     44 CB         -0.6080    5.0430  -16.2190 C.3       1 PHE         0.0159
     45 CG         -2.0040    5.4210  -15.8520 C.ar      1 PHE        -0.0392
     46 CD1        -2.5770    6.5510  -16.3920 C.ar      1 PHE        -0.0602
     47 CD2        -2.7640    4.6430  -14.9960 C.ar      1 PHE        -0.0602
     48 CE1        -3.8620    6.9130  -16.0730 C.ar      1 PHE        -0.0686
     49 CE2        -4.0610    4.9950  -14.6870 C.ar      1 PHE        -0.0686
     50 CZ         -4.6130    6.1350  -15.2370 C.ar      1 PHE        -0.0687
     51 OXT         1.6560    4.8530  -18.3050 O.co2     1 PHE        -0.5664
     52 H1        -16.8649   -1.5441  -10.0222 H         1 SEP         0.2016
     53 H2        -16.3350   -2.4996  -11.2533 H         1 SEP         0.2016
     54 H3        -17.0038   -1.0315  -11.5802 H         1 SEP         0.2016
     55 H4        -15.2056    0.1324  -10.5207 H         1 SEP         0.1125
     56 H5        -14.8026   -1.8530   -8.9274 H         1 SEP         0.0696
     57 H6        -13.3714   -0.9485   -9.5276 H         1 SEP         0.0696
     58 H7        -13.2217    0.6265  -11.6595 H         1 LEU         0.1885
     59 H8        -13.1733   -0.5292  -14.4196 H         1 LEU         0.0800
     60 H9        -12.9270    1.6580  -15.3443 H         1 LEU         0.0315
     61 H10       -12.7884    2.3971  -13.7130 H         1 LEU         0.0315
     62 H11       -15.1973    1.8093  -13.3259 H         1 LEU         0.0298
     63 H12       -16.0347    3.6347  -14.7751 H         1 LEU         0.0232
     64 H13       -14.5373    3.5403  -15.7628 H         1 LEU         0.0232
     65 H14       -14.4492    4.0596  -14.0455 H         1 LEU         0.0232
     66 H15       -15.2792   -0.0127  -14.9465 H         1 LEU         0.0232
     67 H16       -14.9996    1.1570  -16.2808 H         1 LEU         0.0232
     68 H17       -16.5094    1.2443  -15.3115 H         1 LEU         0.0232
     69 H18       -11.1507   -0.4907  -15.4673 H         1 GLU         0.1883
     70 H19        -8.8382    0.2133  -13.7104 H         1 GLU         0.0801
     71 H20        -9.1000   -2.1222  -15.6507 H         1 GLU         0.0330
     72 H21        -9.1612   -2.2239  -13.8583 H         1 GLU         0.0330
     73 H22        -6.8463   -1.1914  -13.8893 H         1 GLU         0.0433
     74 H23        -6.8390   -1.5541  -15.6486 H         1 GLU         0.0433
     75 H24        -7.2175    1.3430  -14.6450 H         1 SER         0.1884
     76 H25        -7.3011    1.8108  -17.5909 H         1 SER         0.0823
     77 H26        -6.6919    4.1986  -17.1590 H         1 SER         0.0606
     78 H27        -6.8481    3.9093  -15.3930 H         1 SER         0.0606
     79 H28        -9.0336    3.3026  -15.8099 H         1 SER         0.2097
     80 H29        -5.2780    2.4765  -18.4908 H         1 CYS         0.1884
     81 H30        -2.9538    1.2604  -17.0515 H         1 CYS         0.0808
     82 H31        -2.0504    0.5891  -19.1483 H         1 CYS         0.0422
     83 H32        -3.2050    1.6163  -20.0640 H         1 CYS         0.0422
     84 H33        -3.9561   -0.8596  -20.1321 H         1 CYS         0.1019
     85 H34        -1.0598    2.3140  -17.0213 H         1 PHE         0.1877
     86 H35        -0.8906    4.9690  -18.3445 H         1 PHE         0.0749
     87 H36        -0.0031    5.9592  -16.2866 H         1 PHE         0.0467
     88 H37        -0.2020    4.3929  -15.4300 H         1 PHE         0.0467
     89 H38        -2.0047    7.1636  -17.0792 H         1 PHE         0.0557
     90 H39        -2.3347    3.7465  -14.5634 H         1 PHE         0.0557
     91 H40        -4.2839    7.8218  -16.4868 H         1 PHE         0.0599
     92 H41        -4.6458    4.3783  -14.0140 H         1 PHE         0.0599
     93 H42        -5.6357    6.4112  -15.0071 H         1 PHE         0.0559
@<TRIPOS>BOND
     1    1    2 1  
     2    2    3 1  
     3    2    5 1  
     4    3    4 1  
     5    4    7 1  
     6    5    6 2  
     7    5   11 am 
     8    7    8 ar 
     9    7    9 ar 
    10    7   10 ar 
    11   11   12 1  
    12   12   13 1  
    13   12   15 1  
    14   13   14 2  
    15   13   19 am 
    16   15   16 1  
    17   16   17 1  
    18   16   18 1  
    19   19   20 1  
    20   20   21 1  
    21   20   23 1  
    22   21   22 2  
    23   21   28 am 
    24   23   24 1  
    25   24   25 1  
    26   25   26 ar 
    27   25   27 ar 
    28   28   29 1  
    29   29   30 1  
    30   29   32 1  
    31   30   31 2  
    32   30   34 am 
    33   32   33 1  
    34   34   35 1  
    35   35   36 1  
    36   35   38 1  
    37   36   37 2  
    38   36   40 am 
    39   38   39 1  
    40   40   41 1  
    41   41   42 1  
    42   41   44 1  
    43   42   43 ar 
    44   42   51 ar 
    45   44   45 1  
    46   45   46 ar 
    47   45   47 ar 
    48   46   48 ar 
    49   47   49 ar 
    50   48   50 ar 
    51   49   50 ar 
    52    1   52 1  
    53    1   53 1  
    54    1   54 1  
    55    2   55 1  
    56    3   56 1  
    57    3   57 1  
    58   11   58 1  
    59   12   59 1  
    60   15   60 1  
    61   15   61 1  
    62   16   62 1  
    63   17   63 1  
    64   17   64 1  
    65   17   65 1  
    66   18   66 1  
    67   18   67 1  
    68   18   68 1  
    69   19   69 1  
    70   20   70 1  
    71   23   71 1  
    72   23   72 1  
    73   24   73 1  
    74   24   74 1  
    75   28   75 1  
    76   29   76 1  
    77   32   77 1  
    78   32   78 1  
    79   33   79 1  
    80   34   80 1  
    81   35   81 1  
    82   38   82 1  
    83   38   83 1  
    84   39   84 1  
    85   40   85 1  
    86   41   86 1  
    87   44   87 1  
    88   44   88 1  
    89   46   89 1  
    90   47   90 1  
    91   48   91 1  
    92   49   92 1  
    93   50   93 1  
@<TRIPOS>SUBSTRUCTURE
     1 SEP         1

