3rdv_ligand
  -I-interpret- 

125127  0  0  0  0  0  0  0  0999 V2000
   16.6690  -21.4050  -14.4150 N   0  3  0  0  0
   15.5040  -22.2760  -14.3970 C   0  0  0  0  0
   14.2280  -21.5090  -14.7530 C   0  0  0  0  0
   14.2420  -20.2840  -14.8420 O   0  0  0  0  0
   15.3640  -22.9440  -13.0350 C   0  0  0  0  0
   14.3640  -24.0730  -13.0510 C   0  0  0  0  0
   14.5520  -25.0160  -13.8470 O   0  0  0  0  0
   13.3910  -24.0120  -12.2750 O   0  0  0  0  0
   13.1290  -22.2370  -14.9450 N   0  0  0  0  0
   11.9010  -21.6630  -15.5040 C   0  0  0  0  0
   11.3140  -20.4980  -14.7160 C   0  0  0  0  0
   10.7050  -19.6050  -15.2980 O   0  0  0  0  0
   10.8320  -22.7380  -15.6990 C   0  0  0  0  0
   11.1630  -23.5850  -16.7820 O   0  0  0  0  0
   11.4790  -20.5090  -13.3980 N   0  0  0  0  0
   10.9360  -19.4330  -12.5710 C   0  0  0  0  0
   11.4600  -18.0580  -12.9980 C   0  0  0  0  0
   10.8310  -17.0320  -12.7170 O   0  0  0  0  0
   11.2200  -19.6860  -11.0860 C   0  0  0  0  0
   12.6650  -19.5660  -10.7150 C   0  0  0  0  0
   13.6020  -20.5540  -10.7440 C   0  0  0  0  0
   13.3370  -18.3870  -10.2490 C   0  0  0  0  0
   14.8160  -20.0640  -10.3360 N   0  0  0  0  0
   14.6810  -18.7370  -10.0240 C   0  0  0  0  0
   12.9330  -17.0690  -10.0040 C   0  0  0  0  0
   15.6240  -17.8190   -9.5580 C   0  0  0  0  0
   13.8690  -16.1600   -9.5450 C   0  0  0  0  0
   15.1990  -16.5380   -9.3300 C   0  0  0  0  0
   12.5990  -18.0440  -13.6920 N   0  0  0  0  0
   13.2350  -16.7940  -14.1170 C   0  0  0  0  0
   12.7830  -16.3330  -15.4940 C   0  0  0  0  0
   13.2650  -15.3200  -16.0070 O   0  0  0  0  0
   14.7590  -16.9210  -14.0990 C   0  0  0  0  0
   15.3440  -17.0740  -12.7180 C   0  0  0  0  0
   16.8670  -17.0290  -12.7490 C   0  0  0  0  0
   17.4380  -18.1600  -13.5880 C   0  0  0  0  0
   18.8870  -18.3680  -13.3120 N   0  3  0  0  0
   11.8710  -17.0840  -16.1030 N   0  0  0  0  0
   11.2420  -16.6460  -17.3360 C   0  0  0  0  0
   10.5200  -15.3270  -17.0950 C   0  0  0  0  0
    9.8200  -15.1710  -16.0910 O   0  0  0  0  0
   10.2480  -17.7020  -17.8340 C   0  0  0  0  0
   10.9350  -18.9460  -18.3460 C   0  0  0  0  0
   12.1850  -18.9880  -18.3120 O   0  0  0  0  0
   10.2270  -19.8810  -18.7850 O   0  0  0  0  0
   10.6980  -14.3740  -18.0070 N   0  0  0  0  0
   10.0220  -13.0970  -17.8980 C   0  0  0  0  0
   10.6780  -12.1900  -16.8730 C   0  0  0  0  0
   10.0970  -11.1870  -16.4760 O   0  0  0  0  0
   11.8750  -12.5710  -16.4340 N   0  0  0  0  0
   12.6810  -11.7720  -15.5180 C   0  0  0  0  0
   13.9300  -11.2920  -16.2220 C   0  0  0  0  0
   14.3060  -11.8270  -17.2640 O   0  0  0  0  0
   13.1200  -12.6060  -14.3150 C   0  0  0  0  0
   11.8040  -13.0130  -13.1850 S   0  0  0  0  0
   14.5960  -10.3020  -15.6360 N   0  0  0  0  0
   15.8490   -9.8040  -16.1950 C   0  0  0  0  0
   16.9500   -9.8460  -15.1500 C   0  0  0  0  0
   16.6870  -10.0310  -13.9570 O   0  0  0  0  0
   15.6960   -8.3770  -16.7460 C   0  0  0  0  0
   14.8230   -8.2970  -17.9790 C   0  0  0  0  0
   15.3860   -8.2080  -19.2380 C   0  0  0  0  0
   13.4420   -8.3220  -17.8770 C   0  0  0  0  0
   14.5950   -8.1490  -20.3680 C   0  0  0  0  0
   12.6340   -8.2800  -19.0030 C   0  0  0  0  0
   13.2200   -8.1850  -20.2430 C   0  0  0  0  0
   12.4360   -8.1230  -21.3650 O   0  0  0  0  0
   18.1280   -9.6950  -15.4840 O   0  0  0  0  0
   16.7494  -20.9656  -15.3320 H   0  0  0  0  0
   16.5650  -20.6853  -13.6997 H   0  0  0  0  0
   17.5066  -21.9555  -14.2259 H   0  0  0  0  0
   15.6493  -23.0470  -15.1537 H   0  0  0  0  0
   15.0158  -22.1940  -12.3248 H   0  0  0  0  0
   16.3347  -23.3560  -12.7591 H   0  0  0  0  0
   15.3576  -24.8575  -14.3445 H   0  0  0  0  0
   13.1422  -23.2258  -14.6950 H   0  0  0  0  0
   12.2090  -21.2511  -16.4650 H   0  0  0  0  0
    9.8796  -22.2521  -15.9112 H   0  0  0  0  0
   10.7669  -23.3376  -14.7911 H   0  0  0  0  0
   10.4796  -24.2511  -16.8863 H   0  0  0  0  0
   11.9893  -21.2753  -12.9590 H   0  0  0  0  0
    9.8563  -19.4285  -12.7203 H   0  0  0  0  0
   10.9134  -20.7089  -10.8673 H   0  0  0  0  0
   10.6762  -18.9304  -10.5190 H   0  0  0  0  0
   13.4143  -21.5840  -11.0473 H   0  0  0  0  0
   11.8998  -16.7649  -10.1719 H   0  0  0  0  0
   16.6593  -18.1113   -9.3824 H   0  0  0  0  0
   13.5655  -15.1319   -9.3474 H   0  0  0  0  0
   15.9127  -15.7956   -8.9729 H   0  0  0  0  0
   13.0410  -18.9307  -13.9344 H   0  0  0  0  0
   12.9186  -16.0392  -13.3971 H   0  0  0  0  0
   15.1655  -16.0028  -14.5229 H   0  0  0  0  0
   15.0157  -17.8191  -14.6607 H   0  0  0  0  0
   15.0350  -18.0393  -12.3170 H   0  0  0  0  0
   14.9866  -16.2515  -12.0984 H   0  0  0  0  0
   17.2373  -17.1335  -11.7292 H   0  0  0  0  0
   17.1765  -16.0811  -13.1892 H   0  0  0  0  0
   17.3210  -17.9018  -14.6405 H   0  0  0  0  0
   16.9044  -19.0773  -13.3393 H   0  0  0  0  0
   19.2358  -19.1321  -13.8907 H   0  0  0  0  0
   19.3995  -17.5135  -13.5300 H   0  0  0  0  0
   19.0143  -18.6003  -12.3270 H   0  0  0  0  0
   11.6088  -17.9825  -15.6976 H   0  0  0  0  0
   12.0100  -16.5075  -18.0970 H   0  0  0  0  0
    9.6802  -17.2681  -18.6571 H   0  0  0  0  0
    9.6134  -17.9889  -16.9955 H   0  0  0  0  0
    9.3006  -19.6383  -18.7176 H   0  0  0  0  0
   11.3210  -14.5456  -18.7962 H   0  0  0  0  0
    8.9954  -13.2815  -17.5815 H   0  0  0  0  0
   10.0690  -12.6033  -18.8686 H   0  0  0  0  0
   12.2469  -13.4654  -16.7537 H   0  0  0  0  0
   12.0731  -10.9305  -15.1857 H   0  0  0  0  0
   13.8462  -12.0115  -13.7606 H   0  0  0  0  0
   13.5120  -13.5463  -14.7027 H   0  0  0  0  0
   12.2918  -13.7357  -12.1807 H   0  0  0  0  0
   14.2257   -9.8839  -14.7825 H   0  0  0  0  0
   16.1204  -10.4558  -17.0254 H   0  0  0  0  0
   15.7380  -10.1305  -13.8514 H   0  0  0  0  0
   16.6893   -8.0249  -17.0243 H   0  0  0  0  0
   15.2232   -7.7750  -15.9700 H   0  0  0  0  0
   16.4709   -8.1840  -19.3404 H   0  0  0  0  0
   12.9807   -8.3758  -16.8909 H   0  0  0  0  0
   15.0535   -8.0744  -21.3541 H   0  0  0  0  0
   11.5491   -8.3217  -18.9064 H   0  0  0  0  0
   11.5111   -8.1590  -21.1102 H   0  0  0  0  0
  1  2  1  0  0  0
  2  3  1  0  0  0
  2  5  1  0  0  0
  3  4  2  0  0  0
  3  9  1  0  0  0
  5  6  1  0  0  0
  6  7  1  0  0  0
  6  8  2  0  0  0
  9 10  1  0  0  0
 10 11  1  0  0  0
 10 13  1  0  0  0
 11 12  2  0  0  0
 11 15  1  0  0  0
 13 14  1  0  0  0
 15 16  1  0  0  0
 16 17  1  0  0  0
 16 19  1  0  0  0
 17 18  2  0  0  0
 17 29  1  0  0  0
 19 20  1  0  0  0
 20 21  4  0  0  0
 20 22  4  0  0  0
 21 23  4  0  0  0
 22 24  4  0  0  0
 22 25  4  0  0  0
 23 24  4  0  0  0
 24 26  4  0  0  0
 25 27  4  0  0  0
 26 28  4  0  0  0
 27 28  4  0  0  0
 29 30  1  0  0  0
 30 31  1  0  0  0
 30 33  1  0  0  0
 31 32  2  0  0  0
 31 38  1  0  0  0
 33 34  1  0  0  0
 34 35  1  0  0  0
 35 36  1  0  0  0
 36 37  1  0  0  0
 38 39  1  0  0  0
 39 40  1  0  0  0
 39 42  1  0  0  0
 40 41  2  0  0  0
 40 46  1  0  0  0
 42 43  1  0  0  0
 43 44  2  0  0  0
 43 45  1  0  0  0
 46 47  1  0  0  0
 47 48  1  0  0  0
 48 49  2  0  0  0
 48 50  1  0  0  0
 50 51  1  0  0  0
 51 52  1  0  0  0
 51 54  1  0  0  0
 52 53  2  0  0  0
 52 56  1  0  0  0
 54 55  1  0  0  0
 56 57  1  0  0  0
 57 58  1  0  0  0
 57 60  1  0  0  0
 58 59  1  0  0  0
 58 68  2  0  0  0
 60 61  1  0  0  0
 61 62  4  0  0  0
 61 63  4  0  0  0
 62 64  4  0  0  0
 63 65  4  0  0  0
 64 66  4  0  0  0
 65 66  4  0  0  0
 66 67  1  0  0  0
  1 69  1  0  0  0
  1 70  1  0  0  0
  1 71  1  0  0  0
  2 72  1  0  0  0
  5 73  1  0  0  0
  5 74  1  0  0  0
  7 75  1  0  0  0
  9 76  1  0  0  0
 10 77  1  0  0  0
 13 78  1  0  0  0
 13 79  1  0  0  0
 14 80  1  0  0  0
 15 81  1  0  0  0
 16 82  1  0  0  0
 19 83  1  0  0  0
 19 84  1  0  0  0
 21 85  1  0  0  0
 25 86  1  0  0  0
 26 87  1  0  0  0
 27 88  1  0  0  0
 28 89  1  0  0  0
 29 90  1  0  0  0
 30 91  1  0  0  0
 33 92  1  0  0  0
 33 93  1  0  0  0
 34 94  1  0  0  0
 34 95  1  0  0  0
 35 96  1  0  0  0
 35 97  1  0  0  0
 36 98  1  0  0  0
 36 99  1  0  0  0
 37100  1  0  0  0
 37101  1  0  0  0
 37102  1  0  0  0
 38103  1  0  0  0
 39104  1  0  0  0
 42105  1  0  0  0
 42106  1  0  0  0
 45107  1  0  0  0
 46108  1  0  0  0
 47109  1  0  0  0
 47110  1  0  0  0
 50111  1  0  0  0
 51112  1  0  0  0
 54113  1  0  0  0
 54114  1  0  0  0
 55115  1  0  0  0
 56116  1  0  0  0
 57117  1  0  0  0
 59118  1  0  0  0
 60119  1  0  0  0
 60120  1  0  0  0
 62121  1  0  0  0
 63122  1  0  0  0
 64123  1  0  0  0
 65124  1  0  0  0
 67125  1  0  0  0
M  END
$$$$
