1v7a_ligand
  -I-interpret- 

 46 48  0  0  0  0  0  0  0  0999 V2000
   50.7510   54.0540   21.0480 C   0  0  0  0  0
   50.8140   55.0020   22.1580 N   0  0  0  0  0
   50.6630   54.3300   23.3010 C   0  0  0  0  0
   50.6320   53.0020   23.0840 N   0  0  0  0  0
   50.5470   52.8540   21.6130 C   0  0  0  0  0
   50.2530   51.5860   20.8930 C   0  0  0  0  0
   50.1320   51.5300   19.6800 O   0  0  0  0  0
   50.1500   50.4890   21.6260 N   0  0  0  0  0
   50.9040   56.4390   22.0460 C   0  0  0  0  0
   52.3720   56.9050   21.8960 C   0  0  0  0  0
   53.2270   56.6770   23.0760 O   0  0  0  0  0
   49.9540   56.9960   20.9920 C   0  0  0  0  0
   48.5270   57.0650   21.5700 C   0  0  0  0  0
   52.9090   56.4890   20.4960 C   0  0  0  0  0
   47.6000   57.5200   20.6120 O   0  0  0  0  0
   46.8830   53.2500   15.8850 C   0  0  0  0  0
   46.5800   54.6160   15.9670 C   0  0  0  0  0
   46.9250   55.3240   17.1240 C   0  0  0  0  0
   47.4710   54.6410   18.2340 C   0  0  0  0  0
   47.7820   53.2780   18.1290 C   0  0  0  0  0
   47.4660   52.5760   16.9620 C   0  0  0  0  0
   46.5850   56.6800   17.2070 C   0  0  0  0  0
   46.8560   57.3520   18.4000 C   0  0  0  0  0
   47.4160   56.7040   19.5080 C   0  0  0  0  0
   47.7540   55.3330   19.4230 C   0  0  0  0  0
   50.8490   54.2749   19.9851 H   0  0  0  0  0
   50.5761   54.7959   24.2826 H   0  0  0  0  0
   49.9686   49.5911   21.1774 H   0  0  0  0  0
   50.2520   50.5414   22.6395 H   0  0  0  0  0
   50.5568   56.8725   22.9839 H   0  0  0  0  0
   52.4079   57.9944   21.9001 H   0  0  0  0  0
   54.1142   56.9949   22.8932 H   0  0  0  0  0
   49.9603   56.3453   20.1176 H   0  0  0  0  0
   50.2777   57.9962   20.7040 H   0  0  0  0  0
   48.5281   57.7637   22.4066 H   0  0  0  0  0
   48.2340   56.0630   21.8835 H   0  0  0  0  0
   52.8599   55.4046   20.3969 H   0  0  0  0  0
   52.2990   56.9539   19.7215 H   0  0  0  0  0
   53.9430   56.8181   20.3924 H   0  0  0  0  0
   46.6607   52.7050   14.9676 H   0  0  0  0  0
   46.0816   55.1209   15.1395 H   0  0  0  0  0
   48.2704   52.7653   18.9577 H   0  0  0  0  0
   47.6732   51.5082   16.8923 H   0  0  0  0  0
   46.1226   57.1953   16.3651 H   0  0  0  0  0
   46.6244   58.4147   18.4715 H   0  0  0  0  0
   48.2248   54.8236   20.2638 H   0  0  0  0  0
  2  1  4  0  0  0
  1  5  4  0  0  0
  2  3  4  0  0  0
  9  2  1  0  0  0
  3  4  4  0  0  0
  4  5  4  0  0  0
  5  6  1  0  0  0
  6  7  2  0  0  0
  6  8  1  0  0  0
  9 10  1  0  0  0
 12  9  1  0  0  0
 10 11  1  0  0  0
 10 14  1  0  0  0
 13 12  1  0  0  0
 15 13  1  0  0  0
 24 15  1  0  0  0
 17 16  4  0  0  0
 16 21  4  0  0  0
 18 17  4  0  0  0
 18 19  4  0  0  0
 22 18  4  0  0  0
 19 20  4  0  0  0
 19 25  4  0  0  0
 20 21  4  0  0  0
 23 22  4  0  0  0
 23 24  4  0  0  0
 24 25  4  0  0  0
  1 26  1  0  0  0
  3 27  1  0  0  0
  8 28  1  0  0  0
  8 29  1  0  0  0
  9 30  1  0  0  0
 10 31  1  0  0  0
 11 32  1  0  0  0
 12 33  1  0  0  0
 12 34  1  0  0  0
 13 35  1  0  0  0
 13 36  1  0  0  0
 14 37  1  0  0  0
 14 38  1  0  0  0
 14 39  1  0  0  0
 16 40  1  0  0  0
 17 41  1  0  0  0
 20 42  1  0  0  0
 21 43  1  0  0  0
 22 44  1  0  0  0
 23 45  1  0  0  0
 25 46  1  0  0  0
M  END
$$$$
