1utt_ligand
  -I-interpret- 

 46 49  0  0  0  0  0  0  0  0999 V2000
  120.0250   37.5110   80.3020 C   0  0  0  0  0
  119.6350   36.7030   79.1170 C   0  0  0  0  0
  120.5530   38.7440   79.9670 N   0  0  0  0  0
  119.8420   36.9650   81.5940 C   0  0  0  0  0
  119.0800   35.4200   79.2710 C   0  0  0  0  0
  119.9280   37.4420   77.8680 C   0  0  0  0  0
  121.0080   38.7540   78.3900 S   0  0  0  0  0
  121.0470   39.6920   80.9670 C   0  0  0  0  0
  119.2800   35.6620   81.7290 C   0  0  0  0  0
  118.8950   34.8820   80.5830 C   0  0  0  0  0
  120.6250   40.0090   77.8130 O   0  0  0  0  0
  122.3760   38.3450   78.3490 O   0  0  0  0  0
  118.2820   33.5010   80.7450 C   0  0  0  0  0
  119.2570   32.3960   80.2780 C   0  0  0  0  0
  117.9630   33.2610   82.1120 O   0  0  0  0  0
  118.8740   31.0270   80.7130 N   0  0  0  0  0
  117.3400   32.0110   82.4280 C   0  0  0  0  0
  119.5210   29.8940   80.0020 C   0  0  0  0  0
  117.9660   30.7770   81.7390 C   0  0  0  0  0
  118.6200   29.1080   79.0530 C   0  0  0  0  0
  117.6500   29.6550   82.1070 O   0  0  0  0  0
  117.4080   29.6540   78.5350 C   0  0  0  0  0
  118.9880   27.7930   78.6660 C   0  0  0  0  0
  116.5880   28.8980   77.6580 C   0  0  0  0  0
  118.1720   27.0370   77.7890 C   0  0  0  0  0
  116.9710   27.5900   77.2850 C   0  0  0  0  0
  120.1280   37.5352   82.4779 H   0  0  0  0  0
  118.7924   34.8387   78.3949 H   0  0  0  0  0
  119.0243   37.8166   77.3872 H   0  0  0  0  0
  120.3852   36.8070   77.1091 H   0  0  0  0  0
  122.1305   39.6031   81.0460 H   0  0  0  0  0
  120.7854   40.7061   80.6649 H   0  0  0  0  0
  120.5917   39.4702   81.9322 H   0  0  0  0  0
  119.1383   35.2458   82.7264 H   0  0  0  0  0
  117.3811   33.4727   80.1320 H   0  0  0  0  0
  120.2291   32.6152   80.7198 H   0  0  0  0  0
  119.2532   32.4015   79.1880 H   0  0  0  0  0
  116.3089   32.0764   82.0805 H   0  0  0  0  0
  117.4554   31.8643   83.5019 H   0  0  0  0  0
  119.8469   29.1928   80.7703 H   0  0  0  0  0
  120.3130   30.3253   79.3898 H   0  0  0  0  0
  117.1085   30.6636   78.8162 H   0  0  0  0  0
  119.9115   27.3587   79.0490 H   0  0  0  0  0
  115.6628   29.3261   77.2721 H   0  0  0  0  0
  118.4695   26.0284   77.5021 H   0  0  0  0  0
  116.3427   27.0083   76.6105 H   0  0  0  0  0
  1  2  4  0  0  0
  1  3  1  0  0  0
  1  4  4  0  0  0
  2  5  4  0  0  0
  2  6  1  0  0  0
  3  7  1  0  0  0
  3  8  1  0  0  0
  4  9  4  0  0  0
  5 10  4  0  0  0
  6  7  1  0  0  0
  7 11  2  0  0  0
  7 12  2  0  0  0
  9 10  4  0  0  0
 10 13  1  0  0  0
 13 14  1  0  0  0
 13 15  1  0  0  0
 14 16  1  0  0  0
 15 17  1  0  0  0
 16 18  1  0  0  0
 16 19  1  0  0  0
 17 19  1  0  0  0
 18 20  1  0  0  0
 19 21  2  0  0  0
 20 22  4  0  0  0
 20 23  4  0  0  0
 22 24  4  0  0  0
 23 25  4  0  0  0
 24 26  4  0  0  0
 25 26  4  0  0  0
  4 27  1  0  0  0
  5 28  1  0  0  0
  6 29  1  0  0  0
  6 30  1  0  0  0
  8 31  1  0  0  0
  8 32  1  0  0  0
  8 33  1  0  0  0
  9 34  1  0  0  0
 13 35  1  0  0  0
 14 36  1  0  0  0
 14 37  1  0  0  0
 17 38  1  0  0  0
 17 39  1  0  0  0
 18 40  1  0  0  0
 18 41  1  0  0  0
 22 42  1  0  0  0
 23 43  1  0  0  0
 24 44  1  0  0  0
 25 45  1  0  0  0
 26 46  1  0  0  0
M  END
$$$$
