1bnn_ligand
  -I-interpret- 

 37 39  0  0  0  0  0  0  0  0999 V2000
   -5.1960    2.0290   15.9090 C   0  0  0  0  0
   -2.6490    4.8220   13.0050 C   0  0  0  0  0
   -2.3760    3.7780   14.0760 C   0  0  0  0  0
   -2.4870    9.1280   12.4120 C   0  0  0  0  0
   -1.8940    9.6180   13.5640 C   0  0  0  0  0
   -1.8870    8.8140   14.7220 C   0  0  0  0  0
   -2.4470    7.5520   14.7580 C   0  0  0  0  0
   -0.7180   10.5010   15.8270 C   0  0  0  0  0
   -5.5050   -0.6380   16.3660 N   0  0  0  0  0
   -5.8570    0.7240   16.8220 S   0  0  0  0  0
   -5.2790    0.8820   18.1040 O   0  0  0  0  0
   -7.2380    0.9340   16.6990 O   0  0  0  0  0
   -6.1660    3.3910   15.5220 S   0  0  0  0  0
   -4.8230    4.0290   14.7000 C   0  0  0  0  0
   -3.6450    3.2420   14.7300 C   0  0  0  0  0
   -3.8970    2.0820   15.4310 C   0  0  0  0  0
   -3.4920    5.8510   13.5870 N   0  0  0  0  0
   -4.9490    5.5190   13.8560 S   0  0  0  0  0
   -5.7560    5.1940   12.6450 O   0  0  0  0  0
   -5.7520    6.5720   14.5300 O   0  0  0  0  0
   -3.0190    7.1020   13.5910 C   0  0  0  0  0
   -3.0580    7.8580   12.4180 C   0  0  0  0  0
   -1.3400    9.1940   15.8370 O   0  0  0  0  0
   -3.1483    4.3642   12.1510 H   0  0  0  0  0
   -1.7126    5.2558   12.6542 H   0  0  0  0  0
   -1.8710    2.9386   13.5979 H   0  0  0  0  0
   -1.7782    4.2520   14.8545 H   0  0  0  0  0
   -2.5065    9.7333   11.5057 H   0  0  0  0  0
   -1.4402   10.6090   13.5750 H   0  0  0  0  0
   -2.4362    6.9449   15.6632 H   0  0  0  0  0
    0.0749   10.5189   15.0792 H   0  0  0  0  0
   -1.4657   11.2559   15.5838 H   0  0  0  0  0
   -0.2964   10.7089   16.8104 H   0  0  0  0  0
   -6.2332   -1.2661   16.0260 H   0  0  0  0  0
   -4.5340   -0.9493   16.3915 H   0  0  0  0  0
   -3.1585    1.2964   15.5908 H   0  0  0  0  0
   -3.5289    7.4596   11.5193 H   0  0  0  0  0
  1 16  4  0  0  0
  1 13  4  0  0  0
  1 10  1  0  0  0
 10  9  1  0  0  0
 10 12  2  0  0  0
 10 11  2  0  0  0
 13 14  4  0  0  0
 14 18  1  0  0  0
 14 15  4  0  0  0
 15 16  4  0  0  0
 15  3  1  0  0  0
  3  2  1  0  0  0
  2 17  1  0  0  0
 17 18  1  0  0  0
 17 21  1  0  0  0
 21  7  4  0  0  0
 21 22  4  0  0  0
 22  4  4  0  0  0
  4  5  4  0  0  0
  5  6  4  0  0  0
  6 23  1  0  0  0
  6  7  4  0  0  0
 23  8  1  0  0  0
 18 20  2  0  0  0
 18 19  2  0  0  0
  2 24  1  0  0  0
  2 25  1  0  0  0
  3 26  1  0  0  0
  3 27  1  0  0  0
  4 28  1  0  0  0
  5 29  1  0  0  0
  7 30  1  0  0  0
  8 31  1  0  0  0
  8 32  1  0  0  0
  8 33  1  0  0  0
  9 34  1  0  0  0
  9 35  1  0  0  0
 16 36  1  0  0  0
 22 37  1  0  0  0
M  END
$$$$
