2f9v_ligand
  -I-interpret- 

102105  0  0  0  0  0  0  0  0999 V2000
  191.1850  -10.7460   48.6260 C   0  0  0  0  0
  191.8470  -11.6030   49.2300 O   0  0  0  0  0
  189.7790  -10.7020   48.5180 O   0  0  0  0  0
  188.8650  -11.4700   49.3690 C   0  0  0  0  0
  188.1080  -10.7420   50.4920 C   0  0  0  0  0
  187.6970   -9.3360   50.1170 C   0  0  0  0  0
  188.8670  -10.7660   51.8050 C   0  0  0  0  0
  191.7560   -9.7500   47.9440 N   0  0  0  0  0
  193.2010   -9.5480   47.9140 C   0  0  0  0  0
  193.5820   -8.6330   46.7290 C   0  0  0  0  0
  195.0740   -8.2760   46.7530 C   0  0  0  0  0
  193.2910   -9.3330   45.3950 C   0  0  0  0  0
  195.5050   -7.4270   45.5500 C   0  0  0  0  0
  193.6930   -8.5140   44.1670 C   0  0  0  0  0
  195.1690   -8.1340   44.2290 C   0  0  0  0  0
  193.5440   -8.8590   49.2310 C   0  0  0  0  0
  193.0750   -7.7410   49.4750 O   0  0  0  0  0
  194.3110   -9.5390   50.0860 N   0  0  0  0  0
  195.6560   -7.8540   50.9680 C   0  0  0  0  0
  196.5970   -8.0290   50.1850 O   0  0  0  0  0
  194.6860   -9.4710   52.5600 C   0  0  0  0  0
  194.0250  -10.8450   52.4970 C   0  0  0  0  0
  192.6290  -10.9680   53.0930 C   0  0  0  0  0
  193.8340  -11.6080   53.8140 C   0  0  0  0  0
  195.4590   -6.7080   51.6160 N   0  0  0  0  0
  196.0800   -5.4670   51.1630 C   0  0  0  0  0
  195.0320   -4.5310   50.5370 C   0  0  0  0  0
  195.0980   -4.7140   49.0250 C   0  0  0  0  0
  194.4740   -3.6740   48.0970 C   0  0  0  0  0
  193.7640   -5.0150   48.3360 C   0  0  0  0  0
  197.5990   -5.7530   53.0680 O   0  0  0  0  0
  196.8430   -4.7410   52.3070 C   0  0  0  0  0
  197.6760   -2.8170   51.0880 O   0  0  0  0  0
  200.7800   -3.8450   49.8770 C   0  0  0  0  0
  202.0880   -3.6700   49.7050 N   0  0  0  0  0
  202.7290   -3.6380   48.3970 C   0  0  0  0  0
  202.4820   -2.3110   47.6110 C   0  0  0  0  0
  202.5640   -1.0190   48.2290 C   0  0  0  0  0
  202.1880   -2.3600   46.2420 C   0  0  0  0  0
  202.3760    0.1720   47.5100 C   0  0  0  0  0
  201.9960   -1.1620   45.5150 C   0  0  0  0  0
  202.0860    0.0900   46.1490 C   0  0  0  0  0
  204.2280   -3.8730   48.6180 C   0  0  0  0  0
  204.7710   -3.4810   49.6640 O   0  0  0  0  0
  204.8900   -4.4520   47.7580 O   0  0  0  0  0
  194.7740   -8.8290   51.2420 N   0  0  0  0  0
  199.0790   -4.5290   51.4640 N   0  0  0  0  0
  200.3400   -3.8280   51.3220 C   0  0  0  0  0
  199.9770   -4.0030   48.9440 O   0  0  0  0  0
  197.9010   -3.9220   51.5600 C   0  0  0  0  0
  189.4982  -12.1953   49.8801 H   0  0  0  0  0
  188.0889  -11.8318   48.6945 H   0  0  0  0  0
  187.1861  -11.3054   50.6361 H   0  0  0  0  0
  187.0539   -8.9268   50.8962 H   0  0  0  0  0
  188.5863   -8.7141   50.0143 H   0  0  0  0  0
  187.1556   -9.3571   49.1712 H   0  0  0  0  0
  189.7652  -10.1551   51.7152 H   0  0  0  0  0
  188.2329  -10.3678   52.5971 H   0  0  0  0  0
  189.1464  -11.7924   52.0430 H   0  0  0  0  0
  191.1596   -9.1060   47.4244 H   0  0  0  0  0
  193.7394  -10.4880   47.7927 H   0  0  0  0  0
  192.9857   -7.7257   46.8255 H   0  0  0  0  0
  195.6394   -9.2074   46.7225 H   0  0  0  0  0
  195.2623   -7.6942   47.6553 H   0  0  0  0  0
  192.2143   -9.4934   45.3403 H   0  0  0  0  0
  193.8746  -10.2534   45.3770 H   0  0  0  0  0
  196.5828   -7.2721   45.5995 H   0  0  0  0  0
  194.9719   -6.4768   45.5836 H   0  0  0  0  0
  193.0961   -7.6023   44.1417 H   0  0  0  0  0
  193.5217   -9.1137   43.2731 H   0  0  0  0  0
  195.7658   -9.0435   44.1594 H   0  0  0  0  0
  195.3884   -7.4549   43.4052 H   0  0  0  0  0
  194.5557  -10.5160   49.9247 H   0  0  0  0  0
  195.6996   -9.6022   52.9388 H   0  0  0  0  0
  194.0792   -8.8349   53.2044 H   0  0  0  0  0
  194.4780  -11.0850   51.5351 H   0  0  0  0  0
  191.6254  -11.2479   52.7727 H   0  0  0  0  0
  191.7823  -10.3241   53.3306 H   0  0  0  0  0
  194.2693  -11.6482   54.8125 H   0  0  0  0  0
  194.1141  -12.5620   54.2606 H   0  0  0  0  0
  194.8634   -6.6968   52.4440 H   0  0  0  0  0
  196.8132   -5.7351   50.4023 H   0  0  0  0  0
  195.2385   -3.4948   50.8046 H   0  0  0  0  0
  194.0357   -4.7732   50.9069 H   0  0  0  0  0
  196.0884   -5.1665   49.0743 H   0  0  0  0  0
  194.7704   -3.0438   47.2585 H   0  0  0  0  0
  194.2361   -2.6103   48.1036 H   0  0  0  0  0
  192.7712   -5.3820   48.5964 H   0  0  0  0  0
  193.3034   -5.8138   47.7547 H   0  0  0  0  0
  198.0781   -5.3239   53.7806 H   0  0  0  0  0
  196.1844   -4.1691   52.9607 H   0  0  0  0  0
  202.6726   -3.5521   50.5325 H   0  0  0  0  0
  202.2902   -4.4176   47.7743 H   0  0  0  0  0
  202.7802   -0.9599   49.2957 H   0  0  0  0  0
  202.1071   -3.3224   45.7366 H   0  0  0  0  0
  202.4551    1.1398   48.0052 H   0  0  0  0  0
  201.7752   -1.2099   44.4487 H   0  0  0  0  0
  201.9281    1.0017   45.5728 H   0  0  0  0  0
  204.1171   -3.0534   50.2219 H   0  0  0  0  0
  199.0972   -5.5485   51.4919 H   0  0  0  0  0
  200.2149   -2.7951   51.6469 H   0  0  0  0  0
  201.0957   -4.3216   51.9330 H   0  0  0  0  0
  1  2  2  0  0  0
  1  3  1  0  0  0
  8  1  1  0  0  0
  3  4  1  0  0  0
  4  5  1  0  0  0
  5  6  1  0  0  0
  5  7  1  0  0  0
  9  8  1  0  0  0
  9 10  1  0  0  0
 16  9  1  0  0  0
 10 11  1  0  0  0
 10 12  1  0  0  0
 11 13  1  0  0  0
 12 14  1  0  0  0
 13 15  1  0  0  0
 14 15  1  0  0  0
 16 17  2  0  0  0
 18 16  1  0  0  0
 46 18  1  0  0  0
 19 20  2  0  0  0
 25 19  1  0  0  0
 19 46  1  0  0  0
 21 22  1  0  0  0
 46 21  1  0  0  0
 22 23  1  0  0  0
 22 24  1  0  0  0
 24 23  1  0  0  0
 26 25  1  0  0  0
 26 27  1  0  0  0
 32 26  1  0  0  0
 27 28  1  0  0  0
 28 29  1  0  0  0
 28 30  1  0  0  0
 30 29  1  0  0  0
 32 31  1  0  0  0
 50 32  1  0  0  0
 50 33  2  0  0  0
 34 35  1  0  0  0
 48 34  1  0  0  0
 34 49  2  0  0  0
 35 36  1  0  0  0
 36 37  1  0  0  0
 36 43  1  0  0  0
 37 38  4  0  0  0
 37 39  4  0  0  0
 38 40  4  0  0  0
 39 41  4  0  0  0
 40 42  4  0  0  0
 41 42  4  0  0  0
 43 44  1  0  0  0
 43 45  2  0  0  0
 47 48  1  0  0  0
 47 50  1  0  0  0
  4 51  1  0  0  0
  4 52  1  0  0  0
  5 53  1  0  0  0
  6 54  1  0  0  0
  6 55  1  0  0  0
  6 56  1  0  0  0
  7 57  1  0  0  0
  7 58  1  0  0  0
  7 59  1  0  0  0
  8 60  1  0  0  0
  9 61  1  0  0  0
 10 62  1  0  0  0
 11 63  1  0  0  0
 11 64  1  0  0  0
 12 65  1  0  0  0
 12 66  1  0  0  0
 13 67  1  0  0  0
 13 68  1  0  0  0
 14 69  1  0  0  0
 14 70  1  0  0  0
 15 71  1  0  0  0
 15 72  1  0  0  0
 18 73  1  0  0  0
 21 74  1  0  0  0
 21 75  1  0  0  0
 22 76  1  0  0  0
 23 77  1  0  0  0
 23 78  1  0  0  0
 24 79  1  0  0  0
 24 80  1  0  0  0
 25 81  1  0  0  0
 26 82  1  0  0  0
 27 83  1  0  0  0
 27 84  1  0  0  0
 28 85  1  0  0  0
 29 86  1  0  0  0
 29 87  1  0  0  0
 30 88  1  0  0  0
 30 89  1  0  0  0
 31 90  1  0  0  0
 32 91  1  0  0  0
 35 92  1  0  0  0
 36 93  1  0  0  0
 38 94  1  0  0  0
 39 95  1  0  0  0
 40 96  1  0  0  0
 41 97  1  0  0  0
 42 98  1  0  0  0
 44 99  1  0  0  0
 47100  1  0  0  0
 48101  1  0  0  0
 48102  1  0  0  0
M  END
$$$$
