3lq2_ligand
  -I-interpret- 

 45 46  0  0  0  0  0  0  0  0999 V2000
   24.3550  -59.6140    1.5870 N   0  0  0  0  0
   24.1320  -58.7230    0.5550 C   0  0  0  0  0
   24.2420  -57.2720    0.8740 C   0  0  0  0  0
   23.8250  -59.1140   -0.6860 N   0  0  0  0  0
   23.7250  -60.4800   -0.9610 C   0  0  0  0  0
   23.4320  -60.8050   -2.2050 N   0  0  0  0  0
   23.9560  -61.4690    0.1180 C   0  0  0  0  0
   24.2660  -60.9720    1.3620 C   0  0  0  0  0
   23.8830  -62.9680   -0.0770 C   0  0  0  0  0
   22.4710  -63.5100   -0.0770 N   0  3  0  0  0
   21.7440  -63.6370   -1.1720 C   0  0  0  0  0
   20.2410  -64.2950   -0.8810 S   0  0  0  0  0
   20.5630  -64.4230    0.8080 C   0  0  0  0  0
   21.8180  -63.9540    1.0950 C   0  0  0  0  0
   22.4860  -63.8830    2.4390 C   0  0  0  0  0
   19.5490  -64.9870    1.7590 C   0  0  0  0  0
   18.1780  -65.1000    1.1420 C   0  0  0  0  0
   17.1940  -64.8800    2.1940 O   0  0  0  0  0
   15.9390  -63.8730    2.0090 P   0  0  0  0  0
   15.2310  -64.3730    0.6470 O   0  0  0  0  0
   15.0010  -64.1030    3.1330 O   0  0  0  0  0
   16.4580  -62.4920    1.7820 O   0  0  0  0  0
   14.6880  -65.7750    0.0690 P   0  0  0  0  0
   13.2930  -65.4720   -0.5610 O   0  0  0  0  0
   15.6240  -66.1910   -1.0090 O   0  0  0  0  0
   14.5090  -66.7050    1.2200 O   0  0  0  0  0
   23.5152  -57.0146    1.6445 H   0  0  0  0  0
   25.2477  -57.0558    1.2346 H   0  0  0  0  0
   24.0433  -56.6877   -0.0244 H   0  0  0  0  0
   23.2923  -60.0749   -2.9035 H   0  0  0  0  0
   23.3450  -61.7865   -2.4687 H   0  0  0  0  0
   24.4447  -61.6637    2.1853 H   0  0  0  0  0
   24.4115  -63.4322    0.7557 H   0  0  0  0  0
   24.3196  -63.1928   -1.0501 H   0  0  0  0  0
   22.0907  -63.3423   -2.1625 H   0  0  0  0  0
   23.3992  -64.4778    2.4213 H   0  0  0  0  0
   22.7309  -62.8457    2.6672 H   0  0  0  0  0
   21.8108  -64.2742    3.2000 H   0  0  0  0  0
   19.4786  -64.3138    2.6133 H   0  0  0  0  0
   19.8739  -65.9883    2.0417 H   0  0  0  0  0
   18.0433  -66.0870    0.6995 H   0  0  0  0  0
   18.0575  -64.3593    0.3515 H   0  0  0  0  0
   17.0500  -62.4940    1.0263 H   0  0  0  0  0
   12.6830  -65.2026    0.1296 H   0  0  0  0  0
   13.8850  -66.3252    1.8428 H   0  0  0  0  0
  1  2  4  0  0  0
  1  8  4  0  0  0
  2  3  1  0  0  0
  2  4  4  0  0  0
  4  5  4  0  0  0
  5  6  1  0  0  0
  5  7  4  0  0  0
  7  8  4  0  0  0
  7  9  1  0  0  0
  9 10  1  0  0  0
 10 11  4  0  0  0
 10 14  4  0  0  0
 11 12  4  0  0  0
 12 13  4  0  0  0
 13 14  4  0  0  0
 13 16  1  0  0  0
 14 15  1  0  0  0
 16 17  1  0  0  0
 17 18  1  0  0  0
 18 19  1  0  0  0
 19 20  1  0  0  0
 19 21  2  0  0  0
 19 22  1  0  0  0
 20 23  1  0  0  0
 23 24  1  0  0  0
 23 25  2  0  0  0
 23 26  1  0  0  0
  3 27  1  0  0  0
  3 28  1  0  0  0
  3 29  1  0  0  0
  6 30  1  0  0  0
  6 31  1  0  0  0
  8 32  1  0  0  0
  9 33  1  0  0  0
  9 34  1  0  0  0
 11 35  1  0  0  0
 15 36  1  0  0  0
 15 37  1  0  0  0
 15 38  1  0  0  0
 16 39  1  0  0  0
 16 40  1  0  0  0
 17 41  1  0  0  0
 17 42  1  0  0  0
 22 43  1  0  0  0
 24 44  1  0  0  0
 26 45  1  0  0  0
M  END
$$$$
