4mji_ligand
  -I-interpret- 

125126  0  0  0  0  0  0  0  0999 V2000
   52.6860    6.0000 -148.1890 N   0  3  0  0  0
   51.8390    4.7910 -148.1090 C   0  0  0  0  0
   50.3770    5.1840 -147.8740 C   0  0  0  0  0
   50.0480    6.3590 -147.8270 O   0  0  0  0  0
   52.3420    3.8340 -147.0110 C   0  0  0  0  0
   52.0900    4.4060 -145.7250 O   0  0  0  0  0
   53.8370    3.5780 -147.1510 C   0  0  0  0  0
   49.5070    4.1970 -147.7310 N   0  0  0  0  0
   48.0760    4.4520 -147.6540 C   0  0  0  0  0
   47.5790    4.8960 -146.2770 C   0  0  0  0  0
   48.1230    4.4940 -145.2440 O   0  0  0  0  0
   47.3080    3.2180 -148.0930 C   0  0  0  0  0
   46.5170    5.6950 -146.2860 N   0  0  0  0  0
   45.8080    6.1130 -145.0920 C   0  0  0  0  0
   45.1050    4.9720 -144.3910 C   0  0  0  0  0
   44.6540    4.0370 -145.0570 O   0  0  0  0  0
   44.7450    7.0880 -145.5150 C   0  0  0  0  0
   44.0720    7.7870 -144.3830 C   0  0  0  0  0
   44.8030    8.5740 -143.5000 C   0  0  0  0  0
   42.7030    7.6970 -144.2270 C   0  0  0  0  0
   44.1790    9.2360 -142.4630 C   0  0  0  0  0
   42.0770    8.3690 -143.2040 C   0  0  0  0  0
   42.8160    9.1410 -142.3210 C   0  0  0  0  0
   45.0030    5.0570 -143.0530 N   0  0  0  0  0
   44.1400    4.1400 -142.2570 C   0  0  0  0  0
   42.9020    4.8530 -141.7520 C   0  0  0  0  0
   43.0170    5.8950 -141.1120 O   0  0  0  0  0
   44.8560    3.5250 -141.0640 C   0  0  0  0  0
   46.1310    3.0290 -141.4840 O   0  0  0  0  0
   44.0370    2.3900 -140.5300 C   0  0  0  0  0
   41.7240    4.3180 -142.0580 N   0  0  0  0  0
   40.5140    5.1110 -141.8850 C   0  0  0  0  0
   39.8980    4.9890 -140.5100 C   0  0  0  0  0
   40.0510    3.9520 -139.8410 O   0  0  0  0  0
   39.4350    4.9030 -142.9930 C   0  0  0  0  0
   39.0370    3.4350 -143.1740 C   0  0  0  0  0
   39.8930    5.5400 -144.2940 C   0  0  0  0  0
   37.6590    3.1020 -142.6510 C   0  0  0  0  0
   39.1760    6.0420 -140.0990 N   0  0  0  0  0
   38.4490    6.1400 -138.8490 C   0  0  0  0  0
   37.2650    5.2150 -138.8930 C   0  0  0  0  0
   36.8760    4.8020 -139.9700 O   0  0  0  0  0
   37.9250    7.5730 -138.8850 C   0  0  0  0  0
   37.7330    7.8480 -140.3390 C   0  0  0  0  0
   38.9390    7.2180 -140.9520 C   0  0  0  0  0
   36.6630    4.9130 -137.7550 N   0  0  0  0  0
   35.4100    4.1900 -137.8040 C   0  0  0  0  0
   34.2390    5.1450 -137.9420 C   0  0  0  0  0
   34.3750    6.3620 -137.7610 O   0  0  0  0  0
   35.2330    3.3160 -136.5790 C   0  0  0  0  0
   35.3880    4.0980 -135.4160 O   0  0  0  0  0
   33.0900    4.5470 -138.2510 N   0  0  0  0  0
   31.7570    5.1880 -138.4530 C   0  0  0  0  0
   31.3780    5.3380 -139.9430 C   0  0  0  0  0
   30.4740    4.6260 -140.4150 O   0  0  0  0  0
   31.5030    6.4530 -137.5690 C   0  0  0  0  0
   31.2650    6.0270 -136.1170 C   0  0  0  0  0
   30.2730    7.2030 -138.0230 C   0  0  0  0  0
   32.5230    5.8040 -135.2860 C   0  0  0  0  0
   31.9640    6.1290 -140.6950 O   0  0  0  0  0
   52.3313    6.6143 -148.9219 H   0  0  0  0  0
   52.6642    6.4887 -147.2940 H   0  0  0  0  0
   53.6448    5.7282 -148.4061 H   0  0  0  0  0
   51.9033    4.2606 -149.0590 H   0  0  0  0  0
   51.8110    2.8879 -147.1163 H   0  0  0  0  0
   51.1492    4.5708 -145.6281 H   0  0  0  0  0
   54.3764    4.5202 -147.0534 H   0  0  0  0  0
   54.1611    2.8898 -146.3704 H   0  0  0  0  0
   54.0396    3.1415 -148.1290 H   0  0  0  0  0
   49.8466    3.2369 -147.6735 H   0  0  0  0  0
   47.8927    5.2911 -148.3252 H   0  0  0  0  0
   47.5755    2.9716 -149.1205 H   0  0  0  0  0
   47.5610    2.3827 -147.4400 H   0  0  0  0  0
   46.2380    3.4169 -148.0325 H   0  0  0  0  0
   46.1804    6.0347 -147.1869 H   0  0  0  0  0
   46.5405    6.5356 -144.4043 H   0  0  0  0  0
   43.9792    6.5200 -146.0433 H   0  0  0  0  0
   45.2319    7.8520 -146.1210 H   0  0  0  0  0
   45.8812    8.6689 -143.6286 H   0  0  0  0  0
   42.1165    7.0909 -144.9175 H   0  0  0  0  0
   44.7636    9.8305 -141.7609 H   0  0  0  0  0
   40.9959    8.2945 -143.0868 H   0  0  0  0  0
   42.3147    9.6735 -141.5127 H   0  0  0  0  0
   45.5365    5.7763 -142.5647 H   0  0  0  0  0
   43.8661    3.3383 -142.9428 H   0  0  0  0  0
   44.9921    4.2782 -140.2879 H   0  0  0  0  0
   46.5851    2.6402 -140.7328 H   0  0  0  0  0
   43.0609    2.7626 -140.2195 H   0  0  0  0  0
   43.9094    1.6379 -141.3086 H   0  0  0  0  0
   44.5469    1.9466 -139.6748 H   0  0  0  0  0
   41.6679    3.3624 -142.4102 H   0  0  0  0  0
   40.8760    6.1333 -141.9940 H   0  0  0  0  0
   38.5256    5.4064 -142.6649 H   0  0  0  0  0
   39.7505    2.8349 -142.6094 H   0  0  0  0  0
   39.0342    3.2307 -144.2447 H   0  0  0  0  0
   40.0469    6.6080 -144.1397 H   0  0  0  0  0
   40.8278    5.0793 -144.6133 H   0  0  0  0  0
   39.1317    5.3881 -145.0592 H   0  0  0  0  0
   37.6148    3.3184 -141.5836 H   0  0  0  0  0
   36.9173    3.7039 -143.1761 H   0  0  0  0  0
   37.4544    2.0444 -142.8174 H   0  0  0  0  0
   39.0508    5.8953 -137.9738 H   0  0  0  0  0
   38.6131    8.2774 -138.4177 H   0  0  0  0  0
   37.0029    7.6911 -138.3159 H   0  0  0  0  0
   37.6471    8.9111 -140.5637 H   0  0  0  0  0
   36.7978    7.4459 -140.7287 H   0  0  0  0  0
   38.7888    6.9541 -141.9989 H   0  0  0  0  0
   39.7946    7.8926 -140.9845 H   0  0  0  0  0
   37.0731    5.1839 -136.8612 H   0  0  0  0  0
   35.4368    3.5448 -138.6821 H   0  0  0  0  0
   35.9823    2.5244 -136.5866 H   0  0  0  0  0
   34.2365    2.8743 -136.5892 H   0  0  0  0  0
   35.2755    3.5427 -134.6410 H   0  0  0  0  0
   33.1247    3.5337 -138.3626 H   0  0  0  0  0
   31.0321    4.4760 -138.0585 H   0  0  0  0  0
   30.1134    4.0676 -139.7223 H   0  0  0  0  0
   32.3799    7.0943 -137.6582 H   0  0  0  0  0
   30.7437    5.0705 -136.1549 H   0  0  0  0  0
   30.7173    6.8398 -135.6402 H   0  0  0  0  0
   30.4049    7.5228 -139.0567 H   0  0  0  0  0
   29.4036    6.5495 -137.9516 H   0  0  0  0  0
   30.1261    8.0761 -137.3872 H   0  0  0  0  0
   33.1247    5.0187 -135.7436 H   0  0  0  0  0
   33.0992    6.7284 -135.2462 H   0  0  0  0  0
   32.2416    5.5059 -134.2760 H   0  0  0  0  0
  1  2  1  0  0  0
  2  3  1  0  0  0
  2  5  1  0  0  0
  3  4  2  0  0  0
  3  8  1  0  0  0
  5  6  1  0  0  0
  5  7  1  0  0  0
  8  9  1  0  0  0
  9 10  1  0  0  0
  9 12  1  0  0  0
 10 11  2  0  0  0
 10 13  1  0  0  0
 13 14  1  0  0  0
 14 15  1  0  0  0
 14 17  1  0  0  0
 15 16  2  0  0  0
 15 24  1  0  0  0
 17 18  1  0  0  0
 18 19  4  0  0  0
 18 20  4  0  0  0
 19 21  4  0  0  0
 20 22  4  0  0  0
 21 23  4  0  0  0
 22 23  4  0  0  0
 24 25  1  0  0  0
 25 26  1  0  0  0
 25 28  1  0  0  0
 26 27  2  0  0  0
 26 31  1  0  0  0
 28 29  1  0  0  0
 28 30  1  0  0  0
 31 32  1  0  0  0
 32 33  1  0  0  0
 32 35  1  0  0  0
 33 34  2  0  0  0
 33 39  1  0  0  0
 35 36  1  0  0  0
 35 37  1  0  0  0
 36 38  1  0  0  0
 39 40  1  0  0  0
 39 45  1  0  0  0
 40 41  1  0  0  0
 40 43  1  0  0  0
 41 42  2  0  0  0
 41 46  1  0  0  0
 43 44  1  0  0  0
 44 45  1  0  0  0
 46 47  1  0  0  0
 47 48  1  0  0  0
 47 50  1  0  0  0
 48 49  2  0  0  0
 48 52  1  0  0  0
 50 51  1  0  0  0
 52 53  1  0  0  0
 53 54  1  0  0  0
 53 56  1  0  0  0
 54 55  1  0  0  0
 54 60  2  0  0  0
 56 57  1  0  0  0
 56 58  1  0  0  0
 57 59  1  0  0  0
  1 61  1  0  0  0
  1 62  1  0  0  0
  1 63  1  0  0  0
  2 64  1  0  0  0
  5 65  1  0  0  0
  6 66  1  0  0  0
  7 67  1  0  0  0
  7 68  1  0  0  0
  7 69  1  0  0  0
  8 70  1  0  0  0
  9 71  1  0  0  0
 12 72  1  0  0  0
 12 73  1  0  0  0
 12 74  1  0  0  0
 13 75  1  0  0  0
 14 76  1  0  0  0
 17 77  1  0  0  0
 17 78  1  0  0  0
 19 79  1  0  0  0
 20 80  1  0  0  0
 21 81  1  0  0  0
 22 82  1  0  0  0
 23 83  1  0  0  0
 24 84  1  0  0  0
 25 85  1  0  0  0
 28 86  1  0  0  0
 29 87  1  0  0  0
 30 88  1  0  0  0
 30 89  1  0  0  0
 30 90  1  0  0  0
 31 91  1  0  0  0
 32 92  1  0  0  0
 35 93  1  0  0  0
 36 94  1  0  0  0
 36 95  1  0  0  0
 37 96  1  0  0  0
 37 97  1  0  0  0
 37 98  1  0  0  0
 38 99  1  0  0  0
 38100  1  0  0  0
 38101  1  0  0  0
 40102  1  0  0  0
 43103  1  0  0  0
 43104  1  0  0  0
 44105  1  0  0  0
 44106  1  0  0  0
 45107  1  0  0  0
 45108  1  0  0  0
 46109  1  0  0  0
 47110  1  0  0  0
 50111  1  0  0  0
 50112  1  0  0  0
 51113  1  0  0  0
 52114  1  0  0  0
 53115  1  0  0  0
 55116  1  0  0  0
 56117  1  0  0  0
 57118  1  0  0  0
 57119  1  0  0  0
 58120  1  0  0  0
 58121  1  0  0  0
 58122  1  0  0  0
 59123  1  0  0  0
 59124  1  0  0  0
 59125  1  0  0  0
M  END
$$$$
