### 
### Created by X-TOOL on Mon Sep 10 21:13:20 2018
### 

@<TRIPOS>MOLECULE
4mji_ligand
  124   125     1     0     0
SMALL
GAST_HUCK


@<TRIPOS>ATOM
      1 N          52.6860    6.0000 -148.1890 N.4       1 THR         0.2398
      2 CA         51.8390    4.7910 -148.1090 C.3       1 THR         0.0910
      3 C          50.3770    5.1840 -147.8740 C.2       1 THR         0.2293
      4 O          50.0480    6.3590 -147.8270 O.2       1 THR        -0.3906
      5 CB         52.3420    3.8340 -147.0110 C.3       1 THR         0.1120
      6 OG1        52.0900    4.4060 -145.7250 O.3       1 THR        -0.3840
      7 CG2        53.8370    3.5780 -147.1510 C.3       1 THR        -0.0314
      8 N          49.5070    4.1970 -147.7310 N.am      1 ALA        -0.2612
      9 CA         48.0760    4.4520 -147.6540 C.3       1 ALA         0.1283
     10 C          47.5790    4.8960 -146.2770 C.2       1 ALA         0.2037
     11 O          48.1230    4.4940 -145.2440 O.2       1 ALA        -0.3944
     12 CB         47.3080    3.2180 -148.0930 C.3       1 ALA        -0.0244
     13 N          46.5170    5.6950 -146.2860 N.am      1 PHE        -0.2619
     14 CA         45.8080    6.1130 -145.0920 C.3       1 PHE         0.1404
     15 C          45.1050    4.9720 -144.3910 C.2       1 PHE         0.2060
     16 O          44.6540    4.0370 -145.0570 O.2       1 PHE        -0.3942
     17 CB         44.7450    7.0880 -145.5150 C.3       1 PHE         0.0214
     18 CG         44.0720    7.7870 -144.3830 C.ar      1 PHE        -0.0386
     19 CD1        44.8030    8.5740 -143.5000 C.ar      1 PHE        -0.0601
     20 CD2        42.7030    7.6970 -144.2270 C.ar      1 PHE        -0.0601
     21 CE1        44.1790    9.2360 -142.4630 C.ar      1 PHE        -0.0686
     22 CE2        42.0770    8.3690 -143.2040 C.ar      1 PHE        -0.0686
     23 CZ         42.8160    9.1410 -142.3210 C.ar      1 PHE        -0.0687
     24 N          45.0030    5.0570 -143.0530 N.am      1 THR        -0.2612
     25 CA         44.1400    4.1400 -142.2570 C.3       1 THR         0.1565
     26 C          42.9020    4.8530 -141.7520 C.2       1 THR         0.2065
     27 O          43.0170    5.8950 -141.1120 O.2       1 THR        -0.3943
     28 CB         44.8560    3.5250 -141.0640 C.3       1 THR         0.0924
     29 OG1        46.1310    3.0290 -141.4840 O.3       1 THR        -0.3874
     30 CG2        44.0370    2.3900 -140.5300 C.3       1 THR        -0.0346
     31 N          41.7240    4.3180 -142.0580 N.am      1 ILE        -0.2634
     32 CA         40.5140    5.1110 -141.8850 C.3       1 ILE         0.1337
     33 C          39.8980    4.9890 -140.5100 C.2       1 ILE         0.2067
     34 O          40.0510    3.9520 -139.8410 O.2       1 ILE        -0.3942
     35 CB         39.4350    4.9030 -142.9930 C.3       1 ILE        -0.0037
     36 CG1        39.0370    3.4350 -143.1740 C.3       1 ILE        -0.0491
     37 CG2        39.8930    5.5400 -144.2940 C.3       1 ILE        -0.0582
     38 CD1        37.6590    3.1020 -142.6510 C.3       1 ILE        -0.0648
     39 N          39.1760    6.0420 -140.0990 N.am      1 PRO        -0.2498
     40 CA         38.4490    6.1400 -138.8490 C.3       1 PRO         0.1338
     41 C          37.2650    5.2150 -138.8930 C.2       1 PRO         0.2042
     42 O          36.8760    4.8020 -139.9700 O.2       1 PRO        -0.3944
     43 CB         37.9250    7.5730 -138.8850 C.3       1 PRO        -0.0104
     44 CG         37.7330    7.8480 -140.3390 C.3       1 PRO        -0.0281
     45 CD         38.9390    7.2180 -140.9520 C.3       1 PRO         0.0369
     46 N          36.6630    4.9130 -137.7550 N.am      1 SER        -0.2616
     47 CA         35.4100    4.1900 -137.8040 C.3       1 SER         0.1539
     48 C          34.2390    5.1450 -137.9420 C.2       1 SER         0.2056
     49 O          34.3750    6.3620 -137.7610 O.2       1 SER        -0.3943
     50 CB         35.2330    3.3160 -136.5790 C.3       1 SER         0.0843
     51 OG         35.3880    4.0980 -135.4160 O.3       1 SER        -0.3903
     52 N          33.0900    4.5470 -138.2510 N.am      1 ILE        -0.2692
     53 CA         31.7570    5.1880 -138.4530 C.3       1 ILE         0.0969
     54 C          31.3780    5.3380 -139.9430 C.2       1 ILE         0.0604
     55 O          30.4740    4.6260 -140.4150 O.co2     1 ILE        -0.5666
     56 CB         31.5030    6.4530 -137.5690 C.3       1 ILE        -0.0092
     57 CG1        31.2650    6.0270 -136.1170 C.3       1 ILE        -0.0497
     58 CG2        30.2730    7.2030 -138.0230 C.3       1 ILE        -0.0588
     59 CD1        32.5230    5.8040 -135.2860 C.3       1 ILE        -0.0649
     60 OXT        31.9640    6.1290 -140.6950 O.co2     1 ILE        -0.5666
     61 H          52.3363    6.6079 -148.9131 H         1 THR         0.2016
     62 H          53.6339    5.7326 -148.4036 H         1 THR         0.2016
     63 H          52.6653    6.4839 -147.3050 H         1 THR         0.2016
     64 H          51.9013    4.2643 -149.0727 H         1 THR         0.1125
     65 H          51.8042    2.8783 -147.0969 H         1 THR         0.0674
     66 H          52.4009    3.8142 -145.0500 H         1 THR         0.2102
     67 H          54.1677    2.8933 -146.3561 H         1 THR         0.0258
     68 H          54.3816    4.5298 -147.0651 H         1 THR         0.0258
     69 H          54.0413    3.1259 -148.1328 H         1 THR         0.0258
     70 H          49.8399    3.2557 -147.6746 H         1 ALA         0.1884
     71 H          47.8526    5.2656 -148.3597 H         1 ALA         0.0797
     72 H          46.2279    3.4175 -148.0324 H         1 ALA         0.0277
     73 H          47.5625    2.3743 -147.4347 H         1 ALA         0.0277
     74 H          47.5771    2.9682 -149.1299 H         1 ALA         0.0277
     75 H          46.1870    6.0280 -147.1693 H         1 PHE         0.1885
     76 H          46.5149    6.5897 -144.3970 H         1 PHE         0.0823
     77 H          43.9807    6.5394 -146.0850 H         1 PHE         0.0474
     78 H          45.2102    7.8468 -146.1613 H         1 PHE         0.0474
     79 H          45.8753    8.6684 -143.6279 H         1 PHE         0.0557
     80 H          42.1197    7.0943 -144.9137 H         1 PHE         0.0557
     81 H          44.7604    9.8272 -141.7648 H         1 PHE         0.0599
     82 H          41.0018    8.2950 -143.0874 H         1 PHE         0.0599
     83 H          42.3175    9.6705 -141.5172 H         1 PHE         0.0559
     84 H          45.5260    5.7622 -142.5743 H         1 THR         0.1884
     85 H          43.8242    3.3232 -142.9226 H         1 THR         0.0826
     86 H          44.9929    4.2850 -140.2807 H         1 THR         0.0639
     87 H          46.5804    2.6443 -140.7406 H         1 THR         0.2101
     88 H          44.5506    1.9416 -139.6668 H         1 THR         0.0257
     89 H          43.9075    1.6302 -141.3148 H         1 THR         0.0257
     90 H          43.0516    2.7647 -140.2162 H         1 THR         0.0257
     91 H          41.6690    3.3811 -142.4033 H         1 ILE         0.1883
     92 H          40.8399    6.1575 -141.9783 H         1 ILE         0.0803
     93 H          38.5303    5.4379 -142.6684 H         1 ILE         0.0345
     94 H          39.7691    2.8101 -142.6416 H         1 ILE         0.0267
     95 H          39.0655    3.1989 -144.2480 H         1 ILE         0.0267
     96 H          40.1667    6.5897 -144.1118 H         1 ILE         0.0235
     97 H          39.0773    5.4963 -145.0307 H         1 ILE         0.0235
     98 H          40.7666    4.9953 -144.6814 H         1 ILE         0.0235
     99 H          37.4513    2.0348 -142.8184 H         1 ILE         0.0230
    100 H          36.9094    3.7087 -143.1802 H         1 ILE         0.0230
    101 H          37.6131    3.3199 -141.5738 H         1 ILE         0.0230
    102 H          39.0847    5.9395 -137.9739 H         1 PRO         0.0802
    103 H          38.6569    8.2685 -138.4484 H         1 PRO         0.0313
    104 H          36.9719    7.6551 -138.3420 H         1 PRO         0.0313
    105 H          37.7054    8.9294 -140.5383 H         1 PRO         0.0287
    106 H          36.8089    7.3826 -140.7124 H         1 PRO         0.0287
    107 H          38.7414    6.9176 -141.9916 H         1 PRO         0.0524
    108 H          39.7985    7.9039 -140.9255 H         1 PRO         0.0524
    109 H          37.0651    5.1786 -136.8788 H         1 SER         0.1884
    110 H          35.4279    3.5382 -138.6899 H         1 SER         0.0823
    111 H          35.9889    2.5169 -136.5866 H         1 SER         0.0606
    112 H          34.2276    2.8699 -136.5893 H         1 SER         0.0606
    113 H          35.2767    3.5485 -134.6491 H         1 SER         0.2097
    114 H          33.1240    3.5536 -138.3604 H         1 ILE         0.1875
    115 H          31.0396    4.4490 -138.0666 H         1 ILE         0.0729
    116 H          32.3800    7.1144 -137.6266 H         1 ILE         0.0338
    117 H          30.6949    5.0863 -136.1285 H         1 ILE         0.0267
    118 H          30.6692    6.8110 -135.6267 H         1 ILE         0.0267
    119 H          30.4053    7.5272 -139.0658 H         1 ILE         0.0234
    120 H          30.1230    8.0838 -137.3815 H         1 ILE         0.0234
    121 H          29.3950    6.5442 -137.9525 H         1 ILE         0.0234
    122 H          32.2403    5.5031 -134.2664 H         1 ILE         0.0230
    123 H          33.1054    6.7362 -135.2450 H         1 ILE         0.0230
    124 H          33.1312    5.0116 -135.7467 H         1 ILE         0.0230
@<TRIPOS>BOND
     1    1    2 1  
     2    2    3 1  
     3    2    5 1  
     4    3    4 2  
     5    3    8 am 
     6    5    6 1  
     7    5    7 1  
     8    8    9 1  
     9    9   10 1  
    10    9   12 1  
    11   10   11 2  
    12   10   13 am 
    13   13   14 1  
    14   14   15 1  
    15   14   17 1  
    16   15   16 2  
    17   15   24 am 
    18   17   18 1  
    19   18   19 ar 
    20   18   20 ar 
    21   19   21 ar 
    22   20   22 ar 
    23   21   23 ar 
    24   22   23 ar 
    25   24   25 1  
    26   25   26 1  
    27   25   28 1  
    28   26   27 2  
    29   26   31 am 
    30   28   29 1  
    31   28   30 1  
    32   31   32 1  
    33   32   33 1  
    34   32   35 1  
    35   33   34 2  
    36   33   39 am 
    37   35   36 1  
    38   35   37 1  
    39   36   38 1  
    40   39   40 1  
    41   39   45 1  
    42   40   41 1  
    43   40   43 1  
    44   41   42 2  
    45   41   46 am 
    46   43   44 1  
    47   44   45 1  
    48   46   47 1  
    49   47   48 1  
    50   47   50 1  
    51   48   49 2  
    52   48   52 am 
    53   50   51 1  
    54   52   53 1  
    55   53   54 1  
    56   53   56 1  
    57   54   55 ar 
    58   54   60 ar 
    59   56   57 1  
    60   56   58 1  
    61   57   59 1  
    62    1   61 1  
    63    1   62 1  
    64    1   63 1  
    65    2   64 1  
    66    5   65 1  
    67    6   66 1  
    68    7   67 1  
    69    7   68 1  
    70    7   69 1  
    71    8   70 1  
    72    9   71 1  
    73   12   72 1  
    74   12   73 1  
    75   12   74 1  
    76   13   75 1  
    77   14   76 1  
    78   17   77 1  
    79   17   78 1  
    80   19   79 1  
    81   20   80 1  
    82   21   81 1  
    83   22   82 1  
    84   23   83 1  
    85   24   84 1  
    86   25   85 1  
    87   28   86 1  
    88   29   87 1  
    89   30   88 1  
    90   30   89 1  
    91   30   90 1  
    92   31   91 1  
    93   32   92 1  
    94   35   93 1  
    95   36   94 1  
    96   36   95 1  
    97   37   96 1  
    98   37   97 1  
    99   37   98 1  
   100   38   99 1  
   101   38  100 1  
   102   38  101 1  
   103   40  102 1  
   104   43  103 1  
   105   43  104 1  
   106   44  105 1  
   107   44  106 1  
   108   45  107 1  
   109   45  108 1  
   110   46  109 1  
   111   47  110 1  
   112   50  111 1  
   113   50  112 1  
   114   51  113 1  
   115   52  114 1  
   116   53  115 1  
   117   56  116 1  
   118   57  117 1  
   119   57  118 1  
   120   58  119 1  
   121   58  120 1  
   122   58  121 1  
   123   59  122 1  
   124   59  123 1  
   125   59  124 1  
@<TRIPOS>SUBSTRUCTURE
     1 THR         1

