1agw_ligand
  -I-interpret- 

 44 47  0  0  0  0  0  0  0  0999 V2000
    5.7630    2.5310   20.3220 N   0  0  0  0  0
    6.4340    2.9940   21.4270 C   0  0  0  0  0
    6.3730    2.3820   22.4940 O   0  0  0  0  0
    7.0950    4.1650   21.1310 C   0  0  0  0  0
    7.1970    5.4450   18.8500 C   0  0  0  0  0
    6.7240    5.4000   17.5470 C   0  0  0  0  0
    5.8900    4.3560   17.1140 C   0  0  0  0  0
    5.5170    3.3380   17.9550 C   0  0  0  0  0
    5.9880    3.3830   19.2720 C   0  0  0  0  0
    6.8240    4.4240   19.7400 C   0  0  0  0  0
    7.9420    5.0530   22.0360 C   0  0  0  0  0
    8.7500    4.6160   23.2540 C   0  0  0  0  0
    9.7100    5.4700   23.7810 C   0  0  0  0  0
   10.4610    5.1000   24.8980 C   0  0  0  0  0
   10.2640    3.8680   25.5130 C   0  0  0  0  0
    9.2980    3.0170   24.9820 C   0  0  0  0  0
    8.5480    3.3860   23.8630 C   0  0  0  0  0
   12.4930    2.7110   29.1520 N   0  0  0  0  0
   13.2630    2.2770   30.2810 C   0  0  0  0  0
   14.2360    2.8450   30.7850 O   0  0  0  0  0
   11.7640    1.7130   28.3060 C   0  0  0  0  0
   10.6690    2.2640   27.4210 C   0  0  0  0  0
   11.0300    3.4890   26.6500 N   0  0  0  0  0
   11.7510    4.5220   27.4680 C   0  0  0  0  0
   12.8190    3.9910   28.4260 C   0  0  0  0  0
    5.1892    1.6884   20.2880 H   0  0  0  0  0
    7.8459    6.2573   19.1774 H   0  0  0  0  0
    7.0040    6.1877   16.8475 H   0  0  0  0  0
    5.5304    4.3545   16.0850 H   0  0  0  0  0
    4.8780    2.5250   17.6103 H   0  0  0  0  0
    7.9735    6.1135   21.7859 H   0  0  0  0  0
    9.8792    6.4415   23.3166 H   0  0  0  0  0
   11.2111    5.7850   25.2932 H   0  0  0  0  0
    9.1243    2.0468   25.4474 H   0  0  0  0  0
    7.7982    2.7022   23.4651 H   0  0  0  0  0
   12.9546    1.3407   30.7462 H   0  0  0  0  0
   12.5074    1.2792   27.6372 H   0  0  0  0  0
   11.2795    1.0233   28.9971 H   0  0  0  0  0
   10.4399    1.4899   26.6886 H   0  0  0  0  0
    9.8449    2.5402   28.0787 H   0  0  0  0  0
   10.9953    5.0042   28.0881 H   0  0  0  0  0
   12.2689    5.1678   26.7589 H   0  0  0  0  0
   13.6947    3.7765   27.8135 H   0  0  0  0  0
   12.9400    4.7529   29.1961 H   0  0  0  0  0
  9  1  1  0  0  0
  2  1  1  0  0  0
  4  2  1  0  0  0
  2  3  2  0  0  0
 11  4  2  0  0  0
  4 10  1  0  0  0
 10  9  4  0  0  0
 10  5  4  0  0  0
  5  6  4  0  0  0
  6  7  4  0  0  0
  8  7  4  0  0  0
  9  8  4  0  0  0
 12 11  1  0  0  0
 17 12  4  0  0  0
 13 12  4  0  0  0
 14 13  4  0  0  0
 15 14  4  0  0  0
 23 15  1  0  0  0
 15 16  4  0  0  0
 16 17  4  0  0  0
 23 24  1  0  0  0
 22 23  1  0  0  0
 21 22  1  0  0  0
 18 21  1  0  0  0
 18 25  1  0  0  0
 18 19  1  0  0  0
 19 20  2  0  0  0
 25 24  1  0  0  0
  1 26  1  0  0  0
  5 27  1  0  0  0
  6 28  1  0  0  0
  7 29  1  0  0  0
  8 30  1  0  0  0
 11 31  1  0  0  0
 13 32  1  0  0  0
 14 33  1  0  0  0
 16 34  1  0  0  0
 17 35  1  0  0  0
 19 36  1  0  0  0
 21 37  1  0  0  0
 21 38  1  0  0  0
 22 39  1  0  0  0
 22 40  1  0  0  0
 24 41  1  0  0  0
 24 42  1  0  0  0
 25 43  1  0  0  0
 25 44  1  0  0  0
M  END
$$$$
