1ung_ligand
  -I-interpret- 

 36 38  0  0  0  0  0  0  0  0999 V2000
    0.9860   70.0120    1.0710 O   0  0  0  0  0
    1.8070   69.0080    0.9370 C   0  0  0  0  0
    2.3790   68.3990    2.0550 C   0  0  0  0  0
    3.2490   67.3160    1.9140 C   0  0  0  0  0
    3.5520   66.8900    0.6280 C   0  0  0  0  0
    2.9860   67.5350   -0.4940 C   0  0  0  0  0
    2.1080   68.5970   -0.3450 C   0  0  0  0  0
    4.3980   65.8360    0.3110 C   0  0  0  0  0
    4.6370   65.4420   -0.9710 N   0  0  0  0  0
    5.4840   64.4360   -0.8390 C   0  0  0  0  0
    6.0700   63.6610   -1.9000 N   0  0  0  0  0
    5.7850   64.2120    0.4800 C   0  0  0  0  0
    6.7000   63.1680    0.8300 N   0  0  0  0  0
    7.2010   62.4310   -0.1540 C   0  0  0  0  0
    6.8800   62.6720   -1.4960 C   0  0  0  0  0
    5.0830   65.0800    1.2990 C   0  0  0  0  0
    5.1550   65.1990    2.8220 C   0  0  0  0  0
    4.3490   64.2710    3.7290 C   0  0  0  0  0
    5.1210   64.1220    5.0390 C   0  0  0  0  0
    4.5150   64.8330    6.2450 C   0  0  0  0  0
    0.6929   70.3021    0.2041 H   0  0  0  0  0
    2.1435   68.7737    3.0511 H   0  0  0  0  0
    3.6766   66.8209    2.7859 H   0  0  0  0  0
    3.2445   67.1911   -1.4955 H   0  0  0  0  0
    1.6698   69.0911   -1.2121 H   0  0  0  0  0
    7.8816   61.6151    0.0893 H   0  0  0  0  0
    7.3128   62.0192   -2.2540 H   0  0  0  0  0
    4.7444   66.1876    3.0273 H   0  0  0  0  0
    6.1920   64.9574    3.0550 H   0  0  0  0  0
    4.2131   63.2991    3.2547 H   0  0  0  0  0
    3.3590   64.6871    3.9159 H   0  0  0  0  0
    6.1003   64.5715    4.8743 H   0  0  0  0  0
    5.1255   63.0582    5.2766 H   0  0  0  0  0
    4.4561   65.9025    6.0429 H   0  0  0  0  0
    3.5149   64.4415    6.4313 H   0  0  0  0  0
    5.1425   64.6613    7.1195 H   0  0  0  0  0
  1  2  1  0  0  0
  2  3  4  0  0  0
  2  7  4  0  0  0
  3  4  4  0  0  0
  4  5  4  0  0  0
  5  6  4  0  0  0
  5  8  1  0  0  0
  6  7  4  0  0  0
  8  9  4  0  0  0
  8 16  4  0  0  0
  9 10  4  0  0  0
 10 11  4  0  0  0
 10 12  4  0  0  0
 11 15  4  0  0  0
 12 13  4  0  0  0
 12 16  4  0  0  0
 13 14  4  0  0  0
 14 15  4  0  0  0
 16 17  1  0  0  0
 17 18  1  0  0  0
 18 19  1  0  0  0
 19 20  1  0  0  0
  1 21  1  0  0  0
  3 22  1  0  0  0
  4 23  1  0  0  0
  6 24  1  0  0  0
  7 25  1  0  0  0
 14 26  1  0  0  0
 15 27  1  0  0  0
 17 28  1  0  0  0
 17 29  1  0  0  0
 18 30  1  0  0  0
 18 31  1  0  0  0
 19 32  1  0  0  0
 19 33  1  0  0  0
 20 34  1  0  0  0
 20 35  1  0  0  0
 20 36  1  0  0  0
M  END
$$$$
