1lev_ligand
  -I-interpret- 

 27 28  0  0  0  0  0  0  0  0999 V2000
    9.3360  -33.7580    6.1590 O   0  0  0  0  0
    8.2580  -33.1600    5.9410 C   0  0  0  0  0
    7.1440  -33.7300    6.4420 O   0  0  0  0  0
    8.0980  -31.8580    5.1190 C   0  0  0  0  0
    9.0700  -30.7220    5.3160 C   0  0  0  0  0
    8.5720  -29.4500    4.6720 C   0  0  0  0  0
    9.3440  -28.2070    4.5300 C   0  0  0  0  0
    7.3840  -29.1950    4.1100 C   0  0  0  0  0
    6.1790  -30.0400    3.9150 C   0  0  0  0  0
    6.0600  -31.2790    4.3500 O   0  0  0  0  0
    5.2050  -29.5040    3.3860 O   0  0  0  0  0
    7.3230  -27.9130    3.6460 N   0  0  0  0  0
    8.5290  -27.2690    3.8940 C   0  0  0  0  0
    8.9300  -25.9420    3.6580 C   0  0  0  0  0
   10.2190  -25.5980    4.0380 C   0  0  0  0  0
   10.7770  -23.9810    3.7890 Cl  0  0  0  0  0
   11.0700  -26.5120    4.7050 C   0  0  0  0  0
   10.6110  -27.8050    4.9540 C   0  0  0  0  0
   11.6120  -28.9760    5.7510 Cl  0  0  0  0  0
    6.3816  -33.1916    6.2172 H   0  0  0  0  0
    7.1360  -31.4527    5.4326 H   0  0  0  0  0
    8.2448  -32.1677    4.0843 H   0  0  0  0  0
   10.0185  -30.9949    4.8535 H   0  0  0  0  0
    9.1835  -30.5461    6.3857 H   0  0  0  0  0
    6.8922  -31.5630    4.7353 H   0  0  0  0  0
    8.2588  -25.2170    3.1976 H   0  0  0  0  0
   12.0690  -26.2095    5.0192 H   0  0  0  0  0
  1  2  2  0  0  0
  2  3  1  0  0  0
  2  4  1  0  0  0
  4  5  1  0  0  0
  5  6  1  0  0  0
  6  7  4  0  0  0
  6  8  4  0  0  0
  7 13  4  0  0  0
  7 18  4  0  0  0
  8  9  1  0  0  0
  8 12  4  0  0  0
  9 10  1  0  0  0
  9 11  2  0  0  0
 12 13  4  0  0  0
 13 14  4  0  0  0
 14 15  4  0  0  0
 15 16  1  0  0  0
 15 17  4  0  0  0
 17 18  4  0  0  0
 18 19  1  0  0  0
  3 20  1  0  0  0
  4 21  1  0  0  0
  4 22  1  0  0  0
  5 23  1  0  0  0
  5 24  1  0  0  0
 10 25  1  0  0  0
 14 26  1  0  0  0
 17 27  1  0  0  0
M  END
$$$$
