3f18_ligand
  -I-interpret- 

 32 32  0  0  0  0  0  0  0  0999 V2000
  -12.8890   -7.3620  -20.2950 O   0  0  0  0  0
  -13.1520   -6.1480  -19.5660 S   0  0  0  0  0
  -14.4130   -5.7650  -18.9460 O   0  0  0  0  0
  -13.1280   -5.3070  -20.8620 N   0  0  0  0  0
  -13.4540   -3.8770  -20.8320 C   0  0  0  0  0
  -12.4370   -2.9860  -20.1520 C   0  0  0  0  0
  -11.2850   -2.8670  -20.5550 O   0  0  0  0  0
  -12.8670   -2.3080  -19.0940 N   0  0  0  0  0
  -11.9350   -1.5510  -18.4030 O   0  0  0  0  0
  -12.9110   -5.9410  -22.1610 C   0  0  0  0  0
  -11.6870   -6.2990  -22.9950 C   0  0  0  0  0
  -11.7070   -7.7230  -23.1600 O   0  0  0  0  0
  -11.9460   -6.0970  -18.4820 C   0  0  0  0  0
  -12.1220   -5.3690  -17.2960 C   0  0  0  0  0
  -11.1120   -5.3240  -16.3320 C   0  0  0  0  0
   -9.9130   -6.0090  -16.5300 C   0  0  0  0  0
   -8.9370   -5.9700  -15.6000 F   0  0  0  0  0
   -9.7280   -6.7410  -17.7030 C   0  0  0  0  0
  -10.7410   -6.7860  -18.6650 C   0  0  0  0  0
  -14.3776   -3.7829  -20.2608 H   0  0  0  0  0
  -13.5051   -3.5503  -21.8706 H   0  0  0  0  0
  -13.8437   -2.3432  -18.8021 H   0  0  0  0  0
  -12.3646   -1.1119  -17.6653 H   0  0  0  0  0
  -13.3086   -5.1477  -22.7939 H   0  0  0  0  0
  -13.2271   -6.9510  -21.9002 H   0  0  0  0  0
  -10.7707   -5.9770  -22.5003 H   0  0  0  0  0
  -11.7125   -5.7945  -23.9609 H   0  0  0  0  0
  -10.9488   -7.9941  -23.6828 H   0  0  0  0  0
  -13.0557   -4.8333  -17.1250 H   0  0  0  0  0
  -11.2619   -4.7492  -15.4181 H   0  0  0  0  0
   -8.7939   -7.2776  -17.8693 H   0  0  0  0  0
  -10.5901   -7.3680  -19.5742 H   0  0  0  0  0
  1  2  2  0  0  0
  2  3  2  0  0  0
  2  4  1  0  0  0
  2 13  1  0  0  0
  4  5  1  0  0  0
  4 10  1  0  0  0
  5  6  1  0  0  0
  6  7  2  0  0  0
  6  8  1  0  0  0
  8  9  1  0  0  0
 10 11  1  0  0  0
 11 12  1  0  0  0
 13 14  4  0  0  0
 13 19  4  0  0  0
 14 15  4  0  0  0
 15 16  4  0  0  0
 16 17  1  0  0  0
 16 18  4  0  0  0
 18 19  4  0  0  0
  5 20  1  0  0  0
  5 21  1  0  0  0
  8 22  1  0  0  0
  9 23  1  0  0  0
 10 24  1  0  0  0
 10 25  1  0  0  0
 11 26  1  0  0  0
 11 27  1  0  0  0
 12 28  1  0  0  0
 14 29  1  0  0  0
 15 30  1  0  0  0
 18 31  1  0  0  0
 19 32  1  0  0  0
M  END
$$$$
