3egk_ligand
  -I-interpret- 

 55 56  0  0  0  0  0  0  0  0999 V2000
   13.9340  -10.4170   20.6290 C   0  0  0  0  0
   14.9190  -11.5260   20.8010 C   0  0  0  0  0
   15.0840  -12.3190   22.1040 O   0  0  0  0  0
   15.6860  -11.7850   19.6640 O   0  0  0  0  0
   16.4920  -12.9760   19.7510 C   0  0  0  0  0
   17.7270  -12.7070   20.6530 C   0  0  0  0  0
   18.7180  -11.7070   20.0080 C   0  0  0  0  0
   20.1290  -12.2110   20.3770 C   0  0  0  0  0
   19.9700  -13.7450   20.3340 C   0  0  0  0  0
   18.5810  -13.8930   20.7550 N   0  0  0  0  0
   18.2180  -15.0190   21.4400 C   0  0  0  0  0
   19.1740  -16.1940   21.6060 C   0  0  0  0  0
   19.9790  -16.0540   22.8170 N   0  0  0  0  0
   19.3760  -16.1830   24.0180 C   0  0  0  0  0
   19.7330  -15.2940   24.9400 O   0  0  0  0  0
   20.2410  -14.0690   24.7970 C   0  0  0  0  0
   19.9230  -13.3640   26.1210 C   0  0  0  0  0
   21.7470  -14.2700   24.6780 C   0  0  0  0  0
   19.7880  -13.1950   23.6880 C   0  0  0  0  0
   18.5540  -17.0720   24.2370 O   0  0  0  0  0
   17.3360  -14.9830   22.2930 O   0  0  0  0  0
   12.8970  -10.2950   21.7520 C   0  0  0  0  0
   12.9510   -9.1850   22.6030 C   0  0  0  0  0
   12.0350   -9.0400   23.6520 C   0  0  0  0  0
   12.1260   -7.6280   24.6940 Cl  0  0  0  0  0
   11.0170   -9.9820   23.8150 C   0  0  0  0  0
   10.9720  -11.1020   22.9800 C   0  0  0  0  0
   11.9220  -11.2780   21.9620 C   0  0  0  0  0
   13.3829  -10.6237   19.7116 H   0  0  0  0  0
   14.5032   -9.4874   20.6226 H   0  0  0  0  0
   16.8278  -13.2588   18.7533 H   0  0  0  0  0
   15.8991  -13.7831   20.1813 H   0  0  0  0  0
   17.2938  -12.3655   21.5931 H   0  0  0  0  0
   18.5518  -10.6939   20.3742 H   0  0  0  0  0
   18.5851  -11.6602   18.9272 H   0  0  0  0  0
   20.4675  -11.8479   21.3474 H   0  0  0  0  0
   20.8995  -11.8464   19.6977 H   0  0  0  0  0
   20.6810  -14.2798   20.9637 H   0  0  0  0  0
   20.1844  -14.1834   19.3593 H   0  0  0  0  0
   19.8425  -16.2225   20.7455 H   0  0  0  0  0
   18.5887  -17.1104   21.6816 H   0  0  0  0  0
   20.9790  -15.8622   22.7562 H   0  0  0  0  0
   18.8434  -13.3420   26.2693 H   0  0  0  0  0
   20.3928  -13.9060   26.9417 H   0  0  0  0  0
   20.3076  -12.3446   26.0899 H   0  0  0  0  0
   22.1199  -14.7554   25.5799 H   0  0  0  0  0
   21.9614  -14.8960   23.8118 H   0  0  0  0  0
   22.2331  -13.3019   24.5574 H   0  0  0  0  0
   20.0020  -13.6789   22.7351 H   0  0  0  0  0
   18.7152  -13.0237   23.7771 H   0  0  0  0  0
   20.3149  -12.2422   23.7395 H   0  0  0  0  0
   13.7157   -8.4240   22.4471 H   0  0  0  0  0
   10.2619   -9.8446   24.5889 H   0  0  0  0  0
   10.1897  -11.8477   23.1212 H   0  0  0  0  0
   11.9011  -12.1727   21.3398 H   0  0  0  0  0
  1  2  1  0  0  0
  1 22  1  0  0  0
  2  3  2  0  0  0
  2  4  1  0  0  0
  4  5  1  0  0  0
  5  6  1  0  0  0
  6  7  1  0  0  0
  6 10  1  0  0  0
  7  8  1  0  0  0
  8  9  1  0  0  0
  9 10  1  0  0  0
 10 11  1  0  0  0
 11 12  1  0  0  0
 11 21  2  0  0  0
 12 13  1  0  0  0
 13 14  1  0  0  0
 14 15  1  0  0  0
 14 20  2  0  0  0
 15 16  1  0  0  0
 16 17  1  0  0  0
 16 18  1  0  0  0
 16 19  1  0  0  0
 22 23  4  0  0  0
 22 28  4  0  0  0
 23 24  4  0  0  0
 24 25  1  0  0  0
 24 26  4  0  0  0
 26 27  4  0  0  0
 27 28  4  0  0  0
  1 29  1  0  0  0
  1 30  1  0  0  0
  5 31  1  0  0  0
  5 32  1  0  0  0
  6 33  1  0  0  0
  7 34  1  0  0  0
  7 35  1  0  0  0
  8 36  1  0  0  0
  8 37  1  0  0  0
  9 38  1  0  0  0
  9 39  1  0  0  0
 12 40  1  0  0  0
 12 41  1  0  0  0
 13 42  1  0  0  0
 17 43  1  0  0  0
 17 44  1  0  0  0
 17 45  1  0  0  0
 18 46  1  0  0  0
 18 47  1  0  0  0
 18 48  1  0  0  0
 19 49  1  0  0  0
 19 50  1  0  0  0
 19 51  1  0  0  0
 23 52  1  0  0  0
 26 53  1  0  0  0
 27 54  1  0  0  0
 28 55  1  0  0  0
M  END
$$$$
