6ntj_ligand
  -I-interpret- 

 75 77  0  0  0  0  0  0  0  0999 V2000
  162.4480   -8.7620   73.5710 C   0  0  0  0  0
  161.4820   -8.6990   72.4440 O   0  0  0  0  0
  163.7610   -9.3280   72.9760 C   0  0  0  0  0
  164.1540   -8.5080   71.8060 N   0  3  0  0  0
  163.4930  -10.7380   72.4480 C   0  0  0  0  0
  162.9880  -11.5930   73.6350 C   0  0  0  0  0
  161.7150  -10.9240   74.1820 C   0  0  0  0  0
  161.9610   -9.5700   74.6490 O   0  0  0  0  0
  161.3040  -11.7490   75.3900 C   0  0  0  0  0
  160.3810  -10.9170   76.1010 N   0  3  0  0  0
  158.4660   -6.0460   71.5670 C   0  0  0  0  0
  157.3200   -5.1820   71.4340 N   0  3  0  0  0
  158.1140   -7.5150   71.2760 C   0  0  0  0  0
  159.4610   -8.2450   71.3180 C   0  0  0  0  0
  159.2950   -9.6990   71.0140 N   0  3  0  0  0
  160.1830   -8.1210   72.7080 C   0  0  0  0  0
  160.2900   -6.6580   73.0990 C   0  0  0  0  0
  160.7330   -6.5730   74.4800 O   0  0  0  0  0
  158.9940   -5.8890   72.9800 C   0  0  0  0  0
  159.2530   -4.4780   73.3040 O   0  0  0  0  0
  158.3880   -3.8640   74.1910 C   0  0  0  0  0
  158.3700   -2.3570   73.8330 C   0  0  0  0  0
  157.7550   -2.2310   72.5130 O   0  0  0  0  0
  159.7660   -1.6370   73.8800 C   0  0  0  0  0
  159.5270   -0.1750   73.6710 N   0  3  0  0  0
  160.4090   -1.9490   75.2590 C   0  0  0  0  0
  159.7630   -1.0670   76.1830 O   0  0  0  0  0
  160.2020   -3.4380   75.6470 C   0  0  0  0  0
  158.8500   -3.9170   75.5770 O   0  0  0  0  0
  161.8910   -1.5730   75.2260 C   0  0  0  0  0
  160.4490    0.3400   72.6090 C   0  0  0  0  0
  162.6064   -7.7749   74.0053 H   0  0  0  0  0
  164.5354   -9.3248   73.7430 H   0  0  0  0  0
  164.3441   -7.5531   72.1100 H   0  0  0  0  0
  164.9924   -8.9040   71.3810 H   0  0  0  0  0
  163.3951   -8.5044   71.1245 H   0  0  0  0  0
  164.4036  -11.1673   72.0300 H   0  0  0  0  0
  162.7471  -10.7115   71.6536 H   0  0  0  0  0
  163.7501  -11.6525   74.4120 H   0  0  0  0  0
  162.7721  -12.6096   73.3065 H   0  0  0  0  0
  160.9632  -10.8763   73.3942 H   0  0  0  0  0
  162.1607  -12.0242   76.0052 H   0  0  0  0  0
  160.8552  -12.6991   75.1001 H   0  0  0  0  0
  160.0562  -11.4068   76.9347 H   0  0  0  0  0
  160.8460  -10.0510   76.3735 H   0  0  0  0  0
  159.5855  -10.7026   75.4996 H   0  0  0  0  0
  159.2245   -5.7632   70.8371 H   0  0  0  0  0
  157.5954   -4.2206   71.6346 H   0  0  0  0  0
  156.9592   -5.2420   70.4818 H   0  0  0  0  0
  156.5973   -5.4742   72.0918 H   0  0  0  0  0
  157.6137   -7.6336   70.3149 H   0  0  0  0  0
  157.4069   -7.9181   72.0010 H   0  0  0  0  0
  160.0762   -7.7607   70.5596 H   0  0  0  0  0
  160.2050  -10.1585   71.0489 H   0  0  0  0  0
  158.6732  -10.1206   71.7040 H   0  0  0  0  0
  158.8939   -9.8067   70.0824 H   0  0  0  0  0
  159.6654   -8.6140   73.5309 H   0  0  0  0  0
  160.9969   -6.2081   72.4019 H   0  0  0  0  0
  160.8035   -5.6505   74.7360 H   0  0  0  0  0
  158.2434   -6.2692   73.6729 H   0  0  0  0  0
  157.4272   -4.3729   74.1130 H   0  0  0  0  0
  157.7951   -1.8430   74.6033 H   0  0  0  0  0
  157.7285   -1.3051   72.2606 H   0  0  0  0  0
  160.4507   -1.9805   73.1045 H   0  0  0  0  0
  159.7027    0.3245   74.5428 H   0  0  0  0  0
  158.5604   -0.0285   73.3800 H   0  0  0  0  0
  160.1187   -1.2108   77.0630 H   0  0  0  0  0
  160.5092   -3.5314   76.6886 H   0  0  0  0  0
  160.7756   -4.0264   74.9309 H   0  0  0  0  0
  162.3939   -2.1507   74.4504 H   0  0  0  0  0
  161.9899   -0.5092   75.0102 H   0  0  0  0  0
  162.3418   -1.7921   76.1939 H   0  0  0  0  0
  161.4821    0.1826   72.9190 H   0  0  0  0  0
  160.2625   -0.1942   71.6774 H   0  0  0  0  0
  160.2711    1.4051   72.4605 H   0  0  0  0  0
  2  1  1  0  0  0
  1  3  1  0  0  0
  1  8  1  0  0  0
 16  2  1  0  0  0
  3  4  1  0  0  0
  3  5  1  0  0  0
  5  6  1  0  0  0
  7  6  1  0  0  0
  8  7  1  0  0  0
  7  9  1  0  0  0
  9 10  1  0  0  0
 11 12  1  0  0  0
 13 11  1  0  0  0
 11 19  1  0  0  0
 14 13  1  0  0  0
 14 15  1  0  0  0
 14 16  1  0  0  0
 16 17  1  0  0  0
 17 18  1  0  0  0
 17 19  1  0  0  0
 19 20  1  0  0  0
 20 21  1  0  0  0
 21 22  1  0  0  0
 21 29  1  0  0  0
 22 23  1  0  0  0
 22 24  1  0  0  0
 24 25  1  0  0  0
 24 26  1  0  0  0
 25 31  1  0  0  0
 26 27  1  0  0  0
 26 28  1  0  0  0
 26 30  1  0  0  0
 28 29  1  0  0  0
  1 32  1  0  0  0
  3 33  1  0  0  0
  4 34  1  0  0  0
  4 35  1  0  0  0
  4 36  1  0  0  0
  5 37  1  0  0  0
  5 38  1  0  0  0
  6 39  1  0  0  0
  6 40  1  0  0  0
  7 41  1  0  0  0
  9 42  1  0  0  0
  9 43  1  0  0  0
 10 44  1  0  0  0
 10 45  1  0  0  0
 10 46  1  0  0  0
 11 47  1  0  0  0
 12 48  1  0  0  0
 12 49  1  0  0  0
 12 50  1  0  0  0
 13 51  1  0  0  0
 13 52  1  0  0  0
 14 53  1  0  0  0
 15 54  1  0  0  0
 15 55  1  0  0  0
 15 56  1  0  0  0
 16 57  1  0  0  0
 17 58  1  0  0  0
 18 59  1  0  0  0
 19 60  1  0  0  0
 21 61  1  0  0  0
 22 62  1  0  0  0
 23 63  1  0  0  0
 24 64  1  0  0  0
 25 65  1  0  0  0
 25 66  1  0  0  0
 27 67  1  0  0  0
 28 68  1  0  0  0
 28 69  1  0  0  0
 30 70  1  0  0  0
 30 71  1  0  0  0
 30 72  1  0  0  0
 31 73  1  0  0  0
 31 74  1  0  0  0
 31 75  1  0  0  0
M  END
$$$$
