6nco_ligand
  -I-interpret- 

 47 49  0  0  0  0  0  0  0  0999 V2000
    4.1010  -17.7440   10.1870 C   0  0  0  0  0
    3.9150  -13.0290   13.4450 C   0  0  0  0  0
    4.8930  -12.8420   14.3780 C   0  0  0  0  0
    5.8040  -15.0570   13.8560 C   0  0  0  0  0
    6.9260  -13.4120   17.6070 C   0  0  0  0  0
    7.0600  -12.3750   16.5060 C   0  0  0  0  0
    8.1030  -13.3640   14.7880 C   0  0  0  0  0
    3.1000  -21.0170   10.7740 C   0  0  0  0  0
    4.2510  -20.2680   10.1190 C   0  0  0  0  0
    5.5510  -21.1120   10.1930 C   0  0  0  0  0
    4.4240  -18.9250   10.8390 C   0  0  0  0  0
    4.8930  -18.8960   12.1700 C   0  0  0  0  0
    5.0320  -17.6580   12.8260 C   0  0  0  0  0
    4.7340  -16.4740   12.1620 C   0  0  0  0  0
    4.2420  -16.5010   10.8450 C   0  0  0  0  0
    4.8420  -15.2230   12.9030 C   0  0  0  0  0
    3.8470  -14.2220   12.6970 C   0  0  0  0  0
    5.8700  -13.8190   14.5830 C   0  0  0  0  0
    6.8310  -13.5570   15.6590 C   0  0  0  0  0
    7.4070  -14.4860   16.6380 C   0  0  0  0  0
    8.4100  -12.2210   14.3410 N   0  0  0  0  0
    8.9770  -14.4930   14.4980 N   0  0  0  0  0
    3.8880  -20.0260    8.7240 O   0  0  0  0  0
    2.7190  -11.6750   13.2560 Cl  0  0  0  0  0
    3.7360  -17.7747    9.1604 H   0  0  0  0  0
    4.9119  -11.9249   14.9667 H   0  0  0  0  0
    6.5159  -15.8558   14.0641 H   0  0  0  0  0
    5.9803  -13.5328   18.1354 H   0  0  0  0  0
    7.4315  -13.2676   18.5618 H   0  0  0  0  0
    7.8953  -11.6830   16.3989 H   0  0  0  0  0
    6.4904  -11.4473   16.4499 H   0  0  0  0  0
    2.9420  -21.9628   10.2557 H   0  0  0  0  0
    3.3417  -21.2099   11.8192 H   0  0  0  0  0
    2.1946  -20.4130   10.7147 H   0  0  0  0  0
    5.3913  -22.0675    9.6934 H   0  0  0  0  0
    6.3607  -20.5737    9.7002 H   0  0  0  0  0
    5.8110  -21.2856   11.2372 H   0  0  0  0  0
    5.1451  -19.8230   12.6850 H   0  0  0  0  0
    5.3752  -17.6280   13.8601 H   0  0  0  0  0
    3.9726  -15.5746   10.3377 H   0  0  0  0  0
    3.0471  -14.3769   11.9730 H   0  0  0  0  0
    7.1647  -15.5462   16.7105 H   0  0  0  0  0
    8.4211  -14.8838   16.5999 H   0  0  0  0  0
    7.8203  -11.4158   14.5516 H   0  0  0  0  0
    9.8212  -14.3549   13.9425 H   0  0  0  0  0
    8.7447  -15.4215   14.8505 H   0  0  0  0  0
    4.5999  -19.5531    8.2867 H   0  0  0  0  0
  1 11  4  0  0  0
 15  1  4  0  0  0
  3  2  4  0  0  0
  2 17  4  0  0  0
  2 24  1  0  0  0
 18  3  4  0  0  0
  4 16  4  0  0  0
 18  4  4  0  0  0
  6  5  1  0  0  0
  5 20  1  0  0  0
 19  6  1  0  0  0
 19  7  1  0  0  0
  7 21  2  0  0  0
  7 22  1  0  0  0
  9  8  1  0  0  0
  9 10  1  0  0  0
 11  9  1  0  0  0
  9 23  1  0  0  0
 12 11  4  0  0  0
 13 12  4  0  0  0
 14 13  4  0  0  0
 14 15  4  0  0  0
 16 14  1  0  0  0
 16 17  4  0  0  0
 18 19  1  0  0  0
 19 20  1  0  0  0
  1 25  1  0  0  0
  3 26  1  0  0  0
  4 27  1  0  0  0
  5 28  1  0  0  0
  5 29  1  0  0  0
  6 30  1  0  0  0
  6 31  1  0  0  0
  8 32  1  0  0  0
  8 33  1  0  0  0
  8 34  1  0  0  0
 10 35  1  0  0  0
 10 36  1  0  0  0
 10 37  1  0  0  0
 12 38  1  0  0  0
 13 39  1  0  0  0
 15 40  1  0  0  0
 17 41  1  0  0  0
 20 42  1  0  0  0
 20 43  1  0  0  0
 21 44  1  0  0  0
 22 45  1  0  0  0
 22 46  1  0  0  0
 23 47  1  0  0  0
M  END
$$$$
