6n4b_ligand
  -I-interpret- 

 53 55  0  0  0  0  0  0  0  0999 V2000
   89.3760  131.0420  121.8500 N   0  0  0  0  0
   88.1960  131.3700  122.6750 C   0  0  0  0  0
   88.1640  132.8920  122.9800 C   0  0  0  0  0
   87.3190  133.5610  122.3840 O   0  0  0  0  0
   88.1650  130.4180  123.8950 C   0  0  0  0  0
   86.8830  130.6750  124.6710 C   0  0  0  0  0
   88.1330  129.0010  123.3320 C   0  0  0  0  0
   89.4180  131.4800  120.5880 C   0  0  0  0  0
   88.8470  134.8590  123.9860 C   0  0  0  0  0
   89.3790  130.4730  124.8350 C   0  0  0  0  0
   90.5320  131.1620  119.8930 C   0  0  0  0  0
   93.7190  129.6350  119.4810 C   0  0  0  0  0
   94.6860  130.5660  119.8620 C   0  0  0  0  0
   94.5400  131.9410  119.8520 C   0  0  0  0  0
   95.5520  132.7860  120.2410 C   0  0  0  0  0
   96.7440  132.2360  120.6680 C   0  0  0  0  0
   96.9370  130.8790  120.7050 C   0  0  0  0  0
   95.8790  130.1230  120.2890 C   0  0  0  0  0
   91.9710  130.8590  118.3330 C   0  0  0  0  0
   90.7990  131.4130  118.6040 C   0  0  0  0  0
   90.1540  132.0570  117.6380 C   0  0  0  0  0
   90.6870  132.1790  116.3750 C   0  0  0  0  0
   91.9240  131.6180  116.1210 C   0  0  0  0  0
   92.5670  130.9570  117.1490 C   0  0  0  0  0
   97.5630  132.8980  120.9890 F   0  0  0  0  0
   91.5330  130.4650  120.4180 N   0  0  0  0  0
   92.4280  130.2980  119.4450 N   0  0  0  0  0
   88.4400  132.0500  120.0950 O   0  0  0  0  0
   89.0750  133.4460  123.8260 O   0  0  0  0  0
   90.1437  130.4921  122.2356 H   0  0  0  0  0
   87.2582  131.1931  122.1483 H   0  0  0  0  0
   86.0278  130.5642  124.0043 H   0  0  0  0  0
   86.8040  129.9574  125.4876 H   0  0  0  0  0
   86.9013  131.6870  125.0755 H   0  0  0  0  0
   89.0592  128.8051  122.7918 H   0  0  0  0  0
   88.0306  128.2885  124.1505 H   0  0  0  0  0
   87.2864  128.9003  122.6528 H   0  0  0  0  0
   88.9283  135.3509  123.0167 H   0  0  0  0  0
   87.8495  135.0208  124.3945 H   0  0  0  0  0
   89.5913  135.2710  124.6675 H   0  0  0  0  0
   89.2561  129.7361  125.6287 H   0  0  0  0  0
   90.2847  130.2527  124.2700 H   0  0  0  0  0
   89.4545  131.4692  125.2709 H   0  0  0  0  0
   93.6941  128.8118  120.1951 H   0  0  0  0  0
   93.9578  129.2331  118.4963 H   0  0  0  0  0
   93.5921  132.3685  119.5252 H   0  0  0  0  0
   95.4162  133.8671  120.2129 H   0  0  0  0  0
   97.8724  130.4337  121.0438 H   0  0  0  0  0
   96.0182  129.0421  120.3054 H   0  0  0  0  0
   89.1805  132.4989  117.8503 H   0  0  0  0  0
   90.1444  132.7074  115.5911 H   0  0  0  0  0
   92.3807  131.6952  115.1343 H   0  0  0  0  0
   93.5531  130.5202  116.9911 H   0  0  0  0  0
  1  2  1  0  0  0
  8  1  1  0  0  0
  2  3  1  0  0  0
  2  5  1  0  0  0
  3  4  2  0  0  0
  3 29  1  0  0  0
  5  6  1  0  0  0
  5  7  1  0  0  0
  5 10  1  0  0  0
 11  8  1  0  0  0
  8 28  2  0  0  0
 29  9  1  0  0  0
 20 11  4  0  0  0
 11 26  4  0  0  0
 12 13  1  0  0  0
 27 12  1  0  0  0
 13 14  4  0  0  0
 13 18  4  0  0  0
 14 15  4  0  0  0
 15 16  4  0  0  0
 17 16  4  0  0  0
 16 25  1  0  0  0
 18 17  4  0  0  0
 19 20  4  0  0  0
 19 24  4  0  0  0
 19 27  4  0  0  0
 20 21  4  0  0  0
 21 22  4  0  0  0
 22 23  4  0  0  0
 23 24  4  0  0  0
 26 27  4  0  0  0
  1 30  1  0  0  0
  2 31  1  0  0  0
  6 32  1  0  0  0
  6 33  1  0  0  0
  6 34  1  0  0  0
  7 35  1  0  0  0
  7 36  1  0  0  0
  7 37  1  0  0  0
  9 38  1  0  0  0
  9 39  1  0  0  0
  9 40  1  0  0  0
 10 41  1  0  0  0
 10 42  1  0  0  0
 10 43  1  0  0  0
 12 44  1  0  0  0
 12 45  1  0  0  0
 14 46  1  0  0  0
 15 47  1  0  0  0
 17 48  1  0  0  0
 18 49  1  0  0  0
 21 50  1  0  0  0
 22 51  1  0  0  0
 23 52  1  0  0  0
 24 53  1  0  0  0
M  END
$$$$
