6u26_ligand
  -I-interpret- 

145149  0  0  0  0  0  0  0  0999 V2000
   34.4230   24.3500   24.6580 N   0  3  0  0  0
   38.5110   22.5720   25.3800 N   0  0  0  0  0
   38.5740   23.3810   23.2260 O   0  0  0  0  0
   40.3900   22.0250   26.7180 N   0  0  0  0  0
   41.0160   23.3340   24.5770 S   0  0  0  0  0
   39.7060   27.2380   25.3800 O   0  0  0  0  0
   38.6960   28.0270   27.7810 O   0  0  0  0  0
   44.3690   27.4280   25.6850 F   0  0  0  0  0
   40.2440   29.6660   29.4640 O   0  0  0  0  0
   48.7430   25.9610   30.7100 O   0  0  0  0  0
   47.9250   23.9440   31.2660 O   0  0  0  0  0
   43.6850   31.8980   31.1130 O   0  0  0  0  0
   42.5590   37.0060   33.9840 N   0  0  0  0  0
   41.1500   38.6180   33.0200 N   0  0  0  0  0
   41.3310   38.6160   35.2900 N   0  0  0  0  0
   40.5480   32.2770   32.7620 N   0  0  0  0  0
   34.0920   24.1970   26.1080 C   0  0  0  0  0
   35.8640   24.5200   24.3020 C   0  0  0  0  0
   36.5700   25.4480   25.2790 C   0  0  0  0  0
   35.9830   25.8450   26.4890 C   0  0  0  0  0
   34.6050   25.3660   26.9310 C   0  0  0  0  0
   37.8120   25.9440   24.9370 C   0  0  0  0  0
   38.4800   26.7700   25.8140 C   0  0  0  0  0
   37.9090   27.1640   27.0140 C   0  0  0  0  0
   36.6500   26.6990   27.3530 C   0  0  0  0  0
   36.4480   23.0930   24.3170 C   0  0  0  0  0
   35.8570   25.1150   22.8850 C   0  0  0  0  0
   37.9570   23.0170   24.2090 C   0  0  0  0  0
   39.8780   22.5770   25.6410 C   0  0  0  0  0
   41.7510   22.2170   26.7500 C   0  0  0  0  0
   42.2580   22.9120   25.6790 C   0  0  0  0  0
   40.8580   26.8450   26.0850 C   0  0  0  0  0
   40.8380   25.9840   27.1670 C   0  0  0  0  0
   42.0230   25.6640   27.8260 C   0  0  0  0  0
   43.2380   26.1650   27.3790 C   0  0  0  0  0
   43.2320   26.9500   26.2330 C   0  0  0  0  0
   42.0580   27.3300   25.5980 C   0  0  0  0  0
   44.4400   25.8700   28.1850 C   0  0  0  0  0
   38.2100   28.3700   29.0720 C   0  0  0  0  0
   39.4320   28.5920   29.9550 C   0  0  0  0  0
   41.6130   29.2550   29.3530 C   0  0  0  0  0
   45.4500   26.8090   28.3510 C   0  0  0  0  0
   46.5600   26.5380   29.1420 C   0  0  0  0  0
   46.6700   25.3230   29.7990 C   0  0  0  0  0
   45.6590   24.3900   29.6590 C   0  0  0  0  0
   44.5530   24.6650   28.8600 C   0  0  0  0  0
   47.8690   25.0500   30.6570 C   0  0  0  0  0
   42.4140   29.3980   30.6420 C   0  0  0  0  0
   41.9510   30.4400   31.5390 N   0  0  0  0  0
   42.6010   31.6590   31.6280 C   0  0  0  0  0
   41.8680   32.7370   32.3910 C   0  0  0  0  0
   42.6470   33.2430   33.5880 C   0  0  0  0  0
   43.0040   34.6990   33.3620 C   0  0  0  0  0
   42.1490   35.6270   34.1980 C   0  0  0  0  0
   41.6860   38.0640   34.1690 C   0  0  0  0  0
   43.1610   38.4690   36.6090 O   0  0  0  0  0
   44.0000   37.8010   37.5760 C   0  0  0  0  0
   43.5660   38.0490   39.0060 C   0  0  0  0  0
   44.1470   36.3170   37.3100 C   0  0  0  0  0
   45.3720   38.4110   37.4230 C   0  0  0  0  0
   41.8300   38.1340   36.4710 C   0  0  0  0  0
   41.1400   37.5430   37.2890 O   0  0  0  0  0
   39.9770   40.2290   31.9200 O   0  0  0  0  0
   40.3420   40.8400   30.6650 C   0  0  0  0  0
   40.3740   42.3480   30.7850 C   0  0  0  0  0
   39.2430   40.4920   29.6930 C   0  0  0  0  0
   41.6500   40.3380   30.0830 C   0  0  0  0  0
   40.9670   39.9790   32.8390 C   0  0  0  0  0
   41.5650   40.8700   33.4310 O   0  0  0  0  0
   38.3080   32.3690   32.6370 O   0  0  0  0  0
   37.0310   32.4350   31.9600 C   0  0  0  0  0
   36.7880   31.1830   31.1340 C   0  0  0  0  0
   36.7860   33.7130   31.1820 C   0  0  0  0  0
   35.9950   32.4890   33.0410 C   0  0  0  0  0
   39.4840   32.5130   31.9230 C   0  0  0  0  0
   39.6000   32.7990   30.7330 O   0  0  0  0  0
   33.9599   25.2075   24.3568 H   0  0  0  0  0
   34.1281   23.4808   24.2130 H   0  0  0  0  0
   37.8853   22.2163   26.1027 H   0  0  0  0  0
   47.1416   23.4278   31.0623 H   0  0  0  0  0
   43.5163   37.1987   33.6894 H   0  0  0  0  0
   40.4068   31.7800   33.6415 H   0  0  0  0  0
   34.5671   23.2866   26.4733 H   0  0  0  0  0
   33.0074   24.1570   26.2091 H   0  0  0  0  0
   34.6847   25.0342   27.9662 H   0  0  0  0  0
   33.9081   26.1942   26.8025 H   0  0  0  0  0
   38.2615   25.6836   23.9787 H   0  0  0  0  0
   36.1869   27.0021   28.2920 H   0  0  0  0  0
   36.0440   22.5787   23.4450 H   0  0  0  0  0
   36.1789   22.6532   25.2774 H   0  0  0  0  0
   35.3365   26.0726   22.8970 H   0  0  0  0  0
   36.8834   25.2621   22.5490 H   0  0  0  0  0
   35.3461   24.4308   22.2075 H   0  0  0  0  0
   42.3782   21.8470   27.5611 H   0  0  0  0  0
   43.3108   23.1618   25.5477 H   0  0  0  0  0
   39.8943   25.5554   27.5045 H   0  0  0  0  0
   41.9959   25.0142   28.7007 H   0  0  0  0  0
   42.0812   27.9955   24.7351 H   0  0  0  0  0
   37.5798   27.5764   29.4733 H   0  0  0  0  0
   37.5935   29.2679   29.0291 H   0  0  0  0  0
   39.0920   28.8462   30.9589 H   0  0  0  0  0
   40.0285   27.6797   29.9561 H   0  0  0  0  0
   42.0829   29.8983   28.6090 H   0  0  0  0  0
   41.6112   28.1970   29.0909 H   0  0  0  0  0
   45.3706   27.7750   27.8523 H   0  0  0  0  0
   47.3475   27.2844   29.2460 H   0  0  0  0  0
   45.7286   23.4337   30.1774 H   0  0  0  0  0
   43.7628   23.9204   28.7636 H   0  0  0  0  0
   43.4315   29.6609   30.3527 H   0  0  0  0  0
   42.3171   28.4544   31.1791 H   0  0  0  0  0
   41.1279   30.2706   32.1172 H   0  0  0  0  0
   41.7615   33.5941   31.7260 H   0  0  0  0  0
   43.5568   32.6554   33.7106 H   0  0  0  0  0
   42.0409   33.1478   34.4890 H   0  0  0  0  0
   42.8347   34.9329   32.3109 H   0  0  0  0  0
   44.0457   34.8436   33.6486 H   0  0  0  0  0
   41.1048   35.5133   33.9068 H   0  0  0  0  0
   42.2702   35.3755   35.2516 H   0  0  0  0  0
   43.6038   39.1180   39.2156 H   0  0  0  0  0
   42.5473   37.6863   39.1433 H   0  0  0  0  0
   44.2357   37.5205   39.6844 H   0  0  0  0  0
   43.1652   35.8446   37.3412 H   0  0  0  0  0
   44.5923   36.1679   36.3263 H   0  0  0  0  0
   44.7889   35.8745   38.0717 H   0  0  0  0  0
   45.7305   38.2456   36.4070 H   0  0  0  0  0
   45.3163   39.4816   37.6202 H   0  0  0  0  0
   46.0566   37.9448   38.1316 H   0  0  0  0  0
   39.3877   42.7090   31.0764 H   0  0  0  0  0
   41.1054   42.6357   31.5403 H   0  0  0  0  0
   40.6519   42.7818   29.8244 H   0  0  0  0  0
   39.1742   39.4084   29.5971 H   0  0  0  0  0
   38.2958   40.8863   30.0611 H   0  0  0  0  0
   39.4673   40.9306   28.7207 H   0  0  0  0  0
   42.4596   40.5404   30.7842 H   0  0  0  0  0
   41.5797   39.2646   29.9072 H   0  0  0  0  0
   41.8471   40.8496   29.1409 H   0  0  0  0  0
   37.5758   31.0834   30.3873 H   0  0  0  0  0
   36.7932   30.3111   31.7881 H   0  0  0  0  0
   35.8213   31.2596   30.6362 H   0  0  0  0  0
   36.8249   34.5640   31.8620 H   0  0  0  0  0
   37.5534   33.8232   30.4158 H   0  0  0  0  0
   35.8042   33.6674   30.7108 H   0  0  0  0  0
   36.0690   31.5938   33.6584 H   0  0  0  0  0
   36.1611   33.3721   33.6579 H   0  0  0  0  0
   35.0038   32.5402   32.5904 H   0  0  0  0  0
 17  1  1  0  0  0
 18  1  1  0  0  0
 28  2  1  0  0  0
  2 29  1  0  0  0
 28  3  2  0  0  0
 29  4  4  0  0  0
  4 30  4  0  0  0
 29  5  4  0  0  0
  5 31  4  0  0  0
 23  6  1  0  0  0
  6 32  1  0  0  0
  7 24  1  0  0  0
 39  7  1  0  0  0
 36  8  1  0  0  0
  9 40  1  0  0  0
 41  9  1  0  0  0
 47 10  2  0  0  0
 47 11  1  0  0  0
 50 12  2  0  0  0
 54 13  1  0  0  0
 13 55  1  0  0  0
 55 14  4  0  0  0
 14 68  1  0  0  0
 55 15  4  0  0  0
 15 61  1  0  0  0
 16 51  1  0  0  0
 75 16  1  0  0  0
 21 17  1  0  0  0
 19 18  1  0  0  0
 18 26  1  0  0  0
 18 27  1  0  0  0
 20 19  4  0  0  0
 22 19  4  0  0  0
 20 21  1  0  0  0
 25 20  4  0  0  0
 23 22  4  0  0  0
 24 23  4  0  0  0
 24 25  4  0  0  0
 26 28  1  0  0  0
 31 30  4  0  0  0
 32 33  4  0  0  0
 32 37  4  0  0  0
 33 34  4  0  0  0
 34 35  4  0  0  0
 36 35  4  0  0  0
 35 38  1  0  0  0
 37 36  4  0  0  0
 38 42  4  0  0  0
 38 46  4  0  0  0
 40 39  1  0  0  0
 48 41  1  0  0  0
 42 43  4  0  0  0
 43 44  4  0  0  0
 45 44  4  0  0  0
 44 47  1  0  0  0
 46 45  4  0  0  0
 49 48  1  0  0  0
 50 49  1  0  0  0
 51 50  1  0  0  0
 51 52  1  0  0  0
 52 53  1  0  0  0
 53 54  1  0  0  0
 56 57  1  0  0  0
 61 56  1  0  0  0
 57 58  1  0  0  0
 57 59  1  0  0  0
 57 60  1  0  0  0
 61 62  2  0  0  0
 63 64  1  0  0  0
 68 63  1  0  0  0
 64 65  1  0  0  0
 64 66  1  0  0  0
 64 67  1  0  0  0
 68 69  2  0  0  0
 70 71  1  0  0  0
 70 75  1  0  0  0
 71 72  1  0  0  0
 71 73  1  0  0  0
 71 74  1  0  0  0
 75 76  2  0  0  0
  1 77  1  0  0  0
  1 78  1  0  0  0
  2 79  1  0  0  0
 11 80  1  0  0  0
 13 81  1  0  0  0
 16 82  1  0  0  0
 17 83  1  0  0  0
 17 84  1  0  0  0
 21 85  1  0  0  0
 21 86  1  0  0  0
 22 87  1  0  0  0
 25 88  1  0  0  0
 26 89  1  0  0  0
 26 90  1  0  0  0
 27 91  1  0  0  0
 27 92  1  0  0  0
 27 93  1  0  0  0
 30 94  1  0  0  0
 31 95  1  0  0  0
 33 96  1  0  0  0
 34 97  1  0  0  0
 37 98  1  0  0  0
 39 99  1  0  0  0
 39100  1  0  0  0
 40101  1  0  0  0
 40102  1  0  0  0
 41103  1  0  0  0
 41104  1  0  0  0
 42105  1  0  0  0
 43106  1  0  0  0
 45107  1  0  0  0
 46108  1  0  0  0
 48109  1  0  0  0
 48110  1  0  0  0
 49111  1  0  0  0
 51112  1  0  0  0
 52113  1  0  0  0
 52114  1  0  0  0
 53115  1  0  0  0
 53116  1  0  0  0
 54117  1  0  0  0
 54118  1  0  0  0
 58119  1  0  0  0
 58120  1  0  0  0
 58121  1  0  0  0
 59122  1  0  0  0
 59123  1  0  0  0
 59124  1  0  0  0
 60125  1  0  0  0
 60126  1  0  0  0
 60127  1  0  0  0
 65128  1  0  0  0
 65129  1  0  0  0
 65130  1  0  0  0
 66131  1  0  0  0
 66132  1  0  0  0
 66133  1  0  0  0
 67134  1  0  0  0
 67135  1  0  0  0
 67136  1  0  0  0
 72137  1  0  0  0
 72138  1  0  0  0
 72139  1  0  0  0
 73140  1  0  0  0
 73141  1  0  0  0
 73142  1  0  0  0
 74143  1  0  0  0
 74144  1  0  0  0
 74145  1  0  0  0
M  END
$$$$
