### 
### Created by X-TOOL on Mon Aug  2 16:16:55 2021
### 

@<TRIPOS>MOLECULE
6u26_ligand
  146   150     1     0     0
SMALL
GAST_HUCK


@<TRIPOS>ATOM
      1 N1         34.4230   24.3500   24.6580 N.4       1 MOL         0.1698
      2 N2         38.5110   22.5720   25.3800 N.am      1 MOL        -0.1950
      3 O3         38.5740   23.3810   23.2260 O.2       1 MOL        -0.3810
      4 N4         40.3900   22.0250   26.7180 N.2       1 MOL        -0.3233
      5 S5         41.0160   23.3340   24.5770 S.3       1 MOL         0.0111
      6 O6         39.7060   27.2380   25.3800 O.3       1 MOL        -0.2540
      7 O7         38.6960   28.0270   27.7810 O.3       1 MOL        -0.2920
      8 F8         44.3690   27.4280   25.6850 F         1 MOL        -0.1835
      9 O9         40.2440   29.6660   29.4640 O.3       1 MOL        -0.3750
     10 O10        48.7430   25.9610   30.7100 O.co2     1 MOL        -0.5614
     11 O11        47.9250   23.9440   31.2660 O.co2     1 MOL        -0.5614
     12 O12        43.6850   31.8980   31.1130 O.2       1 MOL        -0.3945
     13 N13        42.5590   37.0060   33.9840 N.pl3     1 MOL        -0.1867
     14 N14        41.1500   38.6180   33.0200 N.am      1 MOL        -0.1694
     15 N15        41.3310   38.6160   35.2900 N.am      1 MOL        -0.1694
     16 N16        40.5480   32.2770   32.7620 N.am      1 MOL        -0.2412
     17 C17        34.0920   24.1970   26.1080 C.3       1 MOL        -0.0256
     18 C18        35.8640   24.5200   24.3020 C.3       1 MOL        -0.0216
     19 C19        36.5700   25.4480   25.2790 C.ar      1 MOL        -0.0234
     20 C20        35.9830   25.8450   26.4890 C.ar      1 MOL        -0.0204
     21 C21        34.6050   25.3660   26.9310 C.3       1 MOL         0.0320
     22 C22        37.8120   25.9440   24.9370 C.ar      1 MOL        -0.0153
     23 C23        38.4800   26.7700   25.8140 C.ar      1 MOL         0.1733
     24 C24        37.9090   27.1640   27.0140 C.ar      1 MOL         0.1614
     25 C25        36.6500   26.6990   27.3530 C.ar      1 MOL         0.0020
     26 C26        36.4480   23.0930   24.3170 C.3       1 MOL         0.0564
     27 C27        35.8570   25.1150   22.8850 C.3       1 MOL        -0.0517
     28 C28        37.9570   23.0170   24.2090 C.2       1 MOL         0.2091
     29 C29        39.8780   22.5770   25.6410 C.2       1 MOL         0.2057
     30 C30        41.7510   22.2170   26.7500 C.2       1 MOL        -0.0467
     31 C31        42.2580   22.9120   25.6790 C.2       1 MOL        -0.0079
     32 C32        40.8580   26.8450   26.0850 C.ar      1 MOL         0.1147
     33 C33        40.8380   25.9840   27.1670 C.ar      1 MOL        -0.0305
     34 C34        42.0230   25.6640   27.8260 C.ar      1 MOL        -0.0616
     35 C35        43.2380   26.1650   27.3790 C.ar      1 MOL         0.0082
     36 C36        43.2320   26.9500   26.2330 C.ar      1 MOL         0.1354
     37 C37        42.0580   27.3300   25.5980 C.ar      1 MOL         0.0069
     38 C38        44.4400   25.8700   28.1850 C.ar      1 MOL        -0.0221
     39 C39        38.2100   28.3700   29.0720 C.3       1 MOL         0.1016
     40 C40        39.4320   28.5920   29.9550 C.3       1 MOL         0.0769
     41 C41        41.6130   29.2550   29.3530 C.3       1 MOL         0.0679
     42 C42        45.4500   26.8090   28.3510 C.ar      1 MOL        -0.0543
     43 C43        46.5600   26.5380   29.1420 C.ar      1 MOL        -0.0497
     44 C44        46.6700   25.3230   29.7990 C.ar      1 MOL         0.0077
     45 C45        45.6590   24.3900   29.6590 C.ar      1 MOL        -0.0497
     46 C46        44.5530   24.6650   28.8600 C.ar      1 MOL        -0.0543
     47 C47        47.8690   25.0500   30.6570 C.2       1 MOL         0.0613
     48 C48        42.4140   29.3980   30.6420 C.3       1 MOL         0.0543
     49 N49        41.9510   30.4400   31.5390 N.am      1 MOL        -0.2829
     50 C50        42.6010   31.6590   31.6280 C.2       1 MOL         0.2017
     51 C51        41.8680   32.7370   32.3910 C.3       1 MOL         0.1329
     52 C52        42.6470   33.2430   33.5880 C.3       1 MOL        -0.0063
     53 C53        43.0040   34.6990   33.3620 C.3       1 MOL         0.0141
     54 C54        42.1490   35.6270   34.1980 C.3       1 MOL         0.1480
     55 C55        41.6860   38.0640   34.1690 C.cat     1 MOL         0.3812
     56 O56        43.1610   38.4690   36.6090 O.3       1 MOL        -0.2579
     57 C57        44.0000   37.8010   37.5760 C.3       1 MOL         0.0905
     58 C58        43.5660   38.0490   39.0060 C.3       1 MOL        -0.0320
     59 C59        44.1470   36.3170   37.3100 C.3       1 MOL        -0.0320
     60 C60        45.3720   38.4110   37.4230 C.3       1 MOL        -0.0320
     61 C61        41.8300   38.1340   36.4710 C.2       1 MOL         0.3275
     62 O62        41.1400   37.5430   37.2890 O.2       1 MOL        -0.3773
     63 O63        39.9770   40.2290   31.9200 O.3       1 MOL        -0.2579
     64 C64        40.3420   40.8400   30.6650 C.3       1 MOL         0.0905
     65 C65        40.3740   42.3480   30.7850 C.3       1 MOL        -0.0320
     66 C66        39.2430   40.4920   29.6930 C.3       1 MOL        -0.0320
     67 C67        41.6500   40.3380   30.0830 C.3       1 MOL        -0.0320
     68 C68        40.9670   39.9790   32.8390 C.2       1 MOL         0.3275
     69 O69        41.5650   40.8700   33.4310 O.2       1 MOL        -0.3773
     70 O70        38.3080   32.3690   32.6370 O.3       1 MOL        -0.2580
     71 C71        37.0310   32.4350   31.9600 C.3       1 MOL         0.0905
     72 C72        36.7880   31.1830   31.1340 C.3       1 MOL        -0.0320
     73 C73        36.7860   33.7130   31.1820 C.3       1 MOL        -0.0320
     74 C74        35.9950   32.4890   33.0410 C.3       1 MOL        -0.0320
     75 C75        39.4840   32.5130   31.9230 C.2       1 MOL         0.3223
     76 O76        39.6000   32.7990   30.7330 O.2       1 MOL        -0.3774
     77 H1         33.9288   25.1600   24.3177 H         1 MOL         0.1963
     78 H2         34.0878   23.5273   24.1818 H         1 MOL         0.1963
     79 H3         37.8975   22.2233   26.0886 H         1 MOL         0.2410
     80 H4         43.5257   37.2006   33.6866 H         1 MOL         0.4637
     81 H5         40.8800   38.0022   32.2798 H         1 MOL         0.1967
     82 H6         40.6966   39.3890   35.2907 H         1 MOL         0.1967
     83 H7         40.4096   31.7898   33.6242 H         1 MOL         0.1899
     84 H8         34.5510   23.2699   26.4820 H         1 MOL         0.0847
     85 H9         32.9993   24.1359   26.2191 H         1 MOL         0.0847
     86 H10        34.6632   25.0546   27.9844 H         1 MOL         0.0543
     87 H11        33.8957   26.2012   26.8342 H         1 MOL         0.0543
     88 H12        38.2590   25.6851   23.9840 H         1 MOL         0.0673
     89 H13        36.1895   27.0005   28.2869 H         1 MOL         0.0560
     90 H14        36.0171   22.5391   23.4699 H         1 MOL         0.0434
     91 H15        36.1489   22.6119   25.2599 H         1 MOL         0.0434
     92 H16        36.8923   25.2713   22.5479 H         1 MOL         0.0154
     93 H17        35.3251   26.0778   22.8942 H         1 MOL         0.0154
     94 H18        35.3487   24.4218   22.1987 H         1 MOL         0.0154
     95 H19        42.3776   21.8473   27.5603 H         1 MOL         0.0497
     96 H20        43.3099   23.1616   25.5479 H         1 MOL         0.0573
     97 H21        39.8995   25.5577   27.5026 H         1 MOL         0.0525
     98 H22        41.9960   25.0178   28.6959 H         1 MOL         0.0595
     99 H23        42.0811   27.9919   24.7398 H         1 MOL         0.0541
    100 H24        37.5946   27.5522   29.4751 H         1 MOL         0.0654
    101 H25        37.6087   29.2895   29.0188 H         1 MOL         0.0654
    102 H26        39.0975   28.8335   30.9747 H         1 MOL         0.0588
    103 H27        40.0316   27.6700   29.9745 H         1 MOL         0.0588
    104 H28        42.0955   29.8676   28.5772 H         1 MOL         0.0580
    105 H29        41.6325   28.1977   29.0501 H         1 MOL         0.0580
    106 H30        45.3710   27.7697   27.8550 H         1 MOL         0.0609
    107 H31        47.3432   27.2803   29.2455 H         1 MOL         0.0644
    108 H32        45.7282   23.4389   30.1745 H         1 MOL         0.0644
    109 H33        43.7672   23.9245   28.7642 H         1 MOL         0.0609
    110 H34        43.4575   29.6184   30.3727 H         1 MOL         0.0543
    111 H35        42.3687   28.4396   31.1800 H         1 MOL         0.0543
    112 H36        41.1441   30.2739   32.1058 H         1 MOL         0.1852
    113 H37        41.7400   33.5901   31.7085 H         1 MOL         0.0799
    114 H38        43.5668   32.6515   33.7068 H         1 MOL         0.0314
    115 H39        42.0317   33.1503   34.4950 H         1 MOL         0.0314
    116 H40        42.8560   34.9405   32.2991 H         1 MOL         0.0333
    117 H41        44.0601   34.8517   33.6291 H         1 MOL         0.0333
    118 H42        41.0943   35.5110   33.9081 H         1 MOL         0.1073
    119 H43        42.2671   35.3723   35.2616 H         1 MOL         0.1073
    120 H44        44.2412   37.5161   39.6917 H         1 MOL         0.0260
    121 H45        42.5380   37.6834   39.1459 H         1 MOL         0.0260
    122 H46        43.6037   39.1275   39.2189 H         1 MOL         0.0260
    123 H47        44.7947   35.8692   38.0781 H         1 MOL         0.0260
    124 H48        44.5963   36.1651   36.3175 H         1 MOL         0.0260
    125 H49        43.1568   35.8390   37.3413 H         1 MOL         0.0260
    126 H50        46.0638   37.9413   38.1377 H         1 MOL         0.0260
    127 H51        45.3172   39.4915   37.6218 H         1 MOL         0.0260
    128 H52        45.7350   38.2447   36.3980 H         1 MOL         0.0260
    129 H53        40.6544   42.7870   29.8162 H         1 MOL         0.0260
    130 H54        41.1118   42.6397   31.5469 H         1 MOL         0.0260
    131 H55        39.3791   42.7137   31.0790 H         1 MOL         0.0260
    132 H56        39.4682   40.9341   28.7113 H         1 MOL         0.0260
    133 H57        38.2865   40.8894   30.0633 H         1 MOL         0.0260
    134 H58        39.1726   39.3986   29.5952 H         1 MOL         0.0260
    135 H59        41.8501   40.8536   29.1322 H         1 MOL         0.0260
    136 H60        41.5804   39.2547   29.9050 H         1 MOL         0.0260
    137 H61        42.4679   40.5417   30.7897 H         1 MOL         0.0260
    138 H62        35.8127   31.2591   30.6311 H         1 MOL         0.0260
    139 H63        36.7930   30.3022   31.7930 H         1 MOL         0.0260
    140 H64        37.5824   31.0813   30.3799 H         1 MOL         0.0260
    141 H65        35.7954   33.6682   30.7060 H         1 MOL         0.0260
    142 H66        37.5598   33.8254   30.4083 H         1 MOL         0.0260
    143 H67        36.8250   34.5726   31.8672 H         1 MOL         0.0260
    144 H68        34.9942   32.5407   32.5874 H         1 MOL         0.0260
    145 H69        36.1615   33.3799   33.6643 H         1 MOL         0.0260
    146 H70        36.0685   31.5860   33.6648 H         1 MOL         0.0260
@<TRIPOS>BOND
     1   17    1 1  
     2   18    1 1  
     3   28    2 am 
     4    2   29 1  
     5   28    3 2  
     6   29    4 2  
     7    4   30 1  
     8   29    5 1  
     9    5   31 1  
    10   23    6 1  
    11    6   32 1  
    12    7   24 1  
    13   39    7 1  
    14   36    8 1  
    15    9   40 1  
    16   41    9 1  
    17   47   10 ar 
    18   47   11 ar 
    19   50   12 2  
    20   54   13 1  
    21   13   55 ar 
    22   55   14 ar 
    23   14   68 am 
    24   55   15 ar 
    25   15   61 am 
    26   16   51 1  
    27   75   16 am 
    28   21   17 1  
    29   19   18 1  
    30   18   26 1  
    31   18   27 1  
    32   20   19 ar 
    33   22   19 ar 
    34   20   21 1  
    35   25   20 ar 
    36   23   22 ar 
    37   24   23 ar 
    38   24   25 ar 
    39   26   28 1  
    40   31   30 2  
    41   32   33 ar 
    42   32   37 ar 
    43   33   34 ar 
    44   34   35 ar 
    45   36   35 ar 
    46   35   38 1  
    47   37   36 ar 
    48   38   42 ar 
    49   38   46 ar 
    50   40   39 1  
    51   48   41 1  
    52   42   43 ar 
    53   43   44 ar 
    54   45   44 ar 
    55   44   47 1  
    56   46   45 ar 
    57   49   48 1  
    58   50   49 am 
    59   51   50 1  
    60   51   52 1  
    61   52   53 1  
    62   53   54 1  
    63   56   57 1  
    64   61   56 1  
    65   57   58 1  
    66   57   59 1  
    67   57   60 1  
    68   61   62 2  
    69   63   64 1  
    70   68   63 1  
    71   64   65 1  
    72   64   66 1  
    73   64   67 1  
    74   68   69 2  
    75   70   71 1  
    76   70   75 1  
    77   71   72 1  
    78   71   73 1  
    79   71   74 1  
    80   75   76 2  
    81    1   77 1  
    82    1   78 1  
    83    2   79 1  
    84   13   80 1  
    85   14   81 1  
    86   15   82 1  
    87   16   83 1  
    88   17   84 1  
    89   17   85 1  
    90   21   86 1  
    91   21   87 1  
    92   22   88 1  
    93   25   89 1  
    94   26   90 1  
    95   26   91 1  
    96   27   92 1  
    97   27   93 1  
    98   27   94 1  
    99   30   95 1  
   100   31   96 1  
   101   33   97 1  
   102   34   98 1  
   103   37   99 1  
   104   39  100 1  
   105   39  101 1  
   106   40  102 1  
   107   40  103 1  
   108   41  104 1  
   109   41  105 1  
   110   42  106 1  
   111   43  107 1  
   112   45  108 1  
   113   46  109 1  
   114   48  110 1  
   115   48  111 1  
   116   49  112 1  
   117   51  113 1  
   118   52  114 1  
   119   52  115 1  
   120   53  116 1  
   121   53  117 1  
   122   54  118 1  
   123   54  119 1  
   124   58  120 1  
   125   58  121 1  
   126   58  122 1  
   127   59  123 1  
   128   59  124 1  
   129   59  125 1  
   130   60  126 1  
   131   60  127 1  
   132   60  128 1  
   133   65  129 1  
   134   65  130 1  
   135   65  131 1  
   136   66  132 1  
   137   66  133 1  
   138   66  134 1  
   139   67  135 1  
   140   67  136 1  
   141   67  137 1  
   142   72  138 1  
   143   72  139 1  
   144   72  140 1  
   145   73  141 1  
   146   73  142 1  
   147   73  143 1  
   148   74  144 1  
   149   74  145 1  
   150   74  146 1  
@<TRIPOS>SUBSTRUCTURE
     1 MOL         1

