1k1n_ligand
  -I-interpret- 

 81 83  0  0  0  0  0  0  0  0999 V2000
   -1.1610   15.9210   18.7940 C   0  0  0  0  0
   -2.2510   16.2390   17.9570 C   0  0  0  0  0
   -2.4960   15.4860   16.8130 C   0  0  0  0  0
   -0.6290   14.0620   17.3350 C   0  0  0  0  0
   -0.3600   14.8220   18.4810 C   0  0  0  0  0
   -1.7020   14.3660   16.4650 C   0  0  0  0  0
   -1.9850   13.5460   15.2290 C   0  0  0  0  0
   -2.6060   14.0610   14.1910 N   0  0  0  0  0
   -1.6020   12.2830   15.1330 N   0  0  0  0  0
   -0.8830   16.7710   20.0210 C   0  0  0  0  0
    0.1430   17.8700   19.6190 C   0  0  0  0  0
   -0.5090   18.8490   18.7710 N   0  0  0  0  0
    0.5480   18.6580   20.8480 C   0  0  0  0  0
   -0.2610   18.7330   21.7610 O   0  0  0  0  0
    1.7630   19.2570   20.9060 N   0  0  0  0  0
    2.1020   20.0820   22.0650 C   0  0  0  0  0
    2.1600   21.5440   21.6280 C   0  0  0  0  0
    3.1630   21.6850   20.4460 C   0  0  0  0  0
    2.6840   20.8010   19.2710 C   0  0  0  0  0
    2.6240   19.3280   19.7190 C   0  0  0  0  0
   -0.6380   20.4090   15.4420 N   0  0  0  0  0
   -0.5480   21.9710   14.9630 S   0  0  0  0  0
   -1.7860   22.5480   15.4320 O   0  0  0  0  0
   -0.4330   21.9640   13.5300 O   0  0  0  0  0
    0.9230   22.5860   15.6520 C   0  0  0  0  0
    0.8790   23.6800   16.5800 C   0  0  0  0  0
    2.0660   24.1870   17.1710 C   0  0  0  0  0
    3.3110   23.6100   16.8580 C   0  0  0  0  0
    3.3440   22.5220   15.9590 C   0  0  0  0  0
    2.1830   22.0070   15.3510 C   0  0  0  0  0
   -0.4370   24.3850   16.9880 C   0  0  0  0  0
    2.0720   25.3710   18.1710 C   0  0  0  0  0
    2.5000   20.8290   14.3960 C   0  0  0  0  0
    4.4940   24.1220   17.4630 O   0  0  0  0  0
    5.7750   23.4850   17.2280 C   0  0  0  0  0
   -1.0760   20.0720   16.7690 C   0  0  0  0  0
   -2.5130   19.5450   16.6440 C   0  0  0  0  0
   -3.3320   19.8250   17.8750 C   0  0  0  0  0
   -4.5130   19.4630   17.8290 O   0  0  0  0  0
   -2.8240   20.4280   18.8600 O   0  0  0  0  0
   -0.2230   19.0280   17.4520 C   0  0  0  0  0
    0.6400   18.4310   16.8340 O   0  0  0  0  0
   -2.9026   17.0763   18.2070 H   0  0  0  0  0
   -3.3254   15.7670   16.1639 H   0  0  0  0  0
    0.0095   13.2086   17.1065 H   0  0  0  0  0
    0.4753   14.5547   19.1283 H   0  0  0  0  0
   -2.7723   13.4909   13.3617 H   0  0  0  0  0
   -1.7925   11.7557   14.2809 H   0  0  0  0  0
   -1.1163   11.8368   15.9111 H   0  0  0  0  0
   -0.4801   16.1541   20.8242 H   0  0  0  0  0
   -1.8049   17.2284   20.3802 H   0  0  0  0  0
    0.9866   17.3797   19.1331 H   0  0  0  0  0
   -1.2270   19.4407   19.1889 H   0  0  0  0  0
    3.0690   19.7774   22.4652 H   0  0  0  0  0
    1.3462   19.9579   22.8406 H   0  0  0  0  0
    2.4890   22.1627   22.4629 H   0  0  0  0  0
    1.1701   21.8701   21.3089 H   0  0  0  0  0
    4.1550   21.3657   20.7656 H   0  0  0  0  0
    3.2110   22.7261   20.1269 H   0  0  0  0  0
    3.3817   20.8972   18.4391 H   0  0  0  0  0
    1.6911   21.1238   18.9578 H   0  0  0  0  0
    2.2212   18.7049   18.9205 H   0  0  0  0  0
    3.6236   18.9618   19.9531 H   0  0  0  0  0
   -0.3805   19.6664   14.7919 H   0  0  0  0  0
    4.3050   22.0630   15.7266 H   0  0  0  0  0
   -0.9100   24.8094   16.1024 H   0  0  0  0  0
   -1.1085   23.6601   17.4480 H   0  0  0  0  0
   -0.2160   25.1803   17.6999 H   0  0  0  0  0
    1.6552   26.2549   17.6881 H   0  0  0  0  0
    1.4692   25.1127   19.0416 H   0  0  0  0  0
    3.0959   25.5753   18.4841 H   0  0  0  0  0
    1.9717   19.9372   14.7333 H   0  0  0  0  0
    2.1771   21.0842   13.3867 H   0  0  0  0  0
    3.5734   20.6397   14.3985 H   0  0  0  0  0
    5.7340   22.4516   17.5722 H   0  0  0  0  0
    5.9993   23.5055   16.1615 H   0  0  0  0  0
    6.5514   24.0207   17.7742 H   0  0  0  0  0
   -1.0015   20.9666   17.3873 H   0  0  0  0  0
   -2.4666   18.4647   16.5067 H   0  0  0  0  0
   -2.9861   20.0485   15.8009 H   0  0  0  0  0
   -1.8991   20.6111   18.6794 H   0  0  0  0  0
  1 10  1  0  0  0
  1  5  4  0  0  0
  1  2  4  0  0  0
  2  3  4  0  0  0
  3  6  4  0  0  0
  6  4  4  0  0  0
  6  7  1  0  0  0
  7  9  1  0  0  0
  7  8  2  0  0  0
  4  5  4  0  0  0
 10 11  1  0  0  0
 11 13  1  0  0  0
 11 12  1  0  0  0
 12 41  1  0  0  0
 41 42  2  0  0  0
 41 36  1  0  0  0
 36 37  1  0  0  0
 36 21  1  0  0  0
 21 22  1  0  0  0
 22 25  1  0  0  0
 22 24  2  0  0  0
 22 23  2  0  0  0
 25 30  4  0  0  0
 25 26  4  0  0  0
 26 31  1  0  0  0
 26 27  4  0  0  0
 27 32  1  0  0  0
 27 28  4  0  0  0
 28 34  1  0  0  0
 28 29  4  0  0  0
 29 30  4  0  0  0
 30 33  1  0  0  0
 34 35  1  0  0  0
 37 38  1  0  0  0
 38 40  1  0  0  0
 38 39  2  0  0  0
 13 15  1  0  0  0
 13 14  2  0  0  0
 15 20  1  0  0  0
 15 16  1  0  0  0
 16 17  1  0  0  0
 17 18  1  0  0  0
 18 19  1  0  0  0
 19 20  1  0  0  0
  2 43  1  0  0  0
  3 44  1  0  0  0
  4 45  1  0  0  0
  5 46  1  0  0  0
  8 47  1  0  0  0
  9 48  1  0  0  0
  9 49  1  0  0  0
 10 50  1  0  0  0
 10 51  1  0  0  0
 11 52  1  0  0  0
 12 53  1  0  0  0
 16 54  1  0  0  0
 16 55  1  0  0  0
 17 56  1  0  0  0
 17 57  1  0  0  0
 18 58  1  0  0  0
 18 59  1  0  0  0
 19 60  1  0  0  0
 19 61  1  0  0  0
 20 62  1  0  0  0
 20 63  1  0  0  0
 21 64  1  0  0  0
 29 65  1  0  0  0
 31 66  1  0  0  0
 31 67  1  0  0  0
 31 68  1  0  0  0
 32 69  1  0  0  0
 32 70  1  0  0  0
 32 71  1  0  0  0
 33 72  1  0  0  0
 33 73  1  0  0  0
 33 74  1  0  0  0
 35 75  1  0  0  0
 35 76  1  0  0  0
 35 77  1  0  0  0
 36 78  1  0  0  0
 37 79  1  0  0  0
 37 80  1  0  0  0
 40 81  1  0  0  0
M  END
$$$$
