3hku_ligand
  -I-interpret- 

 43 45  0  0  0  0  0  0  0  0999 V2000
   17.1660    7.9240   13.3690 C   0  0  0  0  0
   16.4080    6.6220   13.6940 C   0  0  0  0  0
   15.2040    6.8900   14.6100 C   0  0  0  0  0
   17.3610    5.6750   14.3050 O   0  0  0  0  0
   15.9650    6.0270   12.4750 O   0  0  0  0  0
   15.9590    4.5870   12.7530 C   0  0  0  0  0
   16.1250    3.8180   11.4060 C   0  0  0  0  0
   16.0700    2.4320   11.7090 O   0  0  0  0  0
   16.8590    1.7650   10.7100 C   0  0  0  0  0
   16.0510    1.4790    9.4210 C   0  0  0  0  0
   17.4250    0.4790   11.3180 C   0  0  0  0  0
   17.9560    2.6640   10.4220 O   0  0  0  0  0
   17.5010    4.0000   10.7580 C   0  0  0  0  0
   18.5360    4.5920   11.7150 C   0  0  0  0  0
   18.3500    4.0350   13.0500 O   0  0  0  0  0
   17.1570    4.4160   13.7190 C   0  0  0  0  0
   16.9260    3.3700   14.8380 C   0  0  0  0  0
   15.7080    3.5690   15.5330 O   0  0  0  0  0
   15.3430    2.7600   16.7370 S   0  0  0  0  0
   16.1920    3.2560   17.8520 O   0  0  0  0  0
   13.8850    2.9840   16.8950 O   0  0  0  0  0
   15.7010    1.2370   16.4040 N   0  0  0  0  0
   18.0243    7.6952   12.7373 H   0  0  0  0  0
   16.5000    8.6095   12.8450 H   0  0  0  0  0
   17.5079    8.3849   14.2957 H   0  0  0  0  0
   14.5114    7.5663   14.1090 H   0  0  0  0  0
   14.6999    5.9490   14.8299 H   0  0  0  0  0
   15.5496    7.3442   15.5386 H   0  0  0  0  0
   15.0439    4.1953   13.1972 H   0  0  0  0  0
   15.3519    4.1921   10.7348 H   0  0  0  0  0
   15.6531    2.4146    9.0281 H   0  0  0  0  0
   16.7041    1.0202    8.6786 H   0  0  0  0  0
   15.2289    0.8015    9.6518 H   0  0  0  0  0
   18.1093    0.0137   10.6085 H   0  0  0  0  0
   17.9598    0.7180   12.2372 H   0  0  0  0  0
   16.6075   -0.2071   11.5396 H   0  0  0  0  0
   17.4052    4.6774    9.9094 H   0  0  0  0  0
   18.4119    5.6742   11.7555 H   0  0  0  0  0
   19.5370    4.3482   11.3590 H   0  0  0  0  0
   17.7398    3.4653   15.5569 H   0  0  0  0  0
   16.8870    2.3856   14.3716 H   0  0  0  0  0
   16.4257    0.7554   16.9362 H   0  0  0  0  0
   15.2046    0.7475   15.6595 H   0  0  0  0  0
  1  2  1  0  0  0
  2  3  1  0  0  0
  2  4  1  0  0  0
  2  5  1  0  0  0
  4 16  1  0  0  0
  5  6  1  0  0  0
  6  7  1  0  0  0
  6 16  1  0  0  0
  7  8  1  0  0  0
  7 13  1  0  0  0
  8  9  1  0  0  0
  9 10  1  0  0  0
  9 11  1  0  0  0
  9 12  1  0  0  0
 12 13  1  0  0  0
 13 14  1  0  0  0
 14 15  1  0  0  0
 15 16  1  0  0  0
 16 17  1  0  0  0
 17 18  1  0  0  0
 18 19  1  0  0  0
 19 20  2  0  0  0
 19 21  2  0  0  0
 19 22  1  0  0  0
  1 23  1  0  0  0
  1 24  1  0  0  0
  1 25  1  0  0  0
  3 26  1  0  0  0
  3 27  1  0  0  0
  3 28  1  0  0  0
  6 29  1  0  0  0
  7 30  1  0  0  0
 10 31  1  0  0  0
 10 32  1  0  0  0
 10 33  1  0  0  0
 11 34  1  0  0  0
 11 35  1  0  0  0
 11 36  1  0  0  0
 13 37  1  0  0  0
 14 38  1  0  0  0
 14 39  1  0  0  0
 17 40  1  0  0  0
 17 41  1  0  0  0
 22 42  1  0  0  0
 22 43  1  0  0  0
M  END
$$$$
