6r7d_ligand
  -I-interpret- 

 54 58  0  0  0  0  0  0  0  0999 V2000
    6.4980   59.1970   25.9550 C   0  0  0  0  0
    7.5120   60.1260   25.7670 C   0  0  0  0  0
    7.6850   61.1840   26.6580 C   0  0  0  0  0
    5.0100   60.4760   29.0730 C   0  0  0  0  0
    5.2220   61.5520   29.9560 C   0  0  0  0  0
    6.2230   62.5000   29.7450 C   0  0  0  0  0
    7.0350   62.3940   28.6260 C   0  0  0  0  0
    4.0400   58.1560   29.6550 C   0  0  0  0  0
    3.1660   57.1810   29.1710 C   0  0  0  0  0
    4.2000   55.5720   30.3840 C   0  0  0  0  0
    4.3440   54.1770   30.7920 C   0  0  0  0  0
    3.2290   51.8870   31.2540 C   0  0  0  0  0
    2.0390   51.2960   31.9790 C   0  0  0  0  0
    6.8230   58.1590   31.9700 C   0  0  0  0  0
    1.1260   60.9880   27.1610 C   0  0  0  0  0
    2.4580   60.6950   26.5570 C   0  0  0  0  0
    6.8590   61.3180   27.7560 C   0  0  0  0  0
    5.8470   60.3630   27.9700 C   0  0  0  0  0
    5.6720   59.3270   27.0660 C   0  0  0  0  0
    3.9650   59.5220   29.2670 N   0  0  0  0  0
    3.2220   55.8850   29.5210 N   0  0  0  0  0
    3.1880   53.2330   30.5750 C   0  0  0  0  0
    3.2980   51.9850   29.7270 C   0  0  0  0  0
    2.1390   50.6120   33.0090 O   0  0  0  0  0
    0.8620   51.5540   31.3520 O   0  0  0  0  0
    5.4140   53.8300   31.3140 O   0  0  0  0  0
    5.1020   56.4020   30.9370 N   0  0  0  0  0
    4.9950   57.6830   30.5350 C   0  0  0  0  0
    5.8660   58.6270   31.0070 O   0  0  0  0  0
    2.6220   60.1200   29.1260 C   0  0  0  0  0
    2.0260   59.9480   27.7850 C   0  0  0  0  0
    6.3521   58.3820   25.2460 H   0  0  0  0  0
    8.1811   60.0270   24.9123 H   0  0  0  0  0
    8.4787   61.9112   26.4864 H   0  0  0  0  0
    4.5826   61.6473   30.8336 H   0  0  0  0  0
    6.3656   63.3164   30.4530 H   0  0  0  0  0
    7.8020   63.1429   28.4285 H   0  0  0  0  0
    2.3925   57.4893   28.4676 H   0  0  0  0  0
    3.8451   51.4332   32.0303 H   0  0  0  0  0
    6.2979   57.7625   32.8390 H   0  0  0  0  0
    7.4325   57.3738   31.5226 H   0  0  0  0  0
    7.4624   58.9867   32.2767 H   0  0  0  0  0
    0.0880   61.0863   26.8432 H   0  0  0  0  0
    0.5411   61.8544   27.4698 H   0  0  0  0  0
    3.3302   61.2469   26.2067 H   0  0  0  0  0
    2.8729   60.4715   25.5741 H   0  0  0  0  0
    4.8740   58.6025   27.2286 H   0  0  0  0  0
    2.5105   54.0865   30.5487 H   0  0  0  0  0
    2.8237   51.5406   28.8519 H   0  0  0  0  0
    3.9006   51.5999   28.9044 H   0  0  0  0  0
    1.0252   52.1006   30.5798 H   0  0  0  0  0
    2.7250   61.1912   29.2993 H   0  0  0  0  0
    1.9675   59.6170   29.8379 H   0  0  0  0  0
    1.9488   58.8928   28.0472 H   0  0  0  0  0
  1  2  4  0  0  0
 19  1  4  0  0  0
  3  2  4  0  0  0
 17  3  4  0  0  0
  4  5  4  0  0  0
  4 18  4  0  0  0
 20  4  1  0  0  0
  5  6  4  0  0  0
  6  7  4  0  0  0
 17  7  4  0  0  0
  8  9  4  0  0  0
 20  8  1  0  0  0
  8 28  4  0  0  0
  9 21  4  0  0  0
 10 11  1  0  0  0
 21 10  4  0  0  0
 27 10  4  0  0  0
 11 22  1  0  0  0
 11 26  2  0  0  0
 12 13  1  0  0  0
 22 12  1  0  0  0
 23 12  1  0  0  0
 13 24  2  0  0  0
 13 25  1  0  0  0
 29 14  1  0  0  0
 16 15  1  0  0  0
 31 15  1  0  0  0
 31 16  1  0  0  0
 18 17  4  0  0  0
 18 19  4  0  0  0
 30 20  1  0  0  0
 22 23  1  0  0  0
 28 27  4  0  0  0
 28 29  1  0  0  0
 30 31  1  0  0  0
  1 32  1  0  0  0
  2 33  1  0  0  0
  3 34  1  0  0  0
  5 35  1  0  0  0
  6 36  1  0  0  0
  7 37  1  0  0  0
  9 38  1  0  0  0
 12 39  1  0  0  0
 14 40  1  0  0  0
 14 41  1  0  0  0
 14 42  1  0  0  0
 15 43  1  0  0  0
 15 44  1  0  0  0
 16 45  1  0  0  0
 16 46  1  0  0  0
 19 47  1  0  0  0
 22 48  1  0  0  0
 23 49  1  0  0  0
 23 50  1  0  0  0
 25 51  1  0  0  0
 30 52  1  0  0  0
 30 53  1  0  0  0
 31 54  1  0  0  0
M  END
$$$$
