5ual_ligand
  -I-interpret- 

122126  0  0  0  0  0  0  0  0999 V2000
 -113.9000  -26.7340   -8.4290 C   0  0  0  0  0
 -112.7270  -26.2310   -7.8400 C   0  0  0  0  0
 -111.4950  -26.3410   -8.4660 C   0  0  0  0  0
 -111.3920  -26.9270   -9.7180 C   0  0  0  0  0
 -112.5660  -28.0540  -11.6360 C   0  0  0  0  0
 -113.7990  -28.5030  -12.1420 C   0  0  0  0  0
 -115.0130  -28.4310  -11.5590 C   0  0  0  0  0
 -115.0410  -27.8320  -10.2990 C   0  0  0  0  0
 -113.8080  -27.3420   -9.7070 C   0  0  0  0  0
 -112.5230  -27.4360  -10.3610 C   0  0  0  0  0
 -111.6700  -28.3960  -12.6620 C   0  0  0  0  0
 -112.1550  -29.1960  -13.6450 C   0  0  0  0  0
 -111.6960  -28.6470  -14.9610 C   0  0  0  0  0
 -116.2410  -28.9560  -12.2160 C   0  0  0  0  0
 -113.8380  -25.4940   -5.5810 C   0  0  0  0  0
 -113.5990  -24.8640   -4.2130 C   0  0  0  0  0
 -113.2450  -25.8050   -3.2260 C   0  0  0  0  0
 -112.9960  -27.2660   -3.6680 C   0  0  0  0  0
 -113.1910  -28.3580   -2.8090 C   0  0  0  0  0
 -112.1720  -29.4680   -2.8100 C   0  0  0  0  0
 -112.3900  -30.3410   -4.0130 C   0  0  0  0  0
 -111.4190  -31.4860   -4.0250 C   0  0  0  0  0
 -111.7090  -32.4150   -5.1730 C   0  0  0  0  0
 -110.9710  -31.9290   -6.3710 C   0  0  0  0  0
 -111.5120  -32.5180   -7.6580 C   0  0  0  0  0
 -111.3940  -31.5690   -8.7980 C   0  0  0  0  0
 -111.5700  -32.3460  -10.0710 C   0  0  0  0  0
 -111.2650  -31.4900  -11.2700 C   0  0  0  0  0
 -112.1490  -31.2630  -12.3280 C   0  0  0  0  0
 -113.0790  -23.4370   -4.1910 C   0  0  0  0  0
 -110.8130  -28.8750   -2.8250 C   0  0  0  0  0
 -111.4300  -32.2840   -2.7520 C   0  0  0  0  0
 -109.5310  -32.3080   -6.1970 C   0  0  0  0  0
 -112.4310  -30.4910   -8.7480 C   0  0  0  0  0
 -111.0540  -34.8620   -7.6400 C   0  0  0  0  0
 -110.4180  -35.9960   -8.3560 C   0  0  0  0  0
 -113.1140  -34.0890  -10.5120 C   0  0  0  0  0
 -105.0860  -26.4290   -3.6170 C   0  0  0  0  0
 -106.6490  -27.4650   -5.2720 C   0  0  0  0  0
 -107.5510  -27.1960   -6.4450 C   0  0  0  0  0
 -108.1700  -25.0030   -5.4300 C   0  0  0  0  0
 -107.2600  -25.3490   -4.2560 C   0  0  0  0  0
 -110.2410  -25.8370   -7.7380 C   0  0  0  0  0
 -112.6790  -25.6080   -6.5100 N   0  0  0  0  0
 -109.5930  -26.6870   -6.9380 N   0  0  0  0  0
 -108.5440  -26.2120   -6.1340 N   0  0  0  0  0
 -106.1950  -26.2730   -4.5940 N   0  3  0  0  0
 -115.1130  -26.6630   -7.8590 O   0  0  0  0  0
 -116.2410  -27.7130   -9.6200 O   0  0  0  0  0
 -113.5610  -29.1390  -13.5470 O   0  0  0  0  0
 -110.5120  -28.0040  -12.6740 O   0  0  0  0  0
 -111.7130  -30.5170  -13.4350 O   0  0  0  0  0
 -112.8660  -32.7830  -10.1120 O   0  0  0  0  0
 -110.7080  -33.5720   -8.0020 O   0  0  0  0  0
 -112.0400  -35.0280   -6.9460 O   0  0  0  0  0
 -113.0750  -32.4980   -5.3890 O   0  0  0  0  0
 -113.7030  -30.7840   -4.0570 O   0  0  0  0  0
 -114.9550  -25.9130   -5.8640 O   0  0  0  0  0
 -110.1740  -27.0010  -10.3070 O   0  0  0  0  0
 -112.0741  -27.6318  -15.0815 H   0  0  0  0  0
 -110.6064  -28.6359  -14.9885 H   0  0  0  0  0
 -112.0747  -29.2752  -15.7673 H   0  0  0  0  0
 -116.3957  -28.4369  -13.1619 H   0  0  0  0  0
 -116.1244  -30.0238  -12.4009 H   0  0  0  0  0
 -117.0991  -28.7904  -11.5646 H   0  0  0  0  0
 -114.5629  -24.5516   -3.8113 H   0  0  0  0  0
 -114.0995  -25.8498   -2.5508 H   0  0  0  0  0
 -112.2921  -25.4585   -2.8260 H   0  0  0  0  0
 -111.9245  -27.2899   -3.8665 H   0  0  0  0  0
 -113.7405  -27.4234   -4.4484 H   0  0  0  0  0
 -114.1175  -28.8227   -3.1463 H   0  0  0  0  0
 -113.1532  -27.9387   -1.8036 H   0  0  0  0  0
 -112.2771  -30.0815   -1.9152 H   0  0  0  0  0
 -112.2070  -29.7501   -4.9105 H   0  0  0  0  0
 -110.4319  -31.0363   -4.1328 H   0  0  0  0  0
 -111.3688  -33.4255   -4.9468 H   0  0  0  0  0
 -111.0912  -30.8486   -6.4508 H   0  0  0  0  0
 -112.5561  -32.7801   -7.4867 H   0  0  0  0  0
 -110.4160  -31.0908   -8.7451 H   0  0  0  0  0
 -110.8801  -33.1896  -10.0938 H   0  0  0  0  0
 -110.2858  -31.0135  -11.3166 H   0  0  0  0  0
 -113.1637  -31.6597  -12.2945 H   0  0  0  0  0
 -112.1191  -23.3935   -4.7056 H   0  0  0  0  0
 -113.7922  -22.7840   -4.6939 H   0  0  0  0  0
 -112.9539  -23.1131   -3.1578 H   0  0  0  0  0
 -110.6940  -28.2649   -3.7204 H   0  0  0  0  0
 -110.6795  -28.2532   -1.9398 H   0  0  0  0  0
 -110.0700  -29.6725   -2.8258 H   0  0  0  0  0
 -111.1660  -31.6360   -1.9162 H   0  0  0  0  0
 -112.4259  -32.6974   -2.5924 H   0  0  0  0  0
 -110.7061  -33.0955   -2.8271 H   0  0  0  0  0
 -109.1404  -31.8411   -5.2928 H   0  0  0  0  0
 -109.4495  -33.3916   -6.1122 H   0  0  0  0  0
 -108.9597  -31.9658   -7.0599 H   0  0  0  0  0
 -113.4231  -30.9411   -8.7834 H   0  0  0  0  0
 -112.3203  -29.9248   -7.8232 H   0  0  0  0  0
 -112.3022  -29.8248   -9.6011 H   0  0  0  0  0
 -110.0944  -36.7448   -7.6331 H   0  0  0  0  0
 -111.1382  -36.4399   -9.0432 H   0  0  0  0  0
 -109.5559  -35.6330   -8.9157 H   0  0  0  0  0
 -112.7390  -34.2348  -11.5250 H   0  0  0  0  0
 -112.6096  -34.7773   -9.8339 H   0  0  0  0  0
 -114.1875  -34.2767  -10.4901 H   0  0  0  0  0
 -105.3928  -27.1152   -2.8276 H   0  0  0  0  0
 -104.2085  -26.8277   -4.1260 H   0  0  0  0  0
 -104.8462  -25.4581   -3.1834 H   0  0  0  0  0
 -105.7653  -27.9758   -5.6543 H   0  0  0  0  0
 -107.2216  -28.0486   -4.5511 H   0  0  0  0  0
 -108.0578  -28.1243   -6.7088 H   0  0  0  0  0
 -106.9422  -26.8217   -7.2680 H   0  0  0  0  0
 -107.6407  -24.3379   -6.1123 H   0  0  0  0  0
 -109.0681  -24.5109   -5.0568 H   0  0  0  0  0
 -107.8774  -25.8283   -3.4963 H   0  0  0  0  0
 -106.7929  -24.4223   -3.9226 H   0  0  0  0  0
 -109.8895  -24.8138   -7.8705 H   0  0  0  0  0
 -111.7859  -25.2252   -6.1999 H   0  0  0  0  0
 -105.6767  -25.7714   -5.3153 H   0  0  0  0  0
 -115.7619  -27.0685   -8.4387 H   0  0  0  0  0
 -116.0883  -27.2822   -8.7758 H   0  0  0  0  0
 -113.2462  -33.0928   -6.1228 H   0  0  0  0  0
 -113.8263  -31.3397   -4.8300 H   0  0  0  0  0
 -110.2589  -27.4282  -11.1625 H   0  0  0  0  0
  2  1  4  0  0  0
  1  9  4  0  0  0
  1 48  1  0  0  0
  3  2  4  0  0  0
  2 44  1  0  0  0
  3  4  4  0  0  0
 43  3  1  0  0  0
  4 10  4  0  0  0
  4 59  1  0  0  0
  5  6  4  0  0  0
 10  5  4  0  0  0
  5 11  1  0  0  0
  6  7  4  0  0  0
  6 50  1  0  0  0
  8  7  4  0  0  0
  7 14  1  0  0  0
  9  8  4  0  0  0
  8 49  1  0  0  0
 10  9  4  0  0  0
 11 12  1  0  0  0
 11 51  2  0  0  0
 12 13  1  0  0  0
 12 50  1  0  0  0
 12 52  1  0  0  0
 15 16  1  0  0  0
 44 15  1  0  0  0
 15 58  2  0  0  0
 16 17  1  0  0  0
 16 30  1  0  0  0
 17 18  1  0  0  0
 18 19  1  0  0  0
 19 20  1  0  0  0
 20 21  1  0  0  0
 20 31  1  0  0  0
 21 22  1  0  0  0
 21 57  1  0  0  0
 22 23  1  0  0  0
 22 32  1  0  0  0
 23 24  1  0  0  0
 23 56  1  0  0  0
 25 24  1  0  0  0
 24 33  1  0  0  0
 26 25  1  0  0  0
 25 54  1  0  0  0
 27 26  1  0  0  0
 26 34  1  0  0  0
 28 27  1  0  0  0
 27 53  1  0  0  0
 29 28  2  0  0  0
 52 29  1  0  0  0
 35 36  1  0  0  0
 54 35  1  0  0  0
 35 55  2  0  0  0
 53 37  1  0  0  0
 47 38  1  0  0  0
 40 39  1  0  0  0
 39 47  1  0  0  0
 46 40  1  0  0  0
 41 42  1  0  0  0
 46 41  1  0  0  0
 42 47  1  0  0  0
 45 43  2  0  0  0
 45 46  1  0  0  0
 13 60  1  0  0  0
 13 61  1  0  0  0
 13 62  1  0  0  0
 14 63  1  0  0  0
 14 64  1  0  0  0
 14 65  1  0  0  0
 16 66  1  0  0  0
 17 67  1  0  0  0
 17 68  1  0  0  0
 18 69  1  0  0  0
 18 70  1  0  0  0
 19 71  1  0  0  0
 19 72  1  0  0  0
 20 73  1  0  0  0
 21 74  1  0  0  0
 22 75  1  0  0  0
 23 76  1  0  0  0
 24 77  1  0  0  0
 25 78  1  0  0  0
 26 79  1  0  0  0
 27 80  1  0  0  0
 28 81  1  0  0  0
 29 82  1  0  0  0
 30 83  1  0  0  0
 30 84  1  0  0  0
 30 85  1  0  0  0
 31 86  1  0  0  0
 31 87  1  0  0  0
 31 88  1  0  0  0
 32 89  1  0  0  0
 32 90  1  0  0  0
 32 91  1  0  0  0
 33 92  1  0  0  0
 33 93  1  0  0  0
 33 94  1  0  0  0
 34 95  1  0  0  0
 34 96  1  0  0  0
 34 97  1  0  0  0
 36 98  1  0  0  0
 36 99  1  0  0  0
 36100  1  0  0  0
 37101  1  0  0  0
 37102  1  0  0  0
 37103  1  0  0  0
 38104  1  0  0  0
 38105  1  0  0  0
 38106  1  0  0  0
 39107  1  0  0  0
 39108  1  0  0  0
 40109  1  0  0  0
 40110  1  0  0  0
 41111  1  0  0  0
 41112  1  0  0  0
 42113  1  0  0  0
 42114  1  0  0  0
 43115  1  0  0  0
 44116  1  0  0  0
 47117  1  0  0  0
 48118  1  0  0  0
 49119  1  0  0  0
 56120  1  0  0  0
 57121  1  0  0  0
 59122  1  0  0  0
M  END
$$$$
