5zu0_ligand
  -I-interpret- 

 47 49  0  0  0  0  0  0  0  0999 V2000
   12.1940   55.6420  133.8660 N   0  3  0  0  0
   13.4460   55.2620  133.2210 C   0  0  0  0  0
   13.5300   55.8400  131.8130 C   0  0  0  0  0
   13.2580   57.3110  131.6790 C   0  0  0  0  0
   13.5560   57.7570  129.9890 S   0  0  0  0  0
   14.6590   55.6550  134.0220 C   0  0  0  0  0
   15.6710   54.9630  134.0110 O   0  0  0  0  0
   14.6680   56.6600  134.7100 O   0  0  0  0  0
   11.9700   58.2370  129.3680 C   0  0  0  0  0
   11.1510   57.0200  128.9530 C   0  0  0  0  0
    9.7760   57.3890  128.7560 O   0  0  0  0  0
   11.6100   56.4020  127.6270 C   0  0  0  0  0
   11.8540   55.0010  127.8120 O   0  0  0  0  0
   10.4660   56.6110  126.6520 C   0  0  0  0  0
   10.2920   55.5220  125.7380 O   0  0  0  0  0
    9.2690   56.7600  127.5750 C   0  0  0  0  0
    8.1560   57.5670  127.0230 N   0  0  0  0  0
    8.1870   58.8940  126.7600 C   0  0  0  0  0
    6.9880   59.3180  126.2790 N   0  0  0  0  0
    6.1640   58.2490  126.2440 C   0  0  0  0  0
    4.7530   57.9850  125.8480 C   0  0  0  0  0
    3.9800   58.9990  125.3830 N   0  0  0  0  0
    4.2750   56.7070  125.9640 N   0  0  0  0  0
    5.0390   55.6930  126.4310 C   0  0  0  0  0
    6.3310   55.8610  126.8060 N   0  0  0  0  0
    6.9360   57.0890  126.7410 C   0  0  0  0  0
   11.4101   55.3522  133.2813 H   0  0  0  0  0
   12.1288   55.1845  134.7753 H   0  0  0  0  0
   12.1707   56.6541  133.9908 H   0  0  0  0  0
   13.4431   54.1737  133.1601 H   0  0  0  0  0
   12.7588   55.3349  131.2315 H   0  0  0  0  0
   14.5587   55.6908  131.4850 H   0  0  0  0  0
   13.9076   57.8806  132.3436 H   0  0  0  0  0
   12.2278   57.5347  131.9561 H   0  0  0  0  0
   15.5344   54.2074  133.4348 H   0  0  0  0  0
   12.1155   58.8733  128.4951 H   0  0  0  0  0
   11.4332   58.7665  130.1551 H   0  0  0  0  0
   11.2838   56.2992  129.7597 H   0  0  0  0  0
   12.5305   56.8566  127.2608 H   0  0  0  0  0
   12.1413   54.6149  126.9813 H   0  0  0  0  0
   10.6326   57.4665  125.9974 H   0  0  0  0  0
    9.5572   55.7131  125.1505 H   0  0  0  0  0
    8.8344   55.7753  127.7472 H   0  0  0  0  0
    9.0548   59.5355  126.9129 H   0  0  0  0  0
    4.3658   59.9400  125.3052 H   0  0  0  0  0
    3.0133   58.8200  125.1113 H   0  0  0  0  0
    4.5975   54.6995  126.5091 H   0  0  0  0  0
  1  2  1  0  0  0
  2  3  1  0  0  0
  2  6  1  0  0  0
  3  4  1  0  0  0
  4  5  1  0  0  0
  5  9  1  0  0  0
  6  7  1  0  0  0
  6  8  2  0  0  0
  9 10  1  0  0  0
 10 11  1  0  0  0
 10 12  1  0  0  0
 11 16  1  0  0  0
 12 13  1  0  0  0
 12 14  1  0  0  0
 14 15  1  0  0  0
 14 16  1  0  0  0
 16 17  1  0  0  0
 17 18  4  0  0  0
 17 26  4  0  0  0
 18 19  4  0  0  0
 19 20  4  0  0  0
 20 21  4  0  0  0
 20 26  4  0  0  0
 21 22  1  0  0  0
 21 23  4  0  0  0
 23 24  4  0  0  0
 24 25  4  0  0  0
 25 26  4  0  0  0
  1 27  1  0  0  0
  1 28  1  0  0  0
  1 29  1  0  0  0
  2 30  1  0  0  0
  3 31  1  0  0  0
  3 32  1  0  0  0
  4 33  1  0  0  0
  4 34  1  0  0  0
  7 35  1  0  0  0
  9 36  1  0  0  0
  9 37  1  0  0  0
 10 38  1  0  0  0
 12 39  1  0  0  0
 13 40  1  0  0  0
 14 41  1  0  0  0
 15 42  1  0  0  0
 16 43  1  0  0  0
 18 44  1  0  0  0
 22 45  1  0  0  0
 22 46  1  0  0  0
 24 47  1  0  0  0
M  END
$$$$
