1x07_ligand
  -I-interpret- 

 26 25  0  0  0  0  0  0  0  0999 V2000
   20.6880   17.3210   23.3160 C   0  0  0  0  0
   19.5310   17.8080   22.6130 O   0  0  0  0  0
   21.9970   18.0750   23.1000 C   0  0  0  0  0
   23.1760   17.7630   23.6860 C   0  0  0  0  0
   23.2950   16.5720   24.6630 C   0  0  0  0  0
   24.3900   18.6180   23.3590 C   0  0  0  0  0
   19.5880   18.5250   21.1330 P   0  0  0  0  0
   20.1960   19.9180   21.3310 O   0  0  0  0  0
   20.3300   17.4550   20.2550 O   0  0  0  0  0
   18.2980   18.9790   20.4150 O   0  0  0  0  0
   17.5070   18.1420   19.3580 P   0  0  0  0  0
   16.0910   18.0120   19.4960 O   0  0  0  0  0
   18.1620   16.7900   19.0610 O   0  0  0  0  0
   17.5090   18.8730   17.9850 O   0  0  0  0  0
   20.8605   16.3116   22.9425 H   0  0  0  0  0
   20.4570   17.4229   24.3764 H   0  0  0  0  0
   21.9810   18.9290   22.4228 H   0  0  0  0  0
   22.6272   16.7302   25.5098 H   0  0  0  0  0
   23.0188   15.6520   24.1477 H   0  0  0  0  0
   24.3227   16.4965   25.0183 H   0  0  0  0  0
   24.5870   18.5725   22.2879 H   0  0  0  0  0
   24.1950   19.6501   23.6503 H   0  0  0  0  0
   25.2552   18.2422   23.9052 H   0  0  0  0  0
   19.8151   16.6450   20.2367 H   0  0  0  0  0
   19.1107   16.9077   18.9736 H   0  0  0  0  0
   18.4143   19.0505   17.7195 H   0  0  0  0  0
  1  2  1  0  0  0
  1  3  1  0  0  0
  2  7  1  0  0  0
  3  4  2  0  0  0
  4  5  1  0  0  0
  4  6  1  0  0  0
  7  8  2  0  0  0
  7  9  1  0  0  0
  7 10  1  0  0  0
 10 11  1  0  0  0
 11 12  2  0  0  0
 11 13  1  0  0  0
 11 14  1  0  0  0
  1 15  1  0  0  0
  1 16  1  0  0  0
  3 17  1  0  0  0
  5 18  1  0  0  0
  5 19  1  0  0  0
  5 20  1  0  0  0
  6 21  1  0  0  0
  6 22  1  0  0  0
  6 23  1  0  0  0
  9 24  1  0  0  0
 13 25  1  0  0  0
 14 26  1  0  0  0
M  END
$$$$
