### 
### Created by X-TOOL on Mon Sep 10 21:12:52 2018
### 

@<TRIPOS>MOLECULE
1x07_ligand
   23    22     1     0     0
SMALL
GAST_HUCK


@<TRIPOS>ATOM
      1 C1         20.6880   17.3210   23.3160 C.3       1 IPE         0.0916
      2 O1         19.5310   17.8080   22.6130 O.3       1 IPE        -0.2411
      3 C2         21.9970   18.0750   23.1000 C.2       1 IPE        -0.0786
      4 C3         23.1760   17.7630   23.6860 C.2       1 IPE        -0.0847
      5 C4         23.2950   16.5720   24.6630 C.3       1 IPE        -0.0405
      6 C5         24.3900   18.6180   23.3590 C.3       1 IPE        -0.0405
      7 PA         19.5880   18.5250   21.1330 P.3       1 IPE         0.3288
      8 O1A        20.1960   19.9180   21.3310 O.co2     1 IPE        -0.5555
      9 O2A        20.3300   17.4550   20.2550 O.co2     1 IPE        -0.5555
     10 O3A        18.2980   18.9790   20.4150 O.3       1 IPE        -0.1547
     11 PB         17.5070   18.1420   19.3580 P.3       1 IPE         0.2070
     12 O1B        16.0910   18.0120   19.4960 O.co2     1 IPE        -0.5891
     13 O2B        18.1620   16.7900   19.0610 O.co2     1 IPE        -0.5891
     14 O3B        17.5090   18.8730   17.9850 O.co2     1 IPE        -0.5891
     15 H1         20.8505   16.2782   23.0058 H         1 IPE         0.0696
     16 H2         20.4605   17.3524   24.3917 H         1 IPE         0.0696
     17 H3         21.9810   18.9282   22.4235 H         1 IPE         0.0268
     18 H4         24.3318   16.4947   25.0223 H         1 IPE         0.0375
     19 H5         23.0166   15.6429   24.1442 H         1 IPE         0.0375
     20 H6         22.6215   16.7305   25.5181 H         1 IPE         0.0375
     21 H7         24.1017   19.4084   22.6503 H         1 IPE         0.0375
     22 H8         25.1712   17.9884   22.9081 H         1 IPE         0.0375
     23 H9         24.7754   19.0759   24.2819 H         1 IPE         0.0375
@<TRIPOS>BOND
     1    1    2 1  
     2    1    3 1  
     3    2    7 1  
     4    3    4 2  
     5    4    5 1  
     6    4    6 1  
     7    7    8 ar 
     8    7    9 ar 
     9    7   10 1  
    10   10   11 1  
    11   11   12 ar 
    12   11   13 ar 
    13   11   14 ar 
    14    1   15 1  
    15    1   16 1  
    16    3   17 1  
    17    5   18 1  
    18    5   19 1  
    19    5   20 1  
    20    6   21 1  
    21    6   22 1  
    22    6   23 1  
@<TRIPOS>SUBSTRUCTURE
     1 IPE         1

