5enm_ligand
  -I-interpret- 

 45 48  0  0  0  0  0  0  0  0999 V2000
   15.2320   40.0610   -6.0840 N   0  0  0  0  0
   22.0590   39.4140   -7.5590 C   0  0  0  0  0
   21.1050   40.0680   -6.7740 C   0  0  0  0  0
   19.7510   39.8690   -7.0460 C   0  0  0  0  0
   19.3210   39.0320   -8.0770 C   0  0  0  0  0
   21.6360   38.5810   -8.5930 C   0  0  0  0  0
   20.2820   38.3880   -8.8560 C   0  0  0  0  0
   21.5060   40.9730   -5.6540 C   0  0  0  0  0
   22.3910   42.0290   -5.8820 C   0  0  0  0  0
   16.0830   40.0560   -7.1200 C   0  0  0  0  0
   14.4920   40.9960  -11.0970 C   0  0  0  0  0
   15.7320   41.8230  -11.3600 C   0  0  0  0  0
   16.9350   41.8840  -10.6510 C   0  0  0  0  0
   17.7500   42.8030  -11.3120 C   0  0  0  0  0
   17.1090   43.2680  -12.3420 O   0  0  0  0  0
   15.8350   42.6720  -12.4030 N   0  0  0  0  0
   19.1530   43.2000  -10.9080 C   0  0  0  0  0
   17.3640   41.1450   -9.3970 C   0  0  0  0  0
   17.3890   39.6220   -9.5780 C   0  0  0  0  0
   17.8280   38.8810   -8.3010 C   0  0  0  0  0
   17.0430   39.2020   -7.0930 N   0  0  0  0  0
   16.3630   41.5720   -7.9750 S   0  0  0  0  0
   19.9880   37.5690   -9.8720 F   0  0  0  0  0
   23.3700   39.5780   -7.3320 F   0  0  0  0  0
   22.7370   42.8380   -4.8510 N   0  0  0  0  0
   22.2310   42.6410   -3.6110 C   0  0  0  0  0
   21.3690   41.6250   -3.3710 N   0  0  0  0  0
   20.9980   40.7870   -4.3660 C   0  0  0  0  0
   15.3608   39.4034   -5.3150 H   0  0  0  0  0
   19.0076   40.3819   -6.4358 H   0  0  0  0  0
   22.3783   38.0712   -9.2071 H   0  0  0  0  0
   22.7990   42.2007   -6.8781 H   0  0  0  0  0
   14.7504   39.9374  -11.1238 H   0  0  0  0  0
   14.0899   41.2484  -10.1158 H   0  0  0  0  0
   13.7459   41.2087  -11.8626 H   0  0  0  0  0
   19.1334   43.6298   -9.9065 H   0  0  0  0  0
   19.7945   42.3188  -10.9141 H   0  0  0  0  0
   19.5382   43.9363  -11.6133 H   0  0  0  0  0
   18.3857   41.4760   -9.2110 H   0  0  0  0  0
   18.1070   39.3894  -10.3644 H   0  0  0  0  0
   16.3781   39.2968   -9.8239 H   0  0  0  0  0
   17.6076   37.8289   -8.4816 H   0  0  0  0  0
   17.2680   38.7344   -6.2149 H   0  0  0  0  0
   22.5204   43.3068   -2.7979 H   0  0  0  0  0
   20.3055   39.9699   -4.1636 H   0  0  0  0  0
 10  1  2  0  0  0
  3  2  4  0  0  0
  6  2  4  0  0  0
  2 24  1  0  0  0
  4  3  4  0  0  0
  3  8  1  0  0  0
  5  4  4  0  0  0
  5  7  4  0  0  0
 20  5  1  0  0  0
  7  6  4  0  0  0
  7 23  1  0  0  0
  8  9  4  0  0  0
  8 28  4  0  0  0
  9 25  4  0  0  0
 10 21  1  0  0  0
 22 10  1  0  0  0
 12 11  1  0  0  0
 13 12  4  0  0  0
 12 16  4  0  0  0
 13 14  4  0  0  0
 18 13  1  0  0  0
 14 15  4  0  0  0
 14 17  1  0  0  0
 15 16  4  0  0  0
 19 18  1  0  0  0
 18 22  1  0  0  0
 19 20  1  0  0  0
 20 21  1  0  0  0
 25 26  4  0  0  0
 26 27  4  0  0  0
 27 28  4  0  0  0
  1 29  1  0  0  0
  4 30  1  0  0  0
  6 31  1  0  0  0
  9 32  1  0  0  0
 11 33  1  0  0  0
 11 34  1  0  0  0
 11 35  1  0  0  0
 17 36  1  0  0  0
 17 37  1  0  0  0
 17 38  1  0  0  0
 18 39  1  0  0  0
 19 40  1  0  0  0
 19 41  1  0  0  0
 20 42  1  0  0  0
 21 43  1  0  0  0
 26 44  1  0  0  0
 28 45  1  0  0  0
M  END
$$$$
