### 
### Created by X-TOOL on Mon Sep 10 21:12:58 2018
### 

@<TRIPOS>MOLECULE
2vpg_ligand
  126   125     1     0     0
SMALL
GAST_HUCK


@<TRIPOS>ATOM
      1 N         -23.2560  -21.2180   14.5300 N.4       1 ALA         0.2377
      2 CA        -22.1000  -20.6870   15.3070 C.3       1 ALA         0.0621
      3 C         -22.2010  -19.1750   15.4580 C.2       1 ALA         0.2264
      4 O         -22.7210  -18.4720   14.5680 O.2       1 ALA        -0.3907
      5 CB        -20.7870  -21.0750   14.6510 C.3       1 ALA        -0.0040
      6 C1        -22.4330  -11.0190   20.2310 C.3       1 DA2         0.0535
      7 C2        -22.5410  -11.1550   22.6890 C.3       1 DA2         0.0535
      8 N         -21.7210  -18.6750   16.5970 N.am      1 DA2        -0.2610
      9 CA        -21.7510  -17.2490   16.8640 C.3       1 DA2         0.1312
     10 CB        -21.6360  -16.9980   18.3670 C.3       1 DA2        -0.0092
     11 CG        -21.8070  -15.5060   18.6140 C.3       1 DA2        -0.0156
     12 CD        -22.0280  -15.2520   20.0860 C.3       1 DA2         0.0627
     13 NE        -22.1810  -13.8130   20.1970 N.pl3     1 DA2        -0.2721
     14 CZ        -22.2870  -13.1860   21.3620 C.cat     1 DA2         0.2920
     15 NH2       -22.2530  -13.9200   22.4700 N.pl3     1 DA2        -0.2847
     16 NH1       -22.4100  -11.8640   21.4230 N.pl3     1 DA2        -0.2650
     17 C         -20.6350  -16.5340   16.1330 C.2       1 DA2         0.2040
     18 O         -19.4600  -16.7660   16.4040 O.2       1 DA2        -0.3944
     19 N         -21.0110  -15.6350   15.2300 N.am      1 THR        -0.2613
     20 CA        -20.0460  -14.7910   14.5030 C.3       1 THR         0.1565
     21 C         -20.5010  -13.3510   14.5240 C.2       1 THR         0.2065
     22 O         -21.5510  -13.0380   15.0590 O.2       1 THR        -0.3943
     23 CB        -19.9460  -15.1960   13.0090 C.3       1 THR         0.0924
     24 OG1       -21.1720  -14.8810   12.3440 O.3       1 THR        -0.3874
     25 CG2       -19.6510  -16.6730   12.8500 C.3       1 THR        -0.0346
     26 N         -19.7230  -12.4620   13.9050 N.am      1 MLY        -0.2637
     27 CA        -20.1540  -11.0770   13.7430 C.3       1 MLY         0.1310
     28 CB        -18.9500  -10.1490   13.4800 C.3       1 MLY        -0.0122
     29 CG        -17.9450  -10.1890   14.6270 C.3       1 MLY        -0.0440
     30 CD        -18.4880   -9.5830   15.9220 C.3       1 MLY        -0.0123
     31 CE        -17.4560   -9.6400   17.0490 C.3       1 MLY        -0.0324
     32 NZ        -17.8870   -8.8860   18.2570 N.4       1 MLY         0.2309
     33 CH1       -16.7490   -8.8940   19.1920 C.3       1 MLY        -0.0433
     34 CH2       -19.0400   -9.5250   18.9030 C.3       1 MLY        -0.0433
     35 C         -21.2530  -10.9230   12.7140 C.2       1 MLY         0.2039
     36 O         -21.8900   -9.8600   12.6180 O.2       1 MLY        -0.3944
     37 N         -21.5000  -11.9790   11.9450 N.am      1 GLN        -0.2636
     38 CA        -22.5410  -11.9780   10.9130 C.3       1 GLN         0.1330
     39 C         -23.8930  -12.4000   11.5250 C.2       1 GLN         0.2041
     40 O         -24.9480  -12.1510   10.9380 O.2       1 GLN        -0.3944
     41 CB        -22.1280  -12.8880    9.7340 C.3       1 GLN         0.0045
     42 CG        -23.0190  -12.8010    8.4560 C.3       1 GLN         0.0412
     43 CD        -22.4990  -13.6340    7.2580 C.2       1 GLN         0.1737
     44 OE1       -23.1570  -14.5880    6.8100 O.2       1 GLN        -0.3973
     45 NE2       -21.3240  -13.2770    6.7420 N.am      1 GLN        -0.3009
     46 N         -23.8510  -13.0220   12.7030 N.am      1 THR        -0.2613
     47 CA        -25.0590  -13.4800   13.4150 C.3       1 THR         0.1564
     48 C         -26.0260  -12.3200   13.6560 C.2       1 THR         0.2059
     49 O         -25.6070  -11.2650   14.1180 O.2       1 THR        -0.3943
     50 CB        -24.6870  -14.1570   14.7620 C.3       1 THR         0.0924
     51 OG1       -23.9130  -15.3270   14.5040 O.3       1 THR        -0.3874
     52 CG2       -25.9320  -14.5610   15.5470 C.3       1 THR        -0.0346
     53 N         -27.3070  -12.5180   13.3320 N.am      1 ALA        -0.2697
     54 CA        -28.3090  -11.4420   13.3800 C.3       1 ALA         0.0916
     55 C         -28.5080  -10.8640   14.7840 C.2       1 ALA         0.0598
     56 O         -28.5970  -11.6090   15.7680 O.co2     1 ALA        -0.5666
     57 CB        -29.6470  -11.9250   12.8010 C.3       1 ALA        -0.0300
     58 OXT       -28.5830   -9.6410   14.9600 O.co2     1 ALA        -0.5666
     59 H1        -23.1703  -22.2184   14.4416 H         1 ALA         0.2015
     60 H2        -23.2654  -20.7993   13.6131 H         1 ALA         0.2015
     61 H3        -24.1141  -20.9955   15.0098 H         1 ALA         0.2015
     62 H4        -22.1271  -21.1347   16.3114 H         1 ALA         0.1095
     63 H5        -19.9498  -20.6732   15.2406 H         1 ALA         0.0310
     64 H6        -20.7498  -20.6616   13.6323 H         1 ALA         0.0310
     65 H7        -20.7100  -22.1713   14.6049 H         1 ALA         0.0310
     66 H8        -22.5423   -9.9661   20.5300 H         1 DA2         0.0653
     67 H9        -23.2806  -11.3086   19.5925 H         1 DA2         0.0653
     68 H10       -21.4935  -11.1461   19.6732 H         1 DA2         0.0653
     69 H11       -22.5120  -11.8771   23.5183 H         1 DA2         0.0653
     70 H12       -23.4978  -10.6127   22.7083 H         1 DA2         0.0653
     71 H13       -21.7120  -10.4400   22.7963 H         1 DA2         0.0653
     72 H14       -21.3332  -19.2941   17.2799 H         1 DA2         0.1884
     73 H15       -22.7125  -16.8477   16.5113 H         1 DA2         0.0800
     74 H16       -20.6481  -17.3238   18.7245 H         1 DA2         0.0313
     75 H17       -22.4208  -17.5559   18.8989 H         1 DA2         0.0313
     76 H18       -22.6747  -15.1391   18.0461 H         1 DA2         0.0301
     77 H19       -20.9018  -14.9753   18.2840 H         1 DA2         0.0301
     78 H20       -21.1631  -15.5957   20.6723 H         1 DA2         0.0689
     79 H21       -22.9356  -15.7659   20.4356 H         1 DA2         0.0689
     80 H22       -22.2086  -13.2532   19.3328 H         1 DA2         0.2642
     81 H23       -22.1573  -14.9436   22.4069 H         1 DA2         0.2615
     82 H24       -22.3224  -13.4650   23.3915 H         1 DA2         0.2615
     83 H25       -21.9861  -15.5268   15.0362 H         1 THR         0.1884
     84 H26       -19.0589  -14.8822   14.9798 H         1 THR         0.0826
     85 H27       -19.1295  -14.6234   12.5448 H         1 THR         0.0639
     86 H28       -21.1080  -15.1300   11.4295 H         1 THR         0.2101
     87 H29       -19.5877  -16.9211   11.7802 H         1 THR         0.0257
     88 H30       -20.4564  -17.2600   13.3155 H         1 THR         0.0257
     89 H31       -18.6946  -16.9106   13.3387 H         1 THR         0.0257
     90 H32       -18.8338  -12.7478   13.5476 H         1 MLY         0.1883
     91 H33       -20.5865  -10.7665   14.7055 H         1 MLY         0.0800
     92 H34       -19.3141   -9.1179   13.3610 H         1 MLY         0.0312
     93 H35       -18.4482  -10.4697   12.5552 H         1 MLY         0.0312
     94 H36       -17.0484   -9.6270   14.3266 H         1 MLY         0.0269
     95 H37       -17.6735  -11.2377   14.8182 H         1 MLY         0.0269
     96 H38       -19.3833  -10.1431   16.2298 H         1 MLY         0.0317
     97 H39       -18.7577   -8.5325   15.7384 H         1 MLY         0.0317
     98 H40       -16.5114   -9.2106   16.6840 H         1 MLY         0.0814
     99 H41       -17.2969  -10.6920   17.3283 H         1 MLY         0.0814
    100 H42       -18.1260   -7.9402   18.0035 H         1 MLY         0.2028
    101 H43       -17.0213   -8.3453   20.1057 H         1 MLY         0.0777
    102 H44       -15.8820   -8.4103   18.7185 H         1 MLY         0.0777
    103 H45       -16.4939   -9.9324   19.4502 H         1 MLY         0.0777
    104 H46       -19.8953   -9.5234   18.2112 H         1 MLY         0.0777
    105 H47       -19.3046   -8.9687   19.8143 H         1 MLY         0.0777
    106 H48       -18.7842  -10.5617   19.1674 H         1 MLY         0.0777
    107 H49       -20.9541  -12.8066   12.0758 H         1 GLN         0.1883
    108 H50       -22.6470  -10.9527   10.5289 H         1 GLN         0.0801
    109 H51       -22.1500  -13.9289   10.0889 H         1 GLN         0.0337
    110 H52       -21.1006  -12.6202    9.4464 H         1 GLN         0.0337
    111 H53       -23.0733  -11.7473    8.1450 H         1 GLN         0.0504
    112 H54       -24.0265  -13.1597    8.7134 H         1 GLN         0.0504
    113 H55       -20.9438  -13.7824    5.9674 H         1 GLN         0.1814
    114 H56       -20.8221  -12.5036    7.1292 H         1 GLN         0.1814
    115 H57       -22.9588  -13.1859   13.1239 H         1 THR         0.1884
    116 H58       -25.5656  -14.2249   12.7837 H         1 THR         0.0826
    117 H59       -24.0960  -13.4514   15.3644 H         1 THR         0.0639
    118 H60       -24.4203  -15.9304   13.9737 H         1 THR         0.2101
    119 H61       -25.6312  -15.0359   16.4925 H         1 THR         0.0257
    120 H62       -26.5258  -15.2710   14.9527 H         1 THR         0.0257
    121 H63       -26.5362  -13.6672   15.7617 H         1 THR         0.0257
    122 H64       -27.5954  -13.4318   13.0462 H         1 ALA         0.1875
    123 H65       -27.9417  -10.6258   12.7406 H         1 ALA         0.0723
    124 H66       -30.3821  -11.1079   12.8455 H         1 ALA         0.0270
    125 H67       -30.0133  -12.7801   13.3881 H         1 ALA         0.0270
    126 H68       -29.5040  -12.2329   11.7547 H         1 ALA         0.0270
@<TRIPOS>BOND
     1    2    1 1  
     2    3    2 1  
     3    2    5 1  
     4    3    4 2  
     5    8    3 am 
     6   16    6 1  
     7   16    7 1  
     8    9    8 1  
     9   10    9 1  
    10    9   17 1  
    11   11   10 1  
    12   12   11 1  
    13   13   12 1  
    14   14   13 ar 
    15   14   15 ar 
    16   14   16 ar 
    17   17   18 2  
    18   17   19 am 
    19   19   20 1  
    20   20   21 1  
    21   20   23 1  
    22   21   22 2  
    23   21   26 am 
    24   23   24 1  
    25   23   25 1  
    26   26   27 1  
    27   27   28 1  
    28   27   35 1  
    29   28   29 1  
    30   29   30 1  
    31   30   31 1  
    32   31   32 1  
    33   32   33 1  
    34   32   34 1  
    35   35   36 2  
    36   35   37 am 
    37   37   38 1  
    38   38   39 1  
    39   38   41 1  
    40   39   40 2  
    41   39   46 am 
    42   41   42 1  
    43   42   43 1  
    44   43   44 2  
    45   43   45 am 
    46   46   47 1  
    47   47   48 1  
    48   47   50 1  
    49   48   49 2  
    50   48   53 am 
    51   50   51 1  
    52   50   52 1  
    53   53   54 1  
    54   54   55 1  
    55   54   57 1  
    56   55   56 ar 
    57   55   58 ar 
    58    1   59 1  
    59    1   60 1  
    60    1   61 1  
    61    2   62 1  
    62    5   63 1  
    63    5   64 1  
    64    5   65 1  
    65    6   66 1  
    66    6   67 1  
    67    6   68 1  
    68    7   69 1  
    69    7   70 1  
    70    7   71 1  
    71    8   72 1  
    72    9   73 1  
    73   10   74 1  
    74   10   75 1  
    75   11   76 1  
    76   11   77 1  
    77   12   78 1  
    78   12   79 1  
    79   13   80 1  
    80   15   81 1  
    81   15   82 1  
    82   19   83 1  
    83   20   84 1  
    84   23   85 1  
    85   24   86 1  
    86   25   87 1  
    87   25   88 1  
    88   25   89 1  
    89   26   90 1  
    90   27   91 1  
    91   28   92 1  
    92   28   93 1  
    93   29   94 1  
    94   29   95 1  
    95   30   96 1  
    96   30   97 1  
    97   31   98 1  
    98   31   99 1  
    99   32  100 1  
   100   33  101 1  
   101   33  102 1  
   102   33  103 1  
   103   34  104 1  
   104   34  105 1  
   105   34  106 1  
   106   37  107 1  
   107   38  108 1  
   108   41  109 1  
   109   41  110 1  
   110   42  111 1  
   111   42  112 1  
   112   45  113 1  
   113   45  114 1  
   114   46  115 1  
   115   47  116 1  
   116   50  117 1  
   117   51  118 1  
   118   52  119 1  
   119   52  120 1  
   120   52  121 1  
   121   53  122 1  
   122   54  123 1  
   123   57  124 1  
   124   57  125 1  
   125   57  126 1  
@<TRIPOS>SUBSTRUCTURE
     1 ALA         1

