2vpg_ligand
  -I-interpret- 

126125  0  0  0  0  0  0  0  0999 V2000
  -23.2560  -21.2180   14.5300 N   0  3  0  0  0
  -22.1000  -20.6870   15.3070 C   0  0  0  0  0
  -22.2010  -19.1750   15.4580 C   0  0  0  0  0
  -22.7210  -18.4720   14.5680 O   0  0  0  0  0
  -20.7870  -21.0750   14.6510 C   0  0  0  0  0
  -22.4330  -11.0190   20.2310 C   0  0  0  0  0
  -22.5410  -11.1550   22.6890 C   0  0  0  0  0
  -21.7210  -18.6750   16.5970 N   0  0  0  0  0
  -21.7510  -17.2490   16.8640 C   0  0  0  0  0
  -21.6360  -16.9980   18.3670 C   0  0  0  0  0
  -21.8070  -15.5060   18.6140 C   0  0  0  0  0
  -22.0280  -15.2520   20.0860 C   0  0  0  0  0
  -22.1810  -13.8130   20.1970 N   0  0  0  0  0
  -22.2870  -13.1860   21.3620 C   0  0  0  0  0
  -22.2530  -13.9200   22.4700 N   0  0  0  0  0
  -22.4100  -11.8640   21.4230 N   0  0  0  0  0
  -20.6350  -16.5340   16.1330 C   0  0  0  0  0
  -19.4600  -16.7660   16.4040 O   0  0  0  0  0
  -21.0110  -15.6350   15.2300 N   0  0  0  0  0
  -20.0460  -14.7910   14.5030 C   0  0  0  0  0
  -20.5010  -13.3510   14.5240 C   0  0  0  0  0
  -21.5510  -13.0380   15.0590 O   0  0  0  0  0
  -19.9460  -15.1960   13.0090 C   0  0  0  0  0
  -21.1720  -14.8810   12.3440 O   0  0  0  0  0
  -19.6510  -16.6730   12.8500 C   0  0  0  0  0
  -19.7230  -12.4620   13.9050 N   0  0  0  0  0
  -20.1540  -11.0770   13.7430 C   0  0  0  0  0
  -18.9500  -10.1490   13.4800 C   0  0  0  0  0
  -17.9450  -10.1890   14.6270 C   0  0  0  0  0
  -18.4880   -9.5830   15.9220 C   0  0  0  0  0
  -17.4560   -9.6400   17.0490 C   0  0  0  0  0
  -17.8870   -8.8860   18.2570 N   0  3  0  0  0
  -16.7490   -8.8940   19.1920 C   0  0  0  0  0
  -19.0400   -9.5250   18.9030 C   0  0  0  0  0
  -21.2530  -10.9230   12.7140 C   0  0  0  0  0
  -21.8900   -9.8600   12.6180 O   0  0  0  0  0
  -21.5000  -11.9790   11.9450 N   0  0  0  0  0
  -22.5410  -11.9780   10.9130 C   0  0  0  0  0
  -23.8930  -12.4000   11.5250 C   0  0  0  0  0
  -24.9480  -12.1510   10.9380 O   0  0  0  0  0
  -22.1280  -12.8880    9.7340 C   0  0  0  0  0
  -23.0190  -12.8010    8.4560 C   0  0  0  0  0
  -22.4990  -13.6340    7.2580 C   0  0  0  0  0
  -23.1570  -14.5880    6.8100 O   0  0  0  0  0
  -21.3240  -13.2770    6.7420 N   0  0  0  0  0
  -23.8510  -13.0220   12.7030 N   0  0  0  0  0
  -25.0590  -13.4800   13.4150 C   0  0  0  0  0
  -26.0260  -12.3200   13.6560 C   0  0  0  0  0
  -25.6070  -11.2650   14.1180 O   0  0  0  0  0
  -24.6870  -14.1570   14.7620 C   0  0  0  0  0
  -23.9130  -15.3270   14.5040 O   0  0  0  0  0
  -25.9320  -14.5610   15.5470 C   0  0  0  0  0
  -27.3070  -12.5180   13.3320 N   0  0  0  0  0
  -28.3090  -11.4420   13.3800 C   0  0  0  0  0
  -28.5080  -10.8640   14.7840 C   0  0  0  0  0
  -28.5970  -11.6090   15.7680 O   0  0  0  0  0
  -29.6470  -11.9250   12.8010 C   0  0  0  0  0
  -28.5830   -9.6410   14.9600 O   0  0  0  0  0
  -24.1258  -20.9458   14.9881 H   0  0  0  0  0
  -23.2337  -20.8349   13.5850 H   0  0  0  0  0
  -23.1968  -22.2354   14.4872 H   0  0  0  0  0
  -22.1268  -21.1309   16.3021 H   0  0  0  0  0
  -20.7264  -20.6172   13.6637 H   0  0  0  0  0
  -19.9578  -20.7259   15.2663 H   0  0  0  0  0
  -20.7375  -22.1595   14.5537 H   0  0  0  0  0
  -23.3788  -10.4788   20.1883 H   0  0  0  0  0
  -21.6084  -10.3075   20.2756 H   0  0  0  0  0
  -22.3289  -11.6426   19.3431 H   0  0  0  0  0
  -23.4319  -11.5057   23.2099 H   0  0  0  0  0
  -21.6609  -11.3453   23.3033 H   0  0  0  0  0
  -22.6278  -10.0854   22.4977 H   0  0  0  0  0
  -21.3254  -19.3065   17.2935 H   0  0  0  0  0
  -22.7008  -16.8545   16.5031 H   0  0  0  0  0
  -20.6625  -17.3287   18.7289 H   0  0  0  0  0
  -22.4050  -17.5568   18.9003 H   0  0  0  0  0
  -22.6689  -15.1447   18.0530 H   0  0  0  0  0
  -20.9080  -14.9820   18.2893 H   0  0  0  0  0
  -21.1977  -15.6188   20.6895 H   0  0  0  0  0
  -22.9029  -15.7825   20.4617 H   0  0  0  0  0
  -22.2083  -13.2586   19.3412 H   0  0  0  0  0
  -22.1481  -14.9327   22.4079 H   0  0  0  0  0
  -22.0056  -15.5247   15.0323 H   0  0  0  0  0
  -19.0824  -14.9203   14.9958 H   0  0  0  0  0
  -19.1229  -14.6370   12.5640 H   0  0  0  0  0
  -21.1073  -15.1326   11.4198 H   0  0  0  0  0
  -18.7032  -16.9071   13.3347 H   0  0  0  0  0
  -20.4498  -17.2535   13.3117 H   0  0  0  0  0
  -19.5885  -16.9176   11.7896 H   0  0  0  0  0
  -18.8160  -12.7535   13.5405 H   0  0  0  0  0
  -20.6002  -10.7635   14.6868 H   0  0  0  0  0
  -19.3186   -9.1279   13.3821 H   0  0  0  0  0
  -18.4488  -10.4858   12.5726 H   0  0  0  0  0
  -17.0760   -9.6038   14.3264 H   0  0  0  0  0
  -17.7090  -11.2347   14.8242 H   0  0  0  0  0
  -19.3634  -10.1555   16.2286 H   0  0  0  0  0
  -18.7352   -8.5380   15.7351 H   0  0  0  0  0
  -16.5338   -9.1888   16.6829 H   0  0  0  0  0
  -17.3268  -10.6843   17.3334 H   0  0  0  0  0
  -18.1635   -7.9399   17.9945 H   0  0  0  0  0
  -16.4972   -9.9234   19.4470 H   0  0  0  0  0
  -15.8906   -8.4145   18.7216 H   0  0  0  0  0
  -17.0200   -8.3500   20.0969 H   0  0  0  0  0
  -19.8735   -9.5620   18.2015 H   0  0  0  0  0
  -18.7713  -10.5376   19.2037 H   0  0  0  0  0
  -19.3284   -8.9481   19.7817 H   0  0  0  0  0
  -20.9432  -12.8231   12.0784 H   0  0  0  0  0
  -22.6592  -10.9690   10.5180 H   0  0  0  0  0
  -22.2114  -13.9130   10.0954 H   0  0  0  0  0
  -21.1310  -12.5656    9.4339 H   0  0  0  0  0
  -23.0272  -11.7574    8.1413 H   0  0  0  0  0
  -23.9991  -13.1976    8.7209 H   0  0  0  0  0
  -20.9359  -13.7928    5.9522 H   0  0  0  0  0
  -20.8123  -12.4878    7.1366 H   0  0  0  0  0
  -22.9410  -13.1892   13.1323 H   0  0  0  0  0
  -25.5552  -14.2170   12.7835 H   0  0  0  0  0
  -24.1194  -13.4385   15.3533 H   0  0  0  0  0
  -23.6823  -15.7466   15.3361 H   0  0  0  0  0
  -26.5298  -13.6746   15.7590 H   0  0  0  0  0
  -26.5195  -15.2645   14.9571 H   0  0  0  0  0
  -25.6327  -15.0315   16.4836 H   0  0  0  0  0
  -27.6012  -13.4501   13.0405 H   0  0  0  0  0
  -27.9206  -10.6307   12.7644 H   0  0  0  0  0
  -29.5039  -12.2298   11.7643 H   0  0  0  0  0
  -30.0088  -12.7722   13.3836 H   0  0  0  0  0
  -30.3745  -11.1145   12.8457 H   0  0  0  0  0
  -28.4984   -9.1916   14.1159 H   0  0  0  0  0
  2  1  1  0  0  0
  3  2  1  0  0  0
  2  5  1  0  0  0
  3  4  2  0  0  0
  8  3  1  0  0  0
 16  6  1  0  0  0
 16  7  1  0  0  0
  9  8  1  0  0  0
 10  9  1  0  0  0
  9 17  1  0  0  0
 11 10  1  0  0  0
 12 11  1  0  0  0
 13 12  1  0  0  0
 14 13  1  0  0  0
 14 15  2  0  0  0
 14 16  1  0  0  0
 17 18  2  0  0  0
 17 19  1  0  0  0
 19 20  1  0  0  0
 20 21  1  0  0  0
 20 23  1  0  0  0
 21 22  2  0  0  0
 21 26  1  0  0  0
 23 24  1  0  0  0
 23 25  1  0  0  0
 26 27  1  0  0  0
 27 28  1  0  0  0
 27 35  1  0  0  0
 28 29  1  0  0  0
 29 30  1  0  0  0
 30 31  1  0  0  0
 31 32  1  0  0  0
 32 33  1  0  0  0
 32 34  1  0  0  0
 35 36  2  0  0  0
 35 37  1  0  0  0
 37 38  1  0  0  0
 38 39  1  0  0  0
 38 41  1  0  0  0
 39 40  2  0  0  0
 39 46  1  0  0  0
 41 42  1  0  0  0
 42 43  1  0  0  0
 43 44  2  0  0  0
 43 45  1  0  0  0
 46 47  1  0  0  0
 47 48  1  0  0  0
 47 50  1  0  0  0
 48 49  2  0  0  0
 48 53  1  0  0  0
 50 51  1  0  0  0
 50 52  1  0  0  0
 53 54  1  0  0  0
 54 55  1  0  0  0
 54 57  1  0  0  0
 55 56  2  0  0  0
 55 58  1  0  0  0
  1 59  1  0  0  0
  1 60  1  0  0  0
  1 61  1  0  0  0
  2 62  1  0  0  0
  5 63  1  0  0  0
  5 64  1  0  0  0
  5 65  1  0  0  0
  6 66  1  0  0  0
  6 67  1  0  0  0
  6 68  1  0  0  0
  7 69  1  0  0  0
  7 70  1  0  0  0
  7 71  1  0  0  0
  8 72  1  0  0  0
  9 73  1  0  0  0
 10 74  1  0  0  0
 10 75  1  0  0  0
 11 76  1  0  0  0
 11 77  1  0  0  0
 12 78  1  0  0  0
 12 79  1  0  0  0
 13 80  1  0  0  0
 15 81  1  0  0  0
 19 82  1  0  0  0
 20 83  1  0  0  0
 23 84  1  0  0  0
 24 85  1  0  0  0
 25 86  1  0  0  0
 25 87  1  0  0  0
 25 88  1  0  0  0
 26 89  1  0  0  0
 27 90  1  0  0  0
 28 91  1  0  0  0
 28 92  1  0  0  0
 29 93  1  0  0  0
 29 94  1  0  0  0
 30 95  1  0  0  0
 30 96  1  0  0  0
 31 97  1  0  0  0
 31 98  1  0  0  0
 32 99  1  0  0  0
 33100  1  0  0  0
 33101  1  0  0  0
 33102  1  0  0  0
 34103  1  0  0  0
 34104  1  0  0  0
 34105  1  0  0  0
 37106  1  0  0  0
 38107  1  0  0  0
 41108  1  0  0  0
 41109  1  0  0  0
 42110  1  0  0  0
 42111  1  0  0  0
 45112  1  0  0  0
 45113  1  0  0  0
 46114  1  0  0  0
 47115  1  0  0  0
 50116  1  0  0  0
 51117  1  0  0  0
 52118  1  0  0  0
 52119  1  0  0  0
 52120  1  0  0  0
 53121  1  0  0  0
 54122  1  0  0  0
 57123  1  0  0  0
 57124  1  0  0  0
 57125  1  0  0  0
 58126  1  0  0  0
M  END
$$$$
