6hrt_ligand
  -I-interpret- 

 86 92  0  0  0  0  0  0  0  0999 V2000
   23.3130    5.6380   -3.1900 C   0  0  0  0  0
   24.2980    5.7170   -4.1330 C   0  0  0  0  0
   25.5940    6.1390   -3.8340 C   0  0  0  0  0
   25.9200    6.4430   -2.4940 C   0  0  0  0  0
   23.7380    5.9850   -1.8430 C   0  0  0  0  0
   27.4840    8.4400   -7.8020 C   0  0  0  0  0
   25.1550    7.5880   -6.4050 C   0  0  0  0  0
   24.8750    7.1390    3.3960 C   0  0  0  0  0
   26.1250    6.6750    3.0950 C   0  0  0  0  0
   27.2300    7.1430    3.7350 C   0  0  0  0  0
   22.5270    6.2770    3.1970 C   0  0  0  0  0
   21.5050    5.7290    1.0890 C   0  0  0  0  0
   22.7900    6.0520    0.5040 C   0  0  0  0  0
   23.8770    6.5300    1.1880 C   0  0  0  0  0
   20.4980    5.3350    0.4890 O   0  0  0  0  0
   24.9580    6.3480   -1.5400 N   0  0  0  0  0
   22.7020    5.8700   -0.9330 N   0  0  0  0  0
   26.6900    6.2640   -4.8680 C   0  0  0  0  0
   26.4830    6.9500   -6.0500 N   0  0  0  0  0
   27.7630    5.7810   -4.5770 O   0  0  0  0  0
   27.5670    7.0690   -7.0860 C   0  0  0  0  0
   26.1550    8.6930   -8.3180 O   0  0  0  0  0
   25.2720    8.9080   -7.2110 C   0  0  0  0  0
   27.0760    8.0340    4.7880 C   0  0  0  0  0
   25.8250    8.5050    5.0700 C   0  0  0  0  0
   24.6520    8.0880    4.4270 C   0  0  0  0  0
   23.7110    6.6420    2.6270 C   0  0  0  0  0
   21.4320    5.8970    2.4880 N   0  0  0  0  0
   25.6790    9.4410    6.1610 N   0  0  0  0  0
   25.5860    8.9790    7.4710 C   0  0  0  0  0
   25.0930   11.7090    6.6790 C   0  0  0  0  0
   25.4010   10.7840    5.7990 N   0  0  0  0  0
   25.7780    7.7900    7.6850 O   0  0  0  0  0
   25.1090   11.3550    8.0870 C   0  0  0  0  0
   25.3250   10.0160    8.4690 C   0  0  0  0  0
   25.2650    9.8060    9.8500 C   0  0  0  0  0
   25.0160   10.7490   10.7710 C   0  0  0  0  0
   24.8100   12.0390   10.3740 C   0  0  0  0  0
   24.8510   12.3960    9.0190 C   0  0  0  0  0
   22.4180    6.2940    4.7290 C   0  0  0  0  0
   23.2690    8.6670    4.6820 C   0  0  0  0  0
   22.2020    7.7440    5.2970 C   0  0  0  0  0
   25.4570    8.5290   10.2760 F   0  0  0  0  0
   24.6360   13.1090   11.4090 C   0  0  0  0  0
   23.9220   12.5720   12.6650 C   0  0  0  0  0
   26.0140   13.7140   11.6900 C   0  0  0  0  0
   23.6790   14.2080   11.0100 C   0  0  0  0  0
   22.4650    7.6780    6.6630 O   0  0  0  0  0
   20.1140    5.6650    3.1170 C   0  0  0  0  0
   22.2920    5.3393   -3.4275 H   0  0  0  0  0
   24.0622    5.4393   -5.1603 H   0  0  0  0  0
   26.9316    6.7502   -2.2285 H   0  0  0  0  0
   28.1826    8.4342   -8.6386 H   0  0  0  0  0
   27.7274    9.2202   -7.0808 H   0  0  0  0  0
   24.6559    7.8299   -5.4667 H   0  0  0  0  0
   24.6168    6.8774   -7.0322 H   0  0  0  0  0
   26.2388    5.9125    2.3244 H   0  0  0  0  0
   28.2245    6.8223    3.4248 H   0  0  0  0  0
   24.8039    6.8075    0.6861 H   0  0  0  0  0
   21.7843    5.6335   -1.3101 H   0  0  0  0  0
   28.5367    6.9834   -6.5957 H   0  0  0  0  0
   27.4412    6.2760   -7.8232 H   0  0  0  0  0
   25.6650    9.6986   -6.5719 H   0  0  0  0  0
   24.2892    9.2086   -7.5741 H   0  0  0  0  0
   27.9358    8.3515    5.3780 H   0  0  0  0  0
   24.8317   12.7180    6.3600 H   0  0  0  0  0
   24.9784   10.4873   11.8285 H   0  0  0  0  0
   24.6923   13.4247    8.6953 H   0  0  0  0  0
   23.3509    5.9065    5.1383 H   0  0  0  0  0
   21.5575    5.6883    5.0131 H   0  0  0  0  0
   22.8839    8.9399    3.6995 H   0  0  0  0  0
   23.4185    9.4628    5.4117 H   0  0  0  0  0
   21.1978    8.1084    5.0803 H   0  0  0  0  0
   22.9369   12.1961   12.3886 H   0  0  0  0  0
   24.5116   11.7647   13.0993 H   0  0  0  0  0
   23.8143   13.3768   13.3922 H   0  0  0  0  0
   26.6830   12.9358   12.0574 H   0  0  0  0  0
   26.4178   14.1376   10.7704 H   0  0  0  0  0
   25.9189   14.4978   12.4415 H   0  0  0  0  0
   24.0431   14.6942   10.1049 H   0  0  0  0  0
   22.6940   13.7802   10.8231 H   0  0  0  0  0
   23.6119   14.9396   11.8152 H   0  0  0  0  0
   22.3447    8.5468    7.0532 H   0  0  0  0  0
   20.2019    4.8724    3.8601 H   0  0  0  0  0
   19.7770    6.5821    3.6002 H   0  0  0  0  0
   19.3950    5.3701    2.3527 H   0  0  0  0  0
  2  1  4  0  0  0
  1  5  4  0  0  0
  3  2  4  0  0  0
  3  4  4  0  0  0
 18  3  1  0  0  0
  4 16  4  0  0  0
 16  5  4  0  0  0
  5 17  1  0  0  0
 21  6  1  0  0  0
  6 22  1  0  0  0
 19  7  1  0  0  0
  7 23  1  0  0  0
  8  9  4  0  0  0
  8 26  4  0  0  0
 27  8  1  0  0  0
  9 10  4  0  0  0
 10 24  4  0  0  0
 27 11  2  0  0  0
 28 11  1  0  0  0
 11 40  1  0  0  0
 13 12  1  0  0  0
 12 15  2  0  0  0
 12 28  1  0  0  0
 13 14  2  0  0  0
 17 13  1  0  0  0
 14 27  1  0  0  0
 19 18  1  0  0  0
 18 20  2  0  0  0
 19 21  1  0  0  0
 22 23  1  0  0  0
 24 25  4  0  0  0
 25 26  4  0  0  0
 25 29  1  0  0  0
 26 41  1  0  0  0
 28 49  1  0  0  0
 29 30  1  0  0  0
 29 32  1  0  0  0
 30 33  2  0  0  0
 30 35  1  0  0  0
 32 31  2  0  0  0
 31 34  1  0  0  0
 34 35  4  0  0  0
 34 39  4  0  0  0
 35 36  4  0  0  0
 36 37  4  0  0  0
 36 43  1  0  0  0
 37 38  4  0  0  0
 38 39  4  0  0  0
 38 44  1  0  0  0
 40 42  1  0  0  0
 41 42  1  0  0  0
 42 48  1  0  0  0
 44 45  1  0  0  0
 44 46  1  0  0  0
 44 47  1  0  0  0
  1 50  1  0  0  0
  2 51  1  0  0  0
  4 52  1  0  0  0
  6 53  1  0  0  0
  6 54  1  0  0  0
  7 55  1  0  0  0
  7 56  1  0  0  0
  9 57  1  0  0  0
 10 58  1  0  0  0
 14 59  1  0  0  0
 17 60  1  0  0  0
 21 61  1  0  0  0
 21 62  1  0  0  0
 23 63  1  0  0  0
 23 64  1  0  0  0
 24 65  1  0  0  0
 31 66  1  0  0  0
 37 67  1  0  0  0
 39 68  1  0  0  0
 40 69  1  0  0  0
 40 70  1  0  0  0
 41 71  1  0  0  0
 41 72  1  0  0  0
 42 73  1  0  0  0
 45 74  1  0  0  0
 45 75  1  0  0  0
 45 76  1  0  0  0
 46 77  1  0  0  0
 46 78  1  0  0  0
 46 79  1  0  0  0
 47 80  1  0  0  0
 47 81  1  0  0  0
 47 82  1  0  0  0
 48 83  1  0  0  0
 49 84  1  0  0  0
 49 85  1  0  0  0
 49 86  1  0  0  0
M  END
$$$$
