5q1e_ligand
  -I-interpret- 

 56 61  0  0  0  0  0  0  0  0999 V2000
   41.2650   13.4210    2.0830 C   0  0  0  0  0
   41.6020   13.4990    0.6210 C   0  0  0  0  0
   40.5470   14.1030   -0.0610 C   0  0  0  0  0
   42.5910   11.9590    7.2460 C   0  0  0  0  0
   40.9990   11.7810    2.4520 C   0  0  0  0  0
   38.2550   15.0810    0.4860 C   0  0  0  0  0
   40.5940   14.2800   -1.4440 C   0  0  0  0  0
   37.2750   19.2570    0.3870 C   0  0  0  0  0
   41.0350   11.4860    3.9290 C   0  0  0  0  0
   43.3730   12.8500    7.9280 C   0  0  0  0  0
   42.7550   13.2130    9.1570 C   0  0  0  0  0
   44.2650   12.6230   -2.4090 Br  0  0  0  0  0
   42.7510   13.2290   -1.4520 C   0  0  0  0  0
   41.7120   13.8300   -2.1430 C   0  0  0  0  0
   39.5520   14.4800    0.8520 N   0  0  0  0  0
   37.9830   16.5440    0.4960 C   0  0  0  0  0
   38.6880   17.4770    1.2430 C   0  0  0  0  0
   38.3400   18.8290    1.1900 C   0  0  0  0  0
   36.5760   18.3100   -0.3450 C   0  0  0  0  0
   36.9240   16.9850   -0.2850 C   0  0  0  0  0
   36.8650   20.6690    0.3000 C   0  0  0  0  0
   37.0370   21.5930    1.2260 N   0  0  0  0  0
   36.5010   22.7330    0.7250 N   0  0  0  0  0
   36.0140   22.5300   -0.4570 N   0  0  0  0  0
   36.2330   21.2320   -0.7360 N   0  0  0  0  0
   39.8900   14.1050    2.1320 C   0  0  0  0  0
   39.2130   14.2820    3.1280 O   0  0  0  0  0
   42.2680   12.0580    4.4760 N   0  0  0  0  0
   42.2440   13.5440    4.4980 C   0  0  0  0  0
   42.2950   14.0800    3.0590 C   0  0  0  0  0
   42.9900   11.2750    5.7070 S   0  0  0  0  0
   44.3980   11.4490    5.5290 O   0  0  0  0  0
   42.4640    9.9450    5.7220 O   0  0  0  0  0
   41.5820   12.6130    9.3580 C   0  0  0  0  0
   41.1470   11.5740    8.0790 S   0  0  0  0  0
   42.7180   13.0490   -0.0790 C   0  0  0  0  0
   41.7967   11.2053    1.9826 H   0  0  0  0  0
   40.0049   11.5198    2.0891 H   0  0  0  0  0
   37.5892   14.7077    1.2641 H   0  0  0  0  0
   38.1619   14.8267   -0.5698 H   0  0  0  0  0
   39.7696   14.7624   -1.9691 H   0  0  0  0  0
   41.0122   10.4095    4.0983 H   0  0  0  0  0
   40.1665   11.9236    4.4213 H   0  0  0  0  0
   44.3339   13.2285    7.5793 H   0  0  0  0  0
   43.1977   13.9135    9.8651 H   0  0  0  0  0
   41.7685   13.9500   -3.2249 H   0  0  0  0  0
   39.5164   17.1539    1.8735 H   0  0  0  0  0
   38.9010   19.5558    1.7775 H   0  0  0  0  0
   35.7421   18.6214   -0.9741 H   0  0  0  0  0
   36.3542   16.2595   -0.8656 H   0  0  0  0  0
   43.1066   13.9126    5.0532 H   0  0  0  0  0
   41.3276   13.8849    4.9798 H   0  0  0  0  0
   42.0548   15.1422    3.1060 H   0  0  0  0  0
   43.2890   13.8572    2.6711 H   0  0  0  0  0
   40.9674   12.7698   10.2444 H   0  0  0  0  0
   43.5458   12.5667    0.4408 H   0  0  0  0  0
  1  2  1  0  0  0
  5  1  1  0  0  0
  1 26  1  0  0  0
  1 30  1  0  0  0
  2  3  4  0  0  0
  2 36  4  0  0  0
  3  7  4  0  0  0
 15  3  1  0  0  0
  4 10  4  0  0  0
 31  4  1  0  0  0
  4 35  4  0  0  0
  9  5  1  0  0  0
 15  6  1  0  0  0
  6 16  1  0  0  0
  7 14  4  0  0  0
 18  8  4  0  0  0
 19  8  4  0  0  0
  8 21  1  0  0  0
 28  9  1  0  0  0
 10 11  4  0  0  0
 11 34  4  0  0  0
 13 12  1  0  0  0
 13 14  4  0  0  0
 36 13  4  0  0  0
 26 15  1  0  0  0
 16 17  4  0  0  0
 16 20  4  0  0  0
 17 18  4  0  0  0
 20 19  4  0  0  0
 21 22  4  0  0  0
 21 25  4  0  0  0
 22 23  4  0  0  0
 24 23  4  0  0  0
 25 24  4  0  0  0
 26 27  2  0  0  0
 28 29  1  0  0  0
 28 31  1  0  0  0
 29 30  1  0  0  0
 31 32  2  0  0  0
 31 33  2  0  0  0
 34 35  4  0  0  0
  5 37  1  0  0  0
  5 38  1  0  0  0
  6 39  1  0  0  0
  6 40  1  0  0  0
  7 41  1  0  0  0
  9 42  1  0  0  0
  9 43  1  0  0  0
 10 44  1  0  0  0
 11 45  1  0  0  0
 14 46  1  0  0  0
 17 47  1  0  0  0
 18 48  1  0  0  0
 19 49  1  0  0  0
 20 50  1  0  0  0
 29 51  1  0  0  0
 29 52  1  0  0  0
 30 53  1  0  0  0
 30 54  1  0  0  0
 34 55  1  0  0  0
 36 56  1  0  0  0
M  END
$$$$
