4c36_ligand
  -I-interpret- 

 32 35  0  0  0  0  0  0  0  0999 V2000
  -26.7090   -9.9010    0.4730 C   0  0  0  0  0
  -29.8060  -10.0390   -1.6130 N   0  0  0  0  0
  -32.1650  -10.2230   -5.4680 O   0  0  0  0  0
  -25.8170   -9.5780   -0.5470 C   0  0  0  0  0
  -28.3750   -9.5090   -3.2790 N   0  0  0  0  0
  -26.2570   -9.4310   -1.8600 C   0  0  0  0  0
  -30.8290  -10.1200   -5.1000 N   0  0  0  0  0
  -27.6120   -9.6230   -2.1180 C   0  0  0  0  0
  -33.0130  -10.0920   -4.3560 N   0  0  0  0  0
  -28.5130   -9.9460   -1.1050 C   0  0  0  0  0
  -32.6360   -9.7450   -2.0730 N   0  0  0  0  0
  -28.0590  -10.0830    0.2070 C   0  0  0  0  0
  -29.6780   -9.7630   -2.8990 C   0  0  0  0  0
  -27.8910   -9.0660   -4.6010 C   0  0  0  0  0
  -27.5120  -10.2450   -5.4720 C   0  0  0  0  0
  -26.1440  -10.8300   -5.3290 C   0  0  0  0  0
  -26.4990  -10.0610   -6.5580 C   0  0  0  0  0
  -30.8470   -9.9160   -3.7950 C   0  0  0  0  0
  -32.2190   -9.9310   -3.3300 C   0  0  0  0  0
  -26.3420  -10.0123    1.4933 H   0  0  0  0  0
  -24.7613   -9.4386   -0.3145 H   0  0  0  0  0
  -25.5630   -9.1739   -2.6602 H   0  0  0  0  0
  -33.6343   -9.7217   -1.8650 H   0  0  0  0  0
  -31.9557   -9.6264   -1.3223 H   0  0  0  0  0
  -28.7534  -10.3290    1.0104 H   0  0  0  0  0
  -27.0079   -8.4437   -4.4563 H   0  0  0  0  0
  -28.6895   -8.5124   -5.0950 H   0  0  0  0  0
  -28.5301  -10.6322   -5.4305 H   0  0  0  0  0
  -25.6875  -11.7843   -5.0664 H   0  0  0  0  0
  -25.3437  -10.8639   -4.5898 H   0  0  0  0  0
  -26.0881   -9.2538   -7.1644 H   0  0  0  0  0
  -26.4313  -10.1726   -7.6402 H   0  0  0  0  0
  4  1  4  0  0  0
 12  1  4  0  0  0
  2 10  4  0  0  0
 13  2  4  0  0  0
  7  3  4  0  0  0
  3  9  4  0  0  0
  6  4  4  0  0  0
  5  8  4  0  0  0
 13  5  4  0  0  0
  5 14  1  0  0  0
  8  6  4  0  0  0
 18  7  4  0  0  0
  8 10  4  0  0  0
  9 19  4  0  0  0
 10 12  4  0  0  0
 19 11  1  0  0  0
 13 18  1  0  0  0
 14 15  1  0  0  0
 15 16  1  0  0  0
 15 17  1  0  0  0
 16 17  1  0  0  0
 18 19  4  0  0  0
  1 20  1  0  0  0
  4 21  1  0  0  0
  6 22  1  0  0  0
 11 23  1  0  0  0
 11 24  1  0  0  0
 12 25  1  0  0  0
 14 26  1  0  0  0
 14 27  1  0  0  0
 15 28  1  0  0  0
 16 29  1  0  0  0
 16 30  1  0  0  0
 17 31  1  0  0  0
 17 32  1  0  0  0
M  END
$$$$
