### 
### Created by X-TOOL on Wed Jan  1 15:39:38 2020
### 

@<TRIPOS>MOLECULE
6co4_ligand
  220   225     1     0     0
SMALL
GAST_HUCK


@<TRIPOS>ATOM
      1 N          53.2650  -14.9960   24.4030 N.4       1 GLN         0.2380
      2 CA         54.0990  -13.8980   24.9690 C.3       1 GLN         0.0671
      3 C          54.2900  -12.8170   23.9160 C.2       1 GLN         0.2269
      4 O          53.7650  -11.7110   24.0460 O.2       1 GLN        -0.3907
      5 CB         55.4600  -14.4570   25.3880 C.3       1 GLN         0.0247
      6 CG         56.3060  -13.3380   26.0010 C.3       1 GLN         0.0443
      7 CD         57.6530  -13.8900   26.4520 C.2       1 GLN         0.1738
      8 OE1        57.9280  -15.0780   26.2790 O.2       1 GLN        -0.3973
      9 NE2        58.5150  -13.0960   27.0270 N.am      1 GLN        -0.3009
     10 N          55.0500  -13.1360   22.8760 N.am      1 GLU        -0.2609
     11 CA         55.3050  -12.1720   21.8150 C.3       1 GLU         0.1328
     12 C          54.0500  -11.9520   20.9630 C.2       1 GLU         0.2065
     13 O          53.2040  -12.8400   20.8540 O.2       1 GLU        -0.3942
     14 CB         56.4520  -12.6530   20.9270 C.3       1 GLU        -0.0008
     15 CG         57.7590  -12.6160   21.7210 C.3       1 GLU         0.0044
     16 CD         58.9080  -13.1260   20.8580 C.2       1 GLU         0.0350
     17 OE1        58.6490  -13.5170   19.7320 O.co2     1 GLU        -0.5690
     18 OE2        60.0310  -13.1170   21.3360 O.co2     1 GLU        -0.5690
     19 N          53.9140  -10.7910   20.3630 N.am      1 PRO        -0.2498
     20 CA         52.7340  -10.4590   19.5090 C.3       1 PRO         0.1338
     21 C          52.7870  -11.1480   18.1500 C.2       1 PRO         0.2041
     22 O          53.8590  -11.3040   17.5630 O.2       1 PRO        -0.3944
     23 CB         52.8100   -8.9400   19.3680 C.3       1 PRO        -0.0104
     24 CG         54.2580   -8.6070   19.5070 C.3       1 PRO        -0.0281
     25 CD         54.8670   -9.6700   20.4240 C.3       1 PRO         0.0369
     26 N          51.6270  -11.5560   17.6530 N.am      1 GLU        -0.2636
     27 CA         51.5590  -12.2260   16.3610 C.3       1 GLU         0.1327
     28 C          51.7290  -11.2190   15.2250 C.2       1 GLU         0.2065
     29 O          51.4300  -10.0350   15.3900 O.2       1 GLU        -0.3942
     30 CB         50.2270  -12.9610   16.2040 C.3       1 GLU        -0.0008
     31 CG         50.1900  -14.1570   17.1590 C.3       1 GLU         0.0044
     32 CD         49.6070  -13.7480   18.5080 C.2       1 GLU         0.0350
     33 OE1        49.4230  -12.5610   18.7220 O.co2     1 GLU        -0.5690
     34 OE2        49.3530  -14.6320   19.3100 O.co2     1 GLU        -0.5690
     35 N          52.1980  -11.6560   14.0820 N.am      1 PRO        -0.2498
     36 CA         52.3980  -10.7520   12.9120 C.3       1 PRO         0.1340
     37 C          51.0690  -10.2660   12.3200 C.2       1 PRO         0.2066
     38 O          50.0410  -10.9290   12.4550 O.2       1 PRO        -0.3942
     39 CB         53.1610  -11.6190   11.9060 C.3       1 PRO        -0.0104
     40 CG         52.8270  -13.0280   12.2650 C.3       1 PRO        -0.0281
     41 CD         52.5970  -13.0440   13.7750 C.3       1 PRO         0.0369
     42 N          51.0740   -9.1250   11.6680 N.am      1 PRO        -0.2498
     43 CA         49.8480   -8.5430   11.0440 C.3       1 PRO         0.1338
     44 C          49.4180   -9.3020    9.7930 C.2       1 PRO         0.2041
     45 O          50.1720  -10.1120    9.2550 O.2       1 PRO        -0.3944
     46 CB         50.2600   -7.1080   10.7050 C.3       1 PRO        -0.0104
     47 CG         51.7380   -7.1600   10.5240 C.3       1 PRO        -0.0281
     48 CD         52.2500   -8.2630   11.4500 C.3       1 PRO         0.0369
     49 N          48.1990   -9.0440    9.3420 N.am      1 GLU        -0.2636
     50 CA         47.6780   -9.7090    8.1550 C.3       1 GLU         0.1327
     51 C          47.7560   -8.7770    6.9420 C.2       1 GLU         0.2065
     52 O          47.7810   -7.5550    7.0980 O.2       1 GLU        -0.3942
     53 CB         46.2280  -10.1370    8.3950 C.3       1 GLU        -0.0008
     54 CG         46.1960  -11.2600    9.4310 C.3       1 GLU         0.0044
     55 CD         44.7560  -11.6710    9.7080 C.2       1 GLU         0.0350
     56 OE1        43.8650  -11.0250    9.1800 O.co2     1 GLU        -0.5690
     57 OE2        44.5630  -12.6260   10.4420 O.co2     1 GLU        -0.5690
     58 N          47.7930   -9.3200    5.7460 N.am      1 PRO        -0.2498
     59 CA         47.8630   -8.5050    4.4940 C.3       1 PRO         0.1338
     60 C          46.6760   -7.5510    4.3670 C.2       1 PRO         0.2042
     61 O          45.5590   -7.8750    4.7740 O.2       1 PRO        -0.3944
     62 CB         47.8360   -9.5500    3.3700 C.3       1 PRO        -0.0104
     63 CG         47.3140  -10.7970    4.0000 C.3       1 PRO        -0.0281
     64 CD         47.7830  -10.7600    5.4470 C.3       1 PRO         0.0369
     65 N          46.9310   -6.3710    3.8080 N.am      1 PHE        -0.2619
     66 CA         45.8850   -5.3660    3.6340 C.3       1 PHE         0.1404
     67 C          46.2030   -4.4510    2.4550 C.2       1 PHE         0.2060
     68 O          47.3380   -4.3930    1.9940 O.2       1 PHE        -0.3942
     69 CB         45.7530   -4.5230    4.9060 C.3       1 PHE         0.0214
     70 CG         47.0480   -3.7870    5.1650 C.ar      1 PHE        -0.0386
     71 CD1        47.2560   -2.5080    4.6240 C.ar      1 PHE        -0.0601
     72 CD2        48.0390   -4.3800    5.9550 C.ar      1 PHE        -0.0601
     73 CE1        48.4590   -1.8280    4.8760 C.ar      1 PHE        -0.0686
     74 CE2        49.2380   -3.7010    6.2050 C.ar      1 PHE        -0.0686
     75 CZ         49.4470   -2.4260    5.6660 C.ar      1 PHE        -0.0687
     76 N          45.1960   -3.7300    1.9750 N.am      1 GLU        -0.2635
     77 CA         45.3850   -2.8160    0.8550 C.3       1 GLU         0.1325
     78 C          45.8750   -1.4560    1.3510 C.2       1 GLU         0.2041
     79 O          45.3680   -0.9240    2.3370 O.2       1 GLU        -0.3944
     80 CB         44.0620   -2.6480    0.1000 C.3       1 GLU        -0.0008
     81 CG         43.7590   -3.9240   -0.6890 C.3       1 GLU         0.0044
     82 CD         42.3290   -3.8870   -1.2180 C.2       1 GLU         0.0350
     83 OE1        41.5650   -3.0630   -0.7450 O.co2     1 GLU        -0.5690
     84 OE2        42.0190   -4.6850   -2.0880 O.co2     1 GLU        -0.5690
     85 N          46.8590   -0.8960    0.6510 N.am      1 TYR        -0.2621
     86 CA         47.4070    0.4010    1.0170 C.3       1 TYR         0.1390
     87 C          47.2730    1.3600   -0.1480 C.2       1 TYR         0.2057
     88 O          47.7300    1.0810   -1.2570 O.2       1 TYR        -0.3942
     89 CB         48.8780    0.2640    1.4060 C.3       1 TYR         0.0163
     90 CG         49.5590    1.6050    1.2800 C.ar      1 TYR        -0.0493
     91 CD1        49.0110    2.7410    1.8930 C.ar      1 TYR        -0.0685
     92 CD2        50.7500    1.7090    0.5570 C.ar      1 TYR        -0.0685
     93 CE1        49.6560    3.9730    1.7800 C.ar      1 TYR        -0.0398
     94 CE2        51.3940    2.9430    0.4410 C.ar      1 TYR        -0.0398
     95 CZ         50.8460    4.0760    1.0540 C.ar      1 TYR         0.0805
     96 OH         51.4830    5.2940    0.9460 O.3       1 TYR        -0.3376
     97 N          46.6410    2.4920    0.1090 N.am      1 ILE        -0.2633
     98 CA         46.4500    3.4790   -0.9260 C.3       1 ILE         0.1335
     99 C          46.7820    4.8570   -0.3860 C.2       1 ILE         0.2042
    100 O          46.3070    5.2410    0.6810 O.2       1 ILE        -0.3944
    101 CB         45.0060    3.4470   -1.4170 C.3       1 ILE        -0.0037
    102 CG1        44.6510    2.0270   -1.8420 C.3       1 ILE        -0.0491
    103 CG2        44.8860    4.3540   -2.6290 C.3       1 ILE        -0.0582
    104 CD1        43.1620    1.9430   -2.1830 C.3       1 ILE        -0.0648
    105 N          47.6030    5.5950   -1.1130 N.am      1 ASP        -0.2622
    106 CA         47.9820    6.9230   -0.6600 C.3       1 ASP         0.1423
    107 C          46.7870    7.8650   -0.7380 C.2       1 ASP         0.2051
    108 O          46.6140    8.5910   -1.7180 O.2       1 ASP        -0.3943
    109 CB         49.1080    7.4710   -1.5400 C.3       1 ASP         0.0406
    110 CG         49.5740    8.8350   -1.0330 C.2       1 ASP         0.0393
    111 OD1        49.0040    9.3200   -0.0700 O.co2     1 ASP        -0.5688
    112 OD2        50.4950    9.3770   -1.6220 O.co2     1 ASP        -0.5688
    113 N          45.9720    7.8440    0.3090 N.am      1 ASP        -0.2678
    114 CA         44.7890    8.6960    0.3700 C.3       1 ASP         0.1058
    115 C          45.1420   10.0790    0.9180 C.2       1 ASP         0.0618
    116 O          46.3160   10.3260    1.1370 O.co2     1 ASP        -0.5665
    117 CB         43.7380    8.0440    1.2680 C.3       1 ASP         0.0351
    118 CG         42.3390    8.3520    0.7440 C.2       1 ASP         0.0387
    119 OD1        42.2100    9.2750   -0.0450 O.co2     1 ASP        -0.5688
    120 OD2        41.4140    7.6600    1.1400 O.co2     1 ASP        -0.5688
    121 OXT        44.2320   10.8690    1.1070 O.co2     1 ASP        -0.5665
    122 H1         53.1370  -15.7137   25.0991 H         1 GLN         0.2015
    123 H2         53.7271  -15.3879   23.5974 H         1 GLN         0.2015
    124 H3         52.3668  -14.6291   24.1297 H         1 GLN         0.2015
    125 H4         53.5941  -13.4687   25.8469 H         1 GLN         0.1100
    126 H5         55.9757  -14.8651   24.5063 H         1 GLN         0.0370
    127 H6         55.3153  -15.2556   26.1305 H         1 GLN         0.0370
    128 H7         55.7772  -12.9147   26.8677 H         1 GLN         0.0506
    129 H8         56.4680  -12.5508   25.2500 H         1 GLN         0.0506
    130 H9         59.4007  -13.4516   27.3254 H         1 GLN         0.1814
    131 H10        58.2896  -12.1321   27.1691 H         1 GLN         0.1814
    132 H11        55.4525  -14.0497   22.8203 H         1 GLU         0.1885
    133 H12        55.5907  -11.2141   22.2742 H         1 GLU         0.0801
    134 H13        56.5371  -11.9956   20.0492 H         1 GLU         0.0330
    135 H14        56.2528  -13.6829   20.5959 H         1 GLU         0.0330
    136 H15        57.6620  -13.2535   22.6122 H         1 GLU         0.0433
    137 H16        57.9677  -11.5815   22.0311 H         1 GLU         0.0433
    138 H17        51.8029  -10.7515   20.0164 H         1 PRO         0.0802
    139 H18        52.2236   -8.4492   20.1587 H         1 PRO         0.0313
    140 H19        52.4343   -8.6245   18.3835 H         1 PRO         0.0313
    141 H20        54.3764   -7.6085   19.9531 H         1 PRO         0.0287
    142 H21        54.7485   -8.6293   18.5227 H         1 PRO         0.0287
    143 H22        55.8570   -9.9796   20.0580 H         1 PRO         0.0524
    144 H23        54.9582   -9.2914   21.4527 H         1 PRO         0.0524
    145 H24        50.7867  -11.4015   18.1727 H         1 GLU         0.1883
    146 H25        52.3754  -12.9611   16.3055 H         1 GLU         0.0801
    147 H26        50.1234  -13.3155   15.1679 H         1 GLU         0.0330
    148 H27        49.3997  -12.2761   16.4416 H         1 GLU         0.0330
    149 H28        51.2128  -14.5339   17.3064 H         1 GLU         0.0433
    150 H29        49.5664  -14.9503   16.7211 H         1 GLU         0.0433
    151 H30        52.9992   -9.8781   13.2032 H         1 PRO         0.0802
    152 H31        54.2439  -11.4462   11.9922 H         1 PRO         0.0313
    153 H32        52.8345  -11.3955   10.8796 H         1 PRO         0.0313
    154 H33        53.6597  -13.6960   11.9997 H         1 PRO         0.0287
    155 H34        51.9166  -13.3496   11.7379 H         1 PRO         0.0287
    156 H35        51.7975  -13.7505   14.0427 H         1 PRO         0.0524
    157 H36        53.5195  -13.3145   14.3096 H         1 PRO         0.0524
    158 H37        49.0162   -8.5454   11.7638 H         1 PRO         0.0802
    159 H38        49.9955   -6.4261   11.5266 H         1 PRO         0.0313
    160 H39        49.7693   -6.7740    9.7789 H         1 PRO         0.0313
    161 H40        52.1886   -6.1946   10.7976 H         1 PRO         0.0287
    162 H41        51.9848   -7.3966    9.4785 H         1 PRO         0.0287
    163 H42        53.0644   -8.8272   10.9720 H         1 PRO         0.0524
    164 H43        52.6058   -7.8402   12.4011 H         1 PRO         0.0524
    165 H44        47.6266   -8.3812    9.8249 H         1 GLU         0.1883
    166 H45        48.2853  -10.6038    7.9539 H         1 GLU         0.0801
    167 H46        45.7900  -10.4952    7.4517 H         1 GLU         0.0330
    168 H47        45.6484   -9.2788    8.7659 H         1 GLU         0.0330
    169 H48        46.6605  -10.9084   10.3641 H         1 GLU         0.0433
    170 H49        46.7547  -12.1262    9.0469 H         1 GLU         0.0433
    171 H50        48.7972   -7.9251    4.4645 H         1 PRO         0.0802
    172 H51        48.8486   -9.7144    2.9731 H         1 PRO         0.0313
    173 H52        47.1718   -9.2229    2.5564 H         1 PRO         0.0313
    174 H53        47.7193  -11.6827    3.4889 H         1 PRO         0.0287
    175 H54        46.2152  -10.8180    3.9543 H         1 PRO         0.0287
    176 H55        47.0836  -11.2970    6.1046 H         1 PRO         0.0524
    177 H56        48.7888  -11.1935    5.5493 H         1 PRO         0.0524
    178 H57        47.8602   -6.1672    3.4998 H         1 PHE         0.1885
    179 H58        44.9307   -5.8779    3.4410 H         1 PHE         0.0823
    180 H59        45.5290   -5.1804    5.7590 H         1 PHE         0.0474
    181 H60        44.9377   -3.7954    4.7798 H         1 PHE         0.0474
    182 H61        46.4892   -2.0460    4.0127 H         1 PHE         0.0557
    183 H62        47.8784   -5.3667    6.3742 H         1 PHE         0.0557
    184 H63        48.6218   -0.8408    4.4588 H         1 PHE         0.0599
    185 H64        50.0048   -4.1630    6.8163 H         1 PHE         0.0599
    186 H65        50.3754   -1.9014    5.8609 H         1 PHE         0.0559
    187 H66        44.2903   -3.8158    2.3901 H         1 GLU         0.1883
    188 H67        46.1372   -3.2384    0.1725 H         1 GLU         0.0801
    189 H68        44.1412   -1.7981   -0.5938 H         1 GLU         0.0330
    190 H69        43.2509   -2.4602    0.8189 H         1 GLU         0.0330
    191 H70        43.8805   -4.7965   -0.0302 H         1 GLU         0.0433
    192 H71        44.4577   -4.0031   -1.5349 H         1 GLU         0.0433
    193 H72        47.2295   -1.3771   -0.1435 H         1 TYR         0.1885
    194 H73        46.8453    0.7974    1.8757 H         1 TYR         0.0821
    195 H74        49.3679   -0.4601    0.7384 H         1 TYR         0.0453
    196 H75        48.9511   -0.0880    2.4456 H         1 TYR         0.0453
    197 H76        48.0870    2.6620    2.4542 H         1 TYR         0.0530
    198 H77        51.1750    0.8304    0.0852 H         1 TYR         0.0530
    199 H78        49.2340    4.8509    2.2556 H         1 TYR         0.0525
    200 H79        52.3164    3.0232   -0.1227 H         1 TYR         0.0525
    201 H80        50.9849    5.9533    1.4148 H         1 TYR         0.2458
    202 H81        46.2918    2.6661    1.0297 H         1 ILE         0.1883
    203 H82        47.1203    3.2514   -1.7680 H         1 ILE         0.0803
    204 H83        44.3278    3.7846   -0.6195 H         1 ILE         0.0345
    205 H84        44.8765    1.3327   -1.0191 H         1 ILE         0.0267
    206 H85        45.2439    1.7520   -2.7267 H         1 ILE         0.0267
    207 H86        45.1388    5.3853   -2.3417 H         1 ILE         0.0235
    208 H87        43.8547    4.3220   -3.0103 H         1 ILE         0.0235
    209 H88        45.5776    4.0118   -3.4130 H         1 ILE         0.0235
    210 H89        42.9132    0.9160   -2.4887 H         1 ILE         0.0230
    211 H90        42.9348    2.6358   -3.0066 H         1 ILE         0.0230
    212 H91        42.5674    2.2166   -1.2990 H         1 ILE         0.0230
    213 H92        47.9636    5.2394   -1.9753 H         1 ASP         0.1884
    214 H93        48.3300    6.8629    0.3817 H         1 ASP         0.0819
    215 H94        48.7417    7.5752   -2.5720 H         1 ASP         0.0478
    216 H95        49.9553    6.7698   -1.5207 H         1 ASP         0.0478
    217 H96        46.1730    7.2308    1.0730 H         1 ASP         0.1877
    218 H97        44.3781    8.8088   -0.6441 H         1 ASP         0.0745
    219 H98        43.8384    8.4369    2.2905 H         1 ASP         0.0471
    220 H99        43.8918    6.9549    1.2769 H         1 ASP         0.0471
@<TRIPOS>BOND
     1    1    2 1  
     2    2    3 1  
     3    2    5 1  
     4    3    4 2  
     5    3   10 am 
     6    5    6 1  
     7    6    7 1  
     8    7    8 2  
     9    7    9 am 
    10   10   11 1  
    11   11   12 1  
    12   11   14 1  
    13   12   13 2  
    14   12   19 am 
    15   14   15 1  
    16   15   16 1  
    17   16   17 ar 
    18   16   18 ar 
    19   19   20 1  
    20   19   25 1  
    21   20   21 1  
    22   20   23 1  
    23   21   22 2  
    24   21   26 am 
    25   23   24 1  
    26   24   25 1  
    27   26   27 1  
    28   27   28 1  
    29   27   30 1  
    30   28   29 2  
    31   28   35 am 
    32   30   31 1  
    33   31   32 1  
    34   32   33 ar 
    35   32   34 ar 
    36   35   36 1  
    37   35   41 1  
    38   36   37 1  
    39   36   39 1  
    40   37   38 2  
    41   37   42 am 
    42   39   40 1  
    43   40   41 1  
    44   42   43 1  
    45   42   48 1  
    46   43   44 1  
    47   43   46 1  
    48   44   45 2  
    49   44   49 am 
    50   46   47 1  
    51   47   48 1  
    52   49   50 1  
    53   50   51 1  
    54   50   53 1  
    55   51   52 2  
    56   51   58 am 
    57   53   54 1  
    58   54   55 1  
    59   55   56 ar 
    60   55   57 ar 
    61   58   59 1  
    62   58   64 1  
    63   59   60 1  
    64   59   62 1  
    65   60   61 2  
    66   60   65 am 
    67   62   63 1  
    68   63   64 1  
    69   65   66 1  
    70   66   67 1  
    71   66   69 1  
    72   67   68 2  
    73   67   76 am 
    74   69   70 1  
    75   70   71 ar 
    76   70   72 ar 
    77   71   73 ar 
    78   72   74 ar 
    79   73   75 ar 
    80   74   75 ar 
    81   76   77 1  
    82   77   78 1  
    83   77   80 1  
    84   78   79 2  
    85   78   85 am 
    86   80   81 1  
    87   81   82 1  
    88   82   83 ar 
    89   82   84 ar 
    90   85   86 1  
    91   86   87 1  
    92   86   89 1  
    93   87   88 2  
    94   87   97 am 
    95   89   90 1  
    96   90   91 ar 
    97   90   92 ar 
    98   91   93 ar 
    99   92   94 ar 
   100   93   95 ar 
   101   94   95 ar 
   102   95   96 1  
   103   97   98 1  
   104   98   99 1  
   105   98  101 1  
   106   99  100 2  
   107   99  105 am 
   108  101  102 1  
   109  101  103 1  
   110  102  104 1  
   111  105  106 1  
   112  106  107 1  
   113  106  109 1  
   114  107  108 2  
   115  107  113 am 
   116  109  110 1  
   117  110  111 ar 
   118  110  112 ar 
   119  113  114 1  
   120  114  115 1  
   121  114  117 1  
   122  115  116 ar 
   123  115  121 ar 
   124  117  118 1  
   125  118  119 ar 
   126  118  120 ar 
   127    1  122 1  
   128    1  123 1  
   129    1  124 1  
   130    2  125 1  
   131    5  126 1  
   132    5  127 1  
   133    6  128 1  
   134    6  129 1  
   135    9  130 1  
   136    9  131 1  
   137   10  132 1  
   138   11  133 1  
   139   14  134 1  
   140   14  135 1  
   141   15  136 1  
   142   15  137 1  
   143   20  138 1  
   144   23  139 1  
   145   23  140 1  
   146   24  141 1  
   147   24  142 1  
   148   25  143 1  
   149   25  144 1  
   150   26  145 1  
   151   27  146 1  
   152   30  147 1  
   153   30  148 1  
   154   31  149 1  
   155   31  150 1  
   156   36  151 1  
   157   39  152 1  
   158   39  153 1  
   159   40  154 1  
   160   40  155 1  
   161   41  156 1  
   162   41  157 1  
   163   43  158 1  
   164   46  159 1  
   165   46  160 1  
   166   47  161 1  
   167   47  162 1  
   168   48  163 1  
   169   48  164 1  
   170   49  165 1  
   171   50  166 1  
   172   53  167 1  
   173   53  168 1  
   174   54  169 1  
   175   54  170 1  
   176   59  171 1  
   177   62  172 1  
   178   62  173 1  
   179   63  174 1  
   180   63  175 1  
   181   64  176 1  
   182   64  177 1  
   183   65  178 1  
   184   66  179 1  
   185   69  180 1  
   186   69  181 1  
   187   71  182 1  
   188   72  183 1  
   189   73  184 1  
   190   74  185 1  
   191   75  186 1  
   192   76  187 1  
   193   77  188 1  
   194   80  189 1  
   195   80  190 1  
   196   81  191 1  
   197   81  192 1  
   198   85  193 1  
   199   86  194 1  
   200   89  195 1  
   201   89  196 1  
   202   91  197 1  
   203   92  198 1  
   204   93  199 1  
   205   94  200 1  
   206   96  201 1  
   207   97  202 1  
   208   98  203 1  
   209  101  204 1  
   210  102  205 1  
   211  102  206 1  
   212  103  207 1  
   213  103  208 1  
   214  103  209 1  
   215  104  210 1  
   216  104  211 1  
   217  104  212 1  
   218  105  213 1  
   219  106  214 1  
   220  109  215 1  
   221  109  216 1  
   222  113  217 1  
   223  114  218 1  
   224  117  219 1  
   225  117  220 1  
@<TRIPOS>SUBSTRUCTURE
     1 GLN         1

