6co4_ligand
  -I-interpret- 

227232  0  0  0  0  0  0  0  0999 V2000
   53.2650  -14.9960   24.4030 N   0  3  0  0  0
   54.0990  -13.8980   24.9690 C   0  0  0  0  0
   54.2900  -12.8170   23.9160 C   0  0  0  0  0
   53.7650  -11.7110   24.0460 O   0  0  0  0  0
   55.4600  -14.4570   25.3880 C   0  0  0  0  0
   56.3060  -13.3380   26.0010 C   0  0  0  0  0
   57.6530  -13.8900   26.4520 C   0  0  0  0  0
   57.9280  -15.0780   26.2790 O   0  0  0  0  0
   58.5150  -13.0960   27.0270 N   0  0  0  0  0
   55.0500  -13.1360   22.8760 N   0  0  0  0  0
   55.3050  -12.1720   21.8150 C   0  0  0  0  0
   54.0500  -11.9520   20.9630 C   0  0  0  0  0
   53.2040  -12.8400   20.8540 O   0  0  0  0  0
   56.4520  -12.6530   20.9270 C   0  0  0  0  0
   57.7590  -12.6160   21.7210 C   0  0  0  0  0
   58.9080  -13.1260   20.8580 C   0  0  0  0  0
   58.6490  -13.5170   19.7320 O   0  0  0  0  0
   60.0310  -13.1170   21.3360 O   0  0  0  0  0
   53.9140  -10.7910   20.3630 N   0  0  0  0  0
   52.7340  -10.4590   19.5090 C   0  0  0  0  0
   52.7870  -11.1480   18.1500 C   0  0  0  0  0
   53.8590  -11.3040   17.5630 O   0  0  0  0  0
   52.8100   -8.9400   19.3680 C   0  0  0  0  0
   54.2580   -8.6070   19.5070 C   0  0  0  0  0
   54.8670   -9.6700   20.4240 C   0  0  0  0  0
   51.6270  -11.5560   17.6530 N   0  0  0  0  0
   51.5590  -12.2260   16.3610 C   0  0  0  0  0
   51.7290  -11.2190   15.2250 C   0  0  0  0  0
   51.4300  -10.0350   15.3900 O   0  0  0  0  0
   50.2270  -12.9610   16.2040 C   0  0  0  0  0
   50.1900  -14.1570   17.1590 C   0  0  0  0  0
   49.6070  -13.7480   18.5080 C   0  0  0  0  0
   49.4230  -12.5610   18.7220 O   0  0  0  0  0
   49.3530  -14.6320   19.3100 O   0  0  0  0  0
   52.1980  -11.6560   14.0820 N   0  0  0  0  0
   52.3980  -10.7520   12.9120 C   0  0  0  0  0
   51.0690  -10.2660   12.3200 C   0  0  0  0  0
   50.0410  -10.9290   12.4550 O   0  0  0  0  0
   53.1610  -11.6190   11.9060 C   0  0  0  0  0
   52.8270  -13.0280   12.2650 C   0  0  0  0  0
   52.5970  -13.0440   13.7750 C   0  0  0  0  0
   51.0740   -9.1250   11.6680 N   0  0  0  0  0
   49.8480   -8.5430   11.0440 C   0  0  0  0  0
   49.4180   -9.3020    9.7930 C   0  0  0  0  0
   50.1720  -10.1120    9.2550 O   0  0  0  0  0
   50.2600   -7.1080   10.7050 C   0  0  0  0  0
   51.7380   -7.1600   10.5240 C   0  0  0  0  0
   52.2500   -8.2630   11.4500 C   0  0  0  0  0
   48.1990   -9.0440    9.3420 N   0  0  0  0  0
   47.6780   -9.7090    8.1550 C   0  0  0  0  0
   47.7560   -8.7770    6.9420 C   0  0  0  0  0
   47.7810   -7.5550    7.0980 O   0  0  0  0  0
   46.2280  -10.1370    8.3950 C   0  0  0  0  0
   46.1960  -11.2600    9.4310 C   0  0  0  0  0
   44.7560  -11.6710    9.7080 C   0  0  0  0  0
   43.8650  -11.0250    9.1800 O   0  0  0  0  0
   44.5630  -12.6260   10.4420 O   0  0  0  0  0
   47.7930   -9.3200    5.7460 N   0  0  0  0  0
   47.8630   -8.5050    4.4940 C   0  0  0  0  0
   46.6760   -7.5510    4.3670 C   0  0  0  0  0
   45.5590   -7.8750    4.7740 O   0  0  0  0  0
   47.8360   -9.5500    3.3700 C   0  0  0  0  0
   47.3140  -10.7970    4.0000 C   0  0  0  0  0
   47.7830  -10.7600    5.4470 C   0  0  0  0  0
   46.9310   -6.3710    3.8080 N   0  0  0  0  0
   45.8850   -5.3660    3.6340 C   0  0  0  0  0
   46.2030   -4.4510    2.4550 C   0  0  0  0  0
   47.3380   -4.3930    1.9940 O   0  0  0  0  0
   45.7530   -4.5230    4.9060 C   0  0  0  0  0
   47.0480   -3.7870    5.1650 C   0  0  0  0  0
   47.2560   -2.5080    4.6240 C   0  0  0  0  0
   48.0390   -4.3800    5.9550 C   0  0  0  0  0
   48.4590   -1.8280    4.8760 C   0  0  0  0  0
   49.2380   -3.7010    6.2050 C   0  0  0  0  0
   49.4470   -2.4260    5.6660 C   0  0  0  0  0
   45.1960   -3.7300    1.9750 N   0  0  0  0  0
   45.3850   -2.8160    0.8550 C   0  0  0  0  0
   45.8750   -1.4560    1.3510 C   0  0  0  0  0
   45.3680   -0.9240    2.3370 O   0  0  0  0  0
   44.0620   -2.6480    0.1000 C   0  0  0  0  0
   43.7590   -3.9240   -0.6890 C   0  0  0  0  0
   42.3290   -3.8870   -1.2180 C   0  0  0  0  0
   41.5650   -3.0630   -0.7450 O   0  0  0  0  0
   42.0190   -4.6850   -2.0880 O   0  0  0  0  0
   46.8590   -0.8960    0.6510 N   0  0  0  0  0
   47.4070    0.4010    1.0170 C   0  0  0  0  0
   47.2730    1.3600   -0.1480 C   0  0  0  0  0
   47.7300    1.0810   -1.2570 O   0  0  0  0  0
   48.8780    0.2640    1.4060 C   0  0  0  0  0
   49.5590    1.6050    1.2800 C   0  0  0  0  0
   49.0110    2.7410    1.8930 C   0  0  0  0  0
   50.7500    1.7090    0.5570 C   0  0  0  0  0
   49.6560    3.9730    1.7800 C   0  0  0  0  0
   51.3940    2.9430    0.4410 C   0  0  0  0  0
   50.8460    4.0760    1.0540 C   0  0  0  0  0
   51.4830    5.2940    0.9460 O   0  0  0  0  0
   46.6410    2.4920    0.1090 N   0  0  0  0  0
   46.4500    3.4790   -0.9260 C   0  0  0  0  0
   46.7820    4.8570   -0.3860 C   0  0  0  0  0
   46.3070    5.2410    0.6810 O   0  0  0  0  0
   45.0060    3.4470   -1.4170 C   0  0  0  0  0
   44.6510    2.0270   -1.8420 C   0  0  0  0  0
   44.8860    4.3540   -2.6290 C   0  0  0  0  0
   43.1620    1.9430   -2.1830 C   0  0  0  0  0
   47.6030    5.5950   -1.1130 N   0  0  0  0  0
   47.9820    6.9230   -0.6600 C   0  0  0  0  0
   46.7870    7.8650   -0.7380 C   0  0  0  0  0
   46.6140    8.5910   -1.7180 O   0  0  0  0  0
   49.1080    7.4710   -1.5400 C   0  0  0  0  0
   49.5740    8.8350   -1.0330 C   0  0  0  0  0
   49.0040    9.3200   -0.0700 O   0  0  0  0  0
   50.4950    9.3770   -1.6220 O   0  0  0  0  0
   45.9720    7.8440    0.3090 N   0  0  0  0  0
   44.7890    8.6960    0.3700 C   0  0  0  0  0
   45.1420   10.0790    0.9180 C   0  0  0  0  0
   46.3160   10.3260    1.1370 O   0  0  0  0  0
   43.7380    8.0440    1.2680 C   0  0  0  0  0
   42.3390    8.3520    0.7440 C   0  0  0  0  0
   42.2100    9.2750   -0.0450 O   0  0  0  0  0
   41.4140    7.6600    1.1400 O   0  0  0  0  0
   44.2320   10.8690    1.1070 O   0  0  0  0  0
   52.3577  -14.6228   24.1238 H   0  0  0  0  0
   53.7351  -15.3939   23.5899 H   0  0  0  0  0
   53.1334  -15.7200   25.1093 H   0  0  0  0  0
   53.6018  -13.4709   25.8399 H   0  0  0  0  0
   55.9710  -14.8610   24.5141 H   0  0  0  0  0
   55.3164  -15.2480   26.1240 H   0  0  0  0  0
   55.7821  -12.9231   26.8621 H   0  0  0  0  0
   56.4689  -12.5613   25.2538 H   0  0  0  0  0
   59.4175  -13.4593   27.3336 H   0  0  0  0  0
   58.2861  -12.1123   27.1697 H   0  0  0  0  0
   55.4606  -14.0680   22.8192 H   0  0  0  0  0
   55.5815  -11.2252   22.2789 H   0  0  0  0  0
   56.5362  -12.0021   20.0567 H   0  0  0  0  0
   56.2546  -13.6733   20.5982 H   0  0  0  0  0
   57.6620  -13.2516   22.6012 H   0  0  0  0  0
   57.9659  -11.5895   22.0235 H   0  0  0  0  0
   59.9943  -12.7690   22.2300 H   0  0  0  0  0
   51.7981  -10.8019   19.9501 H   0  0  0  0  0
   52.2067   -8.4351   20.1225 H   0  0  0  0  0
   52.4099   -8.6041   18.4114 H   0  0  0  0  0
   54.3888   -7.6099   19.9275 H   0  0  0  0  0
   54.7510   -8.6037   18.5349 H   0  0  0  0  0
   55.8671   -9.9634   20.1051 H   0  0  0  0  0
   55.0060   -9.3040   21.4413 H   0  0  0  0  0
   50.7699  -11.3984   18.1831 H   0  0  0  0  0
   52.3703  -12.9525   16.3150 H   0  0  0  0  0
   50.1240  -13.3120   15.1772 H   0  0  0  0  0
   49.4071  -12.2823   16.4390 H   0  0  0  0  0
   51.2064  -14.5212   17.3089 H   0  0  0  0  0
   49.5639  -14.9366   16.7251 H   0  0  0  0  0
   49.5780  -15.4835   18.9279 H   0  0  0  0  0
   52.9322   -9.8426   13.1870 H   0  0  0  0  0
   54.2347  -11.4372   11.9538 H   0  0  0  0  0
   52.8744  -11.3884   10.8800 H   0  0  0  0  0
   53.6337  -13.7053   11.9846 H   0  0  0  0  0
   51.9404  -13.3687   11.7302 H   0  0  0  0  0
   51.8406  -13.7701   14.0731 H   0  0  0  0  0
   53.4838  -13.3540   14.3278 H   0  0  0  0  0
   48.9863   -8.5963   11.7094 H   0  0  0  0  0
   49.9751   -6.4105   11.4927 H   0  0  0  0  0
   49.7570   -6.7458    9.8084 H   0  0  0  0  0
   52.1952   -6.2013   10.7690 H   0  0  0  0  0
   51.9970   -7.3702    9.4863 H   0  0  0  0  0
   53.0867   -8.8100   11.0156 H   0  0  0  0  0
   52.6478   -7.8653   12.3836 H   0  0  0  0  0
   47.6152   -8.3680    9.8345 H   0  0  0  0  0
   48.2839  -10.5923    7.9530 H   0  0  0  0  0
   45.7932  -10.4912    7.4603 H   0  0  0  0  0
   45.6531   -9.2866    8.7617 H   0  0  0  0  0
   46.6531  -10.9082   10.3559 H   0  0  0  0  0
   46.7467  -12.1186    9.0468 H   0  0  0  0  0
   44.2508  -10.3244    8.6490 H   0  0  0  0  0
   48.7495   -7.8711    4.4710 H   0  0  0  0  0
   48.8267   -9.7026    2.9418 H   0  0  0  0  0
   47.2076   -9.2281    2.5396 H   0  0  0  0  0
   47.6836  -11.6846    3.4866 H   0  0  0  0  0
   46.2270  -10.8472    3.9373 H   0  0  0  0  0
   47.1394  -11.3294    6.1176 H   0  0  0  0  0
   48.7552  -11.2313    5.5914 H   0  0  0  0  0
   47.8788   -6.1631    3.4936 H   0  0  0  0  0
   44.9464   -5.8835    3.4359 H   0  0  0  0  0
   45.5325   -5.1753    5.7510 H   0  0  0  0  0
   44.9459   -3.8014    4.7795 H   0  0  0  0  0
   46.4850   -2.0435    4.0093 H   0  0  0  0  0
   47.8775   -5.3721    6.3765 H   0  0  0  0  0
   48.6227   -0.8354    4.4565 H   0  0  0  0  0
   50.0090   -4.1655    6.8197 H   0  0  0  0  0
   50.3805   -1.8985    5.8620 H   0  0  0  0  0
   44.2722   -3.8175    2.3984 H   0  0  0  0  0
   46.1365   -3.2325    0.1842 H   0  0  0  0  0
   44.1405   -1.8058   -0.5875 H   0  0  0  0  0
   43.2583   -2.4620    0.8124 H   0  0  0  0  0
   43.8750   -4.7863   -0.0324 H   0  0  0  0  0
   44.4492   -3.9969   -1.5295 H   0  0  0  0  0
   42.7776   -5.2323   -2.3036 H   0  0  0  0  0
   47.2369   -1.3868   -0.1594 H   0  0  0  0  0
   46.8520    0.7892    1.8711 H   0  0  0  0  0
   49.3634   -0.4535    0.7444 H   0  0  0  0  0
   48.9503   -0.0847    2.4362 H   0  0  0  0  0
   48.0818    2.6615    2.4573 H   0  0  0  0  0
   51.1774    0.8256    0.0826 H   0  0  0  0  0
   49.2316    4.8558    2.2582 H   0  0  0  0  0
   52.3216    3.0237   -0.1258 H   0  0  0  0  0
   52.2790    5.1920    0.4191 H   0  0  0  0  0
   46.2848    2.6696    1.0481 H   0  0  0  0  0
   47.1121    3.2527   -1.7618 H   0  0  0  0  0
   44.3376    3.7771   -0.6217 H   0  0  0  0  0
   44.8720    1.3409   -1.0243 H   0  0  0  0  0
   45.2370    1.7574   -2.7206 H   0  0  0  0  0
   45.1608    5.3709   -2.3488 H   0  0  0  0  0
   45.5535    3.9991   -3.4143 H   0  0  0  0  0
   43.8579    4.3407   -2.9908 H   0  0  0  0  0
   42.5739    2.2144   -1.3063 H   0  0  0  0  0
   42.9382    2.6300   -2.9991 H   0  0  0  0  0
   42.9168    0.9250   -2.4857 H   0  0  0  0  0
   47.9708    5.2323   -1.9925 H   0  0  0  0  0
   48.3228    6.8541    0.3731 H   0  0  0  0  0
   48.7370    7.5816   -2.5589 H   0  0  0  0  0
   49.9485    6.7776   -1.5094 H   0  0  0  0  0
   50.7867    8.8151   -2.3436 H   0  0  0  0  0
   46.1770    7.2186    1.0882 H   0  0  0  0  0
   44.3940    8.8142   -0.6390 H   0  0  0  0  0
   43.8366    8.4383    2.2794 H   0  0  0  0  0
   43.8896    6.9646    1.2715 H   0  0  0  0  0
   41.7487    6.9995    1.7510 H   0  0  0  0  0
   43.3983   10.4588    0.8656 H   0  0  0  0  0
  1  2  1  0  0  0
  2  3  1  0  0  0
  2  5  1  0  0  0
  3  4  2  0  0  0
  3 10  1  0  0  0
  5  6  1  0  0  0
  6  7  1  0  0  0
  7  8  2  0  0  0
  7  9  1  0  0  0
 10 11  1  0  0  0
 11 12  1  0  0  0
 11 14  1  0  0  0
 12 13  2  0  0  0
 12 19  1  0  0  0
 14 15  1  0  0  0
 15 16  1  0  0  0
 16 17  2  0  0  0
 16 18  1  0  0  0
 19 20  1  0  0  0
 19 25  1  0  0  0
 20 21  1  0  0  0
 20 23  1  0  0  0
 21 22  2  0  0  0
 21 26  1  0  0  0
 23 24  1  0  0  0
 24 25  1  0  0  0
 26 27  1  0  0  0
 27 28  1  0  0  0
 27 30  1  0  0  0
 28 29  2  0  0  0
 28 35  1  0  0  0
 30 31  1  0  0  0
 31 32  1  0  0  0
 32 33  2  0  0  0
 32 34  1  0  0  0
 35 36  1  0  0  0
 35 41  1  0  0  0
 36 37  1  0  0  0
 36 39  1  0  0  0
 37 38  2  0  0  0
 37 42  1  0  0  0
 39 40  1  0  0  0
 40 41  1  0  0  0
 42 43  1  0  0  0
 42 48  1  0  0  0
 43 44  1  0  0  0
 43 46  1  0  0  0
 44 45  2  0  0  0
 44 49  1  0  0  0
 46 47  1  0  0  0
 47 48  1  0  0  0
 49 50  1  0  0  0
 50 51  1  0  0  0
 50 53  1  0  0  0
 51 52  2  0  0  0
 51 58  1  0  0  0
 53 54  1  0  0  0
 54 55  1  0  0  0
 55 56  1  0  0  0
 55 57  2  0  0  0
 58 59  1  0  0  0
 58 64  1  0  0  0
 59 60  1  0  0  0
 59 62  1  0  0  0
 60 61  2  0  0  0
 60 65  1  0  0  0
 62 63  1  0  0  0
 63 64  1  0  0  0
 65 66  1  0  0  0
 66 67  1  0  0  0
 66 69  1  0  0  0
 67 68  2  0  0  0
 67 76  1  0  0  0
 69 70  1  0  0  0
 70 71  4  0  0  0
 70 72  4  0  0  0
 71 73  4  0  0  0
 72 74  4  0  0  0
 73 75  4  0  0  0
 74 75  4  0  0  0
 76 77  1  0  0  0
 77 78  1  0  0  0
 77 80  1  0  0  0
 78 79  2  0  0  0
 78 85  1  0  0  0
 80 81  1  0  0  0
 81 82  1  0  0  0
 82 83  2  0  0  0
 82 84  1  0  0  0
 85 86  1  0  0  0
 86 87  1  0  0  0
 86 89  1  0  0  0
 87 88  2  0  0  0
 87 97  1  0  0  0
 89 90  1  0  0  0
 90 91  4  0  0  0
 90 92  4  0  0  0
 91 93  4  0  0  0
 92 94  4  0  0  0
 93 95  4  0  0  0
 94 95  4  0  0  0
 95 96  1  0  0  0
 97 98  1  0  0  0
 98 99  1  0  0  0
 98101  1  0  0  0
 99100  2  0  0  0
 99105  1  0  0  0
101102  1  0  0  0
101103  1  0  0  0
102104  1  0  0  0
105106  1  0  0  0
106107  1  0  0  0
106109  1  0  0  0
107108  2  0  0  0
107113  1  0  0  0
109110  1  0  0  0
110111  2  0  0  0
110112  1  0  0  0
113114  1  0  0  0
114115  1  0  0  0
114117  1  0  0  0
115116  2  0  0  0
115121  1  0  0  0
117118  1  0  0  0
118119  2  0  0  0
118120  1  0  0  0
  1122  1  0  0  0
  1123  1  0  0  0
  1124  1  0  0  0
  2125  1  0  0  0
  5126  1  0  0  0
  5127  1  0  0  0
  6128  1  0  0  0
  6129  1  0  0  0
  9130  1  0  0  0
  9131  1  0  0  0
 10132  1  0  0  0
 11133  1  0  0  0
 14134  1  0  0  0
 14135  1  0  0  0
 15136  1  0  0  0
 15137  1  0  0  0
 18138  1  0  0  0
 20139  1  0  0  0
 23140  1  0  0  0
 23141  1  0  0  0
 24142  1  0  0  0
 24143  1  0  0  0
 25144  1  0  0  0
 25145  1  0  0  0
 26146  1  0  0  0
 27147  1  0  0  0
 30148  1  0  0  0
 30149  1  0  0  0
 31150  1  0  0  0
 31151  1  0  0  0
 34152  1  0  0  0
 36153  1  0  0  0
 39154  1  0  0  0
 39155  1  0  0  0
 40156  1  0  0  0
 40157  1  0  0  0
 41158  1  0  0  0
 41159  1  0  0  0
 43160  1  0  0  0
 46161  1  0  0  0
 46162  1  0  0  0
 47163  1  0  0  0
 47164  1  0  0  0
 48165  1  0  0  0
 48166  1  0  0  0
 49167  1  0  0  0
 50168  1  0  0  0
 53169  1  0  0  0
 53170  1  0  0  0
 54171  1  0  0  0
 54172  1  0  0  0
 56173  1  0  0  0
 59174  1  0  0  0
 62175  1  0  0  0
 62176  1  0  0  0
 63177  1  0  0  0
 63178  1  0  0  0
 64179  1  0  0  0
 64180  1  0  0  0
 65181  1  0  0  0
 66182  1  0  0  0
 69183  1  0  0  0
 69184  1  0  0  0
 71185  1  0  0  0
 72186  1  0  0  0
 73187  1  0  0  0
 74188  1  0  0  0
 75189  1  0  0  0
 76190  1  0  0  0
 77191  1  0  0  0
 80192  1  0  0  0
 80193  1  0  0  0
 81194  1  0  0  0
 81195  1  0  0  0
 84196  1  0  0  0
 85197  1  0  0  0
 86198  1  0  0  0
 89199  1  0  0  0
 89200  1  0  0  0
 91201  1  0  0  0
 92202  1  0  0  0
 93203  1  0  0  0
 94204  1  0  0  0
 96205  1  0  0  0
 97206  1  0  0  0
 98207  1  0  0  0
101208  1  0  0  0
102209  1  0  0  0
102210  1  0  0  0
103211  1  0  0  0
103212  1  0  0  0
103213  1  0  0  0
104214  1  0  0  0
104215  1  0  0  0
104216  1  0  0  0
105217  1  0  0  0
106218  1  0  0  0
109219  1  0  0  0
109220  1  0  0  0
112221  1  0  0  0
113222  1  0  0  0
114223  1  0  0  0
117224  1  0  0  0
117225  1  0  0  0
120226  1  0  0  0
121227  1  0  0  0
M  END
$$$$
