6mll_ligand
  -I-interpret- 

 37 40  0  0  0  0  0  0  0  0999 V2000
   20.5800   14.7340    8.3120 C   0  0  0  0  0
   19.8370   16.8540    9.4860 C   0  0  0  0  0
   21.5030   14.1460    7.2550 C   0  0  0  0  0
   22.8760   11.6910    5.0380 C   0  0  0  0  0
   24.0670   11.0130    5.2410 C   0  0  0  0  0
   24.3620    9.8850    4.4880 C   0  0  0  0  0
   23.4700    9.4290    3.5320 C   0  0  0  0  0
   22.2750   10.1000    3.3300 C   0  0  0  0  0
   21.9840   11.2290    4.0820 C   0  0  0  0  0
   23.1290   14.0500    5.7530 C   0  0  0  0  0
   24.2900   14.5220    4.8890 C   0  0  0  0  0
   25.5650   14.5720    5.4210 C   0  0  0  0  0
   26.6180   15.0170    4.6400 C   0  0  0  0  0
   26.3920   15.4260    3.3370 C   0  0  0  0  0
   25.1110   15.3900    2.8110 C   0  0  0  0  0
   24.0580   14.9440    3.5920 C   0  0  0  0  0
   22.5030   14.8760    6.6390 C   0  0  0  0  0
   20.6570   16.1700    8.5120 N   0  0  0  0  0
   18.5070   16.9740    9.4510 N   0  0  0  0  0
   18.1180   17.6780   10.5330 N   0  0  0  0  0
   19.2130   17.9970   11.2290 N   0  0  0  0  0
   20.2810   17.4840   10.5790 N   0  0  0  0  0
   21.5240   12.9080    6.7430 N   0  0  0  0  0
   22.5410   12.8730    5.8190 N   0  0  0  0  0
   19.8350   14.0520    8.9360 O   0  0  0  0  0
   24.7730   11.3658    5.9928 H   0  0  0  0  0
   25.3008    9.3553    4.6500 H   0  0  0  0  0
   23.7074    8.5449    2.9403 H   0  0  0  0  0
   21.5662    9.7424    2.5832 H   0  0  0  0  0
   21.0449   11.7581    3.9198 H   0  0  0  0  0
   25.7406   14.2623    6.4512 H   0  0  0  0  0
   27.6268   15.0453    5.0519 H   0  0  0  0  0
   27.2226   15.7766    2.7244 H   0  0  0  0  0
   24.9323   15.7119    1.7851 H   0  0  0  0  0
   23.0470   14.9254    3.1851 H   0  0  0  0  0
   22.7465   15.9216    6.8275 H   0  0  0  0  0
   21.3102   16.7131    7.9475 H   0  0  0  0  0
  3  1  1  0  0  0
  1 18  1  0  0  0
  1 25  2  0  0  0
 18  2  1  0  0  0
  2 19  4  0  0  0
  2 22  4  0  0  0
 17  3  4  0  0  0
  3 23  4  0  0  0
  4  5  4  0  0  0
  4  9  4  0  0  0
 24  4  1  0  0  0
  5  6  4  0  0  0
  6  7  4  0  0  0
  8  7  4  0  0  0
  9  8  4  0  0  0
 10 11  1  0  0  0
 10 17  4  0  0  0
 10 24  4  0  0  0
 11 12  4  0  0  0
 11 16  4  0  0  0
 12 13  4  0  0  0
 13 14  4  0  0  0
 14 15  4  0  0  0
 15 16  4  0  0  0
 19 20  4  0  0  0
 20 21  4  0  0  0
 21 22  4  0  0  0
 23 24  4  0  0  0
  5 26  1  0  0  0
  6 27  1  0  0  0
  7 28  1  0  0  0
  8 29  1  0  0  0
  9 30  1  0  0  0
 12 31  1  0  0  0
 13 32  1  0  0  0
 14 33  1  0  0  0
 15 34  1  0  0  0
 16 35  1  0  0  0
 17 36  1  0  0  0
 18 37  1  0  0  0
M  END
$$$$
