3cqw_ligand
  -I-interpret- 

 28 31  0  0  0  0  0  0  0  0999 V2000
    3.5050    3.6640   15.7790 C   0  0  0  0  0
    4.6600    5.6530   16.1330 C   0  0  0  0  0
    4.6550    2.8970   16.0700 C   0  0  0  0  0
    8.1540    3.3920   19.3700 C   0  0  0  0  0
    2.4620    2.7910   15.5040 N   0  0  0  0  0
    8.4480    4.4160   18.3160 C   0  0  0  0  0
    5.1890    0.0340   16.0180 Cl  0  0  0  0  0
    4.2380    1.4870   15.8800 C   0  0  0  0  0
    2.9290    1.5050   15.5760 C   0  0  0  0  0
    3.5360    4.9980   15.8130 N   0  0  0  0  0
    5.8100    3.6280   16.4240 C   0  0  0  0  0
    5.7690    4.9660   16.3990 N   0  0  0  0  0
    7.0580    3.0390   16.7200 N   0  0  0  0  0
    7.1640    1.8790   17.6360 C   0  0  0  0  0
    7.5980    2.2150   19.0420 C   0  0  0  0  0
    7.6210    1.4130   20.1620 N   0  0  0  0  0
    8.1940    2.0980   21.1470 C   0  0  0  0  0
    8.5560    3.3120   20.6860 N   0  0  0  0  0
    8.2690    3.8790   16.8780 C   0  0  0  0  0
    4.6665    6.7422   16.1753 H   0  0  0  0  0
    9.4897    4.7163   18.4290 H   0  0  0  0  0
    7.7464    5.2392   18.4507 H   0  0  0  0  0
    2.3207    0.6160   15.4092 H   0  0  0  0  0
    7.9251    1.2184   17.2208 H   0  0  0  0  0
    6.1674    1.4437   17.7096 H   0  0  0  0  0
    8.3465    1.7362   22.1638 H   0  0  0  0  0
    9.1353    3.2600   16.6445 H   0  0  0  0  0
    8.1670    4.7370   16.2135 H   0  0  0  0  0
  3  1  4  0  0  0
  1  5  4  0  0  0
  1 10  4  0  0  0
  2 10  4  0  0  0
 12  2  4  0  0  0
  3  8  4  0  0  0
 11  3  4  0  0  0
  6  4  1  0  0  0
  4 15  4  0  0  0
  4 18  4  0  0  0
  9  5  4  0  0  0
 19  6  1  0  0  0
  8  7  1  0  0  0
  8  9  4  0  0  0
 11 12  4  0  0  0
 13 11  1  0  0  0
 13 14  1  0  0  0
 13 19  1  0  0  0
 14 15  1  0  0  0
 15 16  4  0  0  0
 16 17  4  0  0  0
 17 18  4  0  0  0
  2 20  1  0  0  0
  6 21  1  0  0  0
  6 22  1  0  0  0
  9 23  1  0  0  0
 14 24  1  0  0  0
 14 25  1  0  0  0
 17 26  1  0  0  0
 19 27  1  0  0  0
 19 28  1  0  0  0
M  END
$$$$
