5qqo_ligand
  -I-interpret- 

 66 70  0  0  0  0  0  0  0  0999 V2000
   45.5840  -20.6180   29.9390 C   0  0  0  0  0
   44.2770  -22.4430   30.8390 C   0  0  0  0  0
   45.3150  -22.7220   31.7250 C   0  0  0  0  0
   46.4830  -21.9620   31.7270 C   0  0  0  0  0
   48.7710  -21.9680   32.7320 C   0  0  0  0  0
   50.7430  -22.1400   34.0440 C   0  0  0  0  0
   42.7000  -24.0570   29.8450 C   0  0  0  0  0
   44.4000  -21.3610   29.9360 C   0  0  0  0  0
   36.7820  -13.3920   27.4840 C   0  0  0  0  0
   41.5150  -24.9400   30.1710 C   0  0  0  0  0
   37.4170  -14.6210   27.3870 C   0  0  0  0  0
   33.5660  -14.2360   29.6940 Cl  0  0  0  0  0
   39.2220  -19.2160   28.1970 N   0  0  0  0  0
   39.8170  -20.5400   28.4070 C   0  0  0  0  0
   41.3130  -20.5570   28.4150 C   0  0  0  0  0
   39.2860  -21.5870   27.4050 C   0  0  0  0  0
   39.8080  -22.9720   27.6490 C   0  0  0  0  0
   39.8850  -23.5850   28.8150 C   0  0  0  0  0
   42.0690  -20.4290   27.3080 N   0  0  0  0  0
   43.3520  -20.6970   27.6610 C   0  0  0  0  0
   43.3330  -20.9750   28.9980 C   0  0  0  0  0
   42.0430  -20.8750   29.4660 N   0  0  0  0  0
   46.6250  -20.9300   30.7980 C   0  0  0  0  0
   47.4600  -22.3330   32.6910 N   0  0  0  0  0
   49.3490  -22.4910   33.8260 O   0  0  0  0  0
   49.3570  -21.3070   31.9000 O   0  0  0  0  0
   43.1090  -23.2550   30.8530 N   0  0  0  0  0
   43.2310  -24.0670   28.7360 O   0  0  0  0  0
   40.4570  -24.9260   29.0590 C   0  0  0  0  0
   38.9740  -18.8050   26.8030 C   0  0  0  0  0
   38.4860  -17.3570   26.7500 C   0  0  0  0  0
   37.5590  -17.0920   27.9180 C   0  0  0  0  0
   38.3480  -17.2880   29.1360 O   0  0  0  0  0
   36.8710  -15.7480   27.9920 C   0  0  0  0  0
   35.5830  -13.2700   28.1670 C   0  0  0  0  0
   35.0510  -14.3880   28.7790 C   0  0  0  0  0
   35.6740  -15.6220   28.7010 C   0  0  0  0  0
   39.0740  -18.4150   29.2720 C   0  0  0  0  0
   39.5980  -18.6270   30.3420 O   0  0  0  0  0
   45.6901  -19.7777   29.2529 H   0  0  0  0  0
   45.2119  -23.5484   32.4283 H   0  0  0  0  0
   51.3386  -22.4792   33.1965 H   0  0  0  0  0
   50.8328  -21.0582   34.1430 H   0  0  0  0  0
   51.0991  -22.6203   34.9554 H   0  0  0  0  0
   37.2303  -12.5142   27.0187 H   0  0  0  0  0
   41.0526  -24.5633   31.0834 H   0  0  0  0  0
   41.8752  -25.9626   30.2831 H   0  0  0  0  0
   38.3515  -14.7044   26.8322 H   0  0  0  0  0
   39.4972  -20.8122   29.4129 H   0  0  0  0  0
   39.6157  -21.2843   26.4111 H   0  0  0  0  0
   38.2020  -21.6228   27.5139 H   0  0  0  0  0
   40.1579  -23.5262   26.7780 H   0  0  0  0  0
   39.4895  -23.0523   29.6798 H   0  0  0  0  0
   44.2242  -20.6914   27.0073 H   0  0  0  0  0
   47.5576  -20.3680   30.7483 H   0  0  0  0  0
   47.1406  -22.9457   33.4414 H   0  0  0  0  0
   42.5322  -23.2298   31.6938 H   0  0  0  0  0
   39.6427  -25.5804   29.3700 H   0  0  0  0  0
   40.9418  -25.2505   28.1382 H   0  0  0  0  0
   38.2092  -19.4523   26.3738 H   0  0  0  0  0
   39.9034  -18.8862   26.2393 H   0  0  0  0  0
   37.9499  -17.1888   25.8160 H   0  0  0  0  0
   39.3413  -16.6836   26.8056 H   0  0  0  0  0
   36.7280  -17.7851   27.7872 H   0  0  0  0  0
   35.0693  -12.3101   28.2204 H   0  0  0  0  0
   35.2328  -16.4904   29.1902 H   0  0  0  0  0
  8  1  4  0  0  0
  1 23  4  0  0  0
  2  3  4  0  0  0
  8  2  4  0  0  0
  2 27  1  0  0  0
  3  4  4  0  0  0
 23  4  4  0  0  0
  4 24  1  0  0  0
 24  5  1  0  0  0
  5 25  1  0  0  0
  5 26  2  0  0  0
 25  6  1  0  0  0
 10  7  1  0  0  0
  7 27  1  0  0  0
  7 28  2  0  0  0
 21  8  1  0  0  0
  9 11  4  0  0  0
 35  9  4  0  0  0
 29 10  1  0  0  0
 11 34  4  0  0  0
 36 12  1  0  0  0
 13 14  1  0  0  0
 30 13  1  0  0  0
 38 13  1  0  0  0
 14 15  1  0  0  0
 14 16  1  0  0  0
 15 19  4  0  0  0
 15 22  4  0  0  0
 16 17  1  0  0  0
 17 18  2  0  0  0
 18 29  1  0  0  0
 19 20  4  0  0  0
 21 20  4  0  0  0
 22 21  4  0  0  0
 31 30  1  0  0  0
 32 31  1  0  0  0
 32 33  1  0  0  0
 34 32  1  0  0  0
 33 38  1  0  0  0
 34 37  4  0  0  0
 35 36  4  0  0  0
 36 37  4  0  0  0
 38 39  2  0  0  0
  1 40  1  0  0  0
  3 41  1  0  0  0
  6 42  1  0  0  0
  6 43  1  0  0  0
  6 44  1  0  0  0
  9 45  1  0  0  0
 10 46  1  0  0  0
 10 47  1  0  0  0
 11 48  1  0  0  0
 14 49  1  0  0  0
 16 50  1  0  0  0
 16 51  1  0  0  0
 17 52  1  0  0  0
 18 53  1  0  0  0
 20 54  1  0  0  0
 23 55  1  0  0  0
 24 56  1  0  0  0
 27 57  1  0  0  0
 29 58  1  0  0  0
 29 59  1  0  0  0
 30 60  1  0  0  0
 30 61  1  0  0  0
 31 62  1  0  0  0
 31 63  1  0  0  0
 32 64  1  0  0  0
 35 65  1  0  0  0
 37 66  1  0  0  0
M  END
$$$$
