5ngu_ligand
  -I-interpret- 

 55 59  0  0  0  0  0  0  0  0999 V2000
  -19.4030   19.6560   45.8880 C   0  0  0  0  0
  -19.5740   18.4020   45.0230 C   0  0  0  0  0
  -17.2360   17.8850   45.3200 C   0  0  0  0  0
   -9.8570   13.7650   41.3200 N   0  0  0  0  0
  -17.7900   14.0250   43.7940 C   0  0  0  0  0
  -18.9110   13.7790   43.0040 C   0  0  0  0  0
  -19.9540   14.7020   43.0140 C   0  0  0  0  0
  -19.8570   15.8550   43.8010 C   0  0  0  0  0
  -17.9170   12.0450   41.3920 C   0  0  0  0  0
  -17.2240   10.4460   39.8040 C   0  0  0  0  0
  -15.9260   10.9330   39.8570 C   0  0  0  0  0
  -15.6500   12.0010   40.7070 C   0  0  0  0  0
  -14.2470   12.5010   40.7740 C   0  0  0  0  0
  -13.0880   12.0370   40.1750 C   0  0  0  0  0
  -11.9300   14.9360   42.1930 C   0  0  0  0  0
  -10.4620   14.5280   42.4160 C   0  0  0  0  0
  -10.6550   12.9660   40.4380 C   0  0  0  0  0
  -10.1610   12.3020   39.5410 O   0  0  0  0  0
  -12.1240   12.8950   40.6470 C   0  0  0  0  0
  -12.6990   13.8350   41.4890 C   0  0  0  0  0
  -14.0160   13.5710   41.5570 N   0  0  0  0  0
  -18.1840   11.0020   40.5660 N   0  0  0  0  0
  -16.6480   12.5400   41.4610 N   0  0  0  0  0
  -19.0080   12.5860   42.1860 N   0  0  0  0  0
  -17.7180   15.1820   44.5660 C   0  0  0  0  0
  -18.7350   16.1560   44.6070 C   0  0  0  0  0
  -18.6100   17.3590   45.4290 N   0  0  0  0  0
  -17.0640   19.1050   46.2250 C   0  0  0  0  0
  -18.0120   20.1530   45.7940 N   0  3  0  0  0
  -17.8530   21.3390   46.6490 C   0  0  0  0  0
  -19.6247   19.4076   46.9259 H   0  0  0  0  0
  -20.0841   20.4301   45.5344 H   0  0  0  0  0
  -19.3948   18.6637   43.9802 H   0  0  0  0  0
  -20.5862   18.0183   45.1512 H   0  0  0  0  0
  -17.0470   18.1776   44.2872 H   0  0  0  0  0
  -16.5325   17.1111   45.6270 H   0  0  0  0  0
   -8.8471   13.8037   41.1825 H   0  0  0  0  0
  -16.9673   13.3101   43.8079 H   0  0  0  0  0
  -20.8442   14.5266   42.4099 H   0  0  0  0  0
  -20.6901   16.5579   43.7922 H   0  0  0  0  0
  -17.4665    9.6125   39.1448 H   0  0  0  0  0
  -15.1394   10.4894   39.2466 H   0  0  0  0  0
  -12.9691   11.1946   39.4936 H   0  0  0  0  0
  -11.9536   15.8313   41.5718 H   0  0  0  0  0
  -12.3927   15.1209   43.1624 H   0  0  0  0  0
   -9.8899   15.4510   42.5099 H   0  0  0  0  0
  -10.4448   13.8834   43.2948 H   0  0  0  0  0
  -19.9010   12.0935   42.1663 H   0  0  0  0  0
  -16.8260   15.3427   45.1715 H   0  0  0  0  0
  -16.0423   19.4780   46.1529 H   0  0  0  0  0
  -17.2636   18.8287   47.2603 H   0  0  0  0  0
  -17.8152   20.4002   44.8242 H   0  0  0  0  0
  -18.0560   21.0682   47.6851 H   0  0  0  0  0
  -16.8328   21.7132   46.5631 H   0  0  0  0  0
  -18.5528   22.1116   46.3303 H   0  0  0  0  0
  2  1  1  0  0  0
  1 29  1  0  0  0
 27  2  1  0  0  0
 27  3  1  0  0  0
  3 28  1  0  0  0
 16  4  1  0  0  0
 17  4  1  0  0  0
  5  6  4  0  0  0
 25  5  4  0  0  0
  7  6  4  0  0  0
  6 24  1  0  0  0
  8  7  4  0  0  0
 26  8  4  0  0  0
  9 22  4  0  0  0
  9 23  4  0  0  0
 24  9  1  0  0  0
 10 11  4  0  0  0
 22 10  4  0  0  0
 12 11  4  0  0  0
 12 13  1  0  0  0
 23 12  4  0  0  0
 13 14  4  0  0  0
 13 21  4  0  0  0
 14 19  4  0  0  0
 15 16  1  0  0  0
 20 15  1  0  0  0
 17 18  2  0  0  0
 19 17  1  0  0  0
 20 19  4  0  0  0
 21 20  4  0  0  0
 26 25  4  0  0  0
 26 27  1  0  0  0
 28 29  1  0  0  0
 29 30  1  0  0  0
  1 31  1  0  0  0
  1 32  1  0  0  0
  2 33  1  0  0  0
  2 34  1  0  0  0
  3 35  1  0  0  0
  3 36  1  0  0  0
  4 37  1  0  0  0
  5 38  1  0  0  0
  7 39  1  0  0  0
  8 40  1  0  0  0
 10 41  1  0  0  0
 11 42  1  0  0  0
 14 43  1  0  0  0
 15 44  1  0  0  0
 15 45  1  0  0  0
 16 46  1  0  0  0
 16 47  1  0  0  0
 24 48  1  0  0  0
 25 49  1  0  0  0
 28 50  1  0  0  0
 28 51  1  0  0  0
 29 52  1  0  0  0
 30 53  1  0  0  0
 30 54  1  0  0  0
 30 55  1  0  0  0
M  END
$$$$
