2vx0_ligand
  -I-interpret- 

 50 54  0  0  0  0  0  0  0  0999 V2000
    8.7820    3.2420    9.5940 Cl  0  0  0  0  0
    8.6840    2.7470   11.2530 C   0  0  0  0  0
    8.0450    1.5540   11.5940 C   0  0  0  0  0
    7.9560    1.1520   12.9270 C   0  0  0  0  0
    8.5420    1.9740   13.8680 C   0  0  0  0  0
    8.5970    1.7850   15.2230 O   0  0  0  0  0
    9.3990    2.8980   15.6520 C   0  0  0  0  0
    9.6930    3.8150   14.5900 O   0  0  0  0  0
    9.1570    3.1440   13.5230 C   0  0  0  0  0
    9.2410    3.5700   12.2190 C   0  0  0  0  0
    9.8880    4.7770   11.9230 N   0  0  0  0  0
   11.2780    4.9530   12.0470 C   0  0  0  0  0
   12.0640    3.8910   12.4910 C   0  0  0  0  0
   13.3960    4.1330   12.5900 C   0  0  0  0  0
   13.9280    5.3100   12.2620 N   0  0  0  0  0
   13.1060    6.2770   11.8500 C   0  0  0  0  0
   13.7660    7.4890   11.5210 N   0  0  0  0  0
   13.1550    8.7250   11.2730 C   0  0  0  0  0
   11.7930    8.9010   11.3090 C   0  0  0  0  0
   11.2440   10.1510   11.0740 C   0  0  0  0  0
   12.0620   11.2180   10.7960 C   0  0  0  0  0
   13.4290   11.0540   10.7500 C   0  0  0  0  0
   13.9580    9.8090   10.9980 C   0  0  0  0  0
   14.2400   12.1770   10.4660 N   0  0  0  0  0
   15.6360   11.9280   10.2130 C   0  0  0  0  0
   16.3550   13.2800   10.1270 C   0  0  0  0  0
   15.7430   14.1220    9.1440 O   0  0  0  0  0
   14.3950   14.3890    9.5440 C   0  0  0  0  0
   13.6260   13.0680    9.4760 C   0  0  0  0  0
   11.7730    6.1550   11.7350 N   0  0  0  0  0
    7.6116    0.9307   10.8118 H   0  0  0  0  0
    7.4471    0.2312   13.2121 H   0  0  0  0  0
   10.3450    2.5036   16.0231 H   0  0  0  0  0
    8.8377    3.4392   16.4137 H   0  0  0  0  0
    9.3248    5.5648   11.6027 H   0  0  0  0  0
   11.6338    2.9220   12.7441 H   0  0  0  0  0
   14.0513    3.3394   12.9492 H   0  0  0  0  0
   14.7836    7.4574   11.4591 H   0  0  0  0  0
   11.1417    8.0537   11.5233 H   0  0  0  0  0
   10.1632   10.2873   11.1098 H   0  0  0  0  0
   11.6274   12.2003   10.6107 H   0  0  0  0  0
   15.0398    9.6772   10.9763 H   0  0  0  0  0
   15.7558   11.3794    9.2788 H   0  0  0  0  0
   16.0616   11.3273   11.0169 H   0  0  0  0  0
   17.3933   13.1076    9.8437 H   0  0  0  0  0
   16.2936   13.7722   11.0976 H   0  0  0  0  0
   13.9410   15.1292    8.8851 H   0  0  0  0  0
   14.3702   14.7933   10.5560 H   0  0  0  0  0
   12.5684   13.2207    9.6913 H   0  0  0  0  0
   13.6794   12.6365    8.4765 H   0  0  0  0  0
  1  2  1  0  0  0
  2  3  4  0  0  0
  2 10  4  0  0  0
  3  4  4  0  0  0
  4  5  4  0  0  0
  5  6  1  0  0  0
  5  9  4  0  0  0
  6  7  1  0  0  0
  7  8  1  0  0  0
  8  9  1  0  0  0
  9 10  4  0  0  0
 10 11  1  0  0  0
 11 12  1  0  0  0
 12 13  4  0  0  0
 12 30  4  0  0  0
 13 14  4  0  0  0
 14 15  4  0  0  0
 15 16  4  0  0  0
 16 17  1  0  0  0
 16 30  4  0  0  0
 17 18  1  0  0  0
 18 19  4  0  0  0
 18 23  4  0  0  0
 19 20  4  0  0  0
 20 21  4  0  0  0
 21 22  4  0  0  0
 22 23  4  0  0  0
 22 24  1  0  0  0
 24 25  1  0  0  0
 24 29  1  0  0  0
 25 26  1  0  0  0
 26 27  1  0  0  0
 27 28  1  0  0  0
 28 29  1  0  0  0
  3 31  1  0  0  0
  4 32  1  0  0  0
  7 33  1  0  0  0
  7 34  1  0  0  0
 11 35  1  0  0  0
 13 36  1  0  0  0
 14 37  1  0  0  0
 17 38  1  0  0  0
 19 39  1  0  0  0
 20 40  1  0  0  0
 21 41  1  0  0  0
 23 42  1  0  0  0
 25 43  1  0  0  0
 25 44  1  0  0  0
 26 45  1  0  0  0
 26 46  1  0  0  0
 28 47  1  0  0  0
 28 48  1  0  0  0
 29 49  1  0  0  0
 29 50  1  0  0  0
M  END
$$$$
