4tjz_ligand
  -I-interpret- 

 30 29  0  0  0  0  0  0  0  0999 V2000
    5.7860  -16.5090   -1.7320 C   0  0  0  0  0
    6.8560  -15.8670   -1.6780 O   0  0  0  0  0
    5.6310  -17.6330   -2.7260 C   0  0  0  0  0
    6.8290  -18.0280   -3.4880 C   0  0  0  0  0
    6.6350  -19.2030   -4.4060 C   0  0  0  0  0
    7.9380  -19.7450   -4.9790 C   0  0  0  0  0
    7.7380  -20.7990   -6.0670 C   0  0  0  0  0
    6.9300  -21.9970   -5.6690 C   0  0  0  0  0
    7.5110  -22.8040   -4.5720 C   0  0  0  0  0
    6.6710  -23.9980   -4.1160 C   0  0  0  0  0
    7.3160  -24.8090   -2.9960 C   0  0  0  0  0
    4.7970  -16.2560   -0.9760 O   0  0  0  0  0
    4.6734  -18.1320   -2.8744 H   0  0  0  0  0
    7.7825  -17.5083   -3.3934 H   0  0  0  0  0
    6.0223  -18.8682   -5.2430 H   0  0  0  0  0
    6.1746  -20.0017   -3.8244 H   0  0  0  0  0
    8.4817  -20.2189   -4.1617 H   0  0  0  0  0
    8.4695  -18.9071   -5.4302 H   0  0  0  0  0
    8.7304  -21.1678   -6.3263 H   0  0  0  0  0
    7.1905  -20.3109   -6.8733 H   0  0  0  0  0
    6.8755  -22.6456   -6.5433 H   0  0  0  0  0
    5.9691  -21.6255   -5.3128 H   0  0  0  0  0
    7.5993  -22.1403   -3.7119 H   0  0  0  0  0
    8.4491  -23.2109   -4.9495 H   0  0  0  0  0
    6.5544  -24.6611   -4.9732 H   0  0  0  0  0
    5.7282  -23.6065   -3.7339 H   0  0  0  0  0
    8.2757  -25.1975   -3.3368 H   0  0  0  0  0
    7.4696  -24.1686   -2.1275 H   0  0  0  0  0
    6.6619  -25.6382   -2.7265 H   0  0  0  0  0
    4.0788  -16.8604   -1.1774 H   0  0  0  0  0
  1  2  2  0  0  0
  1  3  1  0  0  0
  1 12  1  0  0  0
  3  4  2  0  0  0
  4  5  1  0  0  0
  5  6  1  0  0  0
  6  7  1  0  0  0
  7  8  1  0  0  0
  8  9  1  0  0  0
  9 10  1  0  0  0
 10 11  1  0  0  0
  3 13  1  0  0  0
  4 14  1  0  0  0
  5 15  1  0  0  0
  5 16  1  0  0  0
  6 17  1  0  0  0
  6 18  1  0  0  0
  7 19  1  0  0  0
  7 20  1  0  0  0
  8 21  1  0  0  0
  8 22  1  0  0  0
  9 23  1  0  0  0
  9 24  1  0  0  0
 10 25  1  0  0  0
 10 26  1  0  0  0
 11 27  1  0  0  0
 11 28  1  0  0  0
 11 29  1  0  0  0
 12 30  1  0  0  0
M  END
$$$$
