1u2y_ligand
  -I-interpret- 

 25 25  0  0  0  0  0  0  0  0999 V2000
    9.1350   16.4340   42.9910 C   0  0  0  0  0
   10.2050   17.2690   42.8140 N   0  0  0  0  0
    8.4950   16.3800   44.3910 C   0  0  0  0  0
    8.6150   15.7960   41.8660 N   0  0  0  0  0
   10.7640   17.3790   41.6350 O   0  0  0  0  0
    9.3840   16.2620   45.5060 O   0  0  0  0  0
    7.3450   15.3510   44.5020 C   0  0  0  0  0
    6.5500   15.7180   45.6290 O   0  0  0  0  0
    6.4930   15.3880   43.2420 C   0  0  0  0  0
    5.3840   14.4830   43.3570 O   0  0  0  0  0
    7.4210   14.9360   42.0700 C   0  0  0  0  0
    6.6430   14.9140   40.7310 C   0  0  0  0  0
    6.0150   16.1700   40.4700 O   0  0  0  0  0
    8.0810   17.3850   44.4727 H   0  0  0  0  0
    9.0354   15.9143   40.9442 H   0  0  0  0  0
   11.4942   18.0002   41.6850 H   0  0  0  0  0
   10.0900   16.9069   45.4206 H   0  0  0  0  0
    7.7430   14.3431   44.6194 H   0  0  0  0  0
    7.0905   15.6936   46.4220 H   0  0  0  0  0
    6.0890   16.3865   43.0751 H   0  0  0  0  0
    4.8582   14.5193   42.5546 H   0  0  0  0  0
    7.7615   13.9427   42.3624 H   0  0  0  0  0
    5.8702   14.1478   40.7932 H   0  0  0  0  0
    7.3475   14.7062   39.9256 H   0  0  0  0  0
    5.5427   16.1231   39.6355 H   0  0  0  0  0
  1  2  2  0  0  0
  1  3  1  0  0  0
  1  4  1  0  0  0
  2  5  1  0  0  0
  3  6  1  0  0  0
  3  7  1  0  0  0
  4 11  1  0  0  0
  7  8  1  0  0  0
  7  9  1  0  0  0
  9 10  1  0  0  0
  9 11  1  0  0  0
 11 12  1  0  0  0
 12 13  1  0  0  0
  3 14  1  0  0  0
  4 15  1  0  0  0
  5 16  1  0  0  0
  6 17  1  0  0  0
  7 18  1  0  0  0
  8 19  1  0  0  0
  9 20  1  0  0  0
 10 21  1  0  0  0
 11 22  1  0  0  0
 12 23  1  0  0  0
 12 24  1  0  0  0
 13 25  1  0  0  0
M  END
$$$$
