5he1_ligand
  -I-interpret- 

 64 69  0  0  0  0  0  0  0  0999 V2000
  -21.0300   29.1170   16.4300 O   0  0  0  0  0
  -20.3790   28.5010   17.2510 C   0  0  0  0  0
  -20.7000   27.3280   17.7880 N   0  0  0  0  0
  -21.9500   26.7620   17.7460 C   0  0  0  0  0
  -23.0270   27.2140   16.9790 C   0  0  0  0  0
  -24.2390   26.5450   17.0310 C   0  0  0  0  0
  -25.4450   26.8190   16.3250 C   0  0  0  0  0
  -26.3590   25.9120   16.7050 N   0  0  0  0  0
  -25.6760   25.1100   17.6370 N   0  0  0  0  0
  -24.4120   25.4680   17.8300 C   0  0  0  0  0
  -23.3880   25.0020   18.6010 C   0  0  0  0  0
  -22.1650   25.6470   18.5640 C   0  0  0  0  0
  -19.2140   29.2410   17.7800 C   0  0  0  0  0
  -18.1090   29.5630   16.8860 C   0  0  0  0  0
  -17.2990   30.6390   17.4860 N   0  0  0  0  0
  -17.3850   31.0310   18.7820 C   0  0  0  0  0
  -16.7290   32.0100   19.2220 O   0  0  0  0  0
  -18.2290   30.4720   19.6330 N   0  0  0  0  0
  -19.2280   29.7310   19.1840 C   0  0  0  0  0
  -20.3730   29.4830   20.1450 C   0  0  0  0  0
  -17.3340   28.3440   16.5070 C   0  0  0  0  0
  -16.0940   28.0400   17.0520 C   0  0  0  0  0
  -15.3950   26.8890   16.6450 C   0  0  0  0  0
  -15.9020   26.0470   15.6710 C   0  0  0  0  0
  -15.2100   24.9590   15.2790 F   0  0  0  0  0
  -17.1380   26.3440   15.1150 C   0  0  0  0  0
  -17.8410   27.4840   15.5280 C   0  0  0  0  0
  -14.0520   26.5730   17.2160 C   0  0  0  0  0
  -13.3190   25.8050   16.5980 O   0  0  0  0  0
  -13.6710   27.1950   18.3270 N   0  0  0  0  0
  -12.3200   27.0820   18.7810 C   0  0  0  0  0
  -12.1010   25.6730   19.2630 C   0  0  0  0  0
  -10.8440   25.3270   19.7570 C   0  0  0  0  0
  -10.6570   24.0240   20.2080 C   0  0  0  0  0
  -11.7210   23.1170   20.1520 C   0  0  0  0  0
  -12.9600   23.5140   19.6500 C   0  0  0  0  0
  -13.1240   24.7670   19.2180 N   0  0  0  0  0
   -9.7850   26.2500   19.8140 C   0  0  0  0  0
   -8.5460   25.8650   20.3140 C   0  0  0  0  0
   -8.3620   24.5620   20.7630 C   0  0  0  0  0
   -9.4130   23.6450   20.7110 C   0  0  0  0  0
  -19.9630   26.8102   18.2667 H   0  0  0  0  0
  -22.9138   28.0908   16.3414 H   0  0  0  0  0
  -25.5987   27.6222   15.6043 H   0  0  0  0  0
  -23.5319   24.1305   19.2396 H   0  0  0  0  0
  -21.3497   25.2783   19.1864 H   0  0  0  0  0
  -18.4921   29.9428   15.9389 H   0  0  0  0  0
  -16.6291   31.1210   16.8866 H   0  0  0  0  0
  -18.1093   30.6125   20.6362 H   0  0  0  0  0
  -21.2860   29.9203   19.7409 H   0  0  0  0  0
  -20.5098   28.4096   20.2759 H   0  0  0  0  0
  -20.1440   29.9414   21.1071 H   0  0  0  0  0
  -15.6578   28.6994   17.8024 H   0  0  0  0  0
  -17.5635   25.6889   14.3548 H   0  0  0  0  0
  -18.8071   27.7057   15.0747 H   0  0  0  0  0
  -14.3420   27.7526   18.8554 H   0  0  0  0  0
  -12.1372   27.7875   19.5915 H   0  0  0  0  0
  -11.6314   27.3107   17.9676 H   0  0  0  0  0
  -11.5806   22.0945   20.5027 H   0  0  0  0  0
  -13.7885   22.8068   19.6105 H   0  0  0  0  0
   -9.9359   27.2715   19.4648 H   0  0  0  0  0
   -7.7243   26.5800   20.3537 H   0  0  0  0  0
   -7.3931   24.2554   21.1572 H   0  0  0  0  0
   -9.2603   22.6258   21.0660 H   0  0  0  0  0
  1  2  2  0  0  0
  2  3  1  0  0  0
  2 13  1  0  0  0
  3  4  1  0  0  0
  4  5  4  0  0  0
  4 12  4  0  0  0
  5  6  4  0  0  0
  6  7  4  0  0  0
  6 10  4  0  0  0
  7  8  4  0  0  0
  8  9  4  0  0  0
  9 10  4  0  0  0
 10 11  4  0  0  0
 11 12  4  0  0  0
 13 14  1  0  0  0
 13 19  2  0  0  0
 14 15  1  0  0  0
 14 21  1  0  0  0
 15 16  1  0  0  0
 16 17  2  0  0  0
 16 18  1  0  0  0
 18 19  1  0  0  0
 19 20  1  0  0  0
 21 22  4  0  0  0
 21 27  4  0  0  0
 22 23  4  0  0  0
 23 24  4  0  0  0
 23 28  1  0  0  0
 24 25  1  0  0  0
 24 26  4  0  0  0
 26 27  4  0  0  0
 28 29  2  0  0  0
 28 30  1  0  0  0
 30 31  1  0  0  0
 31 32  1  0  0  0
 32 33  4  0  0  0
 32 37  4  0  0  0
 33 34  4  0  0  0
 33 38  4  0  0  0
 34 35  4  0  0  0
 34 41  4  0  0  0
 35 36  4  0  0  0
 36 37  4  0  0  0
 38 39  4  0  0  0
 39 40  4  0  0  0
 40 41  4  0  0  0
  3 42  1  0  0  0
  5 43  1  0  0  0
  7 44  1  0  0  0
 11 45  1  0  0  0
 12 46  1  0  0  0
 14 47  1  0  0  0
 15 48  1  0  0  0
 18 49  1  0  0  0
 20 50  1  0  0  0
 20 51  1  0  0  0
 20 52  1  0  0  0
 22 53  1  0  0  0
 26 54  1  0  0  0
 27 55  1  0  0  0
 30 56  1  0  0  0
 31 57  1  0  0  0
 31 58  1  0  0  0
 35 59  1  0  0  0
 36 60  1  0  0  0
 38 61  1  0  0  0
 39 62  1  0  0  0
 40 63  1  0  0  0
 41 64  1  0  0  0
M  END
$$$$
