3jrs_ligand
  -I-interpret- 

 41 41  0  0  0  0  0  0  0  0999 V2000
   30.4800  -14.7790   22.5860 C   0  0  0  0  0
   31.7790  -15.4850   22.8930 C   0  0  0  0  0
   32.0330  -16.8110   22.2050 C   0  0  0  0  0
   31.8270  -16.9400   20.6880 C   0  0  0  0  0
   32.1870  -18.1010   20.0840 C   0  0  0  0  0
   33.2820  -17.4930   22.7410 C   0  0  0  0  0
   31.8590  -18.2470   18.5940 C   0  0  0  0  0
   30.8070  -17.3270   18.2230 O   0  0  0  0  0
   33.0880  -18.0450   17.7010 C   0  0  0  0  0
   33.6200  -19.1980   17.4220 C   0  0  0  0  0
   33.5290  -20.4250   17.6660 C   0  0  0  0  0
   34.3290  -21.4230   17.2910 O   0  0  0  0  0
   32.4290  -20.6450   18.4810 C   0  0  0  0  0
   29.9900  -14.0730   23.5170 O   0  0  0  0  0
   31.2650  -19.6720   18.3920 C   0  0  0  0  0
   30.0130  -14.7880   21.4170 O   0  0  0  0  0
   33.4430  -16.6590   17.2400 C   0  0  0  0  0
   30.6320  -19.9130   16.9990 C   0  0  0  0  0
   30.1500  -19.9800   19.4290 C   0  0  0  0  0
   31.7468  -15.7087   23.9593 H   0  0  0  0  0
   32.5661  -14.8171   22.5432 H   0  0  0  0  0
   31.1592  -17.3872   22.5092 H   0  0  0  0  0
   31.4020  -16.1189   20.1107 H   0  0  0  0  0
   32.6884  -18.8963   20.6356 H   0  0  0  0  0
   33.2355  -18.5593   22.5198 H   0  0  0  0  0
   34.1627  -17.0603   22.2665 H   0  0  0  0  0
   33.3399  -17.3465   23.8196 H   0  0  0  0  0
   30.0460  -17.4668   18.7913 H   0  0  0  0  0
   34.4423  -19.0421   16.7237 H   0  0  0  0  0
   35.0298  -21.0775   16.7332 H   0  0  0  0  0
   32.4000  -21.4921   19.1663 H   0  0  0  0  0
   30.4930  -14.2138   24.3225 H   0  0  0  0  0
   34.4661  -16.4293   17.5378 H   0  0  0  0  0
   33.3585  -16.6057   16.1546 H   0  0  0  0  0
   32.7610  -15.9405   17.6945 H   0  0  0  0  0
   29.8181  -19.2048   16.8438 H   0  0  0  0  0
   31.3895  -19.7726   16.2279 H   0  0  0  0  0
   30.2446  -20.9306   16.9485 H   0  0  0  0  0
   30.5646  -19.9192   20.4352 H   0  0  0  0  0
   29.3450  -19.2530   19.3218 H   0  0  0  0  0
   29.7608  -20.9832   19.2550 H   0  0  0  0  0
  1  2  1  0  0  0
  1 14  1  0  0  0
  1 16  2  0  0  0
  2  3  1  0  0  0
  3  4  1  0  0  0
  3  6  1  0  0  0
  4  5  2  0  0  0
  5  7  1  0  0  0
  7  8  1  0  0  0
  7  9  1  0  0  0
  7 15  1  0  0  0
  9 10  2  0  0  0
  9 17  1  0  0  0
 10 11  1  0  0  0
 11 12  1  0  0  0
 11 13  2  0  0  0
 13 15  1  0  0  0
 15 18  1  0  0  0
 15 19  1  0  0  0
  2 20  1  0  0  0
  2 21  1  0  0  0
  3 22  1  0  0  0
  4 23  1  0  0  0
  5 24  1  0  0  0
  6 25  1  0  0  0
  6 26  1  0  0  0
  6 27  1  0  0  0
  8 28  1  0  0  0
 10 29  1  0  0  0
 12 30  1  0  0  0
 13 31  1  0  0  0
 14 32  1  0  0  0
 17 33  1  0  0  0
 17 34  1  0  0  0
 17 35  1  0  0  0
 18 36  1  0  0  0
 18 37  1  0  0  0
 18 38  1  0  0  0
 19 39  1  0  0  0
 19 40  1  0  0  0
 19 41  1  0  0  0
M  END
$$$$
