2q72_ligand
  -I-interpret- 

 46 48  0  0  0  0  0  0  0  0999 V2000
   28.0570   22.6820   22.0300 C   0  0  0  0  0
   28.4390   23.8920   22.6870 C   0  0  0  0  0
   28.9100   25.0100   21.9700 C   0  0  0  0  0
   29.0100   24.9490   20.5780 C   0  0  0  0  0
   28.6500   23.7870   19.8950 C   0  0  0  0  0
   23.9350   20.3950   22.9450 C   0  0  0  0  0
   27.8050   21.3990   19.6590 C   0  0  0  0  0
   27.3790   20.1170   20.3540 C   0  0  0  0  0
   27.5730   21.5670   22.8480 N   0  0  0  0  0
   23.8880   19.7000   21.7310 C   0  0  0  0  0
   28.6990   17.6650   25.1850 N   0  3  0  0  0
   25.0120   19.6310   20.9280 C   0  0  0  0  0
   25.1470   21.0270   23.3410 C   0  0  0  0  0
   28.1710   22.6260   20.5470 C   0  0  0  0  0
   26.2310   20.2430   21.2890 C   0  0  0  0  0
   26.3100   20.9490   22.5070 C   0  0  0  0  0
   28.2000   21.3890   24.2140 C   0  0  0  0  0
   27.9200   20.0600   24.9640 C   0  0  0  0  0
   28.6080   18.8840   24.3110 C   0  0  0  0  0
   29.6650   16.6810   24.6660 C   0  0  0  0  0
   27.3550   17.0210   25.3210 C   0  0  0  0  0
   28.3640   23.9519   23.7728 H   0  0  0  0  0
   29.1952   25.9190   22.4996 H   0  0  0  0  0
   29.3714   25.8143   20.0223 H   0  0  0  0  0
   28.7419   23.7728   18.8090 H   0  0  0  0  0
   23.0517   20.4516   23.5811 H   0  0  0  0  0
   26.9396   21.7126   19.0752 H   0  0  0  0  0
   28.7200   21.1469   19.1230 H   0  0  0  0  0
   28.2304   19.7920   20.9520 H   0  0  0  0  0
   27.0641   19.4297   19.5688 H   0  0  0  0  0
   22.9646   19.2126   21.4181 H   0  0  0  0  0
   29.0276   17.9762   26.0991 H   0  0  0  0  0
   24.9542   19.0862   19.9857 H   0  0  0  0  0
   25.1911   21.5731   24.2833 H   0  0  0  0  0
   27.7713   22.1734   24.8377 H   0  0  0  0  0
   29.2769   21.4101   24.0471 H   0  0  0  0  0
   26.8453   19.8787   24.9455 H   0  0  0  0  0
   28.3016   20.1560   25.9805 H   0  0  0  0  0
   28.0187   18.6105   23.4358 H   0  0  0  0  0
   29.6276   19.1933   24.0812 H   0  0  0  0  0
   29.3578   16.3628   23.6698 H   0  0  0  0  0
   30.6538   17.1368   24.6144 H   0  0  0  0  0
   29.6956   15.8180   25.3312 H   0  0  0  0  0
   26.6579   17.7292   25.7689 H   0  0  0  0  0
   26.9932   16.7267   24.3358 H   0  0  0  0  0
   27.4385   16.1397   25.9570 H   0  0  0  0  0
  1  2  4  0  0  0
  9  1  1  0  0  0
  1 14  4  0  0  0
  2  3  4  0  0  0
  3  4  4  0  0  0
  5  4  4  0  0  0
 14  5  4  0  0  0
  6 10  4  0  0  0
 13  6  4  0  0  0
  8  7  1  0  0  0
 14  7  1  0  0  0
 15  8  1  0  0  0
  9 16  1  0  0  0
 17  9  1  0  0  0
 12 10  4  0  0  0
 19 11  1  0  0  0
 11 20  1  0  0  0
 11 21  1  0  0  0
 15 12  4  0  0  0
 16 13  4  0  0  0
 16 15  4  0  0  0
 18 17  1  0  0  0
 18 19  1  0  0  0
  2 22  1  0  0  0
  3 23  1  0  0  0
  4 24  1  0  0  0
  5 25  1  0  0  0
  6 26  1  0  0  0
  7 27  1  0  0  0
  7 28  1  0  0  0
  8 29  1  0  0  0
  8 30  1  0  0  0
 10 31  1  0  0  0
 11 32  1  0  0  0
 12 33  1  0  0  0
 13 34  1  0  0  0
 17 35  1  0  0  0
 17 36  1  0  0  0
 18 37  1  0  0  0
 18 38  1  0  0  0
 19 39  1  0  0  0
 19 40  1  0  0  0
 20 41  1  0  0  0
 20 42  1  0  0  0
 20 43  1  0  0  0
 21 44  1  0  0  0
 21 45  1  0  0  0
 21 46  1  0  0  0
M  END
$$$$
