4rj6_ligand
  -I-interpret- 

 48 52  0  0  0  0  0  0  0  0999 V2000
  -48.6190   -1.7840  -21.1050 C   0  0  0  0  0
  -49.4400   -0.5620  -20.6660 C   0  0  0  0  0
  -52.1150    1.2860  -17.2790 C   0  0  0  0  0
  -48.8500   -0.9000  -18.2990 C   0  0  0  0  0
  -47.9270   -2.0830  -18.6480 C   0  0  0  0  0
  -50.9960    0.0810  -18.9380 C   0  0  0  0  0
  -53.0110    1.7420  -18.2470 C   0  0  0  0  0
  -52.8930    1.3110  -19.5870 C   0  0  0  0  0
  -47.4490   -2.0240  -20.1190 C   0  0  0  0  0
  -45.4960   -3.0530  -21.1380 C   0  0  0  0  0
  -46.7490   -3.2340  -20.4620 O   0  0  0  0  0
  -49.9510   -0.7810  -19.2910 N   0  0  0  0  0
  -51.1360    0.4640  -17.6580 N   0  0  0  0  0
  -51.8700    0.4870  -19.8760 N   0  0  0  0  0
  -53.8010    1.8050  -20.5420 N   0  0  0  0  0
  -53.9520    1.3930  -21.8810 C   0  0  0  0  0
  -53.0680    0.4960  -22.4750 C   0  0  0  0  0
  -53.2840    0.0890  -23.7940 C   0  0  0  0  0
  -54.3890    0.5850  -24.5410 C   0  0  0  0  0
  -55.2270    1.4880  -23.8760 C   0  0  0  0  0
  -54.9730    1.8630  -22.6140 N   0  0  0  0  0
  -54.3550   -0.0120  -25.7720 N   0  0  0  0  0
  -53.3070   -0.8230  -25.7970 C   0  0  0  0  0
  -52.6230   -0.7770  -24.6210 N   0  0  0  0  0
  -52.7470   -1.6200  -26.8960 C   0  0  0  0  0
  -53.3690   -2.0740  -28.0270 C   0  0  0  0  0
  -52.4400   -2.7370  -28.7320 N   0  0  0  0  0
  -51.2180   -2.6960  -28.0470 N   0  0  0  0  0
  -51.3960   -2.0310  -26.9480 C   0  0  0  0  0
  -48.2150   -1.6034  -22.1011 H   0  0  0  0  0
  -49.2639   -2.6627  -21.1143 H   0  0  0  0  0
  -50.2785   -0.4223  -21.3483 H   0  0  0  0  0
  -48.8085    0.3263  -20.6828 H   0  0  0  0  0
  -52.2132    1.5944  -16.2382 H   0  0  0  0  0
  -48.2642    0.0191  -18.3112 H   0  0  0  0  0
  -49.2817   -1.0693  -17.3125 H   0  0  0  0  0
  -48.4864   -3.0077  -18.5062 H   0  0  0  0  0
  -47.0511   -2.0369  -18.0009 H   0  0  0  0  0
  -53.8055    2.4339  -17.9677 H   0  0  0  0  0
  -46.7711   -1.1750  -20.2075 H   0  0  0  0  0
  -45.6630   -2.5183  -22.0730 H   0  0  0  0  0
  -44.8224   -2.4768  -20.5037 H   0  0  0  0  0
  -45.0544   -4.0270  -21.3488 H   0  0  0  0  0
  -54.4235    2.5494  -20.2277 H   0  0  0  0  0
  -52.2141    0.1143  -21.9153 H   0  0  0  0  0
  -56.0983    1.8920  -24.3915 H   0  0  0  0  0
  -54.4135   -1.9261  -28.3011 H   0  0  0  0  0
  -50.6354   -1.8248  -26.1950 H   0  0  0  0  0
  2  1  1  0  0  0
  1  9  1  0  0  0
 12  2  1  0  0  0
  3  7  4  0  0  0
 13  3  4  0  0  0
  4  5  1  0  0  0
 12  4  1  0  0  0
  5  9  1  0  0  0
  6 12  1  0  0  0
  6 13  4  0  0  0
  6 14  4  0  0  0
  7  8  4  0  0  0
  8 14  4  0  0  0
  8 15  1  0  0  0
  9 11  1  0  0  0
 11 10  1  0  0  0
 15 16  1  0  0  0
 16 17  4  0  0  0
 16 21  4  0  0  0
 17 18  4  0  0  0
 18 19  4  0  0  0
 18 24  4  0  0  0
 19 20  4  0  0  0
 19 22  4  0  0  0
 20 21  4  0  0  0
 22 23  4  0  0  0
 23 24  4  0  0  0
 23 25  1  0  0  0
 25 26  4  0  0  0
 25 29  4  0  0  0
 26 27  4  0  0  0
 27 28  4  0  0  0
 28 29  4  0  0  0
  1 30  1  0  0  0
  1 31  1  0  0  0
  2 32  1  0  0  0
  2 33  1  0  0  0
  3 34  1  0  0  0
  4 35  1  0  0  0
  4 36  1  0  0  0
  5 37  1  0  0  0
  5 38  1  0  0  0
  7 39  1  0  0  0
  9 40  1  0  0  0
 10 41  1  0  0  0
 10 42  1  0  0  0
 10 43  1  0  0  0
 15 44  1  0  0  0
 17 45  1  0  0  0
 20 46  1  0  0  0
 26 47  1  0  0  0
 29 48  1  0  0  0
M  END
$$$$
