5acb_ligand
  -I-interpret- 

 74 78  0  0  0  0  0  0  0  0999 V2000
   -1.5140  -13.9980   41.1420 N   0  0  0  0  0
   -0.9890  -14.7030   40.1360 C   0  0  0  0  0
   -0.3260  -14.0710   39.1390 N   0  0  0  0  0
   -0.1330  -12.7360   39.0710 C   0  0  0  0  0
   -0.6810  -11.9720   40.1210 C   0  0  0  0  0
   -0.5830  -10.2570   40.2660 Cl  0  0  0  0  0
   -1.3650  -12.6140   41.1450 C   0  0  0  0  0
   -0.7790  -18.3750   39.3210 C   0  0  0  0  0
   -0.7640  -19.1720   38.0530 N   0  0  0  0  0
   -0.0290  -20.7650   36.6450 O   0  0  0  0  0
    5.3980  -28.0480   44.5580 C   0  0  0  0  0
    0.0660  -20.1960   37.7320 C   0  0  0  0  0
    0.5400  -12.2140   38.0130 C   0  0  0  0  0
    2.9130  -22.0610   40.1670 C   0  0  0  0  0
    1.5630  -22.0130   40.5670 C   0  0  0  0  0
    0.6110  -21.3730   39.7730 C   0  0  0  0  0
    0.9980  -20.7820   38.5740 C   0  0  0  0  0
    2.3210  -20.8860   38.1390 C   0  0  0  0  0
    3.2730  -21.5200   38.9310 C   0  0  0  0  0
    3.9460  -22.8210   42.1910 C   0  0  0  0  0
    5.5760  -26.6720   44.0470 N   0  3  0  0  0
   -1.8710  -16.5680   37.9130 C   0  0  0  0  0
    3.2900  -22.1710   43.0110 O   0  0  0  0  0
    1.5460  -12.7810   37.3160 C   0  0  0  0  0
    1.8890  -11.9080   36.3440 C   0  0  0  0  0
    2.8720  -12.1540   35.4660 C   0  0  0  0  0
    3.5840  -13.3470   35.5290 C   0  0  0  0  0
    3.2420  -14.2580   36.5220 C   0  0  0  0  0
   -1.5260  -17.3230   36.6600 C   0  0  0  0  0
   -1.1370  -16.0330   40.1450 N   0  0  0  0  0
    2.2080  -13.9500   37.4140 C   0  0  0  0  0
    0.2730  -11.0310   37.4490 C   0  0  0  0  0
   -1.7330  -18.7350   37.0120 C   0  0  0  0  0
   -0.8230  -16.8600   38.9750 C   0  0  0  0  0
    3.8570  -22.7270   40.8430 N   0  0  0  0  0
    5.0170  -23.8480   42.6510 C   0  0  0  0  0
    1.1050  -10.8460   36.4390 N   0  0  0  0  0
    4.4730  -25.2340   42.1840 C   0  0  0  0  0
    4.3310  -26.2670   43.3340 C   0  0  0  0  0
    5.9320  -25.7620   45.1650 C   0  0  0  0  0
   -1.7898  -12.0278   41.9599 H   0  0  0  0  0
    0.1196  -18.5914   39.8987 H   0  0  0  0  0
   -1.6577  -18.6408   39.9087 H   0  0  0  0  0
    4.5512  -28.0728   45.2438 H   0  0  0  0  0
    5.2107  -28.7230   43.7229 H   0  0  0  0  0
    6.3014  -28.3591   45.0827 H   0  0  0  0  0
    1.2599  -22.4796   41.5043 H   0  0  0  0  0
   -0.4311  -21.3360   40.0903 H   0  0  0  0  0
    2.6091  -20.4684   37.1743 H   0  0  0  0  0
    4.3040  -21.5947   38.5853 H   0  0  0  0  0
    6.3459  -26.6224   43.3798 H   0  0  0  0  0
   -2.8521  -16.8804   38.2707 H   0  0  0  0  0
   -1.8915  -15.4987   37.7026 H   0  0  0  0  0
    3.1138  -11.4167   34.7005 H   0  0  0  0  0
    4.3853  -13.5612   34.8218 H   0  0  0  0  0
    3.7751  -15.2051   36.6054 H   0  0  0  0  0
   -0.5040  -17.1288   36.3344 H   0  0  0  0  0
   -2.1443  -17.0176   35.8158 H   0  0  0  0  0
   -1.4790  -16.4860   40.9924 H   0  0  0  0  0
    1.9365  -14.6616   38.1938 H   0  0  0  0  0
   -0.5022  -10.3349   37.7693 H   0  0  0  0  0
   -2.7436  -18.8537   37.4028 H   0  0  0  0  0
   -1.5858  -19.3433   36.1196 H   0  0  0  0  0
    0.1730  -16.6112   38.6088 H   0  0  0  0  0
    4.5718  -23.2055   40.2949 H   0  0  0  0  0
    5.1703  -23.8165   43.7297 H   0  0  0  0  0
    5.9951  -23.6320   42.2213 H   0  0  0  0  0
    5.1866  -25.6399   41.4670 H   0  0  0  0  0
    3.4791  -25.0709   41.7673 H   0  0  0  0  0
    3.7034  -25.7876   44.0853 H   0  0  0  0  0
    3.9486  -27.1756   42.8689 H   0  0  0  0  0
    5.1338  -25.7709   45.9073 H   0  0  0  0  0
    6.8610  -26.0993   45.6246 H   0  0  0  0  0
    6.0615  -24.7501   44.7810 H   0  0  0  0  0
  2  1  4  0  0  0
  1  7  4  0  0  0
  2  3  4  0  0  0
 30  2  1  0  0  0
  3  4  4  0  0  0
  4  5  4  0  0  0
  4 13  1  0  0  0
  5  6  1  0  0  0
  7  5  4  0  0  0
  9  8  1  0  0  0
  8 34  1  0  0  0
 12  9  1  0  0  0
  9 33  1  0  0  0
 12 10  2  0  0  0
 21 11  1  0  0  0
 17 12  1  0  0  0
 13 24  4  0  0  0
 13 32  4  0  0  0
 14 15  4  0  0  0
 14 19  4  0  0  0
 35 14  1  0  0  0
 15 16  4  0  0  0
 16 17  4  0  0  0
 18 17  4  0  0  0
 19 18  4  0  0  0
 20 23  2  0  0  0
 20 35  1  0  0  0
 36 20  1  0  0  0
 39 21  1  0  0  0
 21 40  1  0  0  0
 29 22  1  0  0  0
 34 22  1  0  0  0
 24 25  4  0  0  0
 24 31  4  0  0  0
 25 26  4  0  0  0
 37 25  4  0  0  0
 26 27  4  0  0  0
 28 27  4  0  0  0
 31 28  4  0  0  0
 33 29  1  0  0  0
 34 30  1  0  0  0
 32 37  4  0  0  0
 38 36  1  0  0  0
 38 39  1  0  0  0
  7 41  1  0  0  0
  8 42  1  0  0  0
  8 43  1  0  0  0
 11 44  1  0  0  0
 11 45  1  0  0  0
 11 46  1  0  0  0
 15 47  1  0  0  0
 16 48  1  0  0  0
 18 49  1  0  0  0
 19 50  1  0  0  0
 21 51  1  0  0  0
 22 52  1  0  0  0
 22 53  1  0  0  0
 26 54  1  0  0  0
 27 55  1  0  0  0
 28 56  1  0  0  0
 29 57  1  0  0  0
 29 58  1  0  0  0
 30 59  1  0  0  0
 31 60  1  0  0  0
 32 61  1  0  0  0
 33 62  1  0  0  0
 33 63  1  0  0  0
 34 64  1  0  0  0
 35 65  1  0  0  0
 36 66  1  0  0  0
 36 67  1  0  0  0
 38 68  1  0  0  0
 38 69  1  0  0  0
 39 70  1  0  0  0
 39 71  1  0  0  0
 40 72  1  0  0  0
 40 73  1  0  0  0
 40 74  1  0  0  0
M  END
$$$$
