6f7q_ligand
  -I-interpret- 

 73 77  0  0  0  0  0  0  0  0999 V2000
  -39.8400   -8.5370   41.7800 C   0  0  0  0  0
  -39.8930   -9.8670   39.8480 C   0  0  0  0  0
  -39.8860  -11.3360   39.4430 C   0  0  0  0  0
  -41.3730  -10.8100   37.5540 C   0  0  0  0  0
  -40.9940  -11.2810   36.1370 C   0  0  0  0  0
  -40.0140  -12.4520   36.0690 C   0  0  0  0  0
  -38.8820  -12.1640   35.0450 C   0  0  0  0  0
  -39.3740  -11.4830   33.7540 C   0  0  0  0  0
  -39.6950   -9.0360   33.4260 C   0  0  0  0  0
  -40.7970   -8.0550   33.2620 C   0  0  0  0  0
  -40.3060   -7.1990   32.2720 C   0  0  0  0  0
  -40.6020   -5.9230   31.9980 C   0  0  0  0  0
  -40.0150   -5.2480   30.9260 C   0  0  0  0  0
  -39.0890   -5.9360   30.1580 C   0  0  0  0  0
  -38.8100   -7.2590   30.4970 C   0  0  0  0  0
  -39.4090   -7.8730   31.5230 C   0  0  0  0  0
  -39.2960   -9.1950   32.0050 C   0  0  0  0  0
  -40.4070  -10.0710   35.4550 C   0  0  0  0  0
  -41.9630   -9.2410   40.9080 C   0  0  0  0  0
  -42.0940  -12.5150   39.2420 C   0  0  0  0  0
  -41.8910  -13.1290   40.4850 C   0  0  0  0  0
  -41.4720  -12.8980   42.7900 C   0  0  0  0  0
  -41.6320  -14.2610   42.9900 C   0  0  0  0  0
  -41.9360  -15.0720   41.9020 C   0  0  0  0  0
  -42.0830  -14.4920   40.6430 C   0  0  0  0  0
  -41.1650  -12.0780   43.8650 C   0  0  0  0  0
  -41.0180  -12.6200   45.1400 C   0  0  0  0  0
  -41.1870  -13.9880   45.3460 C   0  0  0  0  0
  -41.4850  -14.8040   44.2650 C   0  0  0  0  0
  -40.5630   -9.6440   41.1400 N   0  3  0  0  0
  -41.1470  -11.6440   38.7560 N   0  0  0  0  0
  -40.1970  -10.2830   34.0210 N   0  3  0  0  0
  -41.6200  -12.3780   41.5710 N   0  0  0  0  0
  -43.1850  -12.7140   38.6910 O   0  0  0  0  0
  -41.0280  -10.7350   43.6060 O   0  0  0  0  0
  -39.8661   -7.6631   41.1290 H   0  0  0  0  0
  -40.3142   -8.2970   42.7317 H   0  0  0  0  0
  -38.8050   -8.8323   41.9526 H   0  0  0  0  0
  -40.4370   -9.3096   39.0854 H   0  0  0  0  0
  -38.8580   -9.5387   39.9438 H   0  0  0  0  0
  -39.7856  -11.9628   40.3291 H   0  0  0  0  0
  -39.0455  -11.5314   38.7771 H   0  0  0  0  0
  -42.4585  -10.7217   37.5086 H   0  0  0  0  0
  -40.7221   -9.9510   37.7169 H   0  0  0  0  0
  -41.8897  -11.6716   35.6540 H   0  0  0  0  0
  -40.5541  -13.3450   35.7544 H   0  0  0  0  0
  -39.5693  -12.5962   37.0537 H   0  0  0  0  0
  -38.4463  -13.1224   34.7625 H   0  0  0  0  0
  -38.1752  -11.4855   35.5226 H   0  0  0  0  0
  -39.9915  -12.1991   33.2118 H   0  0  0  0  0
  -38.4983  -11.1692   33.1859 H   0  0  0  0  0
  -38.8808   -8.7418   34.0883 H   0  0  0  0  0
  -41.0431   -7.5352   34.1879 H   0  0  0  0  0
  -41.7429   -8.5220   32.9876 H   0  0  0  0  0
  -41.3197   -5.3972   32.6278 H   0  0  0  0  0
  -40.2764   -4.2141   30.7006 H   0  0  0  0  0
  -38.5934   -5.4567   29.3137 H   0  0  0  0  0
  -38.0793   -7.8114   29.9062 H   0  0  0  0  0
  -39.9124   -9.9093   31.4592 H   0  0  0  0  0
  -38.2994   -9.6182   31.8796 H   0  0  0  0  0
  -39.4383   -9.8650   35.9102 H   0  0  0  0  0
  -41.1077   -9.2446   35.5740 H   0  0  0  0  0
  -41.9828   -8.3201   40.3252 H   0  0  0  0  0
  -42.4809  -10.0294   40.3619 H   0  0  0  0  0
  -42.4560   -9.0767   41.8662 H   0  0  0  0  0
  -42.0578  -16.1473   42.0320 H   0  0  0  0  0
  -42.3484  -15.1094   39.7848 H   0  0  0  0  0
  -40.7697  -11.9713   45.9801 H   0  0  0  0  0
  -41.0861  -14.4116   46.3452 H   0  0  0  0  0
  -41.6050  -15.8771   44.4136 H   0  0  0  0  0
  -40.5613  -10.4857   41.7161 H   0  0  0  0  0
  -41.0813  -10.4962   33.5594 H   0  0  0  0  0
  -40.8172  -10.2730   44.4207 H   0  0  0  0  0
 30  1  1  0  0  0
  3  2  1  0  0  0
  2 30  1  0  0  0
 31  3  1  0  0  0
  4  5  1  0  0  0
 31  4  1  0  0  0
  5  6  1  0  0  0
  5 18  1  0  0  0
  6  7  1  0  0  0
  7  8  1  0  0  0
 32  8  1  0  0  0
  9 10  1  0  0  0
  9 17  1  0  0  0
 32  9  1  0  0  0
 10 11  1  0  0  0
 11 12  4  0  0  0
 16 11  4  0  0  0
 12 13  4  0  0  0
 14 13  4  0  0  0
 15 14  4  0  0  0
 16 15  4  0  0  0
 17 16  1  0  0  0
 18 32  1  0  0  0
 30 19  1  0  0  0
 21 20  1  0  0  0
 20 31  1  0  0  0
 20 34  2  0  0  0
 21 25  4  0  0  0
 33 21  4  0  0  0
 22 23  4  0  0  0
 22 26  4  0  0  0
 22 33  4  0  0  0
 23 24  4  0  0  0
 23 29  4  0  0  0
 24 25  4  0  0  0
 26 27  4  0  0  0
 26 35  1  0  0  0
 27 28  4  0  0  0
 28 29  4  0  0  0
  1 36  1  0  0  0
  1 37  1  0  0  0
  1 38  1  0  0  0
  2 39  1  0  0  0
  2 40  1  0  0  0
  3 41  1  0  0  0
  3 42  1  0  0  0
  4 43  1  0  0  0
  4 44  1  0  0  0
  5 45  1  0  0  0
  6 46  1  0  0  0
  6 47  1  0  0  0
  7 48  1  0  0  0
  7 49  1  0  0  0
  8 50  1  0  0  0
  8 51  1  0  0  0
  9 52  1  0  0  0
 10 53  1  0  0  0
 10 54  1  0  0  0
 12 55  1  0  0  0
 13 56  1  0  0  0
 14 57  1  0  0  0
 15 58  1  0  0  0
 17 59  1  0  0  0
 17 60  1  0  0  0
 18 61  1  0  0  0
 18 62  1  0  0  0
 19 63  1  0  0  0
 19 64  1  0  0  0
 19 65  1  0  0  0
 24 66  1  0  0  0
 25 67  1  0  0  0
 27 68  1  0  0  0
 28 69  1  0  0  0
 29 70  1  0  0  0
 30 71  1  0  0  0
 32 72  1  0  0  0
 35 73  1  0  0  0
M  END
$$$$
