1d4p_ligand
  -I-interpret- 

 50 53  0  0  0  0  0  0  0  0999 V2000
  -23.9770  -31.8420   23.1850 C   0  0  0  0  0
  -23.2620  -33.0490   22.8460 C   0  0  0  0  0
  -22.2410  -32.9690   21.8570 C   0  0  0  0  0
  -21.9390  -31.7360   21.2190 C   0  0  0  0  0
  -22.6540  -30.5500   21.5620 C   0  0  0  0  0
  -23.6720  -30.6180   22.5390 C   0  0  0  0  0
  -21.3610  -33.8910   21.3030 C   0  0  0  0  0
  -20.5500  -33.2420   20.3660 C   0  0  0  0  0
  -20.9500  -31.9310   20.3630 N   0  0  0  0  0
  -24.9870  -31.8380   24.1860 C   0  0  0  0  0
  -25.1220  -30.7030   24.8440 N   0  0  0  0  0
  -25.7300  -32.8840   24.4660 N   0  0  0  0  0
  -19.4790  -33.7530   19.5580 C   0  0  0  0  0
  -19.6650  -34.3370   18.4800 O   0  0  0  0  0
  -18.0940  -33.5610   20.0610 N   0  0  0  0  0
  -16.8530  -34.0600   19.3190 C   0  0  0  0  0
  -16.3920  -35.2560   20.2020 C   0  0  0  0  0
  -16.1290  -34.7710   21.6280 C   0  0  0  0  0
  -17.3950  -34.0160   22.2270 C   0  0  0  0  0
  -17.7910  -32.8960   21.3250 C   0  0  0  0  0
  -15.7200  -35.9250   22.6000 C   0  0  0  0  0
  -15.2460  -35.3600   23.9730 C   0  0  0  0  0
  -16.1300  -35.3170   25.1240 C   0  0  0  0  0
  -15.6990  -34.8010   26.3600 C   0  0  0  0  0
  -14.3740  -34.3200   26.4640 C   0  0  0  0  0
  -13.4870  -34.3510   25.3550 C   0  0  0  0  0
  -13.9140  -34.8640   24.1260 C   0  0  0  0  0
  -23.4971  -33.9952   23.3334 H   0  0  0  0  0
  -22.4177  -29.6033   21.0763 H   0  0  0  0  0
  -24.2296  -29.7183   22.7991 H   0  0  0  0  0
  -21.3108  -34.9496   21.5577 H   0  0  0  0  0
  -25.8150  -30.6243   25.5883 H   0  0  0  0  0
  -24.5334  -29.9039   24.6086 H   0  0  0  0  0
  -26.4297  -32.8292   25.2061 H   0  0  0  0  0
  -16.0867  -33.2934   19.2039 H   0  0  0  0  0
  -17.0577  -34.3447   18.2869 H   0  0  0  0  0
  -15.4761  -35.6786   19.7890 H   0  0  0  0  0
  -17.1726  -36.0167   20.2168 H   0  0  0  0  0
  -15.2894  -34.0803   21.5500 H   0  0  0  0  0
  -17.1436  -33.6153   23.2090 H   0  0  0  0  0
  -18.2243  -34.7179   22.3145 H   0  0  0  0  0
  -18.6390  -32.3306   21.7114 H   0  0  0  0  0
  -17.0062  -32.1465   21.2231 H   0  0  0  0  0
  -14.8996  -36.4850   22.1511 H   0  0  0  0  0
  -16.5867  -36.5648   22.7664 H   0  0  0  0  0
  -17.1489  -35.6923   25.0286 H   0  0  0  0  0
  -16.3714  -34.7728   27.2175 H   0  0  0  0  0
  -14.0256  -33.9169   27.4149 H   0  0  0  0  0
  -12.4700  -33.9737   25.4622 H   0  0  0  0  0
  -13.2272  -34.8858   23.2799 H   0  0  0  0  0
 10  1  1  0  0  0
  1  6  4  0  0  0
  1  2  4  0  0  0
  2  3  4  0  0  0
  3  7  4  0  0  0
  3  4  4  0  0  0
  4  9  4  0  0  0
  4  5  4  0  0  0
  6  5  4  0  0  0
  9  8  4  0  0  0
  8 13  1  0  0  0
  7  8  4  0  0  0
 13 15  1  0  0  0
 13 14  2  0  0  0
 15 20  1  0  0  0
 15 16  1  0  0  0
 16 17  1  0  0  0
 17 18  1  0  0  0
 18 21  1  0  0  0
 18 19  1  0  0  0
 20 19  1  0  0  0
 21 22  1  0  0  0
 22 27  4  0  0  0
 22 23  4  0  0  0
 23 24  4  0  0  0
 24 25  4  0  0  0
 25 26  4  0  0  0
 27 26  4  0  0  0
 10 12  2  0  0  0
 10 11  1  0  0  0
  2 28  1  0  0  0
  5 29  1  0  0  0
  6 30  1  0  0  0
  7 31  1  0  0  0
 11 32  1  0  0  0
 11 33  1  0  0  0
 12 34  1  0  0  0
 16 35  1  0  0  0
 16 36  1  0  0  0
 17 37  1  0  0  0
 17 38  1  0  0  0
 18 39  1  0  0  0
 19 40  1  0  0  0
 19 41  1  0  0  0
 20 42  1  0  0  0
 20 43  1  0  0  0
 21 44  1  0  0  0
 21 45  1  0  0  0
 23 46  1  0  0  0
 24 47  1  0  0  0
 25 48  1  0  0  0
 26 49  1  0  0  0
 27 50  1  0  0  0
M  END
$$$$
