5etj_ligand
  -I-interpret- 

 36 38  0  0  0  0  0  0  0  0999 V2000
   39.5800   -9.3230   61.3270 N   0  0  0  0  0
   39.4050   -8.3940   60.3270 C   0  0  0  0  0
   38.1950   -8.2200   59.7320 N   0  0  0  0  0
   40.4270   -7.6250   59.8670 N   0  0  0  0  0
   41.6350   -7.7840   60.4050 C   0  0  0  0  0
   41.9070   -8.7310   61.4830 C   0  0  0  0  0
   40.7620   -9.5300   61.9380 C   0  0  0  0  0
   40.9070  -10.3720   62.8460 O   0  0  0  0  0
   43.2080   -8.6170   61.7910 N   0  0  0  0  0
   43.7970   -7.6630   61.0160 C   0  0  0  0  0
   42.8870   -7.0840   60.1400 C   0  0  0  0  0
   43.0010   -4.6470   59.4540 N   0  3  0  0  0
   43.1780   -6.0530   59.1040 C   0  0  0  0  0
   41.5880   -4.2630   59.6380 C   0  0  0  0  0
   41.7820   -2.8670   60.1620 C   0  0  0  0  0
   42.1600   -1.9410   59.1100 O   0  0  0  0  0
   42.8880   -3.0720   61.1860 C   0  0  0  0  0
   42.3680   -3.4650   62.5710 C   0  0  0  0  0
   43.4980   -3.7000   63.4320 O   0  0  0  0  0
   43.7330   -4.2060   60.6620 C   0  0  0  0  0
   37.3968   -8.7833   60.0252 H   0  0  0  0  0
   40.2723   -6.9412   59.1261 H   0  0  0  0  0
   44.8502   -7.3886   61.0759 H   0  0  0  0  0
   43.3974   -4.1770   58.6401 H   0  0  0  0  0
   42.4609   -6.2408   58.3049 H   0  0  0  0  0
   44.2401   -6.1610   58.8840 H   0  0  0  0  0
   41.0170   -4.9215   60.2925 H   0  0  0  0  0
   40.9748   -4.3328   58.7396 H   0  0  0  0  0
   40.8807   -2.4205   60.5820 H   0  0  0  0  0
   42.2741   -1.0639   59.4831 H   0  0  0  0  0
   43.4310   -2.1351   61.3102 H   0  0  0  0  0
   41.7606   -4.3672   62.4988 H   0  0  0  0  0
   41.7497   -2.6648   62.9777 H   0  0  0  0  0
   43.1870   -3.9478   64.3058 H   0  0  0  0  0
   44.7563   -3.9004   60.4440 H   0  0  0  0  0
   43.8596   -5.0063   61.3911 H   0  0  0  0  0
  1  2  4  0  0  0
  1  7  1  0  0  0
  2  3  2  0  0  0
  2  4  1  0  0  0
  4  5  1  0  0  0
  5  6  4  0  0  0
  5 11  4  0  0  0
  6  7  1  0  0  0
  6  9  4  0  0  0
  7  8  2  0  0  0
  9 10  4  0  0  0
 10 11  4  0  0  0
 11 13  1  0  0  0
 13 12  1  0  0  0
 12 14  1  0  0  0
 12 20  1  0  0  0
 14 15  1  0  0  0
 15 16  1  0  0  0
 15 17  1  0  0  0
 17 18  1  0  0  0
 17 20  1  0  0  0
 18 19  1  0  0  0
  3 21  1  0  0  0
  4 22  1  0  0  0
 10 23  1  0  0  0
 12 24  1  0  0  0
 13 25  1  0  0  0
 13 26  1  0  0  0
 14 27  1  0  0  0
 14 28  1  0  0  0
 15 29  1  0  0  0
 16 30  1  0  0  0
 17 31  1  0  0  0
 18 32  1  0  0  0
 18 33  1  0  0  0
 19 34  1  0  0  0
 20 35  1  0  0  0
 20 36  1  0  0  0
M  END
$$$$
