3mw1_ligand
  -I-interpret- 

 54 58  0  0  0  0  0  0  0  0999 V2000
   15.9660   12.2870   30.7970 C   0  0  0  0  0
   16.7490   13.0010   29.8890 C   0  0  0  0  0
   18.1390   12.9890   29.9890 C   0  0  0  0  0
   18.7230   12.2390   30.9930 C   0  0  0  0  0
   17.9260   11.5500   31.8870 C   0  0  0  0  0
   16.5560   11.5610   31.7990 C   0  0  0  0  0
   14.6320   12.2730   30.7310 F   0  0  0  0  0
   18.4770   10.8320   32.8670 F   0  0  0  0  0
   20.1800   12.1580   31.2270 C   0  0  0  0  0
   20.9030   10.9760   31.0510 C   0  0  0  0  0
   22.2700   10.9710   31.3360 C   0  0  0  0  0
   22.8780   12.0950   31.7890 N   0  0  0  0  0
   22.1980   13.2450   31.9960 C   0  0  0  0  0
   20.8320   13.2940   31.7140 C   0  0  0  0  0
   20.3310    9.7920   30.5930 C   0  0  0  0  0
   21.1240    8.6580   30.4360 C   0  0  0  0  0
   22.4300    8.6820   30.7070 N   0  0  0  0  0
   23.0270    9.8120   31.1420 C   0  0  0  0  0
   24.4740    9.8390   31.5080 C   0  0  0  0  0
   25.4640   10.4260   30.7560 C   0  0  0  0  0
   26.7810   10.4150   31.1860 C   0  0  0  0  0
   27.1140    9.8230   32.3970 C   0  0  0  0  0
   26.1210    9.2430   33.1680 C   0  0  0  0  0
   24.8050    9.2590   32.7270 C   0  0  0  0  0
   23.5270    8.5040   33.7500 Cl  0  0  0  0  0
   25.0630   11.1930   29.2060 Cl  0  0  0  0  0
   23.1690    7.4810   30.5010 O   0  0  0  0  0
   22.9270   14.4410   32.4690 C   0  0  0  0  0
   24.2770   14.0460   33.0750 C   0  0  0  0  0
   25.1710   15.2600   33.3220 C   0  0  0  0  0
   25.2570   16.0940   32.1370 N   0  3  0  0  0
   24.0520   16.4890   31.4340 C   0  0  0  0  0
   23.1100   15.3110   31.2290 C   0  0  0  0  0
   16.2693   13.5730   29.0947 H   0  0  0  0  0
   18.7524   13.5585   29.2908 H   0  0  0  0  0
   15.9491   11.0032   32.5122 H   0  0  0  0  0
   20.2746   14.2170   31.8734 H   0  0  0  0  0
   19.2673    9.7529   30.3584 H   0  0  0  0  0
   20.6684    7.7322   30.0846 H   0  0  0  0  0
   27.5573   10.8720   30.5724 H   0  0  0  0  0
   28.1492    9.8149   32.7381 H   0  0  0  0  0
   26.3722    8.7746   34.1196 H   0  0  0  0  0
   24.0892    7.6294   30.7308 H   0  0  0  0  0
   22.3859   14.9698   33.2536 H   0  0  0  0  0
   24.7856   13.3856   32.3727 H   0  0  0  0  0
   24.0913   13.5592   34.0324 H   0  0  0  0  0
   26.1717   14.9108   33.5766 H   0  0  0  0  0
   24.7436   15.8491   34.1334 H   0  0  0  0  0
   25.7685   15.5245   31.4629 H   0  0  0  0  0
   25.6536   16.9716   32.4730 H   0  0  0  0  0
   24.3359   16.8767   30.4557 H   0  0  0  0  0
   23.5367   17.2417   32.0306 H   0  0  0  0  0
   22.1323   15.7191   30.9727 H   0  0  0  0  0
   23.5439   14.6809   30.4526 H   0  0  0  0  0
  1  2  4  0  0  0
  1  6  4  0  0  0
  1  7  1  0  0  0
  2  3  4  0  0  0
  3  4  4  0  0  0
  4  5  4  0  0  0
  4  9  1  0  0  0
  5  6  4  0  0  0
  5  8  1  0  0  0
  9 10  4  0  0  0
  9 14  4  0  0  0
 10 11  4  0  0  0
 10 15  4  0  0  0
 11 12  4  0  0  0
 11 18  4  0  0  0
 12 13  4  0  0  0
 13 14  4  0  0  0
 13 28  1  0  0  0
 15 16  4  0  0  0
 16 17  4  0  0  0
 17 18  4  0  0  0
 17 27  1  0  0  0
 18 19  1  0  0  0
 19 20  4  0  0  0
 19 24  4  0  0  0
 20 21  4  0  0  0
 20 26  1  0  0  0
 21 22  4  0  0  0
 22 23  4  0  0  0
 23 24  4  0  0  0
 24 25  1  0  0  0
 28 29  1  0  0  0
 28 33  1  0  0  0
 29 30  1  0  0  0
 30 31  1  0  0  0
 31 32  1  0  0  0
 32 33  1  0  0  0
  2 34  1  0  0  0
  3 35  1  0  0  0
  6 36  1  0  0  0
 14 37  1  0  0  0
 15 38  1  0  0  0
 16 39  1  0  0  0
 21 40  1  0  0  0
 22 41  1  0  0  0
 23 42  1  0  0  0
 27 43  1  0  0  0
 28 44  1  0  0  0
 29 45  1  0  0  0
 29 46  1  0  0  0
 30 47  1  0  0  0
 30 48  1  0  0  0
 31 49  1  0  0  0
 31 50  1  0  0  0
 32 51  1  0  0  0
 32 52  1  0  0  0
 33 53  1  0  0  0
 33 54  1  0  0  0
M  END
$$$$
