2vhq_ligand
  -I-interpret- 

 47 49  0  0  0  0  0  0  0  0999 V2000
   80.7790   48.7600    2.9690 P   0  0  0  0  0
   81.8470   47.6980    2.8590 O   0  0  0  0  0
   80.6720   49.6650    1.7570 O   0  0  0  0  0
   79.4890   48.1180    3.4240 O   0  0  0  0  0
   82.6080   50.3480    4.6640 P   0  0  0  0  0
   82.5020   51.8250    4.9520 O   0  0  0  0  0
   83.1540   49.4450    5.7370 O   0  0  0  0  0
   81.1340   49.8260    4.1780 O   0  0  0  0  0
   84.6650   49.0590    3.2810 P   0  0  0  0  0
   85.3560   49.2300    1.9480 O   0  0  0  0  0
   84.2050   47.6670    3.6580 O   0  0  0  0  0
   83.4530   50.0930    3.3290 O   0  0  0  0  0
   85.5930   49.6980    4.4310 O   0  0  0  0  0
   86.7440   50.4680    4.0960 C   0  0  0  0  0
   86.3780   51.9450    4.0590 C   0  0  0  0  0
   87.0520   52.6430    5.1200 O   0  0  0  0  0
   86.8060   52.6400    2.7700 C   0  0  0  0  0
   85.8450   52.5040    1.7150 O   0  0  0  0  0
   86.9980   54.0630    3.2350 C   0  0  0  0  0
   85.7250   54.7050    3.3000 O   0  0  0  0  0
   87.5470   53.8950    4.6420 C   0  0  0  0  0
   89.0210   53.8510    4.5890 N   0  0  0  0  0
   89.7630   52.7600    4.3450 C   0  0  0  0  0
   91.0790   53.0610    4.3680 N   0  0  0  0  0
   91.1840   54.3670    4.6150 C   0  0  0  0  0
   92.2930   55.3180    4.7620 C   0  0  0  0  0
   93.5560   54.8750    4.6340 N   0  0  0  0  0
   92.0040   56.6040    5.0340 N   0  0  0  0  0
   90.7300   57.0330    5.1580 C   0  0  0  0  0
   89.6570   56.2140    5.0270 N   0  0  0  0  0
   89.8270   54.8930    4.7610 C   0  0  0  0  0
   79.9758   50.3100    1.9012 H   0  0  0  0  0
   78.8066   48.7894    3.4955 H   0  0  0  0  0
   82.1404   52.2744    4.1846 H   0  0  0  0  0
   83.7847   47.6928    4.5207 H   0  0  0  0  0
   87.1120   50.1617    3.1168 H   0  0  0  0  0
   87.5187   50.3057    4.8454 H   0  0  0  0  0
   85.2923   51.9772    4.1496 H   0  0  0  0  0
   87.7010   52.2136    2.3169 H   0  0  0  0  0
   86.1646   52.9582    0.9320 H   0  0  0  0  0
   87.6427   54.6545    2.5849 H   0  0  0  0  0
   85.8396   55.6112    3.5953 H   0  0  0  0  0
   87.2459   54.7177    5.2906 H   0  0  0  0  0
   89.3584   51.7660    4.1542 H   0  0  0  0  0
   93.7335   53.8900    4.4374 H   0  0  0  0  0
   94.3366   55.5239    4.7335 H   0  0  0  0  0
   90.5556   58.0871    5.3735 H   0  0  0  0  0
  1  2  2  0  0  0
  1  3  1  0  0  0
  1  4  1  0  0  0
  8  1  1  0  0  0
  5  6  1  0  0  0
  5  7  2  0  0  0
  5  8  1  0  0  0
 12  5  1  0  0  0
  9 10  2  0  0  0
  9 11  1  0  0  0
  9 12  1  0  0  0
  9 13  1  0  0  0
 13 14  1  0  0  0
 14 15  1  0  0  0
 15 16  1  0  0  0
 15 17  1  0  0  0
 16 21  1  0  0  0
 17 18  1  0  0  0
 17 19  1  0  0  0
 19 20  1  0  0  0
 19 21  1  0  0  0
 21 22  1  0  0  0
 22 23  4  0  0  0
 22 31  4  0  0  0
 23 24  4  0  0  0
 24 25  4  0  0  0
 25 26  4  0  0  0
 25 31  4  0  0  0
 26 27  1  0  0  0
 26 28  4  0  0  0
 28 29  4  0  0  0
 29 30  4  0  0  0
 30 31  4  0  0  0
  3 32  1  0  0  0
  4 33  1  0  0  0
  6 34  1  0  0  0
 11 35  1  0  0  0
 14 36  1  0  0  0
 14 37  1  0  0  0
 15 38  1  0  0  0
 17 39  1  0  0  0
 18 40  1  0  0  0
 19 41  1  0  0  0
 20 42  1  0  0  0
 21 43  1  0  0  0
 23 44  1  0  0  0
 27 45  1  0  0  0
 27 46  1  0  0  0
 29 47  1  0  0  0
M  END
$$$$
