### 
### Created by X-TOOL on Mon Sep 10 21:12:55 2018
### 

@<TRIPOS>MOLECULE
2vhq_ligand
   43    45     1     0     0
SMALL
GAST_HUCK


@<TRIPOS>ATOM
      1 PG         80.7790   48.7600    2.9690 P.3       1 ATP         0.1879
      2 O1G        81.8470   47.6980    2.8590 O.co2     1 ATP        -0.6091
      3 O2G        80.6720   49.6650    1.7570 O.co2     1 ATP        -0.6091
      4 O3G        79.4890   48.1180    3.4240 O.co2     1 ATP        -0.6091
      5 PB         82.6080   50.3480    4.6640 P.3       1 ATP         0.3553
      6 O1B        82.5020   51.8250    4.9520 O.co2     1 ATP        -0.5652
      7 O2B        83.1540   49.4450    5.7370 O.co2     1 ATP        -0.5652
      8 O3B        81.1340   49.8260    4.1780 O.3       1 ATP        -0.1546
      9 PA         84.6650   49.0590    3.2810 P.3       1 ATP         0.3266
     10 O1A        85.3560   49.2300    1.9480 O.co2     1 ATP        -0.5692
     11 O2A        84.2050   47.6670    3.6580 O.co2     1 ATP        -0.5692
     12 O3A        83.4530   50.0930    3.3290 O.3       1 ATP        -0.1171
     13 O5'        85.5930   49.6980    4.4310 O.3       1 ATP        -0.2441
     14 C5'        86.7440   50.4680    4.0960 C.3       1 ATP         0.1131
     15 C4'        86.3780   51.9450    4.0590 C.3       1 ATP         0.1189
     16 O4'        87.0520   52.6430    5.1200 O.3       1 ATP        -0.3364
     17 C3'        86.8060   52.6400    2.7700 C.3       1 ATP         0.1149
     18 O3'        85.8450   52.5040    1.7150 O.3       1 ATP        -0.3864
     19 C2'        86.9980   54.0630    3.2350 C.3       1 ATP         0.1385
     20 O2'        85.7250   54.7050    3.3000 O.3       1 ATP        -0.3836
     21 C1'        87.5470   53.8950    4.6420 C.3       1 ATP         0.2010
     22 N9         89.0210   53.8510    4.5890 N.pl3     1 ATP        -0.1919
     23 C8         89.7630   52.7600    4.3450 C.2       1 ATP         0.1123
     24 N7         91.0790   53.0610    4.3680 N.2       1 ATP        -0.2958
     25 C5         91.1840   54.3670    4.6150 C.ar      1 ATP         0.1045
     26 C6         92.2930   55.3180    4.7620 C.ar      1 ATP         0.1298
     27 N6         93.5560   54.8750    4.6340 N.pl3     1 ATP        -0.3152
     28 N1         92.0040   56.6040    5.0340 N.ar      1 ATP        -0.2698
     29 C2         90.7300   57.0330    5.1580 C.ar      1 ATP         0.0533
     30 N3         89.6570   56.2140    5.0270 N.ar      1 ATP        -0.2714
     31 C4         89.8270   54.8930    4.7610 C.ar      1 ATP         0.1613
     32 H1         87.1166   50.1585    3.1084 H         1 ATP         0.0648
     33 H2         87.5267   50.3038    4.8512 H         1 ATP         0.0648
     34 H3         85.2886   52.0384    4.1789 H         1 ATP         0.0651
     35 H4         87.7611   52.2267    2.4137 H         1 ATP         0.0648
     36 H5         85.0194   52.8858    1.9891 H         1 ATP         0.2100
     37 H6         87.6876   54.6224    2.5858 H         1 ATP         0.0676
     38 H7         85.3246   54.6997    2.4385 H         1 ATP         0.2101
     39 H8         87.2154   54.7188    5.2911 H         1 ATP         0.0996
     40 H9         89.3588   51.7669    4.1544 H         1 ATP         0.1349
     41 H10        94.3443   55.5303    4.7345 H         1 ATP         0.1820
     42 H11        93.7353   53.8803    4.4355 H         1 ATP         0.1820
     43 H12        90.5565   58.0813    5.3723 H         1 ATP         0.0996
@<TRIPOS>BOND
     1    1    2 ar 
     2    1    3 ar 
     3    1    4 ar 
     4    8    1 1  
     5    5    6 ar 
     6    5    7 ar 
     7    5    8 1  
     8   12    5 1  
     9    9   10 ar 
    10    9   11 ar 
    11    9   12 1  
    12    9   13 1  
    13   13   14 1  
    14   14   15 1  
    15   15   16 1  
    16   15   17 1  
    17   16   21 1  
    18   17   18 1  
    19   17   19 1  
    20   19   20 1  
    21   19   21 1  
    22   21   22 1  
    23   22   23 1  
    24   22   31 1  
    25   23   24 2  
    26   24   25 1  
    27   25   26 ar 
    28   25   31 ar 
    29   26   27 1  
    30   26   28 ar 
    31   28   29 ar 
    32   29   30 ar 
    33   30   31 ar 
    34   14   32 1  
    35   14   33 1  
    36   15   34 1  
    37   17   35 1  
    38   18   36 1  
    39   19   37 1  
    40   20   38 1  
    41   21   39 1  
    42   23   40 1  
    43   27   41 1  
    44   27   42 1  
    45   29   43 1  
@<TRIPOS>SUBSTRUCTURE
     1 ATP         1

