### 
### Created by X-TOOL on Wed Jan  1 15:39:38 2020
### 

@<TRIPOS>MOLECULE
6g3v_ligand
   36    36     1     0     0
SMALL
GAST_HUCK


@<TRIPOS>ATOM
      1 C1        -17.2430   35.9900   43.8460 C.3       1 FO9         0.0394
      2 C2        -17.9540   37.2910   43.5370 C.3       1 FO9         0.0165
      3 N2        -24.8690   35.6920   48.5800 N.pl3     1 FO9        -0.3513
      4 O1        -17.5080   33.7020   39.5940 O.2       1 FO9        -0.1278
      5 S2        -16.7060   34.8160   40.0240 S.o2      1 FO9         0.1458
      6 O         -16.5160   35.9630   39.1770 O.2       1 FO9        -0.1278
      7 N6        -15.2810   34.2460   40.5290 N.am      1 FO9        -0.2423
      8 N5        -17.4590   35.4280   41.4140 N.am      1 FO9        -0.1399
      9 C         -17.3520   34.9990   42.7390 C.2       1 FO9         0.1119
     10 N         -17.3460   33.6840   43.0500 N.2       1 FO9        -0.4050
     11 S         -19.0620   37.8150   44.8740 S.3       1 FO9        -0.1297
     12 C3        -20.6860   37.3850   44.1910 C.3       1 FO9         0.0739
     13 C4        -21.6360   36.8440   45.2050 C.2       1 FO9         0.1370
     14 N4        -22.5760   37.6980   45.7550 N.2       1 FO9        -0.1793
     15 C6        -23.3210   37.0260   46.6310 C.2       1 FO9         0.2883
     16 S1        -22.9280   35.3690   46.8260 S.3       1 FO9         0.1458
     17 C5        -21.6780   35.5710   45.6580 C.2       1 FO9         0.1373
     18 N1        -24.3380   37.5780   47.3470 N.pl3     1 FO9        -0.2191
     19 C7        -25.0970   36.9560   48.2900 C.cat     1 FO9         0.1594
     20 N3        -26.0510   37.6240   48.9020 N.pl3     1 FO9        -0.3513
     21 H1        -17.6856   35.5539   44.7537 H         1 FO9         0.0558
     22 H2        -16.1787   36.2039   44.0234 H         1 FO9         0.0558
     23 H3        -18.5466   37.1594   42.6196 H         1 FO9         0.0413
     24 H4        -17.1996   38.0754   43.3769 H         1 FO9         0.0413
     25 H5        -25.4402   35.2160   49.2928 H         1 FO9         0.1658
     26 H6        -24.1194   35.1792   48.0941 H         1 FO9         0.1658
     27 H7        -15.2464   33.4465   41.1286 H         1 FO9         0.1654
     28 H8        -14.4336   34.6927   40.2419 H         1 FO9         0.1654
     29 H9        -18.0668   36.2078   41.2639 H         1 FO9         0.2387
     30 H10       -17.4185   32.9930   42.3197 H         1 FO9         0.0471
     31 H11       -20.5439   36.6258   43.4078 H         1 FO9         0.0700
     32 H12       -21.1279   38.2900   43.7486 H         1 FO9         0.0700
     33 H13       -21.0094   34.7774   45.3279 H         1 FO9         0.1683
     34 H14       -24.5554   38.5665   47.1560 H         1 FO9         0.2359
     35 H15       -26.6287   37.1586   49.6166 H         1 FO9         0.1658
     36 H16       -26.2202   38.6124   48.6666 H         1 FO9         0.1658
@<TRIPOS>BOND
     1    2    1 1  
     2    1    9 1  
     3   11    2 1  
     4   19    3 ar 
     5    5    4 2  
     6    5    6 2  
     7    5    7 am 
     8    8    5 am 
     9    9    8 1  
    10    9   10 2  
    11   12   11 1  
    12   13   12 1  
    13   14   13 1  
    14   17   13 2  
    15   15   14 2  
    16   15   16 1  
    17   18   15 1  
    18   16   17 1  
    19   18   19 ar 
    20   19   20 ar 
    21    1   21 1  
    22    1   22 1  
    23    2   23 1  
    24    2   24 1  
    25    3   25 1  
    26    3   26 1  
    27    7   27 1  
    28    7   28 1  
    29    8   29 1  
    30   10   30 1  
    31   12   31 1  
    32   12   32 1  
    33   17   33 1  
    34   18   34 1  
    35   20   35 1  
    36   20   36 1  
@<TRIPOS>SUBSTRUCTURE
     1 FO9         1

