6g3v_ligand
  -I-interpret- 

 35 35  0  0  0  0  0  0  0  0999 V2000
  -17.2430   35.9900   43.8460 C   0  0  0  0  0
  -17.9540   37.2910   43.5370 C   0  0  0  0  0
  -24.8690   35.6920   48.5800 N   0  0  0  0  0
  -17.5080   33.7020   39.5940 O   0  0  0  0  0
  -16.7060   34.8160   40.0240 S   0  0  0  0  0
  -16.5160   35.9630   39.1770 O   0  0  0  0  0
  -15.2810   34.2460   40.5290 N   0  0  0  0  0
  -17.4590   35.4280   41.4140 N   0  0  0  0  0
  -17.3520   34.9990   42.7390 C   0  0  0  0  0
  -17.3460   33.6840   43.0500 N   0  0  0  0  0
  -19.0620   37.8150   44.8740 S   0  0  0  0  0
  -20.6860   37.3850   44.1910 C   0  0  0  0  0
  -21.6360   36.8440   45.2050 C   0  0  0  0  0
  -22.5760   37.6980   45.7550 N   0  0  0  0  0
  -23.3210   37.0260   46.6310 C   0  0  0  0  0
  -22.9280   35.3690   46.8260 S   0  0  0  0  0
  -21.6780   35.5710   45.6580 C   0  0  0  0  0
  -24.3380   37.5780   47.3470 N   0  0  0  0  0
  -25.0970   36.9560   48.2900 C   0  0  0  0  0
  -26.0510   37.6240   48.9020 N   0  0  0  0  0
  -17.7083   35.5560   44.7310 H   0  0  0  0  0
  -16.1862   36.2127   43.9933 H   0  0  0  0  0
  -18.5570   37.1393   42.6417 H   0  0  0  0  0
  -17.1969   38.0642   43.4064 H   0  0  0  0  0
  -25.4348   35.2206   49.2857 H   0  0  0  0  0
  -24.1266   35.1843   48.0989 H   0  0  0  0  0
  -15.0938   33.2437   40.5011 H   0  0  0  0  0
  -14.5686   34.8884   40.8757 H   0  0  0  0  0
  -18.0790   36.2234   41.2609 H   0  0  0  0  0
  -17.4204   32.9848   42.3111 H   0  0  0  0  0
  -20.5303   36.6085   43.4421 H   0  0  0  0  0
  -21.1233   38.2985   43.7882 H   0  0  0  0  0
  -21.0088   34.7766   45.3276 H   0  0  0  0  0
  -24.5532   38.5569   47.1578 H   0  0  0  0  0
  -26.2185   38.6028   48.6689 H   0  0  0  0  0
  2  1  1  0  0  0
  1  9  1  0  0  0
 11  2  1  0  0  0
 19  3  1  0  0  0
  5  4  2  0  0  0
  5  6  2  0  0  0
  5  7  1  0  0  0
  8  5  1  0  0  0
  9  8  1  0  0  0
  9 10  2  0  0  0
 12 11  1  0  0  0
 13 12  1  0  0  0
 14 13  4  0  0  0
 17 13  4  0  0  0
 15 14  4  0  0  0
 15 16  4  0  0  0
 18 15  1  0  0  0
 16 17  4  0  0  0
 18 19  1  0  0  0
 19 20  2  0  0  0
  1 21  1  0  0  0
  1 22  1  0  0  0
  2 23  1  0  0  0
  2 24  1  0  0  0
  3 25  1  0  0  0
  3 26  1  0  0  0
  7 27  1  0  0  0
  7 28  1  0  0  0
  8 29  1  0  0  0
 10 30  1  0  0  0
 12 31  1  0  0  0
 12 32  1  0  0  0
 17 33  1  0  0  0
 18 34  1  0  0  0
 20 35  1  0  0  0
M  END
$$$$
