1r58_ligand
  -I-interpret- 

 46 46  0  0  0  0  0  0  0  0999 V2000
   19.5710   33.0360   16.1000 C   0  0  0  0  0
   18.7930   34.0790   15.2970 C   0  0  0  0  0
   19.9230   33.5930   17.4710 C   0  0  0  0  0
   21.0510   32.5290   15.2710 S   0  0  0  0  0
   20.8100   30.7630   15.0850 C   0  0  0  0  0
   21.0560   29.9950   16.3750 C   0  0  0  0  0
   20.6120   28.5460   16.2170 C   0  0  0  0  0
   21.9220   27.9620   15.8740 N   0  3  0  0  0
   20.0220   27.9640   17.5610 C   0  0  0  0  0
   20.0380   26.5410   17.5620 O   0  0  0  0  0
   18.5920   28.4240   17.7420 C   0  0  0  0  0
   17.6390   27.8590   17.2390 O   0  0  0  0  0
   18.4980   29.6570   18.5610 N   0  0  0  0  0
   17.2150   30.3150   18.8200 N   0  0  0  0  0
   16.5600   31.0460   17.8580 C   0  0  0  0  0
   17.0760   31.1400   16.7250 O   0  0  0  0  0
   15.2500   31.7070   18.1670 C   0  0  0  0  0
   14.5710   31.7310   19.5060 C   0  0  0  0  0
   13.2610   32.4350   19.6490 C   0  0  0  0  0
   12.6260   33.1070   18.4770 C   0  0  0  0  0
   13.3160   33.0650   17.1750 C   0  0  0  0  0
   14.5890   32.3900   17.0110 C   0  0  0  0  0
   12.6480   33.8090   15.7870 Cl  0  0  0  0  0
   18.9296   32.1610   16.2057 H   0  0  0  0  0
   19.4177   34.9593   15.1458 H   0  0  0  0  0
   18.5154   33.6585   14.3304 H   0  0  0  0  0
   17.8933   34.3600   15.8443 H   0  0  0  0  0
   20.4228   32.8221   18.0576 H   0  0  0  0  0
   20.5865   34.4499   17.3542 H   0  0  0  0  0
   19.0110   33.9047   17.9802 H   0  0  0  0  0
   21.5233   30.4053   14.3425 H   0  0  0  0  0
   19.7739   30.5968   14.7901 H   0  0  0  0  0
   20.4851   30.4575   17.1802 H   0  0  0  0  0
   22.1207   30.0188   16.6071 H   0  0  0  0  0
   19.8120   28.3610   15.5001 H   0  0  0  0  0
   22.2569   28.3703   15.0014 H   0  0  0  0  0
   22.5875   28.1604   16.6211 H   0  0  0  0  0
   21.8245   26.9527   15.7631 H   0  0  0  0  0
   20.6468   28.3291   18.3761 H   0  0  0  0  0
   19.6742   26.2186   18.3898 H   0  0  0  0  0
   19.3495   30.0576   18.9545 H   0  0  0  0  0
   16.7939   30.2277   19.7449 H   0  0  0  0  0
   15.0290   31.2400   20.3646 H   0  0  0  0  0
   12.7640   32.4582   20.6188 H   0  0  0  0  0
   11.6697   33.6193   18.5820 H   0  0  0  0  0
   15.0706   32.3800   16.0332 H   0  0  0  0  0
  1  2  1  0  0  0
  1  3  1  0  0  0
  1  4  1  0  0  0
  4  5  1  0  0  0
  5  6  1  0  0  0
  6  7  1  0  0  0
  7  8  1  0  0  0
  7  9  1  0  0  0
  9 10  1  0  0  0
  9 11  1  0  0  0
 11 12  2  0  0  0
 11 13  1  0  0  0
 13 14  1  0  0  0
 14 15  1  0  0  0
 15 16  2  0  0  0
 15 17  1  0  0  0
 17 18  4  0  0  0
 17 22  4  0  0  0
 18 19  4  0  0  0
 19 20  4  0  0  0
 20 21  4  0  0  0
 21 22  4  0  0  0
 21 23  1  0  0  0
  1 24  1  0  0  0
  2 25  1  0  0  0
  2 26  1  0  0  0
  2 27  1  0  0  0
  3 28  1  0  0  0
  3 29  1  0  0  0
  3 30  1  0  0  0
  5 31  1  0  0  0
  5 32  1  0  0  0
  6 33  1  0  0  0
  6 34  1  0  0  0
  7 35  1  0  0  0
  8 36  1  0  0  0
  8 37  1  0  0  0
  8 38  1  0  0  0
  9 39  1  0  0  0
 10 40  1  0  0  0
 13 41  1  0  0  0
 14 42  1  0  0  0
 18 43  1  0  0  0
 19 44  1  0  0  0
 20 45  1  0  0  0
 22 46  1  0  0  0
M  END
$$$$
