5hv1_ligand
  -I-interpret- 

122126  0  0  0  0  0  0  0  0999 V2000
  -20.7370   30.9660  -10.7180 C   0  0  0  0  0
  -20.6610   30.1570  -11.9310 C   0  0  0  0  0
  -20.3610   28.7530  -11.8530 C   0  0  0  0  0
  -20.0910   28.1490  -10.5810 C   0  0  0  0  0
  -19.8570   28.3830   -8.1390 C   0  0  0  0  0
  -19.8650   29.1000   -6.9240 C   0  0  0  0  0
  -20.1760   30.5230   -6.9230 C   0  0  0  0  0
  -20.4600   31.1570   -8.2030 C   0  0  0  0  0
  -20.4590   30.3780   -9.4340 C   0  0  0  0  0
  -20.1290   28.9710   -9.4050 C   0  0  0  0  0
  -19.5310   27.0440   -7.8120 C   0  0  0  0  0
  -19.2190   27.0230   -6.3980 C   0  0  0  0  0
  -20.1120   26.0380   -5.7730 C   0  0  0  0  0
  -20.1940   31.3160   -5.6780 C   0  0  0  0  0
  -20.9710   31.8100  -13.4870 C   0  0  0  0  0
  -21.1550   32.1650  -14.8440 C   0  0  0  0  0
  -20.1100   32.4390  -15.5830 C   0  0  0  0  0
  -18.7310   32.3580  -15.1270 C   0  0  0  0  0
  -17.8040   32.3960  -16.0340 C   0  0  0  0  0
  -16.3440   32.3150  -15.7590 C   0  0  0  0  0
  -16.0000   31.8580  -14.3460 C   0  0  0  0  0
  -14.9470   30.7870  -14.2530 C   0  0  0  0  0
  -14.4610   30.5340  -12.8620 C   0  0  0  0  0
  -15.4900   29.9920  -11.9040 C   0  0  0  0  0
  -14.9300   29.8560  -10.5120 C   0  0  0  0  0
  -15.9790   29.4540   -9.5110 C   0  0  0  0  0
  -15.3980   28.8670   -8.2510 C   0  0  0  0  0
  -16.5110   28.5000   -7.3090 C   0  0  0  0  0
  -16.8050   27.2270   -7.0430 C   0  0  0  0  0
  -22.5050   32.2890  -15.3640 C   0  0  0  0  0
  -15.9520   31.3710  -16.8580 C   0  0  0  0  0
  -13.7550   31.2420  -15.0400 C   0  0  0  0  0
  -15.9220   28.6510  -12.3560 C   0  0  0  0  0
  -16.7810   30.6750   -9.1610 C   0  0  0  0  0
  -12.5970   29.4470  -10.2100 C   0  0  0  0  0
  -11.4240   28.6070  -10.4850 C   0  0  0  0  0
  -14.0260   29.6280   -6.4950 C   0  0  0  0  0
  -17.6990   24.4160  -17.1760 C   0  0  0  0  0
  -18.8320   24.5320  -15.1540 C   0  0  0  0  0
  -19.5090   25.4580  -14.1780 C   0  0  0  0  0
  -18.7910   27.3540  -15.4330 C   0  0  0  0  0
  -17.8750   26.4720  -16.2480 C   0  0  0  0  0
  -20.3000   27.9260  -13.0270 C   0  0  0  0  0
  -20.9370   30.5710  -13.1530 N   0  0  0  0  0
  -19.1530   27.5320  -13.2270 N   0  3  0  0  0
  -18.7660   26.7160  -14.1680 N   0  3  0  0  0
  -18.5920   25.2360  -16.4050 N   0  3  0  0  0
  -21.0300   32.2580  -10.8280 O   0  0  0  0  0
  -20.7470   32.4410   -8.2470 O   0  0  0  0  0
  -19.5500   28.2690   -5.9240 O   0  0  0  0  0
  -19.5630   26.1360   -8.5790 O   0  0  0  0  0
  -17.8860   26.8310   -6.1440 O   0  0  0  0  0
  -14.6330   29.9090   -7.7300 O   0  0  0  0  0
  -13.8890   28.9250  -10.4930 O   0  0  0  0  0
  -12.4460   30.5260   -9.7580 O   0  0  0  0  0
  -14.0920   31.8130  -12.4380 O   0  0  0  0  0
  -15.3870   32.9270  -13.7000 O   0  0  0  0  0
  -20.7930   32.7220  -12.7240 O   0  0  0  0  0
  -19.7790   26.8840  -10.4860 O   0  0  0  0  0
  -21.0699   29.3994  -12.3704 H   0  0  0  0  0
  -20.3619   30.6533   -5.8569 H   0  0  0  0  0
  -21.1482   26.3353   -5.9340 H   0  0  0  0  0
  -19.9400   25.0587   -6.2196 H   0  0  0  0  0
  -19.9080   25.9918   -4.7033 H   0  0  0  0  0
  -19.4524   32.1121   -5.7450 H   0  0  0  0  0
  -21.1840   31.7506   -5.5399 H   0  0  0  0  0
  -19.9588   30.6688   -4.8331 H   0  0  0  0  0
  -20.2855   32.7498  -16.6129 H   0  0  0  0  0
  -18.4869   32.2692  -14.0684 H   0  0  0  0  0
  -18.1177   32.4944  -17.0732 H   0  0  0  0  0
  -15.8075   33.2638  -15.7697 H   0  0  0  0  0
  -16.9403   31.4916  -13.9340 H   0  0  0  0  0
  -15.4029   29.8697  -14.6256 H   0  0  0  0  0
  -13.6805   29.7732  -12.8713 H   0  0  0  0  0
  -16.3265   30.6906  -11.8850 H   0  0  0  0  0
  -14.5532   30.8382  -10.2266 H   0  0  0  0  0
  -16.5957   28.6784   -9.9650 H   0  0  0  0  0
  -14.8135   27.9621   -8.4171 H   0  0  0  0  0
  -17.0899   29.2917   -6.8334 H   0  0  0  0  0
  -16.2114   26.4460   -7.5182 H   0  0  0  0  0
  -22.6810   33.3196  -15.6723 H   0  0  0  0  0
  -22.6251   31.6264  -16.2211 H   0  0  0  0  0
  -23.2188   32.0138  -14.5875 H   0  0  0  0  0
  -16.4877   30.4297  -16.7350 H   0  0  0  0  0
  -16.2063   31.8119  -17.8219 H   0  0  0  0  0
  -14.8784   31.1882  -16.8125 H   0  0  0  0  0
  -14.0450   31.3972  -16.0792 H   0  0  0  0  0
  -13.3808   32.1767  -14.6224 H   0  0  0  0  0
  -12.9755   30.4818  -14.9886 H   0  0  0  0  0
  -16.3558   28.7273  -13.3531 H   0  0  0  0  0
  -15.0609   27.9833  -12.3832 H   0  0  0  0  0
  -16.6665   28.2580  -11.6636 H   0  0  0  0  0
  -16.1221   31.4305   -8.7330 H   0  0  0  0  0
  -17.2516   31.0695  -10.0616 H   0  0  0  0  0
  -17.5492   30.4078   -8.4353 H   0  0  0  0  0
  -10.7778   29.1115  -11.2033 H   0  0  0  0  0
  -10.8758   28.4362   -9.5585 H   0  0  0  0  0
  -11.7510   27.6521  -10.8965 H   0  0  0  0  0
  -14.7952   29.4002   -5.7570 H   0  0  0  0  0
  -13.3611   28.7713   -6.6050 H   0  0  0  0  0
  -13.4523   30.4952   -6.1679 H   0  0  0  0  0
  -16.7691   24.2760  -16.6248 H   0  0  0  0  0
  -18.1639   23.4472  -17.3588 H   0  0  0  0  0
  -17.4889   24.9049  -18.1273 H   0  0  0  0  0
  -19.4719   23.6694  -15.3398 H   0  0  0  0  0
  -17.8819   24.1972  -14.7377 H   0  0  0  0  0
  -19.5191   25.0163  -13.1816 H   0  0  0  0  0
  -20.5432   25.6314  -14.4755 H   0  0  0  0  0
  -19.7931   27.4405  -15.8530 H   0  0  0  0  0
  -18.4692   28.3948  -15.3979 H   0  0  0  0  0
  -16.9144   26.3221  -15.7551 H   0  0  0  0  0
  -17.6308   26.9225  -17.2100 H   0  0  0  0  0
  -20.6238   28.5131  -13.8864 H   0  0  0  0  0
  -20.9471   27.0612  -12.8805 H   0  0  0  0  0
  -21.1333   29.8711  -13.8685 H   0  0  0  0  0
  -18.9751   26.9795  -12.3883 H   0  0  0  0  0
  -18.6817   28.3957  -13.4958 H   0  0  0  0  0
  -17.8000   26.4638  -13.9589 H   0  0  0  0  0
  -19.5057   25.4221  -16.8183 H   0  0  0  0  0
  -21.0445   32.6571   -9.9550 H   0  0  0  0  0
  -13.7587   31.7671  -11.5389 H   0  0  0  0  0
  -15.1576   32.6691  -12.8042 H   0  0  0  0  0
  2  1  2  0  0  0
  1  9  1  0  0  0
  1 48  1  0  0  0
  3  2  1  0  0  0
  2 44  1  0  0  0
  3  4  1  0  0  0
 43  3  1  0  0  0
  4 10  1  0  0  0
  4 59  2  0  0  0
  5  6  2  0  0  0
 10  5  1  0  0  0
  5 11  1  0  0  0
  6  7  1  0  0  0
  6 50  1  0  0  0
  8  7  1  0  0  0
  7 14  1  0  0  0
  9  8  1  0  0  0
  8 49  2  0  0  0
 10  9  2  0  0  0
 11 12  1  0  0  0
 11 51  2  0  0  0
 12 13  1  0  0  0
 12 50  1  0  0  0
 12 52  1  0  0  0
 15 16  1  0  0  0
 44 15  1  0  0  0
 15 58  2  0  0  0
 16 17  2  0  0  0
 16 30  1  0  0  0
 17 18  1  0  0  0
 18 19  2  0  0  0
 19 20  1  0  0  0
 20 21  1  0  0  0
 20 31  1  0  0  0
 21 22  1  0  0  0
 21 57  1  0  0  0
 22 23  1  0  0  0
 22 32  1  0  0  0
 23 24  1  0  0  0
 23 56  1  0  0  0
 25 24  1  0  0  0
 24 33  1  0  0  0
 26 25  1  0  0  0
 25 54  1  0  0  0
 27 26  1  0  0  0
 26 34  1  0  0  0
 28 27  1  0  0  0
 27 53  1  0  0  0
 29 28  2  0  0  0
 52 29  1  0  0  0
 35 36  1  0  0  0
 54 35  1  0  0  0
 35 55  2  0  0  0
 53 37  1  0  0  0
 47 38  1  0  0  0
 40 39  1  0  0  0
 39 47  1  0  0  0
 46 40  1  0  0  0
 41 42  1  0  0  0
 46 41  1  0  0  0
 42 47  1  0  0  0
 45 43  1  0  0  0
 45 46  1  0  0  0
  3 60  1  0  0  0
  7 61  1  0  0  0
 13 62  1  0  0  0
 13 63  1  0  0  0
 13 64  1  0  0  0
 14 65  1  0  0  0
 14 66  1  0  0  0
 14 67  1  0  0  0
 17 68  1  0  0  0
 18 69  1  0  0  0
 19 70  1  0  0  0
 20 71  1  0  0  0
 21 72  1  0  0  0
 22 73  1  0  0  0
 23 74  1  0  0  0
 24 75  1  0  0  0
 25 76  1  0  0  0
 26 77  1  0  0  0
 27 78  1  0  0  0
 28 79  1  0  0  0
 29 80  1  0  0  0
 30 81  1  0  0  0
 30 82  1  0  0  0
 30 83  1  0  0  0
 31 84  1  0  0  0
 31 85  1  0  0  0
 31 86  1  0  0  0
 32 87  1  0  0  0
 32 88  1  0  0  0
 32 89  1  0  0  0
 33 90  1  0  0  0
 33 91  1  0  0  0
 33 92  1  0  0  0
 34 93  1  0  0  0
 34 94  1  0  0  0
 34 95  1  0  0  0
 36 96  1  0  0  0
 36 97  1  0  0  0
 36 98  1  0  0  0
 37 99  1  0  0  0
 37100  1  0  0  0
 37101  1  0  0  0
 38102  1  0  0  0
 38103  1  0  0  0
 38104  1  0  0  0
 39105  1  0  0  0
 39106  1  0  0  0
 40107  1  0  0  0
 40108  1  0  0  0
 41109  1  0  0  0
 41110  1  0  0  0
 42111  1  0  0  0
 42112  1  0  0  0
 43113  1  0  0  0
 43114  1  0  0  0
 44115  1  0  0  0
 45116  1  0  0  0
 45117  1  0  0  0
 46118  1  0  0  0
 47119  1  0  0  0
 48120  1  0  0  0
 56121  1  0  0  0
 57122  1  0  0  0
M  END
$$$$
