3ds3_ligand
  -I-interpret- 

200203  0  0  0  0  0  0  0  0999 V2000
   42.4600  -13.1590   20.5220 N   0  3  0  0  0
   41.6870  -12.0660   19.8620 C   0  0  0  0  0
   40.2040  -12.1480   20.2500 C   0  0  0  0  0
   39.5530  -13.1800   20.0730 O   0  0  0  0  0
   41.9190  -12.0590   18.3170 C   0  0  0  0  0
   41.3880  -10.7740   17.6740 C   0  0  0  0  0
   41.3350  -13.3010   17.6630 C   0  0  0  0  0
   40.0740  -10.9360   16.9470 C   0  0  0  0  0
   39.6830  -11.0580   20.8030 N   0  0  0  0  0
   38.3360  -11.0510   21.3640 C   0  0  0  0  0
   37.2660  -10.8810   20.2970 C   0  0  0  0  0
   37.5640  -10.6240   19.1320 O   0  0  0  0  0
   38.1730   -9.9330   22.4110 C   0  0  0  0  0
   38.1910   -8.6570   21.7580 O   0  0  0  0  0
   39.2970   -9.9860   23.4370 C   0  0  0  0  0
   36.0120  -11.0240   20.7060 N   0  0  0  0  0
   34.8910  -10.8270   19.8000 C   0  0  0  0  0
   34.6560   -9.3400   19.5710 C   0  0  0  0  0
   34.1470   -8.9350   18.5270 O   0  0  0  0  0
   33.6360  -11.4980   20.3550 C   0  0  0  0  0
   32.3810  -11.1630   19.6070 C   0  0  0  0  0
   32.2530  -11.4670   18.2640 C   0  0  0  0  0
   31.3150  -10.5660   20.2570 C   0  0  0  0  0
   31.0890  -11.1630   17.5770 C   0  0  0  0  0
   30.1490  -10.2660   19.5790 C   0  0  0  0  0
   30.0370  -10.5630   18.2360 C   0  0  0  0  0
   35.0410   -8.5220   20.5440 N   0  0  0  0  0
   34.9020   -7.0760   20.4070 C   0  0  0  0  0
   35.9080   -6.4940   19.4210 C   0  0  0  0  0
   35.6860   -5.4230   18.8590 O   0  0  0  0  0
   35.0130   -6.3970   21.7700 C   0  0  0  0  0
   33.7360   -6.5150   22.5830 C   0  0  0  0  0
   33.9930   -6.7490   24.0630 C   0  0  0  0  0
   33.2970   -6.1150   24.8900 O   0  0  0  0  0
   34.8830   -7.5700   24.3970 O   0  0  0  0  0
   37.0090   -7.2090   19.2110 N   0  0  0  0  0
   37.9750   -6.8290   18.1910 C   0  0  0  0  0
   37.3640   -6.9960   16.8060 C   0  0  0  0  0
   37.6100   -6.1880   15.9160 O   0  0  0  0  0
   39.2560   -7.6520   18.3130 C   0  0  0  0  0
   39.9810   -7.4090   19.6240 C   0  0  0  0  0
   40.9830   -8.1070   19.9020 O   0  0  0  0  0
   39.5380   -6.5190   20.3820 O   0  0  0  0  0
   36.5530   -8.0350   16.6340 N   0  0  0  0  0
   35.8620   -8.2660   15.3670 C   0  0  0  0  0
   34.8070   -7.2030   15.0810 C   0  0  0  0  0
   34.5420   -6.8780   13.9270 O   0  0  0  0  0
   35.2080   -9.6480   15.3480 C   0  0  0  0  0
   36.1050  -10.8470   15.0610 C   0  0  0  0  0
   35.2880  -12.1160   15.0890 C   0  0  0  0  0
   36.7780  -10.6850   13.7200 C   0  0  0  0  0
   34.2050   -6.6680   16.1360 N   0  0  0  0  0
   33.1750   -5.6520   15.9820 C   0  0  0  0  0
   33.7700   -4.2600   15.7810 C   0  0  0  0  0
   33.1520   -3.4050   15.1480 O   0  0  0  0  0
   32.2150   -5.6710   17.1710 C   0  0  0  0  0
   31.4030   -6.9610   17.3330 C   0  0  0  0  0
   30.5190   -6.8720   18.5650 C   0  0  0  0  0
   30.5740   -7.2510   16.0860 C   0  0  0  0  0
   34.9650   -4.0340   16.3200 N   0  0  0  0  0
   35.7180   -2.8240   16.0100 C   0  0  0  0  0
   36.0780   -2.8370   14.5340 C   0  0  0  0  0
   36.0970   -1.8010   13.8710 O   0  0  0  0  0
   37.0100   -2.7620   16.8260 C   0  0  0  0  0
   36.7730   -2.3980   18.2760 C   0  0  0  0  0
   35.6170   -2.0820   18.6310 O   0  0  0  0  0
   37.7460   -2.4290   19.0610 O   0  0  0  0  0
   36.3610   -4.0300   14.0280 N   0  0  0  0  0
   36.8710   -4.1880   12.6820 C   0  0  0  0  0
   35.7470   -4.2380   11.6510 C   0  0  0  0  0
   35.8790   -3.6960   10.5610 O   0  0  0  0  0
   37.7360   -5.4460   12.6020 C   0  0  0  0  0
   38.6640   -5.4840   11.4160 C   0  0  0  0  0
   39.9610   -5.0050   11.5100 C   0  0  0  0  0
   38.2430   -6.0020   10.2000 C   0  0  0  0  0
   40.8140   -5.0390   10.4220 C   0  0  0  0  0
   39.0830   -6.0410    9.1080 C   0  0  0  0  0
   40.3670   -5.5580    9.2220 C   0  0  0  0  0
   41.2040   -5.5940    8.1320 O   0  0  0  0  0
   34.6390   -4.8850   11.9900 N   0  0  0  0  0
   33.5530   -5.0420   11.0240 C   0  0  0  0  0
   32.3150   -4.2020   11.3420 C   0  0  0  0  0
   31.5130   -3.9190   10.4520 O   0  0  0  0  0
   33.2050   -6.5160   10.8310 C   0  0  0  0  0
   34.3100   -7.2820   10.1420 C   0  0  0  0  0
   35.2610   -7.9770   10.8740 C   0  0  0  0  0
   34.4170   -7.2880    8.7600 C   0  0  0  0  0
   36.2790   -8.6740   10.2450 C   0  0  0  0  0
   35.4310   -7.9780    8.1230 C   0  0  0  0  0
   36.3590   -8.6700    8.8690 C   0  0  0  0  0
   37.3700   -9.3580    8.2370 O   0  0  0  0  0
   32.1660   -3.8090   12.6050 N   0  0  0  0  0
   31.1400   -2.8370   12.9900 C   0  0  0  0  0
   29.8080   -3.3770   13.4890 C   0  0  0  0  0
   29.7690   -4.2620   14.3520 O   0  0  0  0  0
   28.7000   -2.8460   12.9390 N   0  0  0  0  0
   27.3410   -3.1140   13.4160 C   0  0  0  0  0
   26.8660   -4.5470   13.1430 C   0  0  0  0  0
   25.7000   -4.8800   13.3820 O   0  0  0  0  0
   26.4920   -2.1120   12.6260 C   0  0  0  0  0
   27.2450   -1.9030   11.3520 C   0  0  0  0  0
   28.7080   -2.0440   11.6990 C   0  0  0  0  0
   27.6260   -5.4070   12.6830 O   0  0  0  0  0
   42.2876  -13.1367   21.5271 H   0  0  0  0  0
   42.1635  -14.0591   20.1448 H   0  0  0  0  0
   43.4554  -13.0255   20.3435 H   0  0  0  0  0
   42.0553  -11.1058   20.2233 H   0  0  0  0  0
   42.9954  -12.0803   18.1469 H   0  0  0  0  0
   42.1249  -10.4580   16.9356 H   0  0  0  0  0
   41.2215  -10.0588   18.4795 H   0  0  0  0  0
   40.2500  -13.2888   17.7669 H   0  0  0  0  0
   41.5999  -13.3120   16.6057 H   0  0  0  0  0
   41.7378  -14.1896   18.1491 H   0  0  0  0  0
   40.1905  -11.6675   16.1473 H   0  0  0  0  0
   39.3127  -11.2796   17.6473 H   0  0  0  0  0
   39.7739   -9.9775   16.5236 H   0  0  0  0  0
   40.2392  -10.2037   20.8363 H   0  0  0  0  0
   38.2033  -12.0233   21.8385 H   0  0  0  0  0
   37.2218  -10.0768   22.9235 H   0  0  0  0  0
   38.0893   -7.9623   22.4127 H   0  0  0  0  0
   39.2781  -10.9501   23.9452 H   0  0  0  0  0
   40.2545   -9.8588   22.9320 H   0  0  0  0  0
   39.1601   -9.1870   24.1656 H   0  0  0  0  0
   35.8299  -11.2776   21.6770 H   0  0  0  0  0
   35.1267  -11.2881   18.8409 H   0  0  0  0  0
   33.5062  -11.1435   21.3775 H   0  0  0  0  0
   33.7828  -12.5749   20.2724 H   0  0  0  0  0
   33.0771  -11.9512   17.7401 H   0  0  0  0  0
   31.3963  -10.3293   21.3179 H   0  0  0  0  0
   31.0049  -11.3980   16.5160 H   0  0  0  0  0
   29.3183   -9.7951   20.1046 H   0  0  0  0  0
   29.1197  -10.3240   17.6979 H   0  0  0  0  0
   35.4394   -8.9101   21.3990 H   0  0  0  0  0
   33.9102   -6.8790   20.0001 H   0  0  0  0  0
   35.2094   -5.3379   21.6035 H   0  0  0  0  0
   35.8125   -6.8867   22.3260 H   0  0  0  0  0
   33.1788   -7.3715   22.2034 H   0  0  0  0  0
   33.1922   -5.5754   22.4851 H   0  0  0  0  0
   35.2894   -7.9379   23.6089 H   0  0  0  0  0
   37.1801   -8.0407   19.7762 H   0  0  0  0  0
   38.2357   -5.7811   18.3392 H   0  0  0  0  0
   39.9221   -7.3593   17.5013 H   0  0  0  0  0
   38.9834   -8.7065   18.2702 H   0  0  0  0  0
   41.1493   -8.7253   19.1867 H   0  0  0  0  0
   36.4094   -8.6870   17.4051 H   0  0  0  0  0
   36.6199   -8.2091   14.5857 H   0  0  0  0  0
   34.4858   -9.6198   14.5321 H   0  0  0  0  0
   34.8227   -9.8042   16.3556 H   0  0  0  0  0
   36.8756  -10.9068   15.8296 H   0  0  0  0  0
   34.8338  -12.2326   16.0730 H   0  0  0  0  0
   34.5066  -12.0604   14.3310 H   0  0  0  0  0
   35.9357  -12.9682   14.8831 H   0  0  0  0  0
   36.0194  -10.6114   12.9407 H   0  0  0  0  0
   37.3837   -9.7788   13.7260 H   0  0  0  0  0
   37.4153  -11.5482   13.5281 H   0  0  0  0  0
   34.4694   -6.9748   17.0721 H   0  0  0  0  0
   32.6122   -5.8927   15.0801 H   0  0  0  0  0
   31.4970   -4.8676   17.0066 H   0  0  0  0  0
   32.8258   -5.5707   18.0682 H   0  0  0  0  0
   32.0986   -7.7899   17.4640 H   0  0  0  0  0
   31.1418   -6.7281   19.4479 H   0  0  0  0  0
   29.8352   -6.0297   18.4599 H   0  0  0  0  0
   29.9478   -7.7946   18.6682 H   0  0  0  0  0
   29.8847   -6.4253   15.9094 H   0  0  0  0  0
   31.2372   -7.3622   15.2281 H   0  0  0  0  0
   30.0098   -8.1720   16.2325 H   0  0  0  0  0
   35.3621   -4.7198   16.9621 H   0  0  0  0  0
   35.1037   -1.9575   16.2548 H   0  0  0  0  0
   37.6439   -1.9909   16.3882 H   0  0  0  0  0
   37.4676   -3.7510   16.8012 H   0  0  0  0  0
   38.5339   -2.6958   18.5818 H   0  0  0  0  0
   36.2153   -4.8596   14.6033 H   0  0  0  0  0
   37.4816   -3.3163   12.4466 H   0  0  0  0  0
   37.0596   -6.2955   12.5080 H   0  0  0  0  0
   38.3577   -5.4659   13.4971 H   0  0  0  0  0
   40.3143   -4.5951   12.4562 H   0  0  0  0  0
   37.2272   -6.3860   10.1062 H   0  0  0  0  0
   41.8318   -4.6590   10.5105 H   0  0  0  0  0
   38.7331   -6.4514    8.1608 H   0  0  0  0  0
   40.7400   -5.9817    7.3863 H   0  0  0  0  0
   34.5448   -5.2742   12.9281 H   0  0  0  0  0
   33.9279   -4.6488   10.0790 H   0  0  0  0  0
   32.3138   -6.5735   10.2061 H   0  0  0  0  0
   33.0505   -6.9582   11.8152 H   0  0  0  0  0
   35.2063   -7.9746   11.9626 H   0  0  0  0  0
   33.6879   -6.7384    8.1646 H   0  0  0  0  0
   37.0131   -9.2228   10.8349 H   0  0  0  0  0
   35.4959   -7.9745    7.0349 H   0  0  0  0  0
   37.2814   -9.2534    7.2868 H   0  0  0  0  0
   32.7810   -4.1939   13.3219 H   0  0  0  0  0
   30.9081   -2.2815   12.0813 H   0  0  0  0  0
   31.5627   -2.2823   13.8277 H   0  0  0  0  0
   27.2729   -3.0105   14.4989 H   0  0  0  0  0
   26.3478   -1.1798   13.1721 H   0  0  0  0  0
   25.4832   -2.4840   12.4471 H   0  0  0  0  0
   27.0347   -0.9212   10.9279 H   0  0  0  0  0
   26.9485   -2.6306   10.5965 H   0  0  0  0  0
   29.2799   -2.5184   10.9015 H   0  0  0  0  0
   29.1980   -1.0794   11.8317 H   0  0  0  0  0
   28.4947   -5.0230   12.5433 H   0  0  0  0  0
  1  2  1  0  0  0
  2  3  1  0  0  0
  2  5  1  0  0  0
  3  4  2  0  0  0
  3  9  1  0  0  0
  5  6  1  0  0  0
  5  7  1  0  0  0
  6  8  1  0  0  0
  9 10  1  0  0  0
 10 11  1  0  0  0
 10 13  1  0  0  0
 11 12  2  0  0  0
 11 16  1  0  0  0
 13 14  1  0  0  0
 13 15  1  0  0  0
 16 17  1  0  0  0
 17 18  1  0  0  0
 17 20  1  0  0  0
 18 19  2  0  0  0
 18 27  1  0  0  0
 20 21  1  0  0  0
 21 22  4  0  0  0
 21 23  4  0  0  0
 22 24  4  0  0  0
 23 25  4  0  0  0
 24 26  4  0  0  0
 25 26  4  0  0  0
 27 28  1  0  0  0
 28 29  1  0  0  0
 28 31  1  0  0  0
 29 30  2  0  0  0
 29 36  1  0  0  0
 31 32  1  0  0  0
 32 33  1  0  0  0
 33 34  2  0  0  0
 33 35  1  0  0  0
 36 37  1  0  0  0
 37 38  1  0  0  0
 37 40  1  0  0  0
 38 39  2  0  0  0
 38 44  1  0  0  0
 40 41  1  0  0  0
 41 42  1  0  0  0
 41 43  2  0  0  0
 44 45  1  0  0  0
 45 46  1  0  0  0
 45 48  1  0  0  0
 46 47  2  0  0  0
 46 52  1  0  0  0
 48 49  1  0  0  0
 49 50  1  0  0  0
 49 51  1  0  0  0
 52 53  1  0  0  0
 53 54  1  0  0  0
 53 56  1  0  0  0
 54 55  2  0  0  0
 54 60  1  0  0  0
 56 57  1  0  0  0
 57 58  1  0  0  0
 57 59  1  0  0  0
 60 61  1  0  0  0
 61 62  1  0  0  0
 61 64  1  0  0  0
 62 63  2  0  0  0
 62 68  1  0  0  0
 64 65  1  0  0  0
 65 66  2  0  0  0
 65 67  1  0  0  0
 68 69  1  0  0  0
 69 70  1  0  0  0
 69 72  1  0  0  0
 70 71  2  0  0  0
 70 80  1  0  0  0
 72 73  1  0  0  0
 73 74  4  0  0  0
 73 75  4  0  0  0
 74 76  4  0  0  0
 75 77  4  0  0  0
 76 78  4  0  0  0
 77 78  4  0  0  0
 78 79  1  0  0  0
 80 81  1  0  0  0
 81 82  1  0  0  0
 81 84  1  0  0  0
 82 83  2  0  0  0
 82 92  1  0  0  0
 84 85  1  0  0  0
 85 86  4  0  0  0
 85 87  4  0  0  0
 86 88  4  0  0  0
 87 89  4  0  0  0
 88 90  4  0  0  0
 89 90  4  0  0  0
 90 91  1  0  0  0
 92 93  1  0  0  0
 93 94  1  0  0  0
 94 95  2  0  0  0
 94 96  1  0  0  0
 96 97  1  0  0  0
 96102  1  0  0  0
 97 98  1  0  0  0
 97100  1  0  0  0
 98 99  2  0  0  0
 98103  1  0  0  0
100101  1  0  0  0
101102  1  0  0  0
  1104  1  0  0  0
  1105  1  0  0  0
  1106  1  0  0  0
  2107  1  0  0  0
  5108  1  0  0  0
  6109  1  0  0  0
  6110  1  0  0  0
  7111  1  0  0  0
  7112  1  0  0  0
  7113  1  0  0  0
  8114  1  0  0  0
  8115  1  0  0  0
  8116  1  0  0  0
  9117  1  0  0  0
 10118  1  0  0  0
 13119  1  0  0  0
 14120  1  0  0  0
 15121  1  0  0  0
 15122  1  0  0  0
 15123  1  0  0  0
 16124  1  0  0  0
 17125  1  0  0  0
 20126  1  0  0  0
 20127  1  0  0  0
 22128  1  0  0  0
 23129  1  0  0  0
 24130  1  0  0  0
 25131  1  0  0  0
 26132  1  0  0  0
 27133  1  0  0  0
 28134  1  0  0  0
 31135  1  0  0  0
 31136  1  0  0  0
 32137  1  0  0  0
 32138  1  0  0  0
 35139  1  0  0  0
 36140  1  0  0  0
 37141  1  0  0  0
 40142  1  0  0  0
 40143  1  0  0  0
 42144  1  0  0  0
 44145  1  0  0  0
 45146  1  0  0  0
 48147  1  0  0  0
 48148  1  0  0  0
 49149  1  0  0  0
 50150  1  0  0  0
 50151  1  0  0  0
 50152  1  0  0  0
 51153  1  0  0  0
 51154  1  0  0  0
 51155  1  0  0  0
 52156  1  0  0  0
 53157  1  0  0  0
 56158  1  0  0  0
 56159  1  0  0  0
 57160  1  0  0  0
 58161  1  0  0  0
 58162  1  0  0  0
 58163  1  0  0  0
 59164  1  0  0  0
 59165  1  0  0  0
 59166  1  0  0  0
 60167  1  0  0  0
 61168  1  0  0  0
 64169  1  0  0  0
 64170  1  0  0  0
 67171  1  0  0  0
 68172  1  0  0  0
 69173  1  0  0  0
 72174  1  0  0  0
 72175  1  0  0  0
 74176  1  0  0  0
 75177  1  0  0  0
 76178  1  0  0  0
 77179  1  0  0  0
 79180  1  0  0  0
 80181  1  0  0  0
 81182  1  0  0  0
 84183  1  0  0  0
 84184  1  0  0  0
 86185  1  0  0  0
 87186  1  0  0  0
 88187  1  0  0  0
 89188  1  0  0  0
 91189  1  0  0  0
 92190  1  0  0  0
 93191  1  0  0  0
 93192  1  0  0  0
 97193  1  0  0  0
100194  1  0  0  0
100195  1  0  0  0
101196  1  0  0  0
101197  1  0  0  0
102198  1  0  0  0
102199  1  0  0  0
103200  1  0  0  0
M  END
$$$$
