### 
### Created by X-TOOL on Mon Sep 10 21:12:59 2018
### 

@<TRIPOS>MOLECULE
3ds3_ligand
  196   199     1     0     0
SMALL
GAST_HUCK


@<TRIPOS>ATOM
      1 N          42.4600  -13.1590   20.5220 N.4       1 ILE         0.2381
      2 CA         41.6870  -12.0660   19.8620 C.3       1 ILE         0.0676
      3 C          40.2040  -12.1480   20.2500 C.2       1 ILE         0.2270
      4 O          39.5530  -13.1800   20.0730 O.2       1 ILE        -0.3907
      5 CB         41.9190  -12.0590   18.3170 C.3       1 ILE         0.0164
      6 CG1        41.3880  -10.7740   17.6740 C.3       1 ILE        -0.0460
      7 CG2        41.3350  -13.3010   17.6630 C.3       1 ILE        -0.0551
      8 CD1        40.0740  -10.9360   16.9470 C.3       1 ILE        -0.0647
      9 N          39.6830  -11.0580   20.8030 N.am      1 THR        -0.2586
     10 CA         38.3360  -11.0510   21.3640 C.3       1 THR         0.1566
     11 C          37.2660  -10.8810   20.2970 C.2       1 THR         0.2066
     12 O          37.5640  -10.6240   19.1320 O.2       1 THR        -0.3943
     13 CB         38.1730   -9.9330   22.4110 C.3       1 THR         0.0924
     14 OG1        38.1910   -8.6570   21.7580 O.3       1 THR        -0.3874
     15 CG2        39.2970   -9.9860   23.4370 C.3       1 THR        -0.0346
     16 N          36.0120  -11.0240   20.7060 N.am      1 PHE        -0.2619
     17 CA         34.8910  -10.8270   19.8000 C.3       1 PHE         0.1404
     18 C          34.6560   -9.3400   19.5710 C.2       1 PHE         0.2060
     19 O          34.1470   -8.9350   18.5270 O.2       1 PHE        -0.3942
     20 CB         33.6360  -11.4980   20.3550 C.3       1 PHE         0.0214
     21 CG         32.3810  -11.1630   19.6070 C.ar      1 PHE        -0.0386
     22 CD1        32.2530  -11.4670   18.2640 C.ar      1 PHE        -0.0601
     23 CD2        31.3150  -10.5660   20.2570 C.ar      1 PHE        -0.0601
     24 CE1        31.0890  -11.1630   17.5770 C.ar      1 PHE        -0.0686
     25 CE2        30.1490  -10.2660   19.5790 C.ar      1 PHE        -0.0686
     26 CZ         30.0370  -10.5630   18.2360 C.ar      1 PHE        -0.0687
     27 N          35.0410   -8.5220   20.5440 N.am      1 GLU        -0.2635
     28 CA         34.9020   -7.0760   20.4070 C.3       1 GLU         0.1325
     29 C          35.9080   -6.4940   19.4210 C.2       1 GLU         0.2041
     30 O          35.6860   -5.4230   18.8590 O.2       1 GLU        -0.3944
     31 CB         35.0130   -6.3970   21.7700 C.3       1 GLU        -0.0008
     32 CG         33.7360   -6.5150   22.5830 C.3       1 GLU         0.0044
     33 CD         33.9930   -6.7490   24.0630 C.2       1 GLU         0.0350
     34 OE1        33.2970   -6.1150   24.8900 O.co2     1 GLU        -0.5690
     35 OE2        34.8830   -7.5700   24.3970 O.co2     1 GLU        -0.5690
     36 N          37.0090   -7.2090   19.2110 N.am      1 ASP        -0.2622
     37 CA         37.9750   -6.8290   18.1910 C.3       1 ASP         0.1423
     38 C          37.3640   -6.9960   16.8060 C.2       1 ASP         0.2056
     39 O          37.6100   -6.1880   15.9160 O.2       1 ASP        -0.3943
     40 CB         39.2560   -7.6520   18.3130 C.3       1 ASP         0.0406
     41 CG         39.9810   -7.4090   19.6240 C.2       1 ASP         0.0393
     42 OD1        40.9830   -8.1070   19.9020 O.co2     1 ASP        -0.5688
     43 OD2        39.5380   -6.5190   20.3820 O.co2     1 ASP        -0.5688
     44 N          36.5530   -8.0350   16.6340 N.am      1 LEU        -0.2636
     45 CA         35.8620   -8.2660   15.3670 C.3       1 LEU         0.1312
     46 C          34.8070   -7.2030   15.0810 C.2       1 LEU         0.2039
     47 O          34.5420   -6.8780   13.9270 O.2       1 LEU        -0.3944
     48 CB         35.2080   -9.6480   15.3480 C.3       1 LEU        -0.0101
     49 CG         36.1050  -10.8470   15.0610 C.3       1 LEU        -0.0425
     50 CD1        35.2880  -12.1160   15.0890 C.3       1 LEU        -0.0625
     51 CD2        36.7780  -10.6850   13.7200 C.3       1 LEU        -0.0625
     52 N          34.2050   -6.6680   16.1360 N.am      1 LEU        -0.2637
     53 CA         33.1750   -5.6520   15.9820 C.3       1 LEU         0.1312
     54 C          33.7700   -4.2600   15.7810 C.2       1 LEU         0.2040
     55 O          33.1520   -3.4050   15.1480 O.2       1 LEU        -0.3944
     56 CB         32.2150   -5.6710   17.1710 C.3       1 LEU        -0.0101
     57 CG         31.4030   -6.9610   17.3330 C.3       1 LEU        -0.0425
     58 CD1        30.5190   -6.8720   18.5650 C.3       1 LEU        -0.0625
     59 CD2        30.5740   -7.2510   16.0860 C.3       1 LEU        -0.0625
     60 N          34.9650   -4.0340   16.3200 N.am      1 ASP        -0.2622
     61 CA         35.7180   -2.8240   16.0100 C.3       1 ASP         0.1423
     62 C          36.0780   -2.8370   14.5340 C.2       1 ASP         0.2057
     63 O          36.0970   -1.8010   13.8710 O.2       1 ASP        -0.3943
     64 CB         37.0100   -2.7620   16.8260 C.3       1 ASP         0.0406
     65 CG         36.7730   -2.3980   18.2760 C.2       1 ASP         0.0393
     66 OD1        35.6170   -2.0820   18.6310 O.co2     1 ASP        -0.5688
     67 OD2        37.7460   -2.4290   19.0610 O.co2     1 ASP        -0.5688
     68 N          36.3610   -4.0300   14.0280 N.am      1 TYR        -0.2620
     69 CA         36.8710   -4.1880   12.6820 C.3       1 TYR         0.1390
     70 C          35.7470   -4.2380   11.6510 C.2       1 TYR         0.2058
     71 O          35.8790   -3.6960   10.5610 O.2       1 TYR        -0.3942
     72 CB         37.7360   -5.4460   12.6020 C.3       1 TYR         0.0163
     73 CG         38.6640   -5.4840   11.4160 C.ar      1 TYR        -0.0493
     74 CD1        39.9610   -5.0050   11.5100 C.ar      1 TYR        -0.0685
     75 CD2        38.2430   -6.0020   10.2000 C.ar      1 TYR        -0.0685
     76 CE1        40.8140   -5.0390   10.4220 C.ar      1 TYR        -0.0398
     77 CE2        39.0830   -6.0410    9.1080 C.ar      1 TYR        -0.0398
     78 CZ         40.3670   -5.5580    9.2220 C.ar      1 TYR         0.0805
     79 OH         41.2040   -5.5940    8.1320 O.3       1 TYR        -0.3376
     80 N          34.6390   -4.8850   11.9900 N.am      1 TYR        -0.2620
     81 CA         33.5530   -5.0420   11.0240 C.3       1 TYR         0.1390
     82 C          32.3150   -4.2020   11.3420 C.2       1 TYR         0.2055
     83 O          31.5130   -3.9190   10.4520 O.2       1 TYR        -0.3942
     84 CB         33.2050   -6.5160   10.8310 C.3       1 TYR         0.0163
     85 CG         34.3100   -7.2820   10.1420 C.ar      1 TYR        -0.0493
     86 CD1        35.2610   -7.9770   10.8740 C.ar      1 TYR        -0.0685
     87 CD2        34.4170   -7.2880    8.7600 C.ar      1 TYR        -0.0685
     88 CE1        36.2790   -8.6740   10.2450 C.ar      1 TYR        -0.0398
     89 CE2        35.4310   -7.9780    8.1230 C.ar      1 TYR        -0.0398
     90 CZ         36.3590   -8.6700    8.8690 C.ar      1 TYR         0.0805
     91 OH         37.3700   -9.3580    8.2370 O.3       1 TYR        -0.3376
     92 N          32.1660   -3.8090   12.6050 N.am      1 GLY        -0.2663
     93 CA         31.1400   -2.8370   12.9900 C.3       1 GLY         0.1203
     94 C          29.8080   -3.3770   13.4890 C.2       1 GLY         0.2027
     95 O          29.7690   -4.2620   14.3520 O.2       1 GLY        -0.3945
     96 N          28.7000   -2.8460   12.9390 N.am      1 PRO        -0.2558
     97 CA         27.3410   -3.1140   13.4160 C.3       1 PRO         0.0972
     98 C          26.8660   -4.5470   13.1430 C.2       1 PRO         0.0603
     99 O          25.7000   -4.8800   13.3820 O.co2     1 PRO        -0.5666
    100 CB         26.4920   -2.1120   12.6260 C.3       1 PRO        -0.0159
    101 CG         27.2450   -1.9030   11.3520 C.3       1 PRO        -0.0288
    102 CD         28.7080   -2.0440   11.6990 C.3       1 PRO         0.0362
    103 OXT        27.6260   -5.4070   12.6830 O.co2     1 PRO        -0.5666
    104 H1         42.2904  -13.1379   21.5154 H         1 ILE         0.2015
    105 H2         43.4439  -13.0281   20.3463 H         1 ILE         0.2015
    106 H3         42.1678  -14.0491   20.1501 H         1 ILE         0.2015
    107 H4         42.0704  -11.1101   20.2482 H         1 ILE         0.1101
    108 H5         43.0059  -12.0822   18.1491 H         1 ILE         0.0378
    109 H6         42.1376  -10.4148   16.9535 H         1 ILE         0.0269
    110 H7         41.2521  -10.0235   18.4667 H         1 ILE         0.0269
    111 H8         41.7408  -14.1985   18.1527 H         1 ILE         0.0236
    112 H9         41.6017  -13.3133   16.5959 H         1 ILE         0.0236
    113 H10        40.2400  -13.2899   17.7672 H         1 ILE         0.0236
    114 H11        39.7701   -9.9693   16.5192 H         1 ILE         0.0230
    115 H12        39.3048  -11.2827   17.6527 H         1 ILE         0.0230
    116 H13        40.1902  -11.6739   16.1396 H         1 ILE         0.0230
    117 H14        40.2283  -10.2204   20.8356 H         1 THR         0.1885
    118 H15        38.1752  -12.0190   21.8610 H         1 THR         0.0826
    119 H16        37.2101  -10.0636   22.9265 H         1 THR         0.0639
    120 H17        39.0179   -8.5467   21.3035 H         1 THR         0.2101
    121 H18        39.1599   -9.1800   24.1729 H         1 THR         0.0257
    122 H19        40.2640   -9.8577   22.9286 H         1 THR         0.0257
    123 H20        39.2790  -10.9585   23.9507 H         1 THR         0.0257
    124 H21        35.8335  -11.2727   21.6580 H         1 PHE         0.1885
    125 H22        35.1356  -11.2932   18.8342 H         1 PHE         0.0823
    126 H23        33.5093  -11.1822   21.4010 H         1 PHE         0.0474
    127 H24        33.7809  -12.5877   20.3159 H         1 PHE         0.0474
    128 H25        33.0726  -11.9485   17.7430 H         1 PHE         0.0557
    129 H26        31.3958  -10.3306   21.3120 H         1 PHE         0.0557
    130 H27        31.0054  -11.3968   16.5218 H         1 PHE         0.0599
    131 H28        29.3228   -9.7977   20.1017 H         1 PHE         0.0599
    132 H29        29.1248  -10.3253   17.7008 H         1 PHE         0.0559
    133 H30        35.4316   -8.9025   21.3822 H         1 GLU         0.1883
    134 H31        33.8958   -6.8741   20.0111 H         1 GLU         0.0801
    135 H32        35.2362   -5.3309   21.6161 H         1 GLU         0.0330
    136 H33        35.8339   -6.8661   22.3322 H         1 GLU         0.0330
    137 H34        33.1482   -7.3584   22.1918 H         1 GLU         0.0433
    138 H35        33.1614   -5.5839   22.4701 H         1 GLU         0.0433
    139 H36        37.1768   -8.0244   19.7651 H         1 ASP         0.1884
    140 H37        38.2312   -5.7688   18.3339 H         1 ASP         0.0819
    141 H38        39.9275   -7.3843   17.4839 H         1 ASP         0.0478
    142 H39        38.9974   -8.7190   18.2456 H         1 ASP         0.0478
    143 H40        36.4122   -8.6743   17.3900 H         1 LEU         0.1883
    144 H41        36.6121   -8.2268   14.5634 H         1 LEU         0.0800
    145 H42        34.4239   -9.6310   14.5767 H         1 LEU         0.0315
    146 H43        34.7486   -9.8088   16.3344 H         1 LEU         0.0315
    147 H44        36.8792  -10.9062   15.8401 H         1 LEU         0.0298
    148 H45        35.9406  -12.9768   14.8813 H         1 LEU         0.0232
    149 H46        34.4991  -12.0611   14.3244 H         1 LEU         0.0232
    150 H47        34.8291  -12.2348   16.0816 H         1 LEU         0.0232
    151 H48        37.3685   -9.7570   13.7159 H         1 LEU         0.0232
    152 H49        36.0143  -10.6371   12.9298 H         1 LEU         0.0232
    153 H50        37.4418  -11.5428   13.5369 H         1 LEU         0.0232
    154 H51        34.4642   -6.9688   17.0538 H         1 LEU         0.1883
    155 H52        32.5968   -5.8988   15.0793 H         1 LEU         0.0800
    156 H53        31.5082   -4.8367   17.0512 H         1 LEU         0.0315
    157 H54        32.8051   -5.5230   18.0874 H         1 LEU         0.0315
    158 H55        32.1072   -7.7941   17.4745 H         1 LEU         0.0298
    159 H56        29.9420   -7.8026   18.6702 H         1 LEU         0.0232
    160 H57        29.8284   -6.0223   18.4602 H         1 LEU         0.0232
    161 H58        31.1464   -6.7268   19.4568 H         1 LEU         0.0232
    162 H59        31.2372   -7.3102   15.2104 H         1 LEU         0.0232
    163 H60        29.8412   -6.4443   15.9370 H         1 LEU         0.0232
    164 H61        30.0458   -8.2077   16.2111 H         1 LEU         0.0232
    165 H62        35.3543   -4.7064   16.9496 H         1 ASP         0.1884
    166 H63        35.1005   -1.9421   16.2358 H         1 ASP         0.0819
    167 H64        37.6723   -2.0065   16.3781 H         1 ASP         0.0478
    168 H65        37.4979   -3.7471   16.7865 H         1 ASP         0.0478
    169 H66        36.2181   -4.8433   14.5920 H         1 TYR         0.1885
    170 H67        37.5034   -3.3180   12.4514 H         1 TYR         0.0821
    171 H68        37.0698   -6.3196   12.5466 H         1 TYR         0.0453
    172 H69        38.3435   -5.5055   13.5171 H         1 TYR         0.0453
    173 H70        40.3124   -4.5973   12.4510 H         1 TYR         0.0530
    174 H71        37.2328   -6.3839   10.1067 H         1 TYR         0.0530
    175 H72        41.8262   -4.6611   10.5100 H         1 TYR         0.0525
    176 H73        38.7350   -6.4491    8.1660 H         1 TYR         0.0525
    177 H74        42.0476   -5.2276    8.3697 H         1 TYR         0.2458
    178 H75        34.5466   -5.2666   12.9097 H         1 TYR         0.1885
    179 H76        33.9363   -4.6750   10.0605 H         1 TYR         0.0821
    180 H77        32.2924   -6.5868   10.2210 H         1 TYR         0.0453
    181 H78        33.0231   -6.9683   11.8170 H         1 TYR         0.0453
    182 H79        35.2066   -7.9746   11.9566 H         1 TYR         0.0530
    183 H80        33.6919   -6.7414    8.1679 H         1 TYR         0.0530
    184 H81        37.0090   -9.2198   10.8317 H         1 TYR         0.0525
    185 H82        35.4956   -7.9745    7.0409 H         1 TYR         0.0525
    186 H83        37.9205   -9.7780    8.8874 H         1 TYR         0.2458
    187 H84        32.7690   -4.1864   13.3079 H         1 GLY         0.1881
    188 H85        30.9321   -2.2120   12.1090 H         1 GLY         0.0763
    189 H86        31.5625   -2.2127   13.7911 H         1 GLY         0.0763
    190 H87        27.2729   -2.9185   14.4963 H         1 PRO         0.0728
    191 H88        26.3932   -1.1660   13.1785 H         1 PRO         0.0306
    192 H89        25.4926   -2.5244   12.4233 H         1 PRO         0.0306
    193 H90        27.0435   -0.8990   10.9503 H         1 PRO         0.0286
    194 H91        26.9547   -2.6603   10.6089 H         1 PRO         0.0286
    195 H92        29.2521   -2.5660   10.8981 H         1 PRO         0.0524
    196 H93        29.1663   -1.0592   11.8722 H         1 PRO         0.0524
@<TRIPOS>BOND
     1    1    2 1  
     2    2    3 1  
     3    2    5 1  
     4    3    4 2  
     5    3    9 am 
     6    5    6 1  
     7    5    7 1  
     8    6    8 1  
     9    9   10 1  
    10   10   11 1  
    11   10   13 1  
    12   11   12 2  
    13   11   16 am 
    14   13   14 1  
    15   13   15 1  
    16   16   17 1  
    17   17   18 1  
    18   17   20 1  
    19   18   19 2  
    20   18   27 am 
    21   20   21 1  
    22   21   22 ar 
    23   21   23 ar 
    24   22   24 ar 
    25   23   25 ar 
    26   24   26 ar 
    27   25   26 ar 
    28   27   28 1  
    29   28   29 1  
    30   28   31 1  
    31   29   30 2  
    32   29   36 am 
    33   31   32 1  
    34   32   33 1  
    35   33   34 ar 
    36   33   35 ar 
    37   36   37 1  
    38   37   38 1  
    39   37   40 1  
    40   38   39 2  
    41   38   44 am 
    42   40   41 1  
    43   41   42 ar 
    44   41   43 ar 
    45   44   45 1  
    46   45   46 1  
    47   45   48 1  
    48   46   47 2  
    49   46   52 am 
    50   48   49 1  
    51   49   50 1  
    52   49   51 1  
    53   52   53 1  
    54   53   54 1  
    55   53   56 1  
    56   54   55 2  
    57   54   60 am 
    58   56   57 1  
    59   57   58 1  
    60   57   59 1  
    61   60   61 1  
    62   61   62 1  
    63   61   64 1  
    64   62   63 2  
    65   62   68 am 
    66   64   65 1  
    67   65   66 ar 
    68   65   67 ar 
    69   68   69 1  
    70   69   70 1  
    71   69   72 1  
    72   70   71 2  
    73   70   80 am 
    74   72   73 1  
    75   73   74 ar 
    76   73   75 ar 
    77   74   76 ar 
    78   75   77 ar 
    79   76   78 ar 
    80   77   78 ar 
    81   78   79 1  
    82   80   81 1  
    83   81   82 1  
    84   81   84 1  
    85   82   83 2  
    86   82   92 am 
    87   84   85 1  
    88   85   86 ar 
    89   85   87 ar 
    90   86   88 ar 
    91   87   89 ar 
    92   88   90 ar 
    93   89   90 ar 
    94   90   91 1  
    95   92   93 1  
    96   93   94 1  
    97   94   95 2  
    98   94   96 am 
    99   96   97 1  
   100   96  102 1  
   101   97   98 1  
   102   97  100 1  
   103   98   99 ar 
   104   98  103 ar 
   105  100  101 1  
   106  101  102 1  
   107    1  104 1  
   108    1  105 1  
   109    1  106 1  
   110    2  107 1  
   111    5  108 1  
   112    6  109 1  
   113    6  110 1  
   114    7  111 1  
   115    7  112 1  
   116    7  113 1  
   117    8  114 1  
   118    8  115 1  
   119    8  116 1  
   120    9  117 1  
   121   10  118 1  
   122   13  119 1  
   123   14  120 1  
   124   15  121 1  
   125   15  122 1  
   126   15  123 1  
   127   16  124 1  
   128   17  125 1  
   129   20  126 1  
   130   20  127 1  
   131   22  128 1  
   132   23  129 1  
   133   24  130 1  
   134   25  131 1  
   135   26  132 1  
   136   27  133 1  
   137   28  134 1  
   138   31  135 1  
   139   31  136 1  
   140   32  137 1  
   141   32  138 1  
   142   36  139 1  
   143   37  140 1  
   144   40  141 1  
   145   40  142 1  
   146   44  143 1  
   147   45  144 1  
   148   48  145 1  
   149   48  146 1  
   150   49  147 1  
   151   50  148 1  
   152   50  149 1  
   153   50  150 1  
   154   51  151 1  
   155   51  152 1  
   156   51  153 1  
   157   52  154 1  
   158   53  155 1  
   159   56  156 1  
   160   56  157 1  
   161   57  158 1  
   162   58  159 1  
   163   58  160 1  
   164   58  161 1  
   165   59  162 1  
   166   59  163 1  
   167   59  164 1  
   168   60  165 1  
   169   61  166 1  
   170   64  167 1  
   171   64  168 1  
   172   68  169 1  
   173   69  170 1  
   174   72  171 1  
   175   72  172 1  
   176   74  173 1  
   177   75  174 1  
   178   76  175 1  
   179   77  176 1  
   180   79  177 1  
   181   80  178 1  
   182   81  179 1  
   183   84  180 1  
   184   84  181 1  
   185   86  182 1  
   186   87  183 1  
   187   88  184 1  
   188   89  185 1  
   189   91  186 1  
   190   92  187 1  
   191   93  188 1  
   192   93  189 1  
   193   97  190 1  
   194  100  191 1  
   195  100  192 1  
   196  101  193 1  
   197  101  194 1  
   198  102  195 1  
   199  102  196 1  
@<TRIPOS>SUBSTRUCTURE
     1 ILE         1

