5ufp_ligand
  -I-interpret- 

 38 40  0  0  0  0  0  0  0  0999 V2000
   18.3100    1.9410   -8.7160 N   0  0  0  0  0
   18.9120    1.1270   -9.3150 C   0  0  0  0  0
   19.5830    0.2130   -9.9630 C   0  0  0  0  0
   20.8850    0.5090  -10.4280 C   0  0  0  0  0
   21.5910   -0.4770  -11.0890 C   0  0  0  0  0
   21.0290   -1.7370  -11.2840 C   0  0  0  0  0
   19.7450   -2.0330  -10.8310 C   0  0  0  0  0
   19.1980   -3.2700  -11.0210 F   0  0  0  0  0
   19.0130   -1.0520  -10.1410 C   0  0  0  0  0
   22.8260   -0.1180  -11.5840 O   0  0  0  0  0
   23.9210   -0.2670  -10.8080 C   0  0  0  0  0
   25.0950    0.1020  -11.4120 C   0  0  0  0  0
   25.2600    0.6100  -12.8590 C   0  0  0  0  0
   26.7870    0.3910  -13.0280 C   0  0  0  0  0
   27.2240    1.3380  -13.8450 F   0  0  0  0  0
   27.1030   -0.7900  -13.5500 F   0  0  0  0  0
   26.2590   -0.1050  -10.7280 C   0  0  0  0  0
   27.3980    0.3410  -11.6270 C   0  0  0  0  0
   27.7610    1.6840  -11.2240 O   0  0  0  0  0
   26.2540   -0.6390   -9.4050 C   0  0  0  0  0
   25.0390   -0.9400   -8.7660 C   0  0  0  0  0
   23.8310   -0.7230   -9.4990 C   0  0  0  0  0
   27.6450   -0.8970   -8.5240 S   0  0  0  0  0
   28.5410   -1.4070   -9.4620 O   0  0  0  0  0
   27.4240   -1.9180   -7.5080 O   0  0  0  0  0
   28.1070    0.5370   -7.8650 C   0  0  0  0  0
   27.3650    0.5720   -6.7430 F   0  0  0  0  0
   27.5910    1.5300   -8.5960 F   0  0  0  0  0
   21.3223    1.4945  -10.2682 H   0  0  0  0  0
   21.6044   -2.5053  -11.8004 H   0  0  0  0  0
   18.0192   -1.2727   -9.7515 H   0  0  0  0  0
   24.9236    1.6333  -13.0255 H   0  0  0  0  0
   24.6405    0.0995  -13.5963 H   0  0  0  0  0
   28.2731   -0.3073  -11.5825 H   0  0  0  0  0
   28.1455    1.6601  -10.3447 H   0  0  0  0  0
   25.0184   -1.3256   -7.7467 H   0  0  0  0  0
   22.8602   -0.9113   -9.0406 H   0  0  0  0  0
   29.1884    0.6285   -7.7640 H   0  0  0  0  0
  1  2  3  0  0  0
  2  3  1  0  0  0
  3  4  4  0  0  0
  3  9  4  0  0  0
  4  5  4  0  0  0
  5  6  4  0  0  0
  5 10  1  0  0  0
  6  7  4  0  0  0
  7  8  1  0  0  0
  7  9  4  0  0  0
 10 11  1  0  0  0
 11 12  4  0  0  0
 11 22  4  0  0  0
 12 13  1  0  0  0
 12 17  4  0  0  0
 13 14  1  0  0  0
 14 15  1  0  0  0
 14 16  1  0  0  0
 14 18  1  0  0  0
 17 18  1  0  0  0
 17 20  4  0  0  0
 18 19  1  0  0  0
 20 21  4  0  0  0
 20 23  1  0  0  0
 21 22  4  0  0  0
 23 24  2  0  0  0
 23 25  2  0  0  0
 23 26  1  0  0  0
 26 27  1  0  0  0
 26 28  1  0  0  0
  4 29  1  0  0  0
  6 30  1  0  0  0
  9 31  1  0  0  0
 13 32  1  0  0  0
 13 33  1  0  0  0
 18 34  1  0  0  0
 19 35  1  0  0  0
 21 36  1  0  0  0
 22 37  1  0  0  0
 26 38  1  0  0  0
M  END
$$$$
