4fak_ligand
  -I-interpret- 

 51 53  0  0  0  0  0  0  0  0999 V2000
   -3.6230   -7.0800   -0.9520 N   0  3  0  0  0
   -4.7070   -7.6800   -0.1000 C   0  0  0  0  0
   -5.3940   -6.5460    0.7550 C   0  0  0  0  0
   -4.8220   -5.4040    0.4910 O   0  0  0  0  0
   -6.4470   -6.8420    1.6280 O   0  0  0  0  0
   -4.1110   -8.8180    0.8110 C   0  0  0  0  0
   -5.1280   -9.5420    1.7270 C   0  0  0  0  0
   -4.6490  -10.8920    2.9110 S   0  0  0  0  0
   -3.3020  -11.8830    2.1000 C   0  0  0  0  0
   -6.0770  -11.9940    3.1110 C   0  0  0  0  0
   -7.0570  -11.5480    4.1980 C   0  0  0  0  0
   -6.4950  -11.6980    5.4570 O   0  0  0  0  0
   -7.4270  -10.0700    4.1090 C   0  0  0  0  0
   -8.5250   -9.9530    3.2840 O   0  0  0  0  0
   -7.7260   -9.7030    5.5660 C   0  0  0  0  0
   -9.0500   -9.9480    5.8840 O   0  0  0  0  0
   -6.8140  -10.6490    6.3460 C   0  0  0  0  0
   -5.5700   -9.9140    6.8370 N   0  0  0  0  0
   -4.2630  -10.1720    6.4760 C   0  0  0  0  0
   -3.4510   -9.3540    7.1060 N   0  0  0  0  0
   -4.1990   -8.5610    7.8900 C   0  0  0  0  0
   -3.9220   -7.5140    8.8010 C   0  0  0  0  0
   -2.6680   -7.0740    9.0770 N   0  0  0  0  0
   -4.9810   -6.9040    9.4630 N   0  0  0  0  0
   -6.2680   -7.2560    9.2560 C   0  0  0  0  0
   -6.5310   -8.2410    8.3730 N   0  0  0  0  0
   -5.5370   -8.9020    7.6950 C   0  0  0  0  0
   -4.0199   -6.3449   -1.5373 H   0  0  0  0  0
   -2.8997   -6.6846   -0.3512 H   0  0  0  0  0
   -3.2166   -7.8049   -1.5434 H   0  0  0  0  0
   -5.4683   -8.1332   -0.7350 H   0  0  0  0  0
   -6.6349   -7.7828    1.5935 H   0  0  0  0  0
   -3.3863   -8.3397    1.4699 H   0  0  0  0  0
   -3.7073   -9.5742    0.1378 H   0  0  0  0  0
   -5.7775  -10.0549    1.0176 H   0  0  0  0  0
   -5.4754   -8.7470    2.3868 H   0  0  0  0  0
   -3.6750  -12.3053    1.1669 H   0  0  0  0  0
   -2.4507  -11.2348    1.8922 H   0  0  0  0  0
   -2.9932  -12.6880    2.7669 H   0  0  0  0  0
   -5.6935  -12.9720    3.4018 H   0  0  0  0  0
   -6.6200  -11.9956    2.1659 H   0  0  0  0  0
   -7.9379  -12.1717    4.0456 H   0  0  0  0  0
   -6.6637   -9.4140    3.6905 H   0  0  0  0  0
   -8.7745   -9.0286    3.2145 H   0  0  0  0  0
   -7.5579   -8.6477    5.7808 H   0  0  0  0  0
   -9.2073   -9.7092    6.8004 H   0  0  0  0  0
   -7.2995  -11.0397    7.2403 H   0  0  0  0  0
   -3.9503  -10.9422    5.7710 H   0  0  0  0  0
   -1.8645   -7.5028    8.6178 H   0  0  0  0  0
   -2.5292   -6.3146    9.7436 H   0  0  0  0  0
   -7.0757   -6.7557    9.7902 H   0  0  0  0  0
  1  2  1  0  0  0
  2  3  1  0  0  0
  2  6  1  0  0  0
  3  4  2  0  0  0
  3  5  1  0  0  0
  6  7  1  0  0  0
  7  8  1  0  0  0
  8  9  1  0  0  0
  8 10  1  0  0  0
 10 11  1  0  0  0
 11 12  1  0  0  0
 11 13  1  0  0  0
 12 17  1  0  0  0
 13 14  1  0  0  0
 13 15  1  0  0  0
 15 16  1  0  0  0
 15 17  1  0  0  0
 17 18  1  0  0  0
 18 19  4  0  0  0
 18 27  4  0  0  0
 19 20  4  0  0  0
 20 21  4  0  0  0
 21 22  4  0  0  0
 21 27  4  0  0  0
 22 23  1  0  0  0
 22 24  4  0  0  0
 24 25  4  0  0  0
 25 26  4  0  0  0
 26 27  4  0  0  0
  1 28  1  0  0  0
  1 29  1  0  0  0
  1 30  1  0  0  0
  2 31  1  0  0  0
  5 32  1  0  0  0
  6 33  1  0  0  0
  6 34  1  0  0  0
  7 35  1  0  0  0
  7 36  1  0  0  0
  9 37  1  0  0  0
  9 38  1  0  0  0
  9 39  1  0  0  0
 10 40  1  0  0  0
 10 41  1  0  0  0
 11 42  1  0  0  0
 13 43  1  0  0  0
 14 44  1  0  0  0
 15 45  1  0  0  0
 16 46  1  0  0  0
 17 47  1  0  0  0
 19 48  1  0  0  0
 23 49  1  0  0  0
 23 50  1  0  0  0
 25 51  1  0  0  0
M  END
$$$$
