6bh5_ligand
  -I-interpret- 

 56 59  0  0  0  0  0  0  0  0999 V2000
  -24.1110   23.4360    2.1220 C   0  0  0  0  0
  -26.4290   21.3960   -3.5270 C   0  0  0  0  0
  -26.0370   23.8390   -3.6630 C   0  0  0  0  0
  -24.6640   20.1880    3.2550 C   0  0  0  0  0
  -24.0630   19.1050    3.9650 C   0  0  0  0  0
  -23.4470   18.6980    6.3540 C   0  0  0  0  0
  -22.9870   17.4620    5.9340 C   0  0  0  0  0
  -27.6590   23.0570    5.4350 C   0  0  0  0  0
  -29.0260   23.0560    5.7450 C   0  0  0  0  0
  -29.9360   22.5600    4.8130 C   0  0  0  0  0
  -29.4510   22.0790    3.5980 C   0  0  0  0  0
  -28.0810   22.0950    3.3240 C   0  0  0  0  0
  -27.1230   22.5900    4.2320 C   0  0  0  0  0
  -25.5940   22.6010    3.9170 C   0  0  0  0  0
  -23.9260   23.0240    0.6180 C   0  0  0  0  0
  -25.2180   22.4930   -0.0820 C   0  0  0  0  0
  -25.7740   21.2540   -2.1520 C   0  0  0  0  0
  -25.7870   22.5030   -4.3220 C   0  0  0  0  0
  -25.7790   23.7940   -2.1450 C   0  0  0  0  0
  -24.9510   21.2210    4.1200 C   0  0  0  0  0
  -23.9910   19.5170    5.3260 C   0  0  0  0  0
  -23.3710   19.1480    7.8190 C   0  0  0  0  0
  -23.0780   17.0880    4.5550 C   0  0  0  0  0
  -25.1590   22.5200   -1.5860 N   0  3  0  0  0
  -24.5460   20.8410    5.4400 N   0  0  0  0  0
  -23.5910   17.8610    3.5940 N   0  0  0  0  0
  -25.4120   23.0930    2.6030 O   0  0  0  0  0
  -24.0760   20.1220    8.1550 O   0  0  0  0  0
  -22.6150   18.5030    8.5590 O   0  0  0  0  0
  -26.5810   23.6910    6.6470 Cl  0  0  0  0  0
  -23.9872   24.5160    2.2018 H   0  0  0  0  0
  -23.3708   22.9036    2.7193 H   0  0  0  0  0
  -27.4838   21.6329   -3.3880 H   0  0  0  0  0
  -26.3054   20.4593   -4.0706 H   0  0  0  0  0
  -27.0816   24.1065   -3.8224 H   0  0  0  0  0
  -25.3554   24.5674   -4.1022 H   0  0  0  0  0
  -24.8664   20.1963    2.1840 H   0  0  0  0  0
  -22.5535   16.7703    6.6563 H   0  0  0  0  0
  -29.3736   23.4389    6.7045 H   0  0  0  0  0
  -31.0042   22.5485    5.0297 H   0  0  0  0  0
  -30.1462   21.6872    2.8555 H   0  0  0  0  0
  -27.7375   21.7073    2.3650 H   0  0  0  0  0
  -25.0836   23.2598    4.6195 H   0  0  0  0  0
  -23.2005   22.2107    0.6005 H   0  0  0  0  0
  -23.6217   23.9218    0.0799 H   0  0  0  0  0
  -26.0385   23.1439    0.2198 H   0  0  0  0  0
  -25.3415   21.4521    0.2168 H   0  0  0  0  0
  -24.9593   20.5394   -2.2692 H   0  0  0  0  0
  -26.5638   20.9578   -1.4617 H   0  0  0  0  0
  -26.2167   22.5156   -5.3236 H   0  0  0  0  0
  -24.7124   22.3273   -4.3711 H   0  0  0  0  0
  -26.7583   23.8796   -1.6742 H   0  0  0  0  0
  -25.0608   24.5883   -1.9417 H   0  0  0  0  0
  -22.7030   16.1051    4.2698 H   0  0  0  0  0
  -24.1833   22.5384   -1.8827 H   0  0  0  0  0
  -24.5667   20.4384    7.3930 H   0  0  0  0  0
 15  1  1  0  0  0
  1 27  1  0  0  0
 17  2  1  0  0  0
  2 18  1  0  0  0
 18  3  1  0  0  0
  3 19  1  0  0  0
  4  5  4  0  0  0
 20  4  4  0  0  0
  5 21  4  0  0  0
  5 26  4  0  0  0
  6  7  4  0  0  0
 21  6  4  0  0  0
  6 22  1  0  0  0
  7 23  4  0  0  0
  8  9  4  0  0  0
 13  8  4  0  0  0
  8 30  1  0  0  0
  9 10  4  0  0  0
 11 10  4  0  0  0
 12 11  4  0  0  0
 13 12  4  0  0  0
 14 13  1  0  0  0
 14 20  1  0  0  0
 27 14  1  0  0  0
 16 15  1  0  0  0
 24 16  1  0  0  0
 17 24  1  0  0  0
 19 24  1  0  0  0
 20 25  4  0  0  0
 21 25  4  0  0  0
 22 28  1  0  0  0
 22 29  2  0  0  0
 23 26  4  0  0  0
  1 31  1  0  0  0
  1 32  1  0  0  0
  2 33  1  0  0  0
  2 34  1  0  0  0
  3 35  1  0  0  0
  3 36  1  0  0  0
  4 37  1  0  0  0
  7 38  1  0  0  0
  9 39  1  0  0  0
 10 40  1  0  0  0
 11 41  1  0  0  0
 12 42  1  0  0  0
 14 43  1  0  0  0
 15 44  1  0  0  0
 15 45  1  0  0  0
 16 46  1  0  0  0
 16 47  1  0  0  0
 17 48  1  0  0  0
 17 49  1  0  0  0
 18 50  1  0  0  0
 18 51  1  0  0  0
 19 52  1  0  0  0
 19 53  1  0  0  0
 23 54  1  0  0  0
 24 55  1  0  0  0
 28 56  1  0  0  0
M  END
$$$$
