4a22_ligand
  -I-interpret- 

 34 33  0  0  0  0  0  0  0  0999 V2000
  -11.3080  -63.9170  -32.1300 O   0  0  0  0  0
  -11.9600  -62.7060  -31.8610 N   0  0  0  0  0
  -13.2710  -62.4910  -32.4400 C   0  0  0  0  0
  -14.4290  -63.2990  -31.8600 C   0  0  0  0  0
  -15.3360  -64.0260  -32.8470 C   0  0  0  0  0
  -16.4950  -64.8280  -32.2680 C   0  0  0  0  0
  -17.3150  -65.4980  -33.1790 O   0  0  0  0  0
  -18.8030  -64.9030  -33.5440 P   0  0  0  0  0
  -19.9250  -66.1170  -33.6040 O   0  0  0  0  0
  -19.2330  -63.7570  -32.4360 O   0  0  0  0  0
  -18.7510  -64.2400  -34.8460 O   0  0  0  0  0
  -11.5270  -61.9290  -30.7130 C   0  0  0  0  0
  -10.5940  -62.2880  -30.0610 O   0  0  0  0  0
  -12.2290  -60.6180  -30.3790 C   0  0  0  0  0
  -12.4400  -60.3380  -29.0290 O   0  0  0  0  0
  -13.3300  -59.0090  -28.6070 P   0  0  0  0  0
  -13.2500  -58.8570  -26.9910 O   0  0  0  0  0
  -14.8860  -59.1960  -29.1010 O   0  0  0  0  0
  -12.7610  -57.7960  -29.1850 O   0  0  0  0  0
  -11.6941  -64.3204  -32.9109 H   0  0  0  0  0
  -13.1885  -62.7975  -33.4828 H   0  0  0  0  0
  -13.5127  -61.4458  -32.2469 H   0  0  0  0  0
  -15.0664  -62.5773  -31.3492 H   0  0  0  0  0
  -13.9701  -64.0780  -31.2512 H   0  0  0  0  0
  -14.6996  -64.7506  -33.3550 H   0  0  0  0  0
  -15.7916  -63.2473  -33.4587 H   0  0  0  0  0
  -17.1364  -64.1053  -31.7636 H   0  0  0  0  0
  -16.0429  -65.6016  -31.6474 H   0  0  0  0  0
  -19.9645  -66.5571  -32.7517 H   0  0  0  0  0
  -19.2777  -64.1570  -31.5645 H   0  0  0  0  0
  -13.2204  -60.6892  -30.8264 H   0  0  0  0  0
  -11.5747  -59.8280  -30.7478 H   0  0  0  0  0
  -13.6179  -59.6418  -26.5783 H   0  0  0  0  0
  -15.2492  -59.9963  -28.7148 H   0  0  0  0  0
  1  2  1  0  0  0
  2  3  1  0  0  0
  2 12  1  0  0  0
  3  4  1  0  0  0
  4  5  1  0  0  0
  5  6  1  0  0  0
  6  7  1  0  0  0
  7  8  1  0  0  0
  8  9  1  0  0  0
  8 10  1  0  0  0
  8 11  2  0  0  0
 12 13  2  0  0  0
 12 14  1  0  0  0
 14 15  1  0  0  0
 15 16  1  0  0  0
 16 17  1  0  0  0
 16 18  1  0  0  0
 16 19  2  0  0  0
  1 20  1  0  0  0
  3 21  1  0  0  0
  3 22  1  0  0  0
  4 23  1  0  0  0
  4 24  1  0  0  0
  5 25  1  0  0  0
  5 26  1  0  0  0
  6 27  1  0  0  0
  6 28  1  0  0  0
  9 29  1  0  0  0
 10 30  1  0  0  0
 14 31  1  0  0  0
 14 32  1  0  0  0
 17 33  1  0  0  0
 18 34  1  0  0  0
M  END
$$$$
