### 
### Created by X-TOOL on Mon Sep 10 21:13:06 2018
### 

@<TRIPOS>MOLECULE
4a22_ligand
   30    29     1     0     0
SMALL
GAST_HUCK


@<TRIPOS>ATOM
      1 O01       -11.3080  -63.9170  -32.1300 O.3       1 TD4        -0.2690
      2 N02       -11.9600  -62.7060  -31.8610 N.am      1 TD4        -0.1485
      3 C03       -13.2710  -62.4910  -32.4400 C.3       1 TD4         0.0630
      4 C04       -14.4290  -63.2990  -31.8600 C.3       1 TD4        -0.0275
      5 C05       -15.3360  -64.0260  -32.8470 C.3       1 TD4        -0.0231
      6 C06       -16.4950  -64.8280  -32.2680 C.3       1 TD4         0.0785
      7 O07       -17.3150  -65.4980  -33.1790 O.3       1 TD4        -0.2761
      8 P08       -18.8030  -64.9030  -33.5440 P.3       1 TD4         0.2007
      9 O09       -19.9250  -66.1170  -33.6040 O.co2     1 TD4        -0.5537
     10 O10       -19.2330  -63.7570  -32.4360 O.co2     1 TD4        -0.5537
     11 O11       -18.7510  -64.2400  -34.8460 O.co2     1 TD4        -0.5537
     12 C12       -11.5270  -61.9290  -30.7130 C.2       1 TD4         0.2322
     13 O13       -10.5940  -62.2880  -30.0610 O.2       1 TD4        -0.3938
     14 C14       -12.2290  -60.6180  -30.3790 C.3       1 TD4         0.1688
     15 O15       -12.4400  -60.3380  -29.0290 O.3       1 TD4        -0.2560
     16 P16       -13.3300  -59.0090  -28.6070 P.3       1 TD4         0.2041
     17 O17       -13.2500  -58.8570  -26.9910 O.co2     1 TD4        -0.5536
     18 O18       -14.8860  -59.1960  -29.1010 O.co2     1 TD4        -0.5536
     19 O19       -12.7610  -57.7960  -29.1850 O.co2     1 TD4        -0.5536
     20 H1        -11.1803  -64.0052  -33.0672 H         1 TD4         0.2493
     21 H2        -13.2034  -62.7312  -33.5113 H         1 TD4         0.0551
     22 H3        -13.5165  -61.4257  -32.3178 H         1 TD4         0.0551
     23 H4        -15.0580  -62.6068  -31.2810 H         1 TD4         0.0286
     24 H5        -13.9999  -64.0553  -31.1864 H         1 TD4         0.0286
     25 H6        -14.7079  -64.7213  -33.4232 H         1 TD4         0.0291
     26 H7        -15.7620  -63.2703  -33.5233 H         1 TD4         0.0291
     27 H8        -17.1292  -64.1326  -31.6986 H         1 TD4         0.0612
     28 H9        -16.0714  -65.5801  -31.5862 H         1 TD4         0.0612
     29 H10       -13.2121  -60.6331  -30.8722 H         1 TD4         0.0857
     30 H11       -11.6220  -59.8010  -30.7962 H         1 TD4         0.0857
@<TRIPOS>BOND
     1    1    2 1  
     2    2    3 1  
     3    2   12 am 
     4    3    4 1  
     5    4    5 1  
     6    5    6 1  
     7    6    7 1  
     8    7    8 1  
     9    8    9 ar 
    10    8   10 ar 
    11    8   11 ar 
    12   12   13 2  
    13   12   14 1  
    14   14   15 1  
    15   15   16 1  
    16   16   17 ar 
    17   16   18 ar 
    18   16   19 ar 
    19    1   20 1  
    20    3   21 1  
    21    3   22 1  
    22    4   23 1  
    23    4   24 1  
    24    5   25 1  
    25    5   26 1  
    26    6   27 1  
    27    6   28 1  
    28   14   29 1  
    29   14   30 1  
@<TRIPOS>SUBSTRUCTURE
     1 TD4         1

