2qu3_ligand
  -I-interpret- 

 50 52  0  0  0  0  0  0  0  0999 V2000
    8.8600   -2.0220   13.9810 C   0  0  0  0  0
    8.5370   -3.2560   14.7620 C   0  0  0  0  0
    9.6450   -4.2670   14.7850 C   0  0  0  0  0
    9.1350   -5.4170   15.4240 O   0  0  0  0  0
    9.9380   -6.3600   15.9930 C   0  0  0  0  0
    9.5660   -7.7070   16.2220 C   0  0  0  0  0
   10.4550   -8.6200   16.8300 C   0  0  0  0  0
   11.7580   -8.2410   17.1800 C   0  0  0  0  0
   12.1190   -6.8710   16.9410 C   0  0  0  0  0
   11.2500   -5.9650   16.3420 C   0  0  0  0  0
   12.6740   -9.2070   17.8060 C   0  0  0  0  0
   12.3170  -10.0170   18.9300 C   0  0  0  0  0
   13.5460  -11.0820   19.4240 S   0  0  0  0  0
   14.5830  -10.5440   18.2130 C   0  0  0  0  0
   13.9960   -9.5600   17.3730 C   0  0  0  0  0
   14.7640   -8.9120   16.2320 C   0  0  0  0  0
   15.4510   -7.6670   16.7550 C   0  0  0  0  0
   15.7470   -7.6040   17.9260 O   0  0  0  0  0
   15.7340   -6.8080   15.7290 N   0  0  0  0  0
   16.2580   -5.6490   15.8760 C   0  0  0  0  0
   16.7670   -5.1010   16.9950 N   0  0  0  0  0
   16.4490   -4.8470   14.8020 N   0  0  0  0  0
   15.8980  -11.0980   18.0410 C   0  0  0  0  0
   16.9250  -10.7100   18.9880 C   0  0  0  0  0
   18.2290  -11.2180   18.8530 C   0  0  0  0  0
   18.5600  -12.0590   17.7680 C   0  0  0  0  0
   17.5740  -12.4410   16.8330 C   0  0  0  0  0
   16.2540  -11.9470   16.9430 C   0  0  0  0  0
   15.1300  -12.4800   15.7320 Cl  0  0  0  0  0
    9.7328   -1.5358   14.4168 H   0  0  0  0  0
    9.0722   -2.2932   12.9468 H   0  0  0  0  0
    8.0096   -1.3408   14.0122 H   0  0  0  0  0
    7.6779   -3.7269   14.2842 H   0  0  0  0  0
    8.3556   -2.9498   15.7923 H   0  0  0  0  0
   10.5121   -3.8792   15.3196 H   0  0  0  0  0
    9.9769   -4.5010   13.7735 H   0  0  0  0  0
    8.5740   -8.0456   15.9231 H   0  0  0  0  0
   10.1218   -9.6382   17.0308 H   0  0  0  0  0
   13.1099   -6.5292   17.2400 H   0  0  0  0  0
   11.5818   -4.9464   16.1408 H   0  0  0  0  0
   11.3470   -9.9567   19.4236 H   0  0  0  0  0
   14.0782   -8.6465   15.4275 H   0  0  0  0  0
   15.5062   -9.6087   15.8422 H   0  0  0  0  0
   16.7628   -5.6279   17.8684 H   0  0  0  0  0
   16.1752   -5.1656   13.8725 H   0  0  0  0  0
   16.8667   -3.9243   14.9224 H   0  0  0  0  0
   16.6867  -10.0261   19.8026 H   0  0  0  0  0
   18.9893  -10.9610   19.5906 H   0  0  0  0  0
   19.5835  -12.4155   17.6518 H   0  0  0  0  0
   17.8319  -13.1211   16.0212 H   0  0  0  0  0
  1  2  1  0  0  0
  2  3  1  0  0  0
  3  4  1  0  0  0
  4  5  1  0  0  0
  5  6  4  0  0  0
  5 10  4  0  0  0
  6  7  4  0  0  0
  7  8  4  0  0  0
  8  9  4  0  0  0
  8 11  1  0  0  0
  9 10  4  0  0  0
 11 12  4  0  0  0
 11 15  4  0  0  0
 12 13  4  0  0  0
 13 14  4  0  0  0
 14 15  4  0  0  0
 14 23  1  0  0  0
 15 16  1  0  0  0
 16 17  1  0  0  0
 17 18  2  0  0  0
 17 19  1  0  0  0
 19 20  4  0  0  0
 20 21  2  0  0  0
 20 22  1  0  0  0
 23 24  4  0  0  0
 23 28  4  0  0  0
 24 25  4  0  0  0
 25 26  4  0  0  0
 26 27  4  0  0  0
 27 28  4  0  0  0
 28 29  1  0  0  0
  1 30  1  0  0  0
  1 31  1  0  0  0
  1 32  1  0  0  0
  2 33  1  0  0  0
  2 34  1  0  0  0
  3 35  1  0  0  0
  3 36  1  0  0  0
  6 37  1  0  0  0
  7 38  1  0  0  0
  9 39  1  0  0  0
 10 40  1  0  0  0
 12 41  1  0  0  0
 16 42  1  0  0  0
 16 43  1  0  0  0
 21 44  1  0  0  0
 22 45  1  0  0  0
 22 46  1  0  0  0
 24 47  1  0  0  0
 25 48  1  0  0  0
 26 49  1  0  0  0
 27 50  1  0  0  0
M  END
$$$$
