6gu7_ligand
  -I-interpret- 

 47 49  0  0  0  0  0  0  0  0999 V2000
   31.7850   12.9850   13.2080 C   0  0  0  0  0
   36.3050   18.0240   10.0710 C   0  0  0  0  0
   33.0450   12.7100   12.5110 C   0  0  0  0  0
   33.4970   11.4070   12.3350 C   0  0  0  0  0
   33.9910   17.5040    9.6480 C   0  0  0  0  0
   34.7040   11.2330   11.6870 C   0  0  0  0  0
   34.9570   13.4980   11.4700 C   0  0  0  0  0
   35.4660   15.8130   10.5540 C   0  0  0  0  0
   34.2030   16.2130   10.0950 C   0  0  0  0  0
   35.0430   18.4060    9.6450 C   0  0  0  0  0
   35.5560   21.0670   10.2940 C   0  0  0  0  0
   30.0410   12.8280   14.6430 N   0  0  0  0  0
   35.4500   12.2520   11.2530 N   0  0  0  0  0
   31.2240   12.2710   14.2300 C   0  0  0  0  0
   35.7640   14.5090   11.0190 N   0  0  0  0  0
   28.7000   14.8150   13.9820 C   0  0  0  0  0
   29.8600   13.8940   13.8750 C   0  0  0  0  0
   34.7950   20.0620    9.0770 S   0  0  0  0  0
   35.5220   20.2040    7.8540 O   0  0  0  0  0
   33.3910   20.3520    9.0720 O   0  0  0  0  0
   36.5150   16.7400   10.5280 C   0  0  0  0  0
   33.7910   13.7570   12.1040 N   0  0  0  0  0
   30.8950   14.0450   12.9500 N   0  0  0  0  0
   31.0200   15.1130   11.9500 C   0  0  0  0  0
   31.1760   16.4730   12.6160 C   0  0  0  0  0
   29.9060   15.0670   10.9080 C   0  0  0  0  0
   37.1295   18.7365   10.0449 H   0  0  0  0  0
   32.9204   10.5549   12.6949 H   0  0  0  0  0
   33.0041   17.8099    9.3007 H   0  0  0  0  0
   35.0642   10.2175   11.5223 H   0  0  0  0  0
   33.3797   15.4987   10.0905 H   0  0  0  0  0
   36.5884   20.7467   10.4342 H   0  0  0  0  0
   35.5380   22.1069    9.9678 H   0  0  0  0  0
   35.0133   20.9704   11.2344 H   0  0  0  0  0
   31.6622   11.3715   14.6624 H   0  0  0  0  0
   36.7583   14.2816   11.0179 H   0  0  0  0  0
   27.7788   14.2588   13.8082 H   0  0  0  0  0
   28.6777   15.2549   14.9790 H   0  0  0  0  0
   28.7950   15.6050   13.2370 H   0  0  0  0  0
   37.5061   16.4442   10.8719 H   0  0  0  0  0
   31.9379   14.9379   11.3888 H   0  0  0  0  0
   30.3021   16.6753   13.2352 H   0  0  0  0  0
   32.0710   16.4710   13.2381 H   0  0  0  0  0
   31.2662   17.2431   11.8499 H   0  0  0  0  0
   29.9378   14.1106   10.3860 H   0  0  0  0  0
   28.9418   15.1800   11.4036 H   0  0  0  0  0
   30.0456   15.8776   10.1928 H   0  0  0  0  0
  3  1  1  0  0  0
  1 14  4  0  0  0
  1 23  4  0  0  0
 10  2  4  0  0  0
  2 21  4  0  0  0
  3  4  4  0  0  0
 22  3  4  0  0  0
  6  4  4  0  0  0
  9  5  4  0  0  0
  5 10  4  0  0  0
 13  6  4  0  0  0
  7 13  4  0  0  0
 15  7  1  0  0  0
  7 22  4  0  0  0
  8  9  4  0  0  0
  8 15  1  0  0  0
  8 21  4  0  0  0
 10 18  1  0  0  0
 18 11  1  0  0  0
 14 12  4  0  0  0
 12 17  4  0  0  0
 17 16  1  0  0  0
 17 23  4  0  0  0
 18 19  2  0  0  0
 18 20  2  0  0  0
 23 24  1  0  0  0
 24 25  1  0  0  0
 24 26  1  0  0  0
  2 27  1  0  0  0
  4 28  1  0  0  0
  5 29  1  0  0  0
  6 30  1  0  0  0
  9 31  1  0  0  0
 11 32  1  0  0  0
 11 33  1  0  0  0
 11 34  1  0  0  0
 14 35  1  0  0  0
 15 36  1  0  0  0
 16 37  1  0  0  0
 16 38  1  0  0  0
 16 39  1  0  0  0
 21 40  1  0  0  0
 24 41  1  0  0  0
 25 42  1  0  0  0
 25 43  1  0  0  0
 25 44  1  0  0  0
 26 45  1  0  0  0
 26 46  1  0  0  0
 26 47  1  0  0  0
M  END
$$$$
