3vnt_ligand
  -I-interpret- 

 57 62  0  0  0  0  0  0  0  0999 V2000
   31.0880  -30.6230  -12.4610 F   0  0  0  0  0
   29.7600  -30.3580  -12.4370 C   0  0  0  0  0
   29.1420  -30.0000  -11.2610 C   0  0  0  0  0
   27.7880  -29.7370  -11.2490 C   0  0  0  0  0
   27.0730  -29.8370  -12.4220 C   0  0  0  0  0
   25.6930  -29.6300  -12.4240 O   0  0  0  0  0
   25.1260  -28.3910  -12.2010 C   0  0  0  0  0
   25.8380  -27.2260  -12.3550 C   0  0  0  0  0
   25.2100  -26.0180  -12.1210 C   0  0  0  0  0
   23.8780  -26.0640  -11.7530 C   0  0  0  0  0
   23.0500  -25.0050  -11.4760 N   0  0  0  0  0
   21.8430  -25.4370  -11.1710 C   0  0  0  0  0
   20.8000  -24.5850  -10.8450 N   0  0  0  0  0
   19.5900  -25.0440  -10.3930 C   0  0  0  0  0
   19.2530  -26.2090  -10.2410 O   0  0  0  0  0
   18.6640  -23.9440  -10.0780 C   0  0  0  0  0
   17.1860  -24.1460  -10.2660 C   0  0  0  0  0
   17.7490  -24.0250   -8.8860 C   0  0  0  0  0
   21.6080  -27.1490  -11.1940 S   0  0  0  0  0
   23.2640  -27.2950  -11.6430 C   0  0  0  0  0
   23.8380  -28.4750  -11.8590 N   0  0  0  0  0
   27.6930  -30.2040  -13.6030 C   0  0  0  0  0
   29.0510  -30.4510  -13.6060 C   0  0  0  0  0
   29.7810  -30.8370  -14.7430 N   0  0  0  0  0
   29.4170  -30.4630  -16.0070 C   0  0  0  0  0
   28.4320  -29.7900  -16.2820 O   0  0  0  0  0
   30.1950  -31.0370  -17.1270 C   0  0  0  0  0
   30.5090  -32.3740  -17.0630 C   0  0  0  0  0
   31.2010  -32.9490  -18.1070 C   0  0  0  0  0
   31.5450  -32.1990  -19.2080 C   0  0  0  0  0
   31.2310  -30.8580  -19.2950 C   0  0  0  0  0
   30.5510  -30.2850  -18.2330 C   0  0  0  0  0
   30.1650  -28.6030  -18.3180 Cl  0  0  0  0  0
   31.6170  -30.0800  -20.4950 C   0  0  0  0  0
   31.5710  -30.7850  -21.8250 C   0  0  0  0  0
   30.4960  -29.8070  -21.4710 C   0  0  0  0  0
   32.5800  -29.0410  -20.4090 C   0  0  0  0  0
   33.3740  -28.2030  -20.3270 N   0  0  0  0  0
   29.7212  -29.9244  -10.3407 H   0  0  0  0  0
   27.2897  -29.4533  -10.3220 H   0  0  0  0  0
   26.8847  -27.2546  -12.6579 H   0  0  0  0  0
   25.7406  -25.0713  -12.2219 H   0  0  0  0  0
   20.9376  -23.5793  -10.9450 H   0  0  0  0  0
   19.4044  -23.2240  -10.4267 H   0  0  0  0  0
   16.5168  -24.8053  -10.8189 H   0  0  0  0  0
   16.3733  -23.7214  -10.8554 H   0  0  0  0  0
   17.5512  -23.4690   -7.9696 H   0  0  0  0  0
   17.6945  -24.5514   -7.9331 H   0  0  0  0  0
   27.1147  -30.2972  -14.5222 H   0  0  0  0  0
   30.6115  -31.4165  -14.6212 H   0  0  0  0  0
   30.2150  -32.9704  -16.1993 H   0  0  0  0  0
   31.4770  -34.0025  -18.0603 H   0  0  0  0  0
   32.0781  -32.6752  -20.0309 H   0  0  0  0  0
   31.6517  -31.8014  -22.2105 H   0  0  0  0  0
   32.2404  -30.9916  -22.6601 H   0  0  0  0  0
   29.9928  -28.9494  -21.9176 H   0  0  0  0  0
   29.4072  -29.7550  -21.4704 H   0  0  0  0  0
  1  2  1  0  0  0
  2  3  4  0  0  0
  2 23  4  0  0  0
  3  4  4  0  0  0
  4  5  4  0  0  0
  5  6  1  0  0  0
  5 22  4  0  0  0
  6  7  1  0  0  0
  7  8  4  0  0  0
  7 21  4  0  0  0
  8  9  4  0  0  0
  9 10  4  0  0  0
 10 11  4  0  0  0
 10 20  4  0  0  0
 11 12  4  0  0  0
 12 13  1  0  0  0
 12 19  4  0  0  0
 13 14  1  0  0  0
 14 15  2  0  0  0
 14 16  1  0  0  0
 16 17  1  0  0  0
 16 18  1  0  0  0
 17 18  1  0  0  0
 19 20  4  0  0  0
 20 21  4  0  0  0
 22 23  4  0  0  0
 23 24  1  0  0  0
 24 25  1  0  0  0
 25 26  2  0  0  0
 25 27  1  0  0  0
 27 28  4  0  0  0
 27 32  4  0  0  0
 28 29  4  0  0  0
 29 30  4  0  0  0
 30 31  4  0  0  0
 31 32  4  0  0  0
 31 34  1  0  0  0
 32 33  1  0  0  0
 34 35  1  0  0  0
 34 36  1  0  0  0
 34 37  1  0  0  0
 35 36  1  0  0  0
 37 38  3  0  0  0
  3 39  1  0  0  0
  4 40  1  0  0  0
  8 41  1  0  0  0
  9 42  1  0  0  0
 13 43  1  0  0  0
 16 44  1  0  0  0
 17 45  1  0  0  0
 17 46  1  0  0  0
 18 47  1  0  0  0
 18 48  1  0  0  0
 22 49  1  0  0  0
 24 50  1  0  0  0
 28 51  1  0  0  0
 29 52  1  0  0  0
 30 53  1  0  0  0
 35 54  1  0  0  0
 35 55  1  0  0  0
 36 56  1  0  0  0
 36 57  1  0  0  0
M  END
$$$$
