2uzo_ligand
  -I-interpret- 

 33 35  0  0  0  0  0  0  0  0999 V2000
    6.4560  -11.5500    7.4290 O   0  0  0  0  0
    6.8920  -10.1480    7.7320 S   0  0  0  0  0
    5.7300   -9.3600    8.2290 O   0  0  0  0  0
    7.4760   -9.4520    6.3660 N   0  0  0  0  0
    8.1490  -10.1720    8.9860 C   0  0  0  0  0
    9.1570   -9.2210    8.9690 C   0  0  0  0  0
   10.1260   -9.2180    9.9640 C   0  0  0  0  0
   10.0950  -10.1700   10.9880 C   0  0  0  0  0
    9.0770  -11.1160   11.0280 C   0  0  0  0  0
    8.0970  -11.1200   10.0250 C   0  0  0  0  0
   11.1330  -10.1420   12.0130 C   0  0  0  0  0
   12.2860   -9.4300   11.9350 O   0  0  0  0  0
   11.1140  -10.7680   13.2160 C   0  0  0  0  0
   12.2570  -10.4320   13.8540 C   0  0  0  0  0
   12.9620   -9.5880   13.0320 C   0  0  0  0  0
   14.2460   -8.9760   13.3250 C   0  0  0  0  0
   14.6760   -7.8310   12.6130 C   0  0  0  0  0
   13.7070   -6.9050   11.5770 S   0  0  0  0  0
   14.9500   -5.8580   11.2450 C   0  0  0  0  0
   16.0930   -6.1880   11.9120 N   0  0  0  0  0
   15.9580   -7.3060   12.6900 C   0  0  0  0  0
   16.8650   -7.7910   13.3690 O   0  0  0  0  0
   14.8490   -4.8900   10.4880 O   0  0  0  0  0
    7.4959   -9.9795    5.4932 H   0  0  0  0  0
    7.8192   -8.4918    6.3895 H   0  0  0  0  0
    9.1893   -8.4753    8.1746 H   0  0  0  0  0
   10.9167   -8.4679    9.9466 H   0  0  0  0  0
    9.0409  -11.8495   11.8334 H   0  0  0  0  0
    7.2948  -11.8575   10.0500 H   0  0  0  0  0
   10.3264  -11.4186   13.5961 H   0  0  0  0  0
   12.5641  -10.7703   14.8436 H   0  0  0  0  0
   14.8837   -9.4020   14.0996 H   0  0  0  0  0
   16.9601   -5.6558   11.8385 H   0  0  0  0  0
  1  2  2  0  0  0
  2  3  2  0  0  0
  2  4  1  0  0  0
  2  5  1  0  0  0
  5  6  4  0  0  0
  5 10  4  0  0  0
  6  7  4  0  0  0
  7  8  4  0  0  0
  8  9  4  0  0  0
  8 11  1  0  0  0
  9 10  4  0  0  0
 11 12  4  0  0  0
 11 13  4  0  0  0
 12 15  4  0  0  0
 13 14  4  0  0  0
 14 15  4  0  0  0
 15 16  1  0  0  0
 16 17  2  0  0  0
 17 18  1  0  0  0
 17 21  1  0  0  0
 18 19  1  0  0  0
 19 20  1  0  0  0
 19 23  2  0  0  0
 20 21  1  0  0  0
 21 22  2  0  0  0
  4 24  1  0  0  0
  4 25  1  0  0  0
  6 26  1  0  0  0
  7 27  1  0  0  0
  9 28  1  0  0  0
 10 29  1  0  0  0
 13 30  1  0  0  0
 14 31  1  0  0  0
 16 32  1  0  0  0
 20 33  1  0  0  0
M  END
$$$$
