4dkr_ligand
  -I-interpret- 

 44 46  0  0  0  0  0  0  0  0999 V2000
   27.5100  -15.1910   38.5030 C   0  0  0  0  0
   29.0220  -15.2890   34.9760 C   0  0  0  0  0
   29.0210  -15.4480   32.6730 C   0  0  0  0  0
   29.6400  -12.9080   32.2470 C   0  0  0  0  0
   29.9250  -11.6840   32.8650 C   0  0  0  0  0
   29.6440  -12.7080   35.0420 C   0  0  0  0  0
   27.1090  -15.3940   43.4550 C   0  0  0  0  0
   25.7620  -15.0520   43.4290 C   0  0  0  0  0
   25.1160  -14.8560   42.2230 C   0  0  0  0  0
   25.8060  -15.0020   41.0380 C   0  0  0  0  0
   27.1550  -15.3540   41.0550 C   0  0  0  0  0
   27.7970  -15.5390   42.2690 C   0  0  0  0  0
   24.8930  -14.8660   44.8920 Cl  0  0  0  0  0
   23.8280  -14.5290   42.2120 F   0  0  0  0  0
   27.9410  -15.5030   39.8420 N   0  0  0  0  0
   26.3910  -14.7820   38.2440 O   0  0  0  0  0
   28.5080  -15.3980   37.3610 C   0  0  0  0  0
   28.1150  -15.1110   36.0140 N   0  0  0  0  0
   29.6520  -15.8170   37.6050 O   0  0  0  0  0
   28.3820  -15.9970   33.8470 C   0  0  0  0  0
   29.3550  -14.0420   33.0310 C   0  0  0  0  0
   29.3600  -13.9420   34.4150 C   0  0  0  0  0
   28.6540  -17.3930   33.9520 N   0  0  0  0  0
   29.9250  -11.5850   34.2630 C   0  0  0  0  0
   27.7420  -18.3370   33.4100 C   0  0  0  0  0
   26.6540  -17.9200   32.8100 N   0  0  0  0  0
   27.9910  -19.6150   33.5090 N   0  0  0  0  0
   29.8799  -15.8363   35.3666 H   0  0  0  0  0
   28.3691  -15.4966   31.8008 H   0  0  0  0  0
   29.9104  -16.0147   32.3975 H   0  0  0  0  0
   29.6388  -12.9826   31.1596 H   0  0  0  0  0
   30.1472  -10.8067   32.2576 H   0  0  0  0  0
   29.6436  -12.6337   36.1295 H   0  0  0  0  0
   27.6180  -15.5465   44.4067 H   0  0  0  0  0
   25.2966  -14.8422   40.0877 H   0  0  0  0  0
   28.8548  -15.8014   42.2865 H   0  0  0  0  0
   28.8893  -15.8632   39.9487 H   0  0  0  0  0
   27.1717  -14.7768   35.8169 H   0  0  0  0  0
   27.2991  -15.8751   33.8217 H   0  0  0  0  0
   29.5037  -17.7135   34.4165 H   0  0  0  0  0
   30.1445  -10.6307   34.7418 H   0  0  0  0  0
   25.9973  -18.5948   32.4178 H   0  0  0  0  0
   26.4639  -16.9207   32.7352 H   0  0  0  0  0
   28.8400  -19.9345   33.9753 H   0  0  0  0  0
  1 15  1  0  0  0
  1 16  2  0  0  0
 17  1  1  0  0  0
 18  2  1  0  0  0
  2 20  1  0  0  0
  2 22  1  0  0  0
 20  3  1  0  0  0
  3 21  1  0  0  0
  5  4  4  0  0  0
 21  4  4  0  0  0
 24  5  4  0  0  0
 22  6  4  0  0  0
  6 24  4  0  0  0
  7  8  4  0  0  0
 12  7  4  0  0  0
  9  8  4  0  0  0
  8 13  1  0  0  0
 10  9  4  0  0  0
  9 14  1  0  0  0
 11 10  4  0  0  0
 11 12  4  0  0  0
 15 11  1  0  0  0
 17 18  1  0  0  0
 17 19  2  0  0  0
 20 23  1  0  0  0
 21 22  4  0  0  0
 23 25  1  0  0  0
 25 26  1  0  0  0
 25 27  2  0  0  0
  2 28  1  0  0  0
  3 29  1  0  0  0
  3 30  1  0  0  0
  4 31  1  0  0  0
  5 32  1  0  0  0
  6 33  1  0  0  0
  7 34  1  0  0  0
 10 35  1  0  0  0
 12 36  1  0  0  0
 15 37  1  0  0  0
 18 38  1  0  0  0
 20 39  1  0  0  0
 23 40  1  0  0  0
 24 41  1  0  0  0
 26 42  1  0  0  0
 26 43  1  0  0  0
 27 44  1  0  0  0
M  END
$$$$
