3l0e_ligand
  -I-interpret- 

 59 62  0  0  0  0  0  0  0  0999 V2000
    9.9750  -29.3050   -4.6910 C   0  0  0  0  0
   15.1080  -34.8390   -5.4830 F   0  0  0  0  0
   10.2330  -30.6340   -4.1750 N   0  0  0  0  0
   12.1660  -32.3750   -0.7680 O   0  0  0  0  0
   11.6480  -33.3010   -1.7660 S   0  0  0  0  0
   15.8840  -33.8540   -0.6030 Cl  0  0  0  0  0
    9.8280  -31.8050   -4.7520 C   0  0  0  0  0
   10.2220  -32.8430   -4.0520 N   0  0  0  0  0
   10.5200  -34.1590   -1.4570 O   0  0  0  0  0
   14.1060  -44.0490   -4.3380 S   0  0  0  0  0
   10.9110  -32.3020   -2.9920 C   0  0  0  0  0
   12.9630  -34.2070   -2.4950 N   0  0  0  0  0
   15.0270  -44.8380   -5.1370 O   0  0  0  0  0
   10.9310  -30.9260   -3.0420 C   0  0  0  0  0
   13.4850  -44.5810   -3.1360 O   0  0  0  0  0
   12.4590  -35.3040   -3.3680 C   0  0  0  0  0
   13.1820  -36.6040   -3.2700 C   0  0  0  0  0
   13.9010  -36.9920   -2.1600 C   0  0  0  0  0
   14.5530  -38.2030   -2.1410 C   0  0  0  0  0
   14.4900  -39.0460   -3.2250 C   0  0  0  0  0
   13.7640  -38.6520   -4.3260 C   0  0  0  0  0
   13.1180  -37.4410   -4.3540 C   0  0  0  0  0
   15.1450  -40.3350   -3.2390 C   0  0  0  0  0
   16.4410  -40.5170   -2.8060 C   0  0  0  0  0
   17.0300  -41.7630   -2.8310 C   0  0  0  0  0
   16.3330  -42.8600   -3.2920 C   0  0  0  0  0
   15.0420  -42.6620   -3.7380 C   0  0  0  0  0
   14.4440  -41.4230   -3.7130 C   0  0  0  0  0
   12.7380  -43.4380   -5.2570 C   0  0  0  0  0
   14.1880  -33.5040   -3.0990 C   0  0  0  0  0
   15.4540  -34.3610   -3.2000 C   0  0  0  0  0
   15.8410  -34.9860   -4.3710 C   0  0  0  0  0
   16.9670  -35.7810   -4.4420 C   0  0  0  0  0
   17.7590  -35.9740   -3.3330 C   0  0  0  0  0
   17.4100  -35.3630   -2.1570 C   0  0  0  0  0
   16.2770  -34.5810   -2.1120 C   0  0  0  0  0
   10.4160  -29.2099   -5.6832 H   0  0  0  0  0
    8.8988  -29.1434   -4.7533 H   0  0  0  0  0
   10.4167  -28.5653   -4.0233 H   0  0  0  0  0
    9.2518  -31.8686   -5.6750 H   0  0  0  0  0
   11.3959  -30.2335   -2.3403 H   0  0  0  0  0
   12.5862  -34.9604   -4.3946 H   0  0  0  0  0
   11.4344  -35.4997   -3.0518 H   0  0  0  0  0
   13.9533  -36.3351   -1.2918 H   0  0  0  0  0
   15.1238  -38.4964   -1.2600 H   0  0  0  0  0
   13.7009  -39.3129   -5.1905 H   0  0  0  0  0
   12.5540  -37.1448   -5.2384 H   0  0  0  0  0
   17.0088  -39.6624   -2.4381 H   0  0  0  0  0
   18.0561  -41.8823   -2.4832 H   0  0  0  0  0
   16.7868  -43.8510   -3.3038 H   0  0  0  0  0
   13.4200  -41.3024   -4.0666 H   0  0  0  0  0
   13.0997  -42.8030   -6.0657 H   0  0  0  0  0
   12.1785  -44.2756   -5.6735 H   0  0  0  0  0
   12.0904  -42.8578   -4.5997 H   0  0  0  0  0
   14.4274  -32.6720   -2.4368 H   0  0  0  0  0
   13.9172  -33.2275   -4.1180 H   0  0  0  0  0
   17.2314  -36.2602   -5.3846 H   0  0  0  0  0
   18.6483  -36.6018   -3.3891 H   0  0  0  0  0
   18.0233  -35.4946   -1.2656 H   0  0  0  0  0
  3  1  1  0  0  0
 32  2  1  0  0  0
  3  7  4  0  0  0
 14  3  4  0  0  0
  5  4  2  0  0  0
  5  9  2  0  0  0
  5 11  1  0  0  0
 12  5  1  0  0  0
 36  6  1  0  0  0
  8  7  4  0  0  0
 11  8  4  0  0  0
 10 13  2  0  0  0
 10 15  2  0  0  0
 27 10  1  0  0  0
 10 29  1  0  0  0
 11 14  4  0  0  0
 12 16  1  0  0  0
 30 12  1  0  0  0
 16 17  1  0  0  0
 17 18  4  0  0  0
 17 22  4  0  0  0
 18 19  4  0  0  0
 19 20  4  0  0  0
 21 20  4  0  0  0
 20 23  1  0  0  0
 22 21  4  0  0  0
 23 24  4  0  0  0
 23 28  4  0  0  0
 24 25  4  0  0  0
 25 26  4  0  0  0
 27 26  4  0  0  0
 28 27  4  0  0  0
 31 30  1  0  0  0
 31 32  4  0  0  0
 31 36  4  0  0  0
 32 33  4  0  0  0
 33 34  4  0  0  0
 34 35  4  0  0  0
 35 36  4  0  0  0
  1 37  1  0  0  0
  1 38  1  0  0  0
  1 39  1  0  0  0
  7 40  1  0  0  0
 14 41  1  0  0  0
 16 42  1  0  0  0
 16 43  1  0  0  0
 18 44  1  0  0  0
 19 45  1  0  0  0
 21 46  1  0  0  0
 22 47  1  0  0  0
 24 48  1  0  0  0
 25 49  1  0  0  0
 26 50  1  0  0  0
 28 51  1  0  0  0
 29 52  1  0  0  0
 29 53  1  0  0  0
 29 54  1  0  0  0
 30 55  1  0  0  0
 30 56  1  0  0  0
 33 57  1  0  0  0
 34 58  1  0  0  0
 35 59  1  0  0  0
M  END
$$$$
