### 
### Created by X-TOOL on Mon Sep 10 21:13:30 2018
### 

@<TRIPOS>MOLECULE
5o45_ligand
  246   253     1     0     0
SMALL
GAST_HUCK


@<TRIPOS>ATOM
      1 N          21.0770    5.3400  -11.9230 N.am      1 PHE        -0.2631
      2 CA         20.7340    4.8930  -13.2640 C.3       1 PHE         0.1406
      3 C          21.7590    5.5110  -14.2080 C.2       1 PHE         0.2083
      4 O          21.9560    6.7440  -14.1310 O.2       1 PHE        -0.3940
      5 CB         19.3200    5.3600  -13.6260 C.3       1 PHE         0.0214
      6 CG         18.8520    4.9580  -14.9990 C.ar      1 PHE        -0.0386
      7 CD1        18.5320    3.6270  -15.2970 C.ar      1 PHE        -0.0601
      8 CD2        18.7370    5.9140  -15.9970 C.ar      1 PHE        -0.0601
      9 CE1        18.1000    3.2860  -16.5580 C.ar      1 PHE        -0.0686
     10 CE2        18.2910    5.5500  -17.2560 C.ar      1 PHE        -0.0686
     11 CZ         17.9810    4.2310  -17.5600 C.ar      1 PHE        -0.0687
     12 C1         22.1620    3.2910  -15.2290 C.3       1 MEA         0.0256
     13 N          22.4020    4.7290  -15.0490 N.am      1 MEA        -0.2509
     14 CA         23.5860    5.2650  -15.7300 C.3       1 MEA         0.1431
     15 C          23.5530    4.9170  -17.2060 C.2       1 MEA         0.2084
     16 O          24.2510    3.9730  -17.6570 O.2       1 MEA        -0.3940
     17 CB         24.8820    4.6650  -15.0870 C.3       1 MEA         0.0216
     18 CG         24.9620    5.0820  -13.6030 C.ar      1 MEA        -0.0385
     19 CD1        24.4520    4.3020  -12.6050 C.ar      1 MEA        -0.0601
     20 CE1        24.5210    4.6620  -11.2470 C.ar      1 MEA        -0.0686
     21 CZ         25.0570    5.8360  -10.8660 C.ar      1 MEA        -0.0687
     22 CE2        25.5770    6.6300  -11.8380 C.ar      1 MEA        -0.0686
     23 CD2        25.5510    6.2740  -13.1890 C.ar      1 MEA        -0.0601
     24 N          22.7670    5.5990  -18.0530 N.am      1 9KK        -0.2527
     25 CE         19.7990    0.9310  -19.0220 C.3       1 9KK        -0.0653
     26 CD         20.0990    2.1580  -19.8120 C.3       1 9KK        -0.0557
     27 CG         21.3310    2.9630  -19.1910 C.3       1 9KK        -0.0491
     28 CB         21.4750    4.3860  -19.7900 C.3       1 9KK        -0.0122
     29 CA         22.7140    5.2470  -19.4800 C.3       1 9KK         0.1336
     30 CM         21.9060    6.6940  -17.6230 C.3       1 9KK         0.0254
     31 C          22.7110    6.4900  -20.3410 C.2       1 9KK         0.2061
     32 O          21.7310    6.7660  -21.0360 O.2       1 9KK        -0.3942
     33 N          23.8360    7.2250  -20.3820 N.am      1 SAR        -0.2556
     34 CA         23.8370    8.3850  -21.2750 C.3       1 SAR         0.1226
     35 C          22.6510    9.2820  -21.0260 C.2       1 SAR         0.2010
     36 O          22.4090    9.6580  -19.8870 O.2       1 SAR        -0.3947
     37 CN         25.0720    6.9170  -19.6490 C.3       1 SAR         0.0252
     38 N          21.9620    9.6950  -22.0790 N.am      1 ASP        -0.2624
     39 CA         20.8450   10.6360  -22.0130 C.3       1 ASP         0.1423
     40 C          19.5020    9.9470  -21.8600 C.2       1 ASP         0.2056
     41 O          18.4600   10.6190  -21.8420 O.2       1 ASP        -0.3943
     42 CB         20.8150   11.5380  -23.2120 C.3       1 ASP         0.0406
     43 CG         21.8970   12.5980  -23.2500 C.2       1 ASP         0.0393
     44 OD1        21.8510   13.4360  -24.1720 O.co2     1 ASP        -0.5688
     45 OD2        22.7800   12.6110  -22.3450 O.co2     1 ASP        -0.5688
     46 N          19.4450    8.6030  -21.7340 N.am      1 VAL        -0.2634
     47 CA         18.1550    7.9060  -21.6790 C.3       1 VAL         0.1334
     48 C          17.3800    8.3960  -20.4790 C.2       1 VAL         0.2065
     49 O          17.9000    8.3600  -19.3450 O.2       1 VAL        -0.3942
     50 CB         18.3860    6.3650  -21.5700 C.3       1 VAL        -0.0062
     51 CG1        17.0530    5.6740  -21.4070 C.3       1 VAL        -0.0584
     52 CG2        19.1060    5.8400  -22.7930 C.3       1 VAL        -0.0584
     53 C1         15.4680    9.0570  -21.9290 C.3       1 MEA         0.0256
     54 N          16.1170    8.8700  -20.6270 N.am      1 MEA        -0.2511
     55 CA         15.3090    9.2650  -19.4320 C.3       1 MEA         0.1429
     56 C          15.9290   10.4450  -18.6760 C.2       1 MEA         0.2063
     57 O          15.5460   10.6960  -17.5270 O.2       1 MEA        -0.3942
     58 CB         15.0470    8.1110  -18.4520 C.3       1 MEA         0.0216
     59 CG         14.4620    6.8680  -19.0810 C.ar      1 MEA        -0.0385
     60 CD1        13.5590    6.9200  -20.1440 C.ar      1 MEA        -0.0601
     61 CE1        13.0220    5.7450  -20.6850 C.ar      1 MEA        -0.0686
     62 CZ         13.4200    4.5070  -20.1840 C.ar      1 MEA        -0.0687
     63 CE2        14.3000    4.4450  -19.1500 C.ar      1 MEA        -0.0686
     64 CD2        14.8140    5.6190  -18.5680 C.ar      1 MEA        -0.0601
     65 N          16.8440   11.1980  -19.2840 N.am      1 TYR        -0.2620
     66 CA         17.5000   12.2810  -18.5180 C.3       1 TYR         0.1392
     67 C          16.4320   13.2100  -17.9850 C.2       1 TYR         0.2078
     68 O          15.5250   13.5900  -18.6980 O.2       1 TYR        -0.3940
     69 CB         18.4450   13.0650  -19.4500 C.3       1 TYR         0.0164
     70 CG         19.3230   14.0040  -18.6580 C.ar      1 TYR        -0.0493
     71 CD1        18.9100   15.3330  -18.4010 C.ar      1 TYR        -0.0685
     72 CD2        20.5170   13.6100  -18.1510 C.ar      1 TYR        -0.0685
     73 CE1        19.7100   16.1620  -17.6460 C.ar      1 TYR        -0.0398
     74 CE2        21.3340   14.4420  -17.3800 C.ar      1 TYR        -0.0398
     75 CZ         20.9120   15.7380  -17.1470 C.ar      1 TYR         0.0805
     76 OH         21.6410   16.6100  -16.3660 O.3       1 TYR        -0.3376
     77 N          16.5240   13.6200  -16.7180 N.am      1 SAR        -0.2554
     78 CA         15.4990   14.5360  -16.1960 C.3       1 SAR         0.1226
     79 C          14.3500   13.8680  -15.5160 C.2       1 SAR         0.2010
     80 O          13.5490   14.5390  -14.8750 O.2       1 SAR        -0.3947
     81 CN         17.5700   13.1700  -15.7620 C.3       1 SAR         0.0252
     82 N          14.2130   12.5150  -15.6380 N.am      1 TRP        -0.2629
     83 CA         13.0600   11.8160  -15.1000 C.3       1 TRP         0.1352
     84 C          13.3650   11.0130  -13.8610 C.2       1 TRP         0.2053
     85 O          12.4370   10.5500  -13.1900 O.2       1 TRP        -0.3942
     86 CB         12.4730   10.8690  -16.1370 C.3       1 TRP         0.0042
     87 CG         11.8860   11.5450  -17.3420 C.2       1 TRP        -0.0418
     88 CD1        11.6410   12.8840  -17.5520 C.2       1 TRP         0.0167
     89 CD2        11.4240   10.9030  -18.5320 C.ar      1 TRP        -0.0214
     90 NE1        11.0510   13.1030  -18.7620 N.pl3     1 TRP        -0.2890
     91 CE2        10.8900   11.9010  -19.3860 C.ar      1 TRP         0.0603
     92 CE3        11.3560    9.5660  -18.9590 C.ar      1 TRP        -0.0747
     93 CZ2        10.3610   11.6060  -20.5970 C.ar      1 TRP        -0.0443
     94 CZ3        10.7970    9.2700  -20.1690 C.ar      1 TRP        -0.0792
     95 CH2        10.3020   10.2910  -21.0100 C.ar      1 TRP        -0.0768
     96 N          14.6520   10.7460  -13.5430 N.am      1 TYR        -0.2620
     97 CA         15.0470    9.8810  -12.4890 C.3       1 TYR         0.1390
     98 C          15.9350   10.5930  -11.4830 C.2       1 TYR         0.2057
     99 O          16.5900   11.6020  -11.7840 O.2       1 TYR        -0.3942
    100 CB         15.7630    8.6160  -13.0310 C.3       1 TYR         0.0163
    101 CG         17.0290    8.9170  -13.7970 C.ar      1 TYR        -0.0493
    102 CD1        16.9560    9.1000  -15.1670 C.ar      1 TYR        -0.0685
    103 CD2        18.2400    9.0460  -13.1710 C.ar      1 TYR        -0.0685
    104 CE1        18.0720    9.4060  -15.9120 C.ar      1 TYR        -0.0398
    105 CE2        19.3860    9.3470  -13.9120 C.ar      1 TYR        -0.0398
    106 CZ         19.2990    9.5720  -15.2660 C.ar      1 TYR         0.0805
    107 OH         20.4510    9.8620  -15.9760 O.3       1 TYR        -0.3376
    108 N          16.0280   10.0200  -10.2900 N.am      1 LEU        -0.2636
    109 CA         16.7820   10.5230   -9.1470 C.3       1 LEU         0.1312
    110 C          18.0280    9.7650   -8.8280 C.2       1 LEU         0.2039
    111 O          18.9730   10.2900   -8.1900 O.2       1 LEU        -0.3944
    112 CB         15.8960   10.6010   -7.8970 C.3       1 LEU        -0.0101
    113 CG         14.7170   11.5580   -8.0110 C.3       1 LEU        -0.0425
    114 CD1        13.9110   11.5160   -6.7040 C.3       1 LEU        -0.0625
    115 CD2        15.0910   12.9900   -8.3810 C.3       1 LEU        -0.0625
    116 N          18.1020    8.4770   -9.1950 N.am      1 CCS        -0.2629
    117 CA         19.2670    7.6830   -8.8110 C.3       1 CCS         0.1400
    118 CB         19.0460    6.2260   -9.1350 C.3       1 CCS         0.0364
    119 SG         20.2800    5.1250   -8.4100 S.3       1 CCS        -0.1344
    120 CD         21.6340    5.1560   -9.5720 C.3       1 CCS         0.0836
    121 CE         21.2870    4.5260  -10.8990 C.2       1 CCS         0.1883
    122 OZ1        21.2190    3.2950  -10.9980 O.2       1 CCS        -0.3960
    123 C          20.5250    8.2050   -9.5210 C.2       1 CCS         0.2045
    124 O          20.6280    8.1590  -10.7390 O.2       1 CCS        -0.3944
    125 N          21.5760    8.5750   -8.7530 N.am      1 GLY        -0.2664
    126 CA         22.8830    9.0530   -9.2330 C.3       1 GLY         0.1198
    127 C          22.9010   10.5380   -9.1240 C.2       1 GLY         0.1960
    128 O          21.9370   11.1680   -8.6950 O.2       1 GLY        -0.3951
    129 N          24.0400   11.0570   -9.5600 N.am      1 NH2        -0.2992
    130 H1         21.1595    6.3238  -11.7639 H         1 PHE         0.1884
    131 H2         20.7821    3.7956  -13.3215 H         1 PHE         0.0823
    132 H3         19.2966    6.4580  -13.5650 H         1 PHE         0.0474
    133 H4         18.6213    4.9368  -12.8893 H         1 PHE         0.0474
    134 H5         18.6250    2.8642  -14.5324 H         1 PHE         0.0557
    135 H6         18.9963    6.9462  -15.7913 H         1 PHE         0.0557
    136 H7         17.8474    2.2535  -16.7705 H         1 PHE         0.0599
    137 H8         18.1815    6.3106  -18.0206 H         1 PHE         0.0599
    138 H9         17.6549    3.9503  -18.5549 H         1 PHE         0.0559
    139 H10        21.2552    2.9990  -14.6791 H         1 MEA         0.0488
    140 H11        23.0227    2.7246  -14.8439 H         1 MEA         0.0488
    141 H12        22.0283    3.0726  -16.2988 H         1 MEA         0.0488
    142 H13        23.5988    6.3592  -15.6184 H         1 MEA         0.0825
    143 H14        25.7655    5.0433  -15.6220 H         1 MEA         0.0474
    144 H15        24.8522    3.5677  -15.1582 H         1 MEA         0.0474
    145 H16        23.9739    3.3660  -12.8704 H         1 MEA         0.0557
    146 H17        24.1361    3.9826  -10.4951 H         1 MEA         0.0599
    147 H18        25.0732    6.1363   -9.8246 H         1 MEA         0.0559
    148 H19        26.0285    7.5741  -11.5553 H         1 MEA         0.0599
    149 H20        25.9953    6.9346  -13.9247 H         1 MEA         0.0557
    150 H21        18.9480    0.4019  -19.4756 H         1 9KK         0.0230
    151 H22        19.5472    1.2125  -17.9889 H         1 9KK         0.0230
    152 H23        20.6802    0.2727  -19.0183 H         1 9KK         0.0230
    153 H24        19.2116    2.8079  -19.8149 H         1 9KK         0.0263
    154 H25        20.3446    1.8681  -20.8443 H         1 9KK         0.0263
    155 H26        22.2555    2.4014  -19.3905 H         1 9KK         0.0267
    156 H27        21.1828    3.0513  -18.1046 H         1 9KK         0.0267
    157 H28        20.6003    4.9601  -19.4504 H         1 9KK         0.0312
    158 H29        21.4369    4.2722  -20.8834 H         1 9KK         0.0312
    159 H30        23.6123    4.6602  -19.7222 H         1 9KK         0.0802
    160 H31        22.0353    6.8598  -16.5433 H         1 9KK         0.0488
    161 H32        20.8565    6.4390  -17.8317 H         1 9KK         0.0488
    162 H33        22.1765    7.6095  -18.1695 H         1 9KK         0.0488
    163 H34        23.8051    8.0329  -22.3166 H         1 SAR         0.0765
    164 H35        24.7599    8.9606  -21.1106 H         1 SAR         0.0765
    165 H36        24.9154    6.0249  -19.0247 H         1 SAR         0.0488
    166 H37        25.3408    7.7700  -19.0086 H         1 SAR         0.0488
    167 H38        25.8849    6.7254  -20.3649 H         1 SAR         0.0488
    168 H39        22.2225    9.3404  -22.9770 H         1 ASP         0.1884
    169 H40        20.9999   11.2633  -21.1228 H         1 ASP         0.0819
    170 H41        19.8398   12.0466  -23.2308 H         1 ASP         0.0478
    171 H42        20.9198   10.9126  -24.1108 H         1 ASP         0.0478
    172 H43        20.2932    8.0763  -21.6775 H         1 VAL         0.1883
    173 H44        17.5847    8.1221  -22.5944 H         1 VAL         0.0803
    174 H45        19.0048    6.1604  -20.6839 H         1 VAL         0.0343
    175 H46        17.2100    4.5880  -21.3297 H         1 VAL         0.0234
    176 H47        16.4182    5.8916  -22.2786 H         1 VAL         0.0234
    177 H48        16.5600    6.0390  -20.4940 H         1 VAL         0.0234
    178 H49        20.0736    6.3528  -22.8971 H         1 VAL         0.0234
    179 H50        18.4937    6.0271  -23.6875 H         1 VAL         0.0234
    180 H51        19.2742    4.7585  -22.6834 H         1 VAL         0.0234
    181 H52        16.1512    8.7351  -22.7288 H         1 MEA         0.0488
    182 H53        15.2188   10.1197  -22.0653 H         1 MEA         0.0488
    183 H54        14.5474    8.4564  -21.9695 H         1 MEA         0.0488
    184 H55        14.3306    9.5952  -19.8111 H         1 MEA         0.0825
    185 H56        14.3465    8.4675  -17.6825 H         1 MEA         0.0474
    186 H57        16.0026    7.8387  -17.9801 H         1 MEA         0.0474
    187 H58        13.2701    7.8804  -20.5554 H         1 MEA         0.0557
    188 H59        12.2990    5.7984  -21.4909 H         1 MEA         0.0599
    189 H60        13.0282    3.5944  -20.6185 H         1 MEA         0.0559
    190 H61        14.6100    3.4788  -18.7686 H         1 MEA         0.0599
    191 H62        15.4849    5.5527  -17.7192 H         1 MEA         0.0557
    192 H63        17.0834   11.0345  -20.2410 H         1 TYR         0.1885
    193 H64        18.0739   11.8535  -17.6826 H         1 TYR         0.0821
    194 H65        17.8450   13.6485  -20.1638 H         1 TYR         0.0453
    195 H66        19.0803   12.3548  -19.9995 H         1 TYR         0.0453
    196 H67        17.9685   15.6968  -18.7964 H         1 TYR         0.0530
    197 H68        20.8548   12.6001  -18.3534 H         1 TYR         0.0530
    198 H69        19.3798   17.1742  -17.4422 H         1 TYR         0.0525
    199 H70        22.2728   14.0810  -16.9758 H         1 TYR         0.0525
    200 H71        21.7281   16.2520  -15.4903 H         1 TYR         0.2458
    201 H72        15.1038   15.1230  -17.0381 H         1 SAR         0.0765
    202 H73        15.9796   15.2107  -15.4723 H         1 SAR         0.0765
    203 H74        18.2694   12.4938  -16.2754 H         1 SAR         0.0488
    204 H75        17.0962   12.6394  -14.9230 H         1 SAR         0.0488
    205 H76        18.1184   14.0439  -15.3804 H         1 SAR         0.0488
    206 H77        14.9240   11.9930  -16.1093 H         1 TRP         0.1884
    207 H78        12.3031   12.5713  -14.8419 H         1 TRP         0.0815
    208 H79        11.6793   10.2806  -15.6535 H         1 TRP         0.0397
    209 H80        13.2730   10.1953  -16.4777 H         1 TRP         0.0397
    210 H81        11.8878   13.6703  -16.8402 H         1 TRP         0.0795
    211 H82        10.7741   14.0202  -19.1402 H         1 TRP         0.2216
    212 H83        11.7456    8.7732  -18.3306 H         1 TRP         0.0540
    213 H84         9.9868   12.3969  -21.2370 H         1 TRP         0.0541
    214 H85        10.7322    8.2363  -20.4888 H         1 TRP         0.0510
    215 H86         9.8775   10.0424  -21.9760 H         1 TRP         0.0530
    216 H87        15.3697   11.1850  -14.0836 H         1 TYR         0.1885
    217 H88        14.1358    9.5562  -11.9653 H         1 TYR         0.0821
    218 H89        15.0703    8.0845  -13.7001 H         1 TYR         0.0453
    219 H90        16.0182    7.9692  -12.1786 H         1 TYR         0.0453
    220 H91        15.9981    9.0000  -15.6645 H         1 TYR         0.0530
    221 H92        18.3100    8.9142  -12.0973 H         1 TYR         0.0530
    222 H93        17.9995    9.5169  -16.9879 H         1 TYR         0.0525
    223 H94        20.3487    9.4034  -13.4169 H         1 TYR         0.0525
    224 H95        20.2332    9.9913  -16.8916 H         1 TYR         0.2458
    225 H96        15.5335    9.1603  -10.1620 H         1 LEU         0.1883
    226 H97        17.0897   11.5479   -9.4017 H         1 LEU         0.0800
    227 H98        16.5218   10.9275   -7.0533 H         1 LEU         0.0315
    228 H99        15.5017    9.5945   -7.6932 H         1 LEU         0.0315
    229 H100       14.0709   11.1814   -8.8177 H         1 LEU         0.0298
    230 H101       13.0567   12.2050   -6.7778 H         1 LEU         0.0232
    231 H102       14.5555   11.8195   -5.8658 H         1 LEU         0.0232
    232 H103       13.5436   10.4935   -6.5325 H         1 LEU         0.0232
    233 H104       15.6660   12.9881   -9.3187 H         1 LEU         0.0232
    234 H105       15.7010   13.4289   -7.5778 H         1 LEU         0.0232
    235 H106       14.1757   13.5855   -8.5134 H         1 LEU         0.0232
    236 H107       17.3644    8.0627   -9.7282 H         1 CCS         0.1884
    237 H108       19.4129    7.7802   -7.7251 H         1 CCS         0.0808
    238 H109       19.0728    6.1055  -10.2280 H         1 CCS         0.0426
    239 H110       18.0551    5.9329   -8.7579 H         1 CCS         0.0426
    240 H111       22.4829    4.6092   -9.1357 H         1 CCS         0.0616
    241 H112       21.9227    6.2031   -9.7460 H         1 CCS         0.0616
    242 H113       21.4527    8.5181   -7.7623 H         1 GLY         0.1881
    243 H114       23.0270    8.7544  -10.2819 H         1 GLY         0.0763
    244 H115       23.6864    8.6242   -8.6160 H         1 GLY         0.0763
    245 H116       24.1782   12.0472   -9.5402 H         1 NH2         0.1815
    246 H117       24.7611   10.4584   -9.9088 H         1 NH2         0.1815
@<TRIPOS>BOND
     1    2    1 1  
     2    1  121 am 
     3    3    2 1  
     4    2    5 1  
     5    3    4 2  
     6   13    3 am 
     7    5    6 1  
     8    6    7 ar 
     9    6    8 ar 
    10    7    9 ar 
    11    8   10 ar 
    12    9   11 ar 
    13   10   11 ar 
    14   13   12 1  
    15   14   13 1  
    16   15   14 1  
    17   14   17 1  
    18   15   16 2  
    19   24   15 am 
    20   17   18 1  
    21   18   19 ar 
    22   18   23 ar 
    23   19   20 ar 
    24   20   21 ar 
    25   22   21 ar 
    26   23   22 ar 
    27   29   24 1  
    28   24   30 1  
    29   26   25 1  
    30   27   26 1  
    31   28   27 1  
    32   28   29 1  
    33   29   31 1  
    34   31   32 2  
    35   31   33 am 
    36   33   34 1  
    37   33   37 1  
    38   34   35 1  
    39   35   36 2  
    40   35   38 am 
    41   38   39 1  
    42   39   40 1  
    43   39   42 1  
    44   40   41 2  
    45   40   46 am 
    46   42   43 1  
    47   43   44 ar 
    48   43   45 ar 
    49   46   47 1  
    50   47   48 1  
    51   47   50 1  
    52   48   49 2  
    53   48   54 am 
    54   50   51 1  
    55   50   52 1  
    56   54   53 1  
    57   54   55 1  
    58   55   56 1  
    59   55   58 1  
    60   56   57 2  
    61   56   65 am 
    62   58   59 1  
    63   59   60 ar 
    64   59   64 ar 
    65   60   61 ar 
    66   61   62 ar 
    67   62   63 ar 
    68   63   64 ar 
    69   65   66 1  
    70   66   67 1  
    71   66   69 1  
    72   67   68 2  
    73   67   77 am 
    74   69   70 1  
    75   70   71 ar 
    76   70   72 ar 
    77   71   73 ar 
    78   72   74 ar 
    79   73   75 ar 
    80   74   75 ar 
    81   75   76 1  
    82   77   78 1  
    83   77   81 1  
    84   78   79 1  
    85   79   80 2  
    86   79   82 am 
    87   82   83 1  
    88   83   84 1  
    89   83   86 1  
    90   84   85 2  
    91   84   96 am 
    92   86   87 1  
    93   87   88 2  
    94   87   89 1  
    95   88   90 1  
    96   89   91 ar 
    97   89   92 ar 
    98   90   91 1  
    99   91   93 ar 
   100   92   94 ar 
   101   93   95 ar 
   102   94   95 ar 
   103   96   97 1  
   104   97   98 1  
   105   97  100 1  
   106   98   99 2  
   107   98  108 am 
   108  100  101 1  
   109  101  102 ar 
   110  101  103 ar 
   111  102  104 ar 
   112  103  105 ar 
   113  104  106 ar 
   114  105  106 ar 
   115  106  107 1  
   116  108  109 1  
   117  109  110 1  
   118  109  112 1  
   119  110  111 2  
   120  110  116 am 
   121  112  113 1  
   122  113  114 1  
   123  113  115 1  
   124  116  117 1  
   125  117  118 1  
   126  117  123 1  
   127  118  119 1  
   128  119  120 1  
   129  120  121 1  
   130  121  122 2  
   131  123  124 2  
   132  123  125 am 
   133  125  126 1  
   134  126  127 1  
   135  127  128 2  
   136  127  129 am 
   137    1  130 1  
   138    2  131 1  
   139    5  132 1  
   140    5  133 1  
   141    7  134 1  
   142    8  135 1  
   143    9  136 1  
   144   10  137 1  
   145   11  138 1  
   146   12  139 1  
   147   12  140 1  
   148   12  141 1  
   149   14  142 1  
   150   17  143 1  
   151   17  144 1  
   152   19  145 1  
   153   20  146 1  
   154   21  147 1  
   155   22  148 1  
   156   23  149 1  
   157   25  150 1  
   158   25  151 1  
   159   25  152 1  
   160   26  153 1  
   161   26  154 1  
   162   27  155 1  
   163   27  156 1  
   164   28  157 1  
   165   28  158 1  
   166   29  159 1  
   167   30  160 1  
   168   30  161 1  
   169   30  162 1  
   170   34  163 1  
   171   34  164 1  
   172   37  165 1  
   173   37  166 1  
   174   37  167 1  
   175   38  168 1  
   176   39  169 1  
   177   42  170 1  
   178   42  171 1  
   179   46  172 1  
   180   47  173 1  
   181   50  174 1  
   182   51  175 1  
   183   51  176 1  
   184   51  177 1  
   185   52  178 1  
   186   52  179 1  
   187   52  180 1  
   188   53  181 1  
   189   53  182 1  
   190   53  183 1  
   191   55  184 1  
   192   58  185 1  
   193   58  186 1  
   194   60  187 1  
   195   61  188 1  
   196   62  189 1  
   197   63  190 1  
   198   64  191 1  
   199   65  192 1  
   200   66  193 1  
   201   69  194 1  
   202   69  195 1  
   203   71  196 1  
   204   72  197 1  
   205   73  198 1  
   206   74  199 1  
   207   76  200 1  
   208   78  201 1  
   209   78  202 1  
   210   81  203 1  
   211   81  204 1  
   212   81  205 1  
   213   82  206 1  
   214   83  207 1  
   215   86  208 1  
   216   86  209 1  
   217   88  210 1  
   218   90  211 1  
   219   92  212 1  
   220   93  213 1  
   221   94  214 1  
   222   95  215 1  
   223   96  216 1  
   224   97  217 1  
   225  100  218 1  
   226  100  219 1  
   227  102  220 1  
   228  103  221 1  
   229  104  222 1  
   230  105  223 1  
   231  107  224 1  
   232  108  225 1  
   233  109  226 1  
   234  112  227 1  
   235  112  228 1  
   236  113  229 1  
   237  114  230 1  
   238  114  231 1  
   239  114  232 1  
   240  115  233 1  
   241  115  234 1  
   242  115  235 1  
   243  116  236 1  
   244  117  237 1  
   245  118  238 1  
   246  118  239 1  
   247  120  240 1  
   248  120  241 1  
   249  125  242 1  
   250  126  243 1  
   251  126  244 1  
   252  129  245 1  
   253  129  246 1  
@<TRIPOS>SUBSTRUCTURE
     1 PHE         1

