5o45_ligand
  -I-interpret- 

246253  0  0  0  0  0  0  0  0999 V2000
   21.0770    5.3400  -11.9230 N   0  0  0  0  0
   20.7340    4.8930  -13.2640 C   0  0  0  0  0
   21.7590    5.5110  -14.2080 C   0  0  0  0  0
   21.9560    6.7440  -14.1310 O   0  0  0  0  0
   19.3200    5.3600  -13.6260 C   0  0  0  0  0
   18.8520    4.9580  -14.9990 C   0  0  0  0  0
   18.5320    3.6270  -15.2970 C   0  0  0  0  0
   18.7370    5.9140  -15.9970 C   0  0  0  0  0
   18.1000    3.2860  -16.5580 C   0  0  0  0  0
   18.2910    5.5500  -17.2560 C   0  0  0  0  0
   17.9810    4.2310  -17.5600 C   0  0  0  0  0
   22.1620    3.2910  -15.2290 C   0  0  0  0  0
   22.4020    4.7290  -15.0490 N   0  0  0  0  0
   23.5860    5.2650  -15.7300 C   0  0  0  0  0
   23.5530    4.9170  -17.2060 C   0  0  0  0  0
   24.2510    3.9730  -17.6570 O   0  0  0  0  0
   24.8820    4.6650  -15.0870 C   0  0  0  0  0
   24.9620    5.0820  -13.6030 C   0  0  0  0  0
   24.4520    4.3020  -12.6050 C   0  0  0  0  0
   24.5210    4.6620  -11.2470 C   0  0  0  0  0
   25.0570    5.8360  -10.8660 C   0  0  0  0  0
   25.5770    6.6300  -11.8380 C   0  0  0  0  0
   25.5510    6.2740  -13.1890 C   0  0  0  0  0
   22.7670    5.5990  -18.0530 N   0  0  0  0  0
   19.7990    0.9310  -19.0220 C   0  0  0  0  0
   20.0990    2.1580  -19.8120 C   0  0  0  0  0
   21.3310    2.9630  -19.1910 C   0  0  0  0  0
   21.4750    4.3860  -19.7900 C   0  0  0  0  0
   22.7140    5.2470  -19.4800 C   0  0  0  0  0
   21.9060    6.6940  -17.6230 C   0  0  0  0  0
   22.7110    6.4900  -20.3410 C   0  0  0  0  0
   21.7310    6.7660  -21.0360 O   0  0  0  0  0
   23.8360    7.2250  -20.3820 N   0  0  0  0  0
   23.8370    8.3850  -21.2750 C   0  0  0  0  0
   22.6510    9.2820  -21.0260 C   0  0  0  0  0
   22.4090    9.6580  -19.8870 O   0  0  0  0  0
   25.0720    6.9170  -19.6490 C   0  0  0  0  0
   21.9620    9.6950  -22.0790 N   0  0  0  0  0
   20.8450   10.6360  -22.0130 C   0  0  0  0  0
   19.5020    9.9470  -21.8600 C   0  0  0  0  0
   18.4600   10.6190  -21.8420 O   0  0  0  0  0
   20.8150   11.5380  -23.2120 C   0  0  0  0  0
   21.8970   12.5980  -23.2500 C   0  0  0  0  0
   21.8510   13.4360  -24.1720 O   0  0  0  0  0
   22.7800   12.6110  -22.3450 O   0  0  0  0  0
   19.4450    8.6030  -21.7340 N   0  0  0  0  0
   18.1550    7.9060  -21.6790 C   0  0  0  0  0
   17.3800    8.3960  -20.4790 C   0  0  0  0  0
   17.9000    8.3600  -19.3450 O   0  0  0  0  0
   18.3860    6.3650  -21.5700 C   0  0  0  0  0
   17.0530    5.6740  -21.4070 C   0  0  0  0  0
   19.1060    5.8400  -22.7930 C   0  0  0  0  0
   15.4680    9.0570  -21.9290 C   0  0  0  0  0
   16.1170    8.8700  -20.6270 N   0  0  0  0  0
   15.3090    9.2650  -19.4320 C   0  0  0  0  0
   15.9290   10.4450  -18.6760 C   0  0  0  0  0
   15.5460   10.6960  -17.5270 O   0  0  0  0  0
   15.0470    8.1110  -18.4520 C   0  0  0  0  0
   14.4620    6.8680  -19.0810 C   0  0  0  0  0
   13.5590    6.9200  -20.1440 C   0  0  0  0  0
   13.0220    5.7450  -20.6850 C   0  0  0  0  0
   13.4200    4.5070  -20.1840 C   0  0  0  0  0
   14.3000    4.4450  -19.1500 C   0  0  0  0  0
   14.8140    5.6190  -18.5680 C   0  0  0  0  0
   16.8440   11.1980  -19.2840 N   0  0  0  0  0
   17.5000   12.2810  -18.5180 C   0  0  0  0  0
   16.4320   13.2100  -17.9850 C   0  0  0  0  0
   15.5250   13.5900  -18.6980 O   0  0  0  0  0
   18.4450   13.0650  -19.4500 C   0  0  0  0  0
   19.3230   14.0040  -18.6580 C   0  0  0  0  0
   18.9100   15.3330  -18.4010 C   0  0  0  0  0
   20.5170   13.6100  -18.1510 C   0  0  0  0  0
   19.7100   16.1620  -17.6460 C   0  0  0  0  0
   21.3340   14.4420  -17.3800 C   0  0  0  0  0
   20.9120   15.7380  -17.1470 C   0  0  0  0  0
   21.6410   16.6100  -16.3660 O   0  0  0  0  0
   16.5240   13.6200  -16.7180 N   0  0  0  0  0
   15.4990   14.5360  -16.1960 C   0  0  0  0  0
   14.3500   13.8680  -15.5160 C   0  0  0  0  0
   13.5490   14.5390  -14.8750 O   0  0  0  0  0
   17.5700   13.1700  -15.7620 C   0  0  0  0  0
   14.2130   12.5150  -15.6380 N   0  0  0  0  0
   13.0600   11.8160  -15.1000 C   0  0  0  0  0
   13.3650   11.0130  -13.8610 C   0  0  0  0  0
   12.4370   10.5500  -13.1900 O   0  0  0  0  0
   12.4730   10.8690  -16.1370 C   0  0  0  0  0
   11.8860   11.5450  -17.3420 C   0  0  0  0  0
   11.6410   12.8840  -17.5520 C   0  0  0  0  0
   11.4240   10.9030  -18.5320 C   0  0  0  0  0
   11.0510   13.1030  -18.7620 N   0  0  0  0  0
   10.8900   11.9010  -19.3860 C   0  0  0  0  0
   11.3560    9.5660  -18.9590 C   0  0  0  0  0
   10.3610   11.6060  -20.5970 C   0  0  0  0  0
   10.7970    9.2700  -20.1690 C   0  0  0  0  0
   10.3020   10.2910  -21.0100 C   0  0  0  0  0
   14.6520   10.7460  -13.5430 N   0  0  0  0  0
   15.0470    9.8810  -12.4890 C   0  0  0  0  0
   15.9350   10.5930  -11.4830 C   0  0  0  0  0
   16.5900   11.6020  -11.7840 O   0  0  0  0  0
   15.7630    8.6160  -13.0310 C   0  0  0  0  0
   17.0290    8.9170  -13.7970 C   0  0  0  0  0
   16.9560    9.1000  -15.1670 C   0  0  0  0  0
   18.2400    9.0460  -13.1710 C   0  0  0  0  0
   18.0720    9.4060  -15.9120 C   0  0  0  0  0
   19.3860    9.3470  -13.9120 C   0  0  0  0  0
   19.2990    9.5720  -15.2660 C   0  0  0  0  0
   20.4510    9.8620  -15.9760 O   0  0  0  0  0
   16.0280   10.0200  -10.2900 N   0  0  0  0  0
   16.7820   10.5230   -9.1470 C   0  0  0  0  0
   18.0280    9.7650   -8.8280 C   0  0  0  0  0
   18.9730   10.2900   -8.1900 O   0  0  0  0  0
   15.8960   10.6010   -7.8970 C   0  0  0  0  0
   14.7170   11.5580   -8.0110 C   0  0  0  0  0
   13.9110   11.5160   -6.7040 C   0  0  0  0  0
   15.0910   12.9900   -8.3810 C   0  0  0  0  0
   18.1020    8.4770   -9.1950 N   0  0  0  0  0
   19.2670    7.6830   -8.8110 C   0  0  0  0  0
   19.0460    6.2260   -9.1350 C   0  0  0  0  0
   20.2800    5.1250   -8.4100 S   0  0  0  0  0
   21.6340    5.1560   -9.5720 C   0  0  0  0  0
   21.2870    4.5260  -10.8990 C   0  0  0  0  0
   21.2190    3.2950  -10.9980 O   0  0  0  0  0
   20.5250    8.2050   -9.5210 C   0  0  0  0  0
   20.6280    8.1590  -10.7390 O   0  0  0  0  0
   21.5760    8.5750   -8.7530 N   0  0  0  0  0
   22.8830    9.0530   -9.2330 C   0  0  0  0  0
   22.9010   10.5380   -9.1240 C   0  0  0  0  0
   21.9370   11.1680   -8.6950 O   0  0  0  0  0
   24.0400   11.0570   -9.5600 N   0  0  0  0  0
   21.1612    6.3435  -11.7608 H   0  0  0  0  0
   20.7495    3.8054  -13.3350 H   0  0  0  0  0
   19.3320    6.4497  -13.6032 H   0  0  0  0  0
   18.6412    4.8936  -12.9121 H   0  0  0  0  0
   18.6255    2.8600  -14.5282 H   0  0  0  0  0
   18.9978    6.9519  -15.7901 H   0  0  0  0  0
   17.8460    2.2478  -16.7717 H   0  0  0  0  0
   18.1809    6.3148  -18.0248 H   0  0  0  0  0
   17.6531    3.9487  -18.5604 H   0  0  0  0  0
   22.0297    3.0760  -16.2894 H   0  0  0  0  0
   23.0155    2.7309  -14.8471 H   0  0  0  0  0
   21.2633    3.0029  -14.6837 H   0  0  0  0  0
   23.5874    6.3495  -15.6208 H   0  0  0  0  0
   25.7573    5.0403  -15.6171 H   0  0  0  0  0
   24.8521    3.5777  -15.1573 H   0  0  0  0  0
   23.9712    3.3609  -12.8719 H   0  0  0  0  0
   24.1340    3.9789  -10.4909 H   0  0  0  0  0
   25.0733    6.1380   -9.8188 H   0  0  0  0  0
   26.0310    7.5793  -11.5537 H   0  0  0  0  0
   25.9978    6.9383  -13.9287 H   0  0  0  0  0
   20.6729    0.2796  -19.0191 H   0  0  0  0  0
   19.5497    1.2113  -17.9986 H   0  0  0  0  0
   18.9556    0.4076  -19.4724 H   0  0  0  0  0
   19.2206    2.8032  -19.7970 H   0  0  0  0  0
   20.3562    1.8612  -20.8288 H   0  0  0  0  0
   22.2422    2.4095  -19.4177 H   0  0  0  0  0
   21.1592    3.0655  -18.1195 H   0  0  0  0  0
   20.6461    4.9442  -19.3546 H   0  0  0  0  0
   21.5283    4.2188  -20.8658 H   0  0  0  0  0
   23.6062    4.6651  -19.7112 H   0  0  0  0  0
   21.1938    6.3260  -16.8844 H   0  0  0  0  0
   22.5158    7.4818  -17.1806 H   0  0  0  0  0
   21.3669    7.0901  -18.4836 H   0  0  0  0  0
   23.7865    8.0267  -22.3032 H   0  0  0  0  0
   24.7456    8.9585  -21.0917 H   0  0  0  0  0
   24.8647    6.9041  -18.5790 H   0  0  0  0  0
   25.4438    5.9407  -19.9602 H   0  0  0  0  0
   25.8210    7.6785  -19.8661 H   0  0  0  0  0
   22.2278    9.3333  -22.9949 H   0  0  0  0  0
   21.0150   11.2342  -21.1178 H   0  0  0  0  0
   19.8615   12.0654  -23.1828 H   0  0  0  0  0
   20.9683   10.9032  -24.0847 H   0  0  0  0  0
   22.6282   11.8805  -21.7409 H   0  0  0  0  0
   20.3101    8.0658  -21.6763 H   0  0  0  0  0
   17.5900    8.1117  -22.5882 H   0  0  0  0  0
   19.0117    6.1596  -20.7014 H   0  0  0  0  0
   16.5655    6.0366  -20.5020 H   0  0  0  0  0
   16.4249    5.8904  -22.2712 H   0  0  0  0  0
   17.2099    4.5981  -21.3305 H   0  0  0  0  0
   18.5073    6.0436  -23.6808 H   0  0  0  0  0
   20.0730    6.3347  -22.8840 H   0  0  0  0  0
   19.2545    4.7649  -22.6920 H   0  0  0  0  0
   16.0475    9.7625  -22.5244 H   0  0  0  0  0
   15.4145    8.0998  -22.4477 H   0  0  0  0  0
   14.4613    9.4472  -21.7790 H   0  0  0  0  0
   14.3472    9.5695  -19.8446 H   0  0  0  0  0
   14.3188    8.4713  -17.7254 H   0  0  0  0  0
   16.0114    7.8287  -18.0296 H   0  0  0  0  0
   13.2685    7.8857  -20.5577 H   0  0  0  0  0
   12.2950    5.7987  -21.4954 H   0  0  0  0  0
   13.0260    3.5894  -20.6209 H   0  0  0  0  0
   14.6117    3.4735  -18.7665 H   0  0  0  0  0
   15.4887    5.5523  -17.7145 H   0  0  0  0  0
   17.0882   11.0312  -20.2602 H   0  0  0  0  0
   18.0752   11.8617  -17.6925 H   0  0  0  0  0
   17.8450   13.6495  -20.1475 H   0  0  0  0  0
   19.0793   12.3570  -19.9833 H   0  0  0  0  0
   17.9633   15.6988  -18.7986 H   0  0  0  0  0
   20.8567   12.5945  -18.3546 H   0  0  0  0  0
   19.3780   17.1798  -17.4410 H   0  0  0  0  0
   22.2780   14.0790  -16.9736 H   0  0  0  0  0
   22.4548   16.1840  -16.0870 H   0  0  0  0  0
   15.0908   15.0746  -17.0513 H   0  0  0  0  0
   15.9862   15.1642  -15.4503 H   0  0  0  0  0
   17.5064   12.0889  -15.6383 H   0  0  0  0  0
   18.5534   13.4354  -16.1500 H   0  0  0  0  0
   17.4143   13.6570  -14.7993 H   0  0  0  0  0
   14.9382   11.9826  -16.1187 H   0  0  0  0  0
   12.3500   12.5986  -14.8326 H   0  0  0  0  0
   11.6618   10.3281  -15.6498 H   0  0  0  0  0
   13.2901   10.2409  -16.4919 H   0  0  0  0  0
   11.8880   13.6711  -16.8395 H   0  0  0  0  0
   11.7477    8.7689  -18.3272 H   0  0  0  0  0
    9.9847   12.4012  -21.2405 H   0  0  0  0  0
   10.7318    8.2306  -20.4906 H   0  0  0  0  0
    9.8751   10.0410  -21.9813 H   0  0  0  0  0
   15.3840   11.1937  -14.0945 H   0  0  0  0  0
   14.1355    9.5692  -11.9790 H   0  0  0  0  0
   15.0761    8.1215  -13.7178 H   0  0  0  0  0
   16.0392    8.0044  -12.1721 H   0  0  0  0  0
   15.9928    8.9995  -15.6672 H   0  0  0  0  0
   18.3104    8.9135  -12.0914 H   0  0  0  0  0
   17.9990    9.5175  -16.9938 H   0  0  0  0  0
   20.3540    9.4038  -13.4142 H   0  0  0  0  0
   21.1895    9.9395  -15.3676 H   0  0  0  0  0
   15.5236    9.1431  -10.1594 H   0  0  0  0  0
   17.1047   11.5187   -9.4512 H   0  0  0  0  0
   16.5244   10.9673   -7.0852 H   0  0  0  0  0
   15.4820    9.6051   -7.7391 H   0  0  0  0  0
   14.1109   11.2114   -8.8480 H   0  0  0  0  0
   13.5476   10.5023   -6.5352 H   0  0  0  0  0
   14.5507   11.8169   -5.8743 H   0  0  0  0  0
   13.0648   12.1991   -6.7783 H   0  0  0  0  0
   15.7565   13.3984   -7.6205 H   0  0  0  0  0
   15.5954   12.9943   -9.3472 H   0  0  0  0  0
   14.1874   13.5968   -8.4387 H   0  0  0  0  0
   17.3496    8.0544   -9.7388 H   0  0  0  0  0
   19.4099    7.7774   -7.7345 H   0  0  0  0  0
   19.1108    6.1197  -10.2179 H   0  0  0  0  0
   18.0766    5.9444   -8.7238 H   0  0  0  0  0
   22.4563    4.5864   -9.1389 H   0  0  0  0  0
   21.8893    6.1995   -9.7565 H   0  0  0  0  0
   21.4502    8.5170   -7.7424 H   0  0  0  0  0
   23.0364    8.7505  -10.2689 H   0  0  0  0  0
   23.6842    8.6225   -8.6323 H   0  0  0  0  0
   24.1735   12.0682   -9.5578 H   0  0  0  0  0
   24.7830   10.4452   -9.8977 H   0  0  0  0  0
  2  1  1  0  0  0
  1121  1  0  0  0
  3  2  1  0  0  0
  2  5  1  0  0  0
  3  4  2  0  0  0
 13  3  1  0  0  0
  5  6  1  0  0  0
  6  7  4  0  0  0
  6  8  4  0  0  0
  7  9  4  0  0  0
  8 10  4  0  0  0
  9 11  4  0  0  0
 10 11  4  0  0  0
 13 12  1  0  0  0
 14 13  1  0  0  0
 15 14  1  0  0  0
 14 17  1  0  0  0
 15 16  2  0  0  0
 24 15  1  0  0  0
 17 18  1  0  0  0
 18 19  4  0  0  0
 18 23  4  0  0  0
 19 20  4  0  0  0
 20 21  4  0  0  0
 22 21  4  0  0  0
 23 22  4  0  0  0
 29 24  1  0  0  0
 24 30  1  0  0  0
 26 25  1  0  0  0
 27 26  1  0  0  0
 28 27  1  0  0  0
 28 29  1  0  0  0
 29 31  1  0  0  0
 31 32  2  0  0  0
 31 33  1  0  0  0
 33 34  1  0  0  0
 33 37  1  0  0  0
 34 35  1  0  0  0
 35 36  2  0  0  0
 35 38  1  0  0  0
 38 39  1  0  0  0
 39 40  1  0  0  0
 39 42  1  0  0  0
 40 41  2  0  0  0
 40 46  1  0  0  0
 42 43  1  0  0  0
 43 44  2  0  0  0
 43 45  1  0  0  0
 46 47  1  0  0  0
 47 48  1  0  0  0
 47 50  1  0  0  0
 48 49  2  0  0  0
 48 54  1  0  0  0
 50 51  1  0  0  0
 50 52  1  0  0  0
 54 53  1  0  0  0
 54 55  1  0  0  0
 55 56  1  0  0  0
 55 58  1  0  0  0
 56 57  2  0  0  0
 56 65  1  0  0  0
 58 59  1  0  0  0
 59 60  4  0  0  0
 59 64  4  0  0  0
 60 61  4  0  0  0
 61 62  4  0  0  0
 62 63  4  0  0  0
 63 64  4  0  0  0
 65 66  1  0  0  0
 66 67  1  0  0  0
 66 69  1  0  0  0
 67 68  2  0  0  0
 67 77  1  0  0  0
 69 70  1  0  0  0
 70 71  4  0  0  0
 70 72  4  0  0  0
 71 73  4  0  0  0
 72 74  4  0  0  0
 73 75  4  0  0  0
 74 75  4  0  0  0
 75 76  1  0  0  0
 77 78  1  0  0  0
 77 81  1  0  0  0
 78 79  1  0  0  0
 79 80  2  0  0  0
 79 82  1  0  0  0
 82 83  1  0  0  0
 83 84  1  0  0  0
 83 86  1  0  0  0
 84 85  2  0  0  0
 84 96  1  0  0  0
 86 87  1  0  0  0
 87 88  4  0  0  0
 87 89  4  0  0  0
 88 90  4  0  0  0
 89 91  4  0  0  0
 89 92  4  0  0  0
 90 91  4  0  0  0
 91 93  4  0  0  0
 92 94  4  0  0  0
 93 95  4  0  0  0
 94 95  4  0  0  0
 96 97  1  0  0  0
 97 98  1  0  0  0
 97100  1  0  0  0
 98 99  2  0  0  0
 98108  1  0  0  0
100101  1  0  0  0
101102  4  0  0  0
101103  4  0  0  0
102104  4  0  0  0
103105  4  0  0  0
104106  4  0  0  0
105106  4  0  0  0
106107  1  0  0  0
108109  1  0  0  0
109110  1  0  0  0
109112  1  0  0  0
110111  2  0  0  0
110116  1  0  0  0
112113  1  0  0  0
113114  1  0  0  0
113115  1  0  0  0
116117  1  0  0  0
117118  1  0  0  0
117123  1  0  0  0
118119  1  0  0  0
119120  1  0  0  0
120121  1  0  0  0
121122  2  0  0  0
123124  2  0  0  0
123125  1  0  0  0
125126  1  0  0  0
126127  1  0  0  0
127128  2  0  0  0
127129  1  0  0  0
  1130  1  0  0  0
  2131  1  0  0  0
  5132  1  0  0  0
  5133  1  0  0  0
  7134  1  0  0  0
  8135  1  0  0  0
  9136  1  0  0  0
 10137  1  0  0  0
 11138  1  0  0  0
 12139  1  0  0  0
 12140  1  0  0  0
 12141  1  0  0  0
 14142  1  0  0  0
 17143  1  0  0  0
 17144  1  0  0  0
 19145  1  0  0  0
 20146  1  0  0  0
 21147  1  0  0  0
 22148  1  0  0  0
 23149  1  0  0  0
 25150  1  0  0  0
 25151  1  0  0  0
 25152  1  0  0  0
 26153  1  0  0  0
 26154  1  0  0  0
 27155  1  0  0  0
 27156  1  0  0  0
 28157  1  0  0  0
 28158  1  0  0  0
 29159  1  0  0  0
 30160  1  0  0  0
 30161  1  0  0  0
 30162  1  0  0  0
 34163  1  0  0  0
 34164  1  0  0  0
 37165  1  0  0  0
 37166  1  0  0  0
 37167  1  0  0  0
 38168  1  0  0  0
 39169  1  0  0  0
 42170  1  0  0  0
 42171  1  0  0  0
 45172  1  0  0  0
 46173  1  0  0  0
 47174  1  0  0  0
 50175  1  0  0  0
 51176  1  0  0  0
 51177  1  0  0  0
 51178  1  0  0  0
 52179  1  0  0  0
 52180  1  0  0  0
 52181  1  0  0  0
 53182  1  0  0  0
 53183  1  0  0  0
 53184  1  0  0  0
 55185  1  0  0  0
 58186  1  0  0  0
 58187  1  0  0  0
 60188  1  0  0  0
 61189  1  0  0  0
 62190  1  0  0  0
 63191  1  0  0  0
 64192  1  0  0  0
 65193  1  0  0  0
 66194  1  0  0  0
 69195  1  0  0  0
 69196  1  0  0  0
 71197  1  0  0  0
 72198  1  0  0  0
 73199  1  0  0  0
 74200  1  0  0  0
 76201  1  0  0  0
 78202  1  0  0  0
 78203  1  0  0  0
 81204  1  0  0  0
 81205  1  0  0  0
 81206  1  0  0  0
 82207  1  0  0  0
 83208  1  0  0  0
 86209  1  0  0  0
 86210  1  0  0  0
 88211  1  0  0  0
 92212  1  0  0  0
 93213  1  0  0  0
 94214  1  0  0  0
 95215  1  0  0  0
 96216  1  0  0  0
 97217  1  0  0  0
100218  1  0  0  0
100219  1  0  0  0
102220  1  0  0  0
103221  1  0  0  0
104222  1  0  0  0
105223  1  0  0  0
107224  1  0  0  0
108225  1  0  0  0
109226  1  0  0  0
112227  1  0  0  0
112228  1  0  0  0
113229  1  0  0  0
114230  1  0  0  0
114231  1  0  0  0
114232  1  0  0  0
115233  1  0  0  0
115234  1  0  0  0
115235  1  0  0  0
116236  1  0  0  0
117237  1  0  0  0
118238  1  0  0  0
118239  1  0  0  0
120240  1  0  0  0
120241  1  0  0  0
125242  1  0  0  0
126243  1  0  0  0
126244  1  0  0  0
129245  1  0  0  0
129246  1  0  0  0
M  END
$$$$
