3m58_ligand
  -I-interpret- 

152152  0  0  0  0  0  0  0  0999 V2000
  -33.9720    4.2680    4.3210 C   0  0  0  0  0
  -33.4040    3.5870    3.4630 O   0  0  0  0  0
  -33.5460    4.4100    5.7570 C   0  0  0  0  0
  -34.8390    5.1620    3.9190 N   0  0  0  0  0
  -35.3340    4.9710    2.5730 C   0  0  0  0  0
  -34.5380    5.8760    1.6650 C   0  0  0  0  0
  -34.0780    6.9280    2.0910 O   0  0  0  0  0
  -36.8020    5.3350    2.5520 C   0  0  0  0  0
  -37.3720    4.9500    3.7960 O   0  0  0  0  0
  -34.3840    5.4710    0.4050 N   0  0  0  0  0
  -33.5740    6.2500   -0.5240 C   0  0  0  0  0
  -34.4400    7.2900   -1.2520 C   0  0  0  0  0
  -34.4720    7.3660   -2.4830 O   0  0  0  0  0
  -32.8130    5.3370   -1.5030 C   0  0  0  0  0
  -31.7190    4.4660   -0.8300 C   0  0  0  0  0
  -30.8150    3.8210   -1.8790 C   0  0  0  0  0
  -29.9350    2.7610   -1.2250 C   0  0  0  0  0
  -30.8220    1.7770   -0.5420 N   0  3  0  0  0
  -35.1230    8.1010   -0.4570 N   0  0  0  0  0
  -36.0140    9.1420   -0.9850 C   0  0  0  0  0
  -36.1300   10.2490    0.0370 C   0  0  0  0  0
  -35.9200   10.0300    1.2310 O   0  0  0  0  0
  -37.4050    8.5920   -1.3190 C   0  0  0  0  0
  -38.0790    8.0490   -0.1960 O   0  0  0  0  0
  -36.4700   11.4380   -0.4310 N   0  0  0  0  0
  -36.5410   12.6000    0.4150 C   0  0  0  0  0
  -36.5730   13.8790   -0.4300 C   0  0  0  0  0
  -35.3330   14.0510   -1.2930 C   0  0  0  0  0
  -35.7180   15.2320   -2.1820 C   0  0  0  0  0
  -35.0740   15.2240   -3.5380 C   0  0  0  0  0
  -35.6580   16.2600   -4.4210 N   0  3  0  0  0
  -34.5930   16.6520   -5.3490 C   0  0  0  0  0
  -37.8170   12.6610    1.2170 C   0  0  0  0  0
  -38.8710   12.2000    0.7810 O   0  0  0  0  0
  -37.7270   13.2590    2.4050 N   0  0  0  0  0
  -38.9240   13.7560    3.1180 C   0  0  0  0  0
  -39.8800   12.6700    3.5750 C   0  0  0  0  0
  -41.0800   12.9080    3.6700 O   0  0  0  0  0
  -39.6700   14.7790    2.2310 C   0  0  0  0  0
  -40.5370   15.7620    3.0280 C   0  0  0  0  0
  -40.0310   16.3750    3.9910 O   0  0  0  0  0
  -41.7240   15.9700    2.6500 O   0  0  0  0  0
  -39.3690   11.4710    3.8610 N   0  0  0  0  0
  -40.2400   10.4470    4.4310 C   0  0  0  0  0
  -40.5010   10.7600    5.9020 C   0  0  0  0  0
  -39.6310   11.2850    6.5930 O   0  0  0  0  0
  -39.6360    9.0400    4.2710 C   0  0  0  0  0
  -40.6210    7.9540    4.6220 C   0  0  0  0  0
  -40.1000    6.5900    4.2540 C   0  0  0  0  0
  -41.0910    5.5600    4.5570 N   0  3  0  0  0
  -41.7010   10.4580    6.3860 N   0  0  0  0  0
  -41.9160   10.5710    7.8280 C   0  0  0  0  0
  -41.3770    9.3170    8.5130 C   0  0  0  0  0
  -41.7830    8.1910    8.1970 O   0  0  0  0  0
  -43.3840   10.8360    8.1800 C   0  0  0  0  0
  -43.5700   11.4460    9.5830 C   0  0  0  0  0
  -44.7140   12.4710    9.6260 C   0  0  0  0  0
  -44.9210   13.0610   11.0370 C   0  0  0  0  0
  -45.8010   14.2670   11.0490 N   0  3  0  0  0
  -40.4100    9.5100    9.3970 N   0  0  0  0  0
  -39.8100    8.4090   10.1400 C   0  0  0  0  0
  -40.3960    8.3810   11.5470 C   0  0  0  0  0
  -40.9022    9.4262   12.0358 O   0  0  0  0  0
  -38.2950    8.5890   10.2050 C   0  0  0  0  0
  -37.6310    8.4620    8.8550 C   0  0  0  0  0
  -37.5740    7.2320    8.2130 C   0  0  0  0  0
  -37.0630    9.5660    8.2180 C   0  0  0  0  0
  -36.9830    7.0940    6.9740 C   0  0  0  0  0
  -36.4610    9.4360    6.9630 C   0  0  0  0  0
  -36.4300    8.1940    6.3560 C   0  0  0  0  0
  -35.8570    8.0170    5.1240 O   0  0  0  0  0
  -40.3742    7.3156   12.2193 O   0  0  0  0  0
  -33.5529    3.4305    6.2353 H   0  0  0  0  0
  -32.5401    4.8280    5.7966 H   0  0  0  0  0
  -34.2374    5.0740    6.2758 H   0  0  0  0  0
  -35.1430    5.9355    4.5103 H   0  0  0  0  0
  -35.2269    3.9390    2.2390 H   0  0  0  0  0
  -37.3046    4.8195    1.7336 H   0  0  0  0  0
  -36.9202    6.4080    2.4014 H   0  0  0  0  0
  -38.3056    5.1735    3.8018 H   0  0  0  0  0
  -34.8347    4.6123    0.0890 H   0  0  0  0  0
  -32.8202    6.7933    0.0458 H   0  0  0  0  0
  -32.3142    5.9820   -2.2264 H   0  0  0  0  0
  -33.5415    4.6575   -1.9453 H   0  0  0  0  0
  -32.2035    3.6786   -0.2525 H   0  0  0  0  0
  -31.1112    5.1018   -0.1863 H   0  0  0  0  0
  -30.1821    4.5866   -2.3278 H   0  0  0  0  0
  -31.4318    3.3528   -2.6461 H   0  0  0  0  0
  -29.2633    3.2248   -0.5027 H   0  0  0  0  0
  -29.3291    2.2591   -1.9794 H   0  0  0  0  0
  -30.2513    1.0581   -0.0973 H   0  0  0  0  0
  -31.3788    2.2567    0.1653 H   0  0  0  0  0
  -31.4408    1.3453   -1.2283 H   0  0  0  0  0
  -35.0268    7.9989    0.5533 H   0  0  0  0  0
  -35.5858    9.5221   -1.9125 H   0  0  0  0  0
  -37.2758    7.7893   -2.0450 H   0  0  0  0  0
  -38.0053    9.4210   -1.6939 H   0  0  0  0  0
  -38.9399    7.7226   -0.4679 H   0  0  0  0  0
  -36.6888   11.5346   -1.4226 H   0  0  0  0  0
  -35.6679   12.5283    1.0636 H   0  0  0  0  0
  -36.6231   14.7272    0.2527 H   0  0  0  0  0
  -37.4346   13.8167   -1.0948 H   0  0  0  0  0
  -35.0751   13.1549   -1.8574 H   0  0  0  0  0
  -34.4273   14.2277   -0.7129 H   0  0  0  0  0
  -35.3832   16.1367   -1.6744 H   0  0  0  0  0
  -36.7951   15.1759   -2.3393 H   0  0  0  0  0
  -35.2398   14.2478   -3.9937 H   0  0  0  0  0
  -34.0109   15.4320   -3.4171 H   0  0  0  0  0
  -35.9891   17.0598   -3.8814 H   0  0  0  0  0
  -36.4701   15.9009   -4.9230 H   0  0  0  0  0
  -33.7483   17.0471   -4.7846 H   0  0  0  0  0
  -34.2736   15.7815   -5.9220 H   0  0  0  0  0
  -34.9681   17.4178   -6.0279 H   0  0  0  0  0
  -36.8089   13.3769    2.8335 H   0  0  0  0  0
  -38.5573   14.2273    4.0299 H   0  0  0  0  0
  -40.3322   14.2189    1.5707 H   0  0  0  0  0
  -38.9178   15.3619    1.6995 H   0  0  0  0  0
  -41.9236   15.4046    1.9003 H   0  0  0  0  0
  -38.3842   11.2727    3.6840 H   0  0  0  0  0
  -41.1853   10.4558    3.8884 H   0  0  0  0  0
  -38.7850    8.9574    4.9471 H   0  0  0  0  0
  -39.3472    8.9116    3.2278 H   0  0  0  0  0
  -41.5413    8.1319    4.0656 H   0  0  0  0  0
  -40.7900    7.9783    5.6985 H   0  0  0  0  0
  -39.1966    6.3904    4.8304 H   0  0  0  0  0
  -39.8869    6.5706    3.1852 H   0  0  0  0  0
  -40.7186    4.6457    4.3006 H   0  0  0  0  0
  -41.3012    5.5752    5.5550 H   0  0  0  0  0
  -41.9426    5.7426    4.0262 H   0  0  0  0  0
  -42.4532   10.1550    5.7673 H   0  0  0  0  0
  -41.3685   11.4386    8.1962 H   0  0  0  0  0
  -43.9060    9.8793    8.1634 H   0  0  0  0  0
  -43.7744   11.5498    7.4546 H   0  0  0  0  0
  -42.6468   11.9579    9.8544 H   0  0  0  0  0
  -43.8133   10.6384   10.2734 H   0  0  0  0  0
  -45.6333   11.9634    9.3341 H   0  0  0  0  0
  -44.4600   13.2890    8.9519 H   0  0  0  0  0
  -43.9440   13.3621   11.4149 H   0  0  0  0  0
  -45.4018   12.2961   11.6468 H   0  0  0  0  0
  -45.8972   14.6067   12.0059 H   0  0  0  0  0
  -45.3854   14.9955   10.4685 H   0  0  0  0  0
  -46.7195   14.0199   10.6807 H   0  0  0  0  0
  -40.0746   10.4589    9.5631 H   0  0  0  0  0
  -40.0262    7.4662    9.6374 H   0  0  0  0  0
  -40.8376   10.1404   11.3975 H   0  0  0  0  0
  -37.8936    7.8064   10.8488 H   0  0  0  0  0
  -38.0943    9.5918   10.5822 H   0  0  0  0  0
  -38.0055    6.3566    8.6984 H   0  0  0  0  0
  -37.0890   10.5410    8.7046 H   0  0  0  0  0
  -36.9538    6.1195    6.4866 H   0  0  0  0  0
  -36.0216   10.3027    6.4692 H   0  0  0  0  0
  -35.5129    8.8560    4.8089 H   0  0  0  0  0
  1  2  2  0  0  0
  1  3  1  0  0  0
  1  4  1  0  0  0
  4  5  1  0  0  0
  5  6  1  0  0  0
  5  8  1  0  0  0
  6  7  2  0  0  0
  6 10  1  0  0  0
  8  9  1  0  0  0
 10 11  1  0  0  0
 11 12  1  0  0  0
 11 14  1  0  0  0
 12 13  2  0  0  0
 12 19  1  0  0  0
 14 15  1  0  0  0
 15 16  1  0  0  0
 16 17  1  0  0  0
 17 18  1  0  0  0
 19 20  1  0  0  0
 20 21  1  0  0  0
 20 23  1  0  0  0
 21 22  2  0  0  0
 21 25  1  0  0  0
 23 24  1  0  0  0
 25 26  1  0  0  0
 26 27  1  0  0  0
 26 33  1  0  0  0
 27 28  1  0  0  0
 28 29  1  0  0  0
 29 30  1  0  0  0
 30 31  1  0  0  0
 31 32  1  0  0  0
 33 34  2  0  0  0
 33 35  1  0  0  0
 35 36  1  0  0  0
 36 37  1  0  0  0
 36 39  1  0  0  0
 37 38  2  0  0  0
 37 43  1  0  0  0
 39 40  1  0  0  0
 40 41  2  0  0  0
 40 42  1  0  0  0
 43 44  1  0  0  0
 44 45  1  0  0  0
 44 47  1  0  0  0
 45 46  2  0  0  0
 45 51  1  0  0  0
 47 48  1  0  0  0
 48 49  1  0  0  0
 49 50  1  0  0  0
 51 52  1  0  0  0
 52 53  1  0  0  0
 52 55  1  0  0  0
 53 54  2  0  0  0
 53 60  1  0  0  0
 55 56  1  0  0  0
 56 57  1  0  0  0
 57 58  1  0  0  0
 58 59  1  0  0  0
 60 61  1  0  0  0
 61 62  1  0  0  0
 61 64  1  0  0  0
 62 63  1  0  0  0
 64 65  1  0  0  0
 65 66  4  0  0  0
 65 67  4  0  0  0
 66 68  4  0  0  0
 67 69  4  0  0  0
 68 70  4  0  0  0
 69 70  4  0  0  0
 70 71  1  0  0  0
 62 72  2  0  0  0
  3 73  1  0  0  0
  3 74  1  0  0  0
  3 75  1  0  0  0
  4 76  1  0  0  0
  5 77  1  0  0  0
  8 78  1  0  0  0
  8 79  1  0  0  0
  9 80  1  0  0  0
 10 81  1  0  0  0
 11 82  1  0  0  0
 14 83  1  0  0  0
 14 84  1  0  0  0
 15 85  1  0  0  0
 15 86  1  0  0  0
 16 87  1  0  0  0
 16 88  1  0  0  0
 17 89  1  0  0  0
 17 90  1  0  0  0
 18 91  1  0  0  0
 18 92  1  0  0  0
 18 93  1  0  0  0
 19 94  1  0  0  0
 20 95  1  0  0  0
 23 96  1  0  0  0
 23 97  1  0  0  0
 24 98  1  0  0  0
 25 99  1  0  0  0
 26100  1  0  0  0
 27101  1  0  0  0
 27102  1  0  0  0
 28103  1  0  0  0
 28104  1  0  0  0
 29105  1  0  0  0
 29106  1  0  0  0
 30107  1  0  0  0
 30108  1  0  0  0
 31109  1  0  0  0
 31110  1  0  0  0
 32111  1  0  0  0
 32112  1  0  0  0
 32113  1  0  0  0
 35114  1  0  0  0
 36115  1  0  0  0
 39116  1  0  0  0
 39117  1  0  0  0
 42118  1  0  0  0
 43119  1  0  0  0
 44120  1  0  0  0
 47121  1  0  0  0
 47122  1  0  0  0
 48123  1  0  0  0
 48124  1  0  0  0
 49125  1  0  0  0
 49126  1  0  0  0
 50127  1  0  0  0
 50128  1  0  0  0
 50129  1  0  0  0
 51130  1  0  0  0
 52131  1  0  0  0
 55132  1  0  0  0
 55133  1  0  0  0
 56134  1  0  0  0
 56135  1  0  0  0
 57136  1  0  0  0
 57137  1  0  0  0
 58138  1  0  0  0
 58139  1  0  0  0
 59140  1  0  0  0
 59141  1  0  0  0
 59142  1  0  0  0
 60143  1  0  0  0
 61144  1  0  0  0
 63145  1  0  0  0
 64146  1  0  0  0
 64147  1  0  0  0
 66148  1  0  0  0
 67149  1  0  0  0
 68150  1  0  0  0
 69151  1  0  0  0
 71152  1  0  0  0
M  END
$$$$
