### 
### Created by X-TOOL on Mon Sep 10 21:13:02 2018
### 

@<TRIPOS>MOLECULE
3m58_ligand
  150   150     1     0     0
SMALL
GAST_HUCK


@<TRIPOS>ATOM
      1 C         -33.9720    4.2680    4.3210 C.2       1 ACE         0.1752
      2 O         -33.4040    3.5870    3.4630 O.2       1 ACE        -0.3972
      3 CH3       -33.5460    4.4100    5.7570 C.3       1 ACE         0.0258
      4 N         -34.8390    5.1620    3.9190 N.am      1 SER        -0.2637
      5 CA        -35.3340    4.9710    2.5730 C.3       1 SER         0.1538
      6 C         -34.5380    5.8760    1.6650 C.2       1 SER         0.2062
      7 O         -34.0780    6.9280    2.0910 O.2       1 SER        -0.3943
      8 CB        -36.8020    5.3350    2.5520 C.3       1 SER         0.0843
      9 OG        -37.3720    4.9500    3.7960 O.3       1 SER        -0.3903
     10 N         -34.3840    5.4710    0.4050 N.am      1 LYS        -0.2637
     11 CA        -33.5740    6.2500   -0.5240 C.3       1 LYS         0.1310
     12 C         -34.4400    7.2900   -1.2520 C.2       1 LYS         0.2040
     13 O         -34.4720    7.3660   -2.4830 O.2       1 LYS        -0.3944
     14 CB        -32.8130    5.3370   -1.5030 C.3       1 LYS        -0.0122
     15 CG        -31.7190    4.4660   -0.8300 C.3       1 LYS        -0.0440
     16 CD        -30.8150    3.8210   -1.8790 C.3       1 LYS        -0.0124
     17 CE        -29.9350    2.7610   -1.2250 C.3       1 LYS        -0.0354
     18 NZ        -30.8220    1.7770   -0.5420 N.4       1 LYS         0.2185
     19 N         -35.1230    8.1010   -0.4570 N.am      1 SER        -0.2616
     20 CA        -36.0140    9.1420   -0.9850 C.3       1 SER         0.1539
     21 C         -36.1300   10.2490    0.0370 C.2       1 SER         0.2062
     22 O         -35.9200   10.0300    1.2310 O.2       1 SER        -0.3943
     23 CB        -37.4050    8.5920   -1.3190 C.3       1 SER         0.0843
     24 OG        -38.0790    8.0490   -0.1960 O.3       1 SER        -0.3903
     25 N         -36.4700   11.4380   -0.4310 N.am      1 MLZ        -0.2637
     26 CA        -36.5410   12.6000    0.4150 C.3       1 MLZ         0.1310
     27 CB        -36.5730   13.8790   -0.4300 C.3       1 MLZ        -0.0122
     28 CG        -35.3330   14.0510   -1.2930 C.3       1 MLZ        -0.0440
     29 CD        -35.7180   15.2320   -2.1820 C.3       1 MLZ        -0.0124
     30 CE        -35.0740   15.2240   -3.5380 C.3       1 MLZ        -0.0339
     31 NZ        -35.6580   16.2600   -4.4210 N.4       1 MLZ         0.2248
     32 CM        -34.5930   16.6520   -5.3490 C.3       1 MLZ        -0.0449
     33 C         -37.8170   12.6610    1.2170 C.2       1 MLZ         0.2040
     34 O         -38.8710   12.2000    0.7810 O.2       1 MLZ        -0.3944
     35 N         -37.7270   13.2590    2.4050 N.am      1 ASP        -0.2622
     36 CA        -38.9240   13.7560    3.1180 C.3       1 ASP         0.1423
     37 C         -39.8800   12.6700    3.5750 C.2       1 ASP         0.2056
     38 O         -41.0800   12.9080    3.6700 O.2       1 ASP        -0.3943
     39 CB        -39.6700   14.7790    2.2310 C.3       1 ASP         0.0406
     40 CG        -40.5370   15.7620    3.0280 C.2       1 ASP         0.0393
     41 OD1       -40.0310   16.3750    3.9910 O.co2     1 ASP        -0.5688
     42 OD2       -41.7240   15.9700    2.6500 O.co2     1 ASP        -0.5688
     43 N         -39.3690   11.4710    3.8610 N.am      1 ARG        -0.2636
     44 CA        -40.2400   10.4470    4.4310 C.3       1 ARG         0.1312
     45 C         -40.5010   10.7600    5.9020 C.2       1 ARG         0.2039
     46 O         -39.6310   11.2850    6.5930 O.2       1 ARG        -0.3944
     47 CB        -39.6360    9.0400    4.2710 C.3       1 ARG        -0.0076
     48 CG        -40.6210    7.9540    4.6220 C.3       1 ARG        -0.0084
     49 CD        -40.1000    6.5900    4.2540 C.3       1 ARG        -0.0352
     50 NE        -41.0910    5.5600    4.5570 N.4       1 ARG         0.2185
     51 N         -41.7010   10.4580    6.3860 N.am      1 LYS        -0.2637
     52 CA        -41.9160   10.5710    7.8280 C.3       1 LYS         0.1309
     53 C         -41.3770    9.3170    8.5130 C.2       1 LYS         0.2035
     54 O         -41.7830    8.1910    8.1970 O.2       1 LYS        -0.3944
     55 CB        -43.3840   10.8360    8.1800 C.3       1 LYS        -0.0122
     56 CG        -43.5700   11.4460    9.5830 C.3       1 LYS        -0.0440
     57 CD        -44.7140   12.4710    9.6260 C.3       1 LYS        -0.0124
     58 CE        -44.9210   13.0610   11.0370 C.3       1 LYS        -0.0354
     59 NZ        -45.8010   14.2670   11.0490 N.4       1 LYS         0.2185
     60 N         -40.4100    9.5100    9.3970 N.am      1 TYR        -0.2679
     61 CA        -39.8100    8.4090   10.1400 C.3       1 TYR         0.1025
     62 C         -40.3960    8.3810   11.5470 C.2       1 TYR         0.0619
     63 O         -40.9022    9.4262   12.0358 O.co2     1 TYR        -0.5665
     64 CB        -38.2950    8.5890   10.2050 C.3       1 TYR         0.0108
     65 CG        -37.6310    8.4620    8.8550 C.ar      1 TYR        -0.0499
     66 CD1       -37.5740    7.2320    8.2130 C.ar      1 TYR        -0.0686
     67 CD2       -37.0630    9.5660    8.2180 C.ar      1 TYR        -0.0686
     68 CE1       -36.9830    7.0940    6.9740 C.ar      1 TYR        -0.0398
     69 CE2       -36.4610    9.4360    6.9630 C.ar      1 TYR        -0.0398
     70 CZ        -36.4300    8.1940    6.3560 C.ar      1 TYR         0.0805
     71 OH        -35.8570    8.0170    5.1240 O.3       1 TYR        -0.3376
     72 H         -33.5529    3.4305    6.2353 H         1 ACE         0.0467
     73 H         -32.5401    4.8280    5.7966 H         1 ACE         0.0467
     74 H         -34.2374    5.0740    6.2758 H         1 ACE         0.0467
     75 H         -35.1430    5.9355    4.5103 H         1 SER         0.1883
     76 H         -35.2269    3.9390    2.2390 H         1 SER         0.0823
     77 H         -37.3046    4.8195    1.7336 H         1 SER         0.0606
     78 H         -36.9202    6.4080    2.4014 H         1 SER         0.0606
     79 H         -38.3056    5.1735    3.8018 H         1 SER         0.2097
     80 H         -34.8347    4.6123    0.0890 H         1 LYS         0.1883
     81 H         -32.8202    6.7933    0.0458 H         1 LYS         0.0800
     82 H         -32.3142    5.9820   -2.2264 H         1 LYS         0.0312
     83 H         -33.5415    4.6575   -1.9453 H         1 LYS         0.0312
     84 H         -32.2035    3.6786   -0.2525 H         1 LYS         0.0269
     85 H         -31.1112    5.1018   -0.1863 H         1 LYS         0.0269
     86 H         -30.1821    4.5866   -2.3278 H         1 LYS         0.0317
     87 H         -31.4318    3.3528   -2.6461 H         1 LYS         0.0317
     88 H         -29.2633    3.2248   -0.5027 H         1 LYS         0.0813
     89 H         -29.3291    2.2591   -1.9794 H         1 LYS         0.0813
     90 H         -30.2513    1.0581   -0.0973 H         1 LYS         0.1994
     91 H         -31.3788    2.2567    0.1653 H         1 LYS         0.1994
     92 H         -31.4408    1.3453   -1.2283 H         1 LYS         0.1994
     93 H         -35.0268    7.9989    0.5533 H         1 SER         0.1884
     94 H         -35.5858    9.5221   -1.9125 H         1 SER         0.0823
     95 H         -37.2758    7.7893   -2.0450 H         1 SER         0.0606
     96 H         -38.0053    9.4210   -1.6939 H         1 SER         0.0606
     97 H         -37.5619    7.3265    0.1676 H         1 SER         0.2097
     98 H         -36.6888   11.5346   -1.4226 H         1 MLZ         0.1883
     99 H         -35.6679   12.5283    1.0636 H         1 MLZ         0.0800
    100 H         -36.6231   14.7272    0.2527 H         1 MLZ         0.0312
    101 H         -37.4346   13.8167   -1.0948 H         1 MLZ         0.0312
    102 H         -35.0751   13.1549   -1.8574 H         1 MLZ         0.0269
    103 H         -34.4273   14.2277   -0.7129 H         1 MLZ         0.0269
    104 H         -35.3832   16.1367   -1.6744 H         1 MLZ         0.0317
    105 H         -36.7951   15.1759   -2.3393 H         1 MLZ         0.0317
    106 H         -35.2398   14.2478   -3.9937 H         1 MLZ         0.0814
    107 H         -34.0109   15.4320   -3.4171 H         1 MLZ         0.0814
    108 H         -35.9891   17.0598   -3.8814 H         1 MLZ         0.2011
    109 H         -36.4701   15.9009   -4.9230 H         1 MLZ         0.2011
    110 H         -33.7483   17.0471   -4.7846 H         1 MLZ         0.0777
    111 H         -34.2736   15.7815   -5.9220 H         1 MLZ         0.0777
    112 H         -34.9681   17.4178   -6.0279 H         1 MLZ         0.0777
    113 H         -36.8089   13.3769    2.8335 H         1 ASP         0.1884
    114 H         -38.5573   14.2273    4.0299 H         1 ASP         0.0819
    115 H         -40.3322   14.2189    1.5707 H         1 ASP         0.0478
    116 H         -38.9178   15.3619    1.6995 H         1 ASP         0.0478
    117 H         -38.3842   11.2727    3.6840 H         1 ARG         0.1883
    118 H         -41.1853   10.4558    3.8884 H         1 ARG         0.0800
    119 H         -38.7850    8.9574    4.9471 H         1 ARG         0.0314
    120 H         -39.3472    8.9116    3.2278 H         1 ARG         0.0314
    121 H         -41.5413    8.1319    4.0656 H         1 ARG         0.0319
    122 H         -40.7900    7.9783    5.6985 H         1 ARG         0.0319
    123 H         -39.1966    6.3904    4.8304 H         1 ARG         0.0813
    124 H         -39.8869    6.5706    3.1852 H         1 ARG         0.0813
    125 H         -40.7186    4.6457    4.3006 H         1 ARG         0.1994
    126 H         -41.3012    5.5752    5.5550 H         1 ARG         0.1994
    127 H         -41.9426    5.7426    4.0262 H         1 ARG         0.1994
    128 H         -42.4532   10.1550    5.7673 H         1 LYS         0.1883
    129 H         -41.3685   11.4386    8.1962 H         1 LYS         0.0800
    130 H         -43.9060    9.8793    8.1634 H         1 LYS         0.0312
    131 H         -43.7744   11.5498    7.4546 H         1 LYS         0.0312
    132 H         -42.6468   11.9579    9.8544 H         1 LYS         0.0269
    133 H         -43.8133   10.6384   10.2734 H         1 LYS         0.0269
    134 H         -45.6333   11.9634    9.3341 H         1 LYS         0.0317
    135 H         -44.4600   13.2890    8.9519 H         1 LYS         0.0317
    136 H         -43.9440   13.3621   11.4149 H         1 LYS         0.0813
    137 H         -45.4018   12.2961   11.6468 H         1 LYS         0.0813
    138 H         -45.8972   14.6067   12.0059 H         1 LYS         0.1994
    139 H         -45.3854   14.9955   10.4685 H         1 LYS         0.1994
    140 H         -46.7195   14.0199   10.6807 H         1 LYS         0.1994
    141 H         -40.0746   10.4589    9.5631 H         1 TYR         0.1877
    142 H         -40.0262    7.4662    9.6374 H         1 TYR         0.0747
    143 O         -40.3742    7.3156   12.2193 O.co2     1 TYR        -0.5665
    144 H         -37.8936    7.8064   10.8488 H         1 TYR         0.0446
    145 H         -38.0943    9.5918   10.5822 H         1 TYR         0.0446
    146 H         -38.0055    6.3566    8.6984 H         1 TYR         0.0530
    147 H         -37.0890   10.5410    8.7046 H         1 TYR         0.0530
    148 H         -36.9538    6.1195    6.4866 H         1 TYR         0.0525
    149 H         -36.0216   10.3027    6.4692 H         1 TYR         0.0525
    150 H         -36.3097    8.5664    4.4799 H         1 TYR         0.2458
@<TRIPOS>BOND
     1    1    2 2  
     2    1    3 1  
     3    1    4 am 
     4    4    5 1  
     5    5    6 1  
     6    5    8 1  
     7    6    7 2  
     8    6   10 am 
     9    8    9 1  
    10   10   11 1  
    11   11   12 1  
    12   11   14 1  
    13   12   13 2  
    14   12   19 am 
    15   14   15 1  
    16   15   16 1  
    17   16   17 1  
    18   17   18 1  
    19   19   20 1  
    20   20   21 1  
    21   20   23 1  
    22   21   22 2  
    23   21   25 am 
    24   23   24 1  
    25   25   26 1  
    26   26   27 1  
    27   26   33 1  
    28   27   28 1  
    29   28   29 1  
    30   29   30 1  
    31   30   31 1  
    32   31   32 1  
    33   33   34 2  
    34   33   35 am 
    35   35   36 1  
    36   36   37 1  
    37   36   39 1  
    38   37   38 2  
    39   37   43 am 
    40   39   40 1  
    41   40   41 ar 
    42   40   42 ar 
    43   43   44 1  
    44   44   45 1  
    45   44   47 1  
    46   45   46 2  
    47   45   51 am 
    48   47   48 1  
    49   48   49 1  
    50   49   50 1  
    51   51   52 1  
    52   52   53 1  
    53   52   55 1  
    54   53   54 2  
    55   53   60 am 
    56   55   56 1  
    57   56   57 1  
    58   57   58 1  
    59   58   59 1  
    60   60   61 1  
    61   61   62 1  
    62   61   64 1  
    63   62   63 ar 
    64   64   65 1  
    65   65   66 ar 
    66   65   67 ar 
    67   66   68 ar 
    68   67   69 ar 
    69   68   70 ar 
    70   69   70 ar 
    71   70   71 1  
    72    3   72 1  
    73    3   73 1  
    74    3   74 1  
    75    4   75 1  
    76    5   76 1  
    77    8   77 1  
    78    8   78 1  
    79    9   79 1  
    80   10   80 1  
    81   11   81 1  
    82   14   82 1  
    83   14   83 1  
    84   15   84 1  
    85   15   85 1  
    86   16   86 1  
    87   16   87 1  
    88   17   88 1  
    89   17   89 1  
    90   18   90 1  
    91   18   91 1  
    92   18   92 1  
    93   19   93 1  
    94   20   94 1  
    95   23   95 1  
    96   23   96 1  
    97   24   97 1  
    98   25   98 1  
    99   26   99 1  
   100   27  100 1  
   101   27  101 1  
   102   28  102 1  
   103   28  103 1  
   104   29  104 1  
   105   29  105 1  
   106   30  106 1  
   107   30  107 1  
   108   31  108 1  
   109   31  109 1  
   110   32  110 1  
   111   32  111 1  
   112   32  112 1  
   113   35  113 1  
   114   36  114 1  
   115   39  115 1  
   116   39  116 1  
   117   43  117 1  
   118   44  118 1  
   119   47  119 1  
   120   47  120 1  
   121   48  121 1  
   122   48  122 1  
   123   49  123 1  
   124   49  124 1  
   125   50  125 1  
   126   50  126 1  
   127   50  127 1  
   128   51  128 1  
   129   52  129 1  
   130   55  130 1  
   131   55  131 1  
   132   56  132 1  
   133   56  133 1  
   134   57  134 1  
   135   57  135 1  
   136   58  136 1  
   137   58  137 1  
   138   59  138 1  
   139   59  139 1  
   140   59  140 1  
   141   60  141 1  
   142   61  142 1  
   143   62  143 ar 
   144   64  144 1  
   145   64  145 1  
   146   66  146 1  
   147   67  147 1  
   148   68  148 1  
   149   69  149 1  
   150   71  150 1  
@<TRIPOS>SUBSTRUCTURE
     1 ACE         1

