5tpb_ligand
  -I-interpret- 

 39 39  0  0  0  0  0  0  0  0999 V2000
   40.7920   12.7420   61.7290 C   0  0  0  0  0
   39.9550   13.6950   60.9800 C   0  0  0  0  0
   40.0990   15.2120   60.9100 C   0  0  0  0  0
   40.2200   15.7340   59.5120 C   0  0  0  0  0
   39.1130   15.1300   58.6690 C   0  0  0  0  0
   39.2860   13.6310   58.6900 C   0  0  0  0  0
   38.3280   12.9440   57.7260 C   0  0  0  0  0
   38.2260   11.4540   58.0270 C   0  0  0  0  0
   37.1580   10.7940   57.1640 C   0  0  0  0  0
   38.2170   16.3740   56.7890 C   0  0  0  0  0
   38.4550   16.8650   55.3920 C   0  0  0  0  0
   39.1870   15.6270   57.3100 N   0  0  0  0  0
   41.1470   11.7300   61.1080 O   0  0  0  0  0
   41.0260   13.0160   62.9110 O   0  0  0  0  0
   40.0920   17.1600   59.5200 O   0  0  0  0  0
   38.9870   13.2480   60.0310 O   0  0  0  0  0
   37.0310   13.5430   57.8350 O   0  0  0  0  0
   39.4910   10.8300   57.7810 O   0  0  0  0  0
   37.3550    9.3750   57.1610 O   0  0  0  0  0
   37.2010   16.6420   57.4080 O   0  0  0  0  0
   40.0373   13.5130   62.0515 H   0  0  0  0  0
   41.0124   15.4801   61.4410 H   0  0  0  0  0
   39.2004   15.6478   61.3468 H   0  0  0  0  0
   41.1917   15.4650   59.0978 H   0  0  0  0  0
   38.1374   15.4046   59.0702 H   0  0  0  0  0
   40.2907   13.3426   58.3810 H   0  0  0  0  0
   38.7114   13.0656   56.7129 H   0  0  0  0  0
   37.9471   11.3321   59.0736 H   0  0  0  0  0
   37.2300   11.1727   56.1444 H   0  0  0  0  0
   36.1720   11.0228   57.5684 H   0  0  0  0  0
   37.6674   16.4912   54.7377 H   0  0  0  0  0
   38.4480   17.9550   55.3852 H   0  0  0  0  0
   39.4220   16.5044   55.0413 H   0  0  0  0  0
   40.0013   15.3990   56.7397 H   0  0  0  0  0
   40.8251   11.7807   60.2050 H   0  0  0  0  0
   40.7934   17.5401   60.0540 H   0  0  0  0  0
   37.0963   14.4818   57.6452 H   0  0  0  0  0
   39.4258    9.8912   57.9709 H   0  0  0  0  0
   36.6813    8.9607   56.6168 H   0  0  0  0  0
  2  1  1  0  0  0
  1 13  1  0  0  0
  1 14  2  0  0  0
  3  2  1  0  0  0
 16  2  1  0  0  0
  4  3  1  0  0  0
  5  4  1  0  0  0
  4 15  1  0  0  0
  5  6  1  0  0  0
 12  5  1  0  0  0
  6  7  1  0  0  0
  6 16  1  0  0  0
  7  8  1  0  0  0
  7 17  1  0  0  0
  8  9  1  0  0  0
  8 18  1  0  0  0
  9 19  1  0  0  0
 10 11  1  0  0  0
 10 12  1  0  0  0
 10 20  2  0  0  0
  2 21  1  0  0  0
  3 22  1  0  0  0
  3 23  1  0  0  0
  4 24  1  0  0  0
  5 25  1  0  0  0
  6 26  1  0  0  0
  7 27  1  0  0  0
  8 28  1  0  0  0
  9 29  1  0  0  0
  9 30  1  0  0  0
 11 31  1  0  0  0
 11 32  1  0  0  0
 11 33  1  0  0  0
 12 34  1  0  0  0
 13 35  1  0  0  0
 15 36  1  0  0  0
 17 37  1  0  0  0
 18 38  1  0  0  0
 19 39  1  0  0  0
M  END
$$$$
