5tbe_ligand
  -I-interpret- 

 72 77  0  0  0  0  0  0  0  0999 V2000
   20.4440   11.5210  -27.9970 C   0  0  0  0  0
   21.7350   11.9300  -28.7300 C   0  0  0  0  0
   22.7530   12.3640  -27.7900 O   0  0  0  0  0
   22.9920   11.4490  -26.7190 C   0  0  0  0  0
   21.6930   11.1080  -26.0030 C   0  0  0  0  0
   20.7080   10.5130  -26.9460 N   0  0  0  0  0
   19.4600   10.1220  -26.2250 C   0  0  0  0  0
   19.1350    9.0430  -26.1910 C   0  0  0  0  0
   19.7730    8.1280  -27.2080 N   0  0  0  0  0
   19.6310    6.7790  -27.4150 C   0  0  0  0  0
   20.3770    6.2650  -28.2570 O   0  0  0  0  0
   18.8140    5.9240  -26.5930 C   0  0  0  0  0
   19.1130    4.5120  -26.5340 C   0  0  0  0  0
   18.4070    3.5630  -25.7560 C   0  0  0  0  0
   18.8090    2.1910  -25.7990 C   0  0  0  0  0
   19.1320    1.7010  -26.8980 O   0  0  0  0  0
   17.7250    6.3230  -25.8060 C   0  0  0  0  0
   17.0170    5.3960  -25.0310 C   0  0  0  0  0
   17.3480    4.0290  -25.0180 C   0  0  0  0  0
   16.6040    3.1950  -24.1380 C   0  0  0  0  0
   17.6060    2.7310  -22.9870 C   0  0  0  0  0
   18.3400    1.5900  -23.4050 C   0  0  0  0  0
   18.5310    0.6330  -22.3850 C   0  0  0  0  0
   18.8610    1.3470  -24.6710 C   0  0  0  0  0
   19.5310    0.1300  -24.9050 C   0  0  0  0  0
   19.6840   -0.8340  -23.8950 C   0  0  0  0  0
   19.2010   -0.5920  -22.6030 C   0  0  0  0  0
   19.3190   -1.4270  -21.5400 N   0  0  0  0  0
   20.0820   -2.5500  -21.4100 C   0  0  0  0  0
   19.4840   -3.6200  -20.7600 C   0  0  0  0  0
   21.4350   -2.6440  -21.8170 C   0  0  0  0  0
   22.0590   -1.7650  -22.3870 F   0  0  0  0  0
   22.1100   -3.8250  -21.6190 C   0  0  0  0  0
   21.4800   -4.9070  -21.0000 C   0  0  0  0  0
   22.2260   -6.1070  -20.8230 F   0  0  0  0  0
   20.1480   -4.8270  -20.5690 C   0  0  0  0  0
   19.6350   -5.9430  -19.9450 N   0  0  0  0  0
   18.3200   -6.3300  -20.0640 C   0  0  0  0  0
   17.4520   -5.7080  -20.6990 O   0  0  0  0  0
   17.9100   -7.4440  -19.3840 C   0  0  0  0  0
   16.6530   -8.4590  -19.9240 S   0  0  0  0  0
   16.7900   -9.4910  -18.5400 C   0  0  0  0  0
   17.7580   -9.0190  -17.7390 C   0  0  0  0  0
   18.3520   -7.9140  -18.1920 C   0  0  0  0  0
   19.7583   11.0872  -28.7248 H   0  0  0  0  0
   20.0215   12.4077  -27.5244 H   0  0  0  0  0
   21.5073   12.7556  -29.4042 H   0  0  0  0  0
   22.1123   11.0681  -29.2803 H   0  0  0  0  0
   23.6761   11.9107  -26.0070 H   0  0  0  0  0
   23.4205   10.5334  -27.1267 H   0  0  0  0  0
   21.2714   12.0229  -25.5866 H   0  0  0  0  0
   21.9059   10.3848  -25.2157 H   0  0  0  0  0
   18.8597   10.8844  -25.7286 H   0  0  0  0  0
   18.4041    8.6822  -25.4673 H   0  0  0  0  0
   20.4180    8.5901  -27.8490 H   0  0  0  0  0
   19.9468    4.1491  -27.1350 H   0  0  0  0  0
   17.4246    7.3707  -25.7970 H   0  0  0  0  0
   16.1845    5.7442  -24.4196 H   0  0  0  0  0
   16.1987    2.3341  -24.6697 H   0  0  0  0  0
   15.7544    3.7339  -23.7186 H   0  0  0  0  0
   17.0321    2.4786  -22.0954 H   0  0  0  0  0
   18.3011    3.5424  -22.7711 H   0  0  0  0  0
   18.1458    0.8478  -21.3882 H   0  0  0  0  0
   19.9411   -0.0686  -25.8952 H   0  0  0  0  0
   20.1823   -1.7773  -24.1185 H   0  0  0  0  0
   18.7588   -1.1804  -20.7241 H   0  0  0  0  0
   18.4650   -3.5116  -20.3885 H   0  0  0  0  0
   23.1451   -3.9178  -21.9477 H   0  0  0  0  0
   20.2584   -6.5081  -19.3685 H   0  0  0  0  0
   16.1879  -10.3796  -18.3502 H   0  0  0  0  0
   18.0348   -9.4973  -16.7995 H   0  0  0  0  0
   19.1471   -7.4176  -17.6357 H   0  0  0  0  0
  1  2  1  0  0  0
  1  6  1  0  0  0
  2  3  1  0  0  0
  3  4  1  0  0  0
  4  5  1  0  0  0
  5  6  1  0  0  0
  6  7  1  0  0  0
  7  8  2  0  0  0
  8  9  1  0  0  0
  9 10  1  0  0  0
 10 11  2  0  0  0
 10 12  1  0  0  0
 12 13  4  0  0  0
 12 17  4  0  0  0
 13 14  4  0  0  0
 14 15  1  0  0  0
 14 19  4  0  0  0
 15 16  2  0  0  0
 15 24  1  0  0  0
 17 18  4  0  0  0
 18 19  4  0  0  0
 19 20  1  0  0  0
 20 21  1  0  0  0
 21 22  1  0  0  0
 22 23  4  0  0  0
 22 24  4  0  0  0
 23 27  4  0  0  0
 24 25  4  0  0  0
 25 26  4  0  0  0
 26 27  4  0  0  0
 27 28  1  0  0  0
 28 29  1  0  0  0
 29 30  4  0  0  0
 29 31  4  0  0  0
 30 36  4  0  0  0
 31 32  1  0  0  0
 31 33  4  0  0  0
 33 34  4  0  0  0
 34 35  1  0  0  0
 34 36  4  0  0  0
 36 37  1  0  0  0
 37 38  1  0  0  0
 38 39  2  0  0  0
 38 40  1  0  0  0
 40 41  4  0  0  0
 40 44  4  0  0  0
 41 42  4  0  0  0
 42 43  4  0  0  0
 43 44  4  0  0  0
  1 45  1  0  0  0
  1 46  1  0  0  0
  2 47  1  0  0  0
  2 48  1  0  0  0
  4 49  1  0  0  0
  4 50  1  0  0  0
  5 51  1  0  0  0
  5 52  1  0  0  0
  7 53  1  0  0  0
  8 54  1  0  0  0
  9 55  1  0  0  0
 13 56  1  0  0  0
 17 57  1  0  0  0
 18 58  1  0  0  0
 20 59  1  0  0  0
 20 60  1  0  0  0
 21 61  1  0  0  0
 21 62  1  0  0  0
 23 63  1  0  0  0
 25 64  1  0  0  0
 26 65  1  0  0  0
 28 66  1  0  0  0
 30 67  1  0  0  0
 33 68  1  0  0  0
 37 69  1  0  0  0
 42 70  1  0  0  0
 43 71  1  0  0  0
 44 72  1  0  0  0
M  END
$$$$
