### 
### Created by X-TOOL on Mon Sep 10 21:12:54 2018
### 

@<TRIPOS>MOLECULE
2g63_ligand
   57    59     1     0     0
SMALL
GAST_HUCK


@<TRIPOS>ATOM
      1 C1         30.1760    5.9180   63.3430 C.2       1 AAF         0.2301
      2 C2         31.5050    5.7600   64.1470 C.3       1 AAF         0.0676
      3 C4         32.6700    6.5510   63.5310 C.3       1 AAF         0.0131
      4 C5         33.8850    5.7000   63.8640 C.3       1 AAF        -0.0005
      5 C6         33.3640    4.2500   63.9400 C.3       1 AAF         0.0001
      6 C9         33.6410    3.3870   62.6540 C.3       1 AAF         0.0746
      7 O3         29.8920    5.0340   62.5400 O.2       1 AAF        -0.3904
      8 N7         31.9180    4.3450   64.1490 N.4       1 AAF         0.2497
      9 N8         29.3600    7.0430   63.5770 N.am      1 AAF        -0.2459
     10 C10        28.0840    7.2640   62.8710 C.3       1 AAF         0.1037
     11 C11        27.5160    8.5660   63.4780 C.3       1 AAF        -0.0096
     12 C12        28.5450    9.1370   64.4320 C.3       1 AAF        -0.0272
     13 C13        29.6600    8.1060   64.5340 C.3       1 AAF         0.0382
     14 C14        28.1250    7.5600   61.3410 C.2       1 AAF         0.0209
     15 N15        33.0220    3.9360   61.4170 N.am      1 AAF        -0.2621
     16 C16        33.6550    4.8220   60.5940 C.2       1 AAF         0.2894
     17 O17        34.7820    5.2270   60.8520 O.2       1 AAF        -0.3895
     18 N18        29.2690    7.6620   60.6450 N.2       1 AAF        -0.3619
     19 N19        32.8890    5.2610   59.5320 N.am      1 AAF        -0.2161
     20 C20        33.2070    6.2530   58.6110 C.ar      1 AAF         0.0725
     21 C21        32.1390    6.7570   57.8220 C.ar      1 AAF        -0.0350
     22 C22        32.3630    7.7880   56.8710 C.ar      1 AAF        -0.0542
     23 C23        33.6720    8.3310   56.6890 C.ar      1 AAF         0.0457
     24 C24        34.7460    7.8240   57.4790 C.ar      1 AAF        -0.0542
     25 C25        34.5200    6.8010   58.4180 C.ar      1 AAF        -0.0350
     26 C26        33.8880    9.4190   55.7030 C.2       1 AAF         0.2509
     27 O27        32.9950    9.8590   55.0320 O.2       1 AAF        -0.3648
     28 O28        35.1600    9.8410   55.6460 O.3       1 AAF        -0.2831
     29 C29        35.5360   10.8880   54.7460 C.3       1 AAF         0.0643
     30 H1         31.3364    6.1036   65.1783 H         1 AAF         0.1099
     31 H2         32.7520    7.5496   63.9850 H         1 AAF         0.0347
     32 H3         32.5459    6.6520   62.4427 H         1 AAF         0.0347
     33 H4         34.3152    6.0050   64.8294 H         1 AAF         0.0324
     34 H5         34.6475    5.7937   63.0768 H         1 AAF         0.0324
     35 H6         33.8346    3.7491   64.7988 H         1 AAF         0.0871
     36 H7         33.2416    2.3760   62.8222 H         1 AAF         0.0574
     37 H8         34.7290    3.3309   62.5018 H         1 AAF         0.0574
     38 H9         31.4401    3.8559   63.4085 H         1 AAF         0.2039
     39 H10        31.6800    3.9282   65.0354 H         1 AAF         0.2039
     40 H11        27.4232    6.4037   63.0532 H         1 AAF         0.0842
     41 H12        26.5856    8.3471   64.0225 H         1 AAF         0.0324
     42 H13        27.3100    9.2907   62.6765 H         1 AAF         0.0324
     43 H14        28.0934    9.3071   65.4205 H         1 AAF         0.0288
     44 H15        28.9400   10.0862   64.0410 H         1 AAF         0.0288
     45 H16        30.6261    8.5713   64.2887 H         1 AAF         0.0525
     46 H17        29.6995    7.6944   65.5533 H         1 AAF         0.0525
     47 H18        27.1821    7.6901   60.8119 H         1 AAF         0.1225
     48 H19        32.0970    3.6414   61.1770 H         1 AAF         0.1855
     49 H20        29.2418    7.8549   59.6560 H         1 AAF         0.1054
     50 H21        32.0029    4.8135   59.4114 H         1 AAF         0.2281
     51 H22        31.1419    6.3504   57.9469 H         1 AAF         0.0517
     52 H23        31.5362    8.1650   56.2800 H         1 AAF         0.0632
     53 H24        35.7435    8.2298   57.3550 H         1 AAF         0.0632
     54 H25        35.3490    6.4211   59.0041 H         1 AAF         0.0517
     55 H26        36.6127   11.0893   54.8471 H         1 AAF         0.0575
     56 H27        34.9686   11.7993   54.9860 H         1 AAF         0.0575
     57 H28        35.3159   10.5803   53.7131 H         1 AAF         0.0575
@<TRIPOS>BOND
     1    1    2 1  
     2    1    7 2  
     3    1    9 am 
     4    2    3 1  
     5    2    8 1  
     6    3    4 1  
     7    4    5 1  
     8    5    6 1  
     9    5    8 1  
    10    6   15 1  
    11    9   10 1  
    12    9   13 1  
    13   10   11 1  
    14   10   14 1  
    15   11   12 1  
    16   12   13 1  
    17   14   18 2  
    18   15   16 am 
    19   16   17 2  
    20   16   19 am 
    21   19   20 1  
    22   20   21 ar 
    23   20   25 ar 
    24   21   22 ar 
    25   22   23 ar 
    26   23   24 ar 
    27   23   26 1  
    28   24   25 ar 
    29   26   27 2  
    30   26   28 1  
    31   28   29 1  
    32    2   30 1  
    33    3   31 1  
    34    3   32 1  
    35    4   33 1  
    36    4   34 1  
    37    5   35 1  
    38    6   36 1  
    39    6   37 1  
    40    8   38 1  
    41    8   39 1  
    42   10   40 1  
    43   11   41 1  
    44   11   42 1  
    45   12   43 1  
    46   12   44 1  
    47   13   45 1  
    48   13   46 1  
    49   14   47 1  
    50   15   48 1  
    51   18   49 1  
    52   19   50 1  
    53   21   51 1  
    54   22   52 1  
    55   24   53 1  
    56   25   54 1  
    57   29   55 1  
    58   29   56 1  
    59   29   57 1  
@<TRIPOS>SUBSTRUCTURE
     1 AAF         1

