2g63_ligand
  -I-interpret- 

 57 59  0  0  0  0  0  0  0  0999 V2000
   30.1760    5.9180   63.3430 C   0  0  0  0  0
   31.5050    5.7600   64.1470 C   0  0  0  0  0
   32.6700    6.5510   63.5310 C   0  0  0  0  0
   33.8850    5.7000   63.8640 C   0  0  0  0  0
   33.3640    4.2500   63.9400 C   0  0  0  0  0
   33.6410    3.3870   62.6540 C   0  0  0  0  0
   29.8920    5.0340   62.5400 O   0  0  0  0  0
   31.9180    4.3450   64.1490 N   0  3  0  0  0
   29.3600    7.0430   63.5770 N   0  0  0  0  0
   28.0840    7.2640   62.8710 C   0  0  0  0  0
   27.5160    8.5660   63.4780 C   0  0  0  0  0
   28.5450    9.1370   64.4320 C   0  0  0  0  0
   29.6600    8.1060   64.5340 C   0  0  0  0  0
   28.1250    7.5600   61.3410 C   0  0  0  0  0
   33.0220    3.9360   61.4170 N   0  0  0  0  0
   33.6550    4.8220   60.5940 C   0  0  0  0  0
   34.7820    5.2270   60.8520 O   0  0  0  0  0
   29.2690    7.6620   60.6450 N   0  0  0  0  0
   32.8890    5.2610   59.5320 N   0  0  0  0  0
   33.2070    6.2530   58.6110 C   0  0  0  0  0
   32.1390    6.7570   57.8220 C   0  0  0  0  0
   32.3630    7.7880   56.8710 C   0  0  0  0  0
   33.6720    8.3310   56.6890 C   0  0  0  0  0
   34.7460    7.8240   57.4790 C   0  0  0  0  0
   34.5200    6.8010   58.4180 C   0  0  0  0  0
   33.8880    9.4190   55.7030 C   0  0  0  0  0
   32.9950    9.8590   55.0320 O   0  0  0  0  0
   35.1600    9.8410   55.6460 O   0  0  0  0  0
   35.5360   10.8880   54.7460 C   0  0  0  0  0
   31.3002    6.1371   65.1490 H   0  0  0  0  0
   32.7456    7.5637   63.9271 H   0  0  0  0  0
   32.5495    6.7094   62.4593 H   0  0  0  0  0
   34.3441    6.0092   64.8030 H   0  0  0  0  0
   34.6651    5.8052   63.1101 H   0  0  0  0  0
   33.8920    3.7415   64.7467 H   0  0  0  0  0
   33.2075    2.4015   62.8244 H   0  0  0  0  0
   34.7198    3.3725   62.4986 H   0  0  0  0  0
   31.4356    3.8519   63.3977 H   0  0  0  0  0
   31.6788    3.9252   65.0473 H   0  0  0  0  0
   27.5311    6.3319   62.9870 H   0  0  0  0  0
   26.5890    8.3556   64.0113 H   0  0  0  0  0
   27.3019    9.2842   62.6866 H   0  0  0  0  0
   28.1042    9.3327   65.4095 H   0  0  0  0  0
   28.9276   10.0905   64.0679 H   0  0  0  0  0
   30.6242    8.5620   64.3091 H   0  0  0  0  0
   29.7181    7.7045   65.5457 H   0  0  0  0  0
   27.1812    7.6902   60.8115 H   0  0  0  0  0
   32.0785    3.6355   61.1722 H   0  0  0  0  0
   30.1654    7.5443   61.1171 H   0  0  0  0  0
   31.9851    4.8046   59.4090 H   0  0  0  0  0
   31.1364    6.3481   57.9476 H   0  0  0  0  0
   31.5316    8.1671   56.2767 H   0  0  0  0  0
   35.7490    8.2321   57.3543 H   0  0  0  0  0
   35.3536    6.4190   59.0074 H   0  0  0  0  0
   35.3174   10.5819   53.7230 H   0  0  0  0  0
   34.9730   11.7903   54.9848 H   0  0  0  0  0
   36.6030   11.0865   54.8471 H   0  0  0  0  0
  1  2  1  0  0  0
  1  7  2  0  0  0
  1  9  1  0  0  0
  2  3  1  0  0  0
  2  8  1  0  0  0
  3  4  1  0  0  0
  4  5  1  0  0  0
  5  6  1  0  0  0
  5  8  1  0  0  0
  6 15  1  0  0  0
  9 10  1  0  0  0
  9 13  1  0  0  0
 10 11  1  0  0  0
 10 14  1  0  0  0
 11 12  1  0  0  0
 12 13  1  0  0  0
 14 18  2  0  0  0
 15 16  1  0  0  0
 16 17  2  0  0  0
 16 19  1  0  0  0
 19 20  1  0  0  0
 20 21  4  0  0  0
 20 25  4  0  0  0
 21 22  4  0  0  0
 22 23  4  0  0  0
 23 24  4  0  0  0
 23 26  1  0  0  0
 24 25  4  0  0  0
 26 27  2  0  0  0
 26 28  1  0  0  0
 28 29  1  0  0  0
  2 30  1  0  0  0
  3 31  1  0  0  0
  3 32  1  0  0  0
  4 33  1  0  0  0
  4 34  1  0  0  0
  5 35  1  0  0  0
  6 36  1  0  0  0
  6 37  1  0  0  0
  8 38  1  0  0  0
  8 39  1  0  0  0
 10 40  1  0  0  0
 11 41  1  0  0  0
 11 42  1  0  0  0
 12 43  1  0  0  0
 12 44  1  0  0  0
 13 45  1  0  0  0
 13 46  1  0  0  0
 14 47  1  0  0  0
 15 48  1  0  0  0
 18 49  1  0  0  0
 19 50  1  0  0  0
 21 51  1  0  0  0
 22 52  1  0  0  0
 24 53  1  0  0  0
 25 54  1  0  0  0
 29 55  1  0  0  0
 29 56  1  0  0  0
 29 57  1  0  0  0
M  END
$$$$
