2jnp_ligand
  -I-interpret- 

 39 39  0  0  0  0  0  0  0  0999 V2000
    6.3150    1.5170    3.3910 C   0  0  0  0  0
    6.6380    1.5560    2.0360 C   0  0  0  0  0
    5.6600    1.8600    1.0930 C   0  0  0  0  0
    4.3500    2.0650    1.5100 C   0  0  0  0  0
    4.0130    1.9840    2.8620 C   0  0  0  0  0
    5.0000    1.7170    3.8110 C   0  0  0  0  0
    5.9480    1.9420   -0.2510 O   0  0  0  0  0
    7.1380    1.3270   -0.8150 C   0  0  0  0  0
    4.6030    1.7130    5.5610 S   0  0  0  0  0
    3.2770    2.2920    5.7390 O   0  0  0  0  0
    5.6470    2.3390    6.3570 O   0  0  0  0  0
    4.5010    0.1580    6.0890 N   0  0  0  0  0
    5.7190   -0.6690    6.3130 C   0  0  0  0  0
    3.2130   -0.4450    6.5250 C   0  0  0  0  0
    2.6170   -1.4380    5.5520 C   0  0  0  0  0
    1.8000   -0.9330    4.6050 N   0  0  0  0  0
    1.1360   -1.6650    3.8020 O   0  0  0  0  0
    2.8760   -2.6280    5.6000 O   0  0  0  0  0
    6.5150   -0.3390    7.6070 C   0  0  0  0  0
    7.6800   -1.3390    7.7520 C   0  0  0  0  0
    5.6380   -0.3710    8.8790 C   0  0  0  0  0
    7.0957    1.3288    4.1281 H   0  0  0  0  0
    7.6583    1.3481    1.7138 H   0  0  0  0  0
    3.5784    2.2912    0.7740 H   0  0  0  0  0
    2.9794    2.1293    3.1761 H   0  0  0  0  0
    8.0238    1.7548   -0.3455 H   0  0  0  0  0
    7.1114    0.2527   -0.6326 H   0  0  0  0  0
    7.1681    1.5139   -1.8884 H   0  0  0  0  0
    6.3885   -0.4731    5.4754 H   0  0  0  0  0
    5.3830   -1.7016    6.4073 H   0  0  0  0  0
    2.4977    0.3717    6.6221 H   0  0  0  0  0
    3.4140   -0.9880    7.4485 H   0  0  0  0  0
    6.8896    0.6799    7.5090 H   0  0  0  0  0
    7.2821   -2.3519    7.8139 H   0  0  0  0  0
    8.3369   -1.2576    6.8860 H   0  0  0  0  0
    8.2415   -1.1118    8.6582 H   0  0  0  0  0
    4.8374    0.3628    8.7854 H   0  0  0  0  0
    5.2087   -1.3658    8.9978 H   0  0  0  0  0
    6.2515   -0.1325    9.7478 H   0  0  0  0  0
  1  2  4  0  0  0
  1  6  4  0  0  0
  2  3  4  0  0  0
  3  4  4  0  0  0
  3  7  1  0  0  0
  4  5  4  0  0  0
  5  6  4  0  0  0
  6  9  1  0  0  0
  7  8  1  0  0  0
  9 10  2  0  0  0
  9 11  2  0  0  0
  9 12  1  0  0  0
 12 13  1  0  0  0
 12 14  1  0  0  0
 13 19  1  0  0  0
 14 15  1  0  0  0
 15 16  1  0  0  0
 15 18  2  0  0  0
 16 17  2  0  0  0
 19 20  1  0  0  0
 19 21  1  0  0  0
  1 22  1  0  0  0
  2 23  1  0  0  0
  4 24  1  0  0  0
  5 25  1  0  0  0
  8 26  1  0  0  0
  8 27  1  0  0  0
  8 28  1  0  0  0
 13 29  1  0  0  0
 13 30  1  0  0  0
 14 31  1  0  0  0
 14 32  1  0  0  0
 19 33  1  0  0  0
 20 34  1  0  0  0
 20 35  1  0  0  0
 20 36  1  0  0  0
 21 37  1  0  0  0
 21 38  1  0  0  0
 21 39  1  0  0  0
M  END
$$$$
