3fuz_ligand
  -I-interpret- 

 20 19  0  0  0  0  0  0  0  0999 V2000
    5.9510  -13.8910   18.3860 N   0  3  0  0  0
    5.6120  -15.2470   18.9120 C   0  0  0  0  0
    4.1220  -15.5160   18.7440 C   0  0  0  0  0
    3.5650  -16.5210   19.2020 O   0  0  0  0  0
    5.9990  -15.3600   20.3780 C   0  0  0  0  0
    7.4870  -15.5830   20.6030 C   0  0  0  0  0
    7.9830  -16.9740   20.1480 C   0  0  0  0  0
    9.2110  -17.1600   19.9680 O   0  0  0  0  0
    7.1550  -17.8910   19.9640 O   0  0  0  0  0
    3.4580  -14.7010   18.1390 O   0  0  0  0  0
    5.6851  -13.8327   17.4030 H   0  0  0  0  0
    5.4441  -13.1844   18.9190 H   0  0  0  0  0
    6.9545  -13.7330   18.4780 H   0  0  0  0  0
    6.1732  -15.9897   18.3449 H   0  0  0  0  0
    4.2135  -17.0684   19.6508 H   0  0  0  0  0
    5.4747  -16.2234   20.7876 H   0  0  0  0  0
    5.7346  -14.4179   20.8582 H   0  0  0  0  0
    7.6694  -15.5067   21.6749 H   0  0  0  0  0
    8.0209  -14.8379   20.0132 H   0  0  0  0  0
    9.6875  -16.3484   20.1571 H   0  0  0  0  0
  1  2  1  0  0  0
  2  3  1  0  0  0
  2  5  1  0  0  0
  3  4  1  0  0  0
  3 10  2  0  0  0
  5  6  1  0  0  0
  6  7  1  0  0  0
  7  8  1  0  0  0
  7  9  2  0  0  0
  1 11  1  0  0  0
  1 12  1  0  0  0
  1 13  1  0  0  0
  2 14  1  0  0  0
  4 15  1  0  0  0
  5 16  1  0  0  0
  5 17  1  0  0  0
  6 18  1  0  0  0
  6 19  1  0  0  0
  8 20  1  0  0  0
M  END
$$$$
