2itp_ligand
  -I-interpret- 

 66 70  0  0  0  0  0  0  0  0999 V2000
  -50.6230   -0.5830  -12.5610 C   0  0  0  0  0
  -49.5610   -0.7780  -11.4520 C   0  0  0  0  0
  -49.3020   -2.2240  -11.1470 N   0  3  0  0  0
  -50.3550   -2.7930  -10.2580 C   0  0  0  0  0
  -50.5150   -1.9410   -8.9750 C   0  0  0  0  0
  -49.0080   -3.0800  -12.3420 C   0  0  0  0  0
  -49.7880   -2.7090  -13.6360 C   0  0  0  0  0
  -50.1890   -1.2670  -13.8070 N   0  3  0  0  0
  -49.1930   -0.4480  -14.5800 C   0  0  0  0  0
  -49.9080   -0.1170  -15.8880 C   0  0  0  0  0
  -50.9130    0.8550  -15.9060 C   0  0  0  0  0
  -51.5930    1.1200  -17.0980 C   0  0  0  0  0
  -49.5910   -0.8370  -17.0350 C   0  0  0  0  0
  -50.2700   -0.5710  -18.2180 C   0  0  0  0  0
  -51.2600    0.4100  -18.2610 C   0  0  0  0  0
  -51.9420    0.6390  -19.4570 C   0  0  0  0  0
  -53.0900    1.3230  -19.5730 N   0  0  0  0  0
  -51.5900    0.1700  -20.6560 C   0  0  0  0  0
  -52.4940    0.5780  -21.5400 C   0  0  0  0  0
  -53.4470    1.3140  -20.8530 C   0  0  0  0  0
  -54.4940    1.8370  -21.5270 N   0  0  0  0  0
  -54.6330    1.6530  -22.8450 C   0  0  0  0  0
  -53.7350    0.9560  -23.5300 N   0  0  0  0  0
  -52.6520    0.4060  -22.9160 C   0  0  0  0  0
  -51.7500   -0.3020  -23.6120 N   0  0  0  0  0
  -52.1210   -0.8630  -24.9160 C   0  0  0  0  0
  -51.2500   -2.0690  -25.3010 C   0  0  0  0  0
  -52.0290    0.2630  -25.9540 C   0  0  0  0  0
  -51.4470    1.5000  -25.5840 C   0  0  0  0  0
  -51.3600    2.5610  -26.4940 C   0  0  0  0  0
  -51.8640    2.3520  -27.7840 C   0  0  0  0  0
  -52.4400    1.1210  -28.1590 C   0  0  0  0  0
  -52.5420    0.0670  -27.2480 C   0  0  0  0  0
  -50.7423    0.4821  -12.7597 H   0  0  0  0  0
  -51.5699   -1.0091  -12.2294 H   0  0  0  0  0
  -49.9349   -0.3059  -10.5435 H   0  0  0  0  0
  -48.6274   -0.3369  -11.8011 H   0  0  0  0  0
  -48.4243   -2.2383  -10.6275 H   0  0  0  0  0
  -50.0643   -3.8042   -9.9732 H   0  0  0  0  0
  -51.3029   -2.7976  -10.7961 H   0  0  0  0  0
  -49.5699   -1.9227   -8.4323 H   0  0  0  0  0
  -50.7982   -0.9245   -9.2484 H   0  0  0  0  0
  -51.2892   -2.3781   -8.3443 H   0  0  0  0  0
  -49.3059   -4.0950  -12.0790 H   0  0  0  0  0
  -47.9498   -2.9474  -12.5674 H   0  0  0  0  0
  -50.7199   -3.2726  -13.5922 H   0  0  0  0  0
  -49.1124   -2.9288  -14.4626 H   0  0  0  0  0
  -51.0279   -1.3300  -14.3838 H   0  0  0  0  0
  -48.2610   -0.9877  -14.7478 H   0  0  0  0  0
  -48.8925    0.4493  -14.0389 H   0  0  0  0  0
  -51.1642    1.4019  -14.9972 H   0  0  0  0  0
  -52.3787    1.8751  -17.1238 H   0  0  0  0  0
  -48.8165   -1.6034  -17.0063 H   0  0  0  0  0
  -50.0268   -1.1336  -19.1193 H   0  0  0  0  0
  -50.7137   -0.4411  -20.8722 H   0  0  0  0  0
  -55.4927    2.0800  -23.3615 H   0  0  0  0  0
  -50.8128   -0.4493  -23.2374 H   0  0  0  0  0
  -53.1401   -1.2470  -24.8715 H   0  0  0  0  0
  -50.2058   -1.7604  -25.3503 H   0  0  0  0  0
  -51.3638   -2.8519  -24.5512 H   0  0  0  0  0
  -51.5647   -2.4471  -26.2737 H   0  0  0  0  0
  -51.0600    1.6285  -24.5732 H   0  0  0  0  0
  -50.9162    3.5148  -26.2087 H   0  0  0  0  0
  -51.8097    3.1592  -28.5144 H   0  0  0  0  0
  -52.8114    0.9897  -29.1753 H   0  0  0  0  0
  -53.0050   -0.8781  -27.5317 H   0  0  0  0  0
  1  2  1  0  0  0
  1  8  1  0  0  0
  2  3  1  0  0  0
  3  4  1  0  0  0
  3  6  1  0  0  0
  4  5  1  0  0  0
  6  7  1  0  0  0
  7  8  1  0  0  0
  8  9  1  0  0  0
  9 10  1  0  0  0
 10 11  4  0  0  0
 10 13  4  0  0  0
 11 12  4  0  0  0
 12 15  4  0  0  0
 13 14  4  0  0  0
 14 15  4  0  0  0
 15 16  1  0  0  0
 16 17  4  0  0  0
 16 18  4  0  0  0
 17 20  4  0  0  0
 18 19  4  0  0  0
 19 20  4  0  0  0
 19 24  4  0  0  0
 20 21  4  0  0  0
 21 22  4  0  0  0
 22 23  4  0  0  0
 23 24  4  0  0  0
 24 25  1  0  0  0
 25 26  1  0  0  0
 26 27  1  0  0  0
 26 28  1  0  0  0
 28 29  4  0  0  0
 28 33  4  0  0  0
 29 30  4  0  0  0
 30 31  4  0  0  0
 31 32  4  0  0  0
 32 33  4  0  0  0
  1 34  1  0  0  0
  1 35  1  0  0  0
  2 36  1  0  0  0
  2 37  1  0  0  0
  3 38  1  0  0  0
  4 39  1  0  0  0
  4 40  1  0  0  0
  5 41  1  0  0  0
  5 42  1  0  0  0
  5 43  1  0  0  0
  6 44  1  0  0  0
  6 45  1  0  0  0
  7 46  1  0  0  0
  7 47  1  0  0  0
  8 48  1  0  0  0
  9 49  1  0  0  0
  9 50  1  0  0  0
 11 51  1  0  0  0
 12 52  1  0  0  0
 13 53  1  0  0  0
 14 54  1  0  0  0
 18 55  1  0  0  0
 22 56  1  0  0  0
 25 57  1  0  0  0
 26 58  1  0  0  0
 27 59  1  0  0  0
 27 60  1  0  0  0
 27 61  1  0  0  0
 29 62  1  0  0  0
 30 63  1  0  0  0
 31 64  1  0  0  0
 32 65  1  0  0  0
 33 66  1  0  0  0
M  END
$$$$
