3m8u_ligand
  -I-interpret- 

 74 73  0  0  0  0  0  0  0  0999 V2000
   12.2740   -9.7170  -11.9950 N   0  3  0  0  0
   11.8080  -11.0720  -12.0750 C   0  0  0  0  0
   10.4270  -11.0210  -12.6100 C   0  0  0  0  0
    9.8180   -9.9220  -12.6110 O   0  0  0  0  0
    9.7770  -12.0700  -12.7990 O   0  0  0  0  0
   11.8570  -11.6740  -10.7190 C   0  0  0  0  0
   13.2900  -11.9390  -10.3610 C   0  0  0  0  0
   13.8140  -13.2130  -11.1260 C   0  0  0  0  0
   13.3810  -14.3340  -10.8050 O   0  0  0  0  0
   14.9630  -13.0880  -12.0020 N   0  0  0  0  0
   15.3680  -14.1790  -12.8510 C   0  0  0  0  0
   16.8030  -14.4220  -12.5910 C   0  0  0  0  0
   17.5800  -13.4550  -12.5170 O   0  0  0  0  0
   15.1410  -13.6810  -14.2950 C   0  0  0  0  0
   15.4180  -14.9110  -15.5440 S   0  0  0  0  0
   17.2970  -15.7150  -12.3880 N   0  0  0  0  0
   18.7350  -15.8460  -12.3330 C   0  0  0  0  0
   19.1490  -17.1620  -12.9580 C   0  0  0  0  0
   18.3690  -17.7210  -13.7720 O   0  0  0  0  0
   20.2900  -17.6410  -12.7060 O   0  0  0  0  0
   15.0630  -20.2220  -13.0990 N   0  0  0  0  0
   15.5180  -20.9390  -11.9410 C   0  0  0  0  0
   14.5110  -20.9510  -10.8080 C   0  0  0  0  0
   14.9080  -21.1880   -9.6400 O   0  0  0  0  0
   13.2800  -20.6770  -11.0050 O   0  0  0  0  0
   15.2830  -18.8130  -13.2520 C   0  0  0  0  0
   15.5540  -18.1270  -12.2360 O   0  0  0  0  0
   15.0120  -18.1210  -14.5640 C   0  0  0  0  0
   14.7900  -19.0740  -15.6150 N   0  0  0  0  0
   13.7620  -17.2140  -14.4800 C   0  0  0  0  0
   13.7600  -16.0740  -15.8230 S   0  0  0  0  0
   15.7970  -23.0330  -16.8590 C   0  0  0  0  0
   15.9110  -22.8180  -15.3870 C   0  0  0  0  0
   14.9040  -22.5130  -14.6970 O   0  0  0  0  0
   17.0160  -22.9950  -14.8110 O   0  0  0  0  0
   14.4050  -23.3130  -17.2190 N   0  3  0  0  0
   16.3660  -21.8680  -17.6820 C   0  0  0  0  0
   15.5290  -20.5990  -17.5310 C   0  0  0  0  0
   15.8710  -19.8150  -16.2680 C   0  0  0  0  0
   17.0500  -19.6850  -15.8750 O   0  0  0  0  0
   12.2445   -9.2933  -12.9223 H   0  0  0  0  0
   11.6750   -9.1897  -11.3597 H   0  0  0  0  0
   13.2325   -9.7084  -11.6463 H   0  0  0  0  0
   12.4253  -11.6881  -12.7288 H   0  0  0  0  0
   10.4434   -9.2107  -12.4544 H   0  0  0  0  0
   11.2942  -12.6074  -10.7080 H   0  0  0  0  0
   11.4149  -10.9902   -9.9944 H   0  0  0  0  0
   13.3640  -12.1115   -9.2873 H   0  0  0  0  0
   13.8944  -11.0777  -10.6455 H   0  0  0  0  0
   15.4915  -12.2157  -12.0172 H   0  0  0  0  0
   14.8193  -15.1050  -12.6792 H   0  0  0  0  0
   15.8551  -12.8769  -14.4729 H   0  0  0  0  0
   14.0966  -13.3781  -14.3693 H   0  0  0  0  0
   16.6778  -16.5189  -12.2848 H   0  0  0  0  0
   19.0618  -15.8199  -11.2935 H   0  0  0  0  0
   19.1950  -15.0239  -12.8812 H   0  0  0  0  0
   20.7366  -17.0814  -12.0665 H   0  0  0  0  0
   14.5694  -20.7291  -13.8335 H   0  0  0  0  0
   16.4166  -20.4405  -11.5774 H   0  0  0  0  0
   15.6889  -21.9731  -12.2403 H   0  0  0  0  0
   13.1337  -20.5216  -11.9410 H   0  0  0  0  0
   15.8934  -17.5175  -14.7807 H   0  0  0  0  0
   13.8320  -19.2431  -15.9218 H   0  0  0  0  0
   13.7793  -16.6629  -13.5397 H   0  0  0  0  0
   12.8650  -17.8313  -14.5301 H   0  0  0  0  0
   16.4098  -23.8992  -17.1085 H   0  0  0  0  0
   17.6832  -23.2202  -15.4634 H   0  0  0  0  0
   14.3382  -23.4583  -18.2264 H   0  0  0  0  0
   14.0913  -24.1524  -16.7317 H   0  0  0  0  0
   13.8196  -22.5227  -16.9487 H   0  0  0  0  0
   16.3597  -22.1577  -18.7328 H   0  0  0  0  0
   17.3733  -21.6569  -17.3231 H   0  0  0  0  0
   14.4817  -20.8944  -17.4682 H   0  0  0  0  0
   15.7347  -19.9584  -18.3885 H   0  0  0  0  0
  2  1  1  0  0  0
  2  3  1  0  0  0
  6  2  1  0  0  0
  3  4  1  0  0  0
  3  5  2  0  0  0
  7  6  1  0  0  0
  8  7  1  0  0  0
  8  9  2  0  0  0
 10  8  1  0  0  0
 11 10  1  0  0  0
 11 12  1  0  0  0
 14 11  1  0  0  0
 12 13  2  0  0  0
 12 16  1  0  0  0
 15 14  1  0  0  0
 31 15  1  0  0  0
 16 17  1  0  0  0
 17 18  1  0  0  0
 18 19  2  0  0  0
 18 20  1  0  0  0
 21 22  1  0  0  0
 26 21  1  0  0  0
 22 23  1  0  0  0
 23 24  2  0  0  0
 23 25  1  0  0  0
 26 27  2  0  0  0
 28 26  1  0  0  0
 29 28  1  0  0  0
 28 30  1  0  0  0
 39 29  1  0  0  0
 30 31  1  0  0  0
 32 33  1  0  0  0
 32 36  1  0  0  0
 37 32  1  0  0  0
 33 34  2  0  0  0
 33 35  1  0  0  0
 38 37  1  0  0  0
 38 39  1  0  0  0
 39 40  2  0  0  0
  1 41  1  0  0  0
  1 42  1  0  0  0
  1 43  1  0  0  0
  2 44  1  0  0  0
  4 45  1  0  0  0
  6 46  1  0  0  0
  6 47  1  0  0  0
  7 48  1  0  0  0
  7 49  1  0  0  0
 10 50  1  0  0  0
 11 51  1  0  0  0
 14 52  1  0  0  0
 14 53  1  0  0  0
 16 54  1  0  0  0
 17 55  1  0  0  0
 17 56  1  0  0  0
 20 57  1  0  0  0
 21 58  1  0  0  0
 22 59  1  0  0  0
 22 60  1  0  0  0
 25 61  1  0  0  0
 28 62  1  0  0  0
 29 63  1  0  0  0
 30 64  1  0  0  0
 30 65  1  0  0  0
 32 66  1  0  0  0
 35 67  1  0  0  0
 36 68  1  0  0  0
 36 69  1  0  0  0
 36 70  1  0  0  0
 37 71  1  0  0  0
 37 72  1  0  0  0
 38 73  1  0  0  0
 38 74  1  0  0  0
M  END
$$$$
