3dv1_ligand
  -I-interpret- 

 76 76  0  0  0  0  0  0  0  0999 V2000
   30.2780    6.1680   16.1530 N   0  0  0  0  0
   31.3230    6.4560   15.1800 C   0  0  0  0  0
   32.3640    7.3660   15.9020 C   0  0  0  0  0
   31.7050    8.7570   16.1610 C   0  0  0  0  0
   32.5680    9.5910   17.1470 C   0  0  0  0  0
   32.3670    9.0960   18.5910 C   0  0  0  0  0
   31.2010    9.8610   19.2110 C   0  0  0  0  0
   30.9680    9.4240   20.6960 C   0  0  0  0  0
   29.8610    8.3500   20.7720 C   0  0  0  0  0
   28.6230    8.9690   20.1150 C   0  0  0  0  0
   27.4380    8.0290   20.1090 C   0  0  0  0  0
   27.5710    6.8730   19.1500 C   0  0  0  0  0
   27.9460    7.1350   17.8630 N   0  0  0  0  0
   28.0080    6.0150   16.9000 C   0  0  0  0  0
   28.9810    6.3180   15.8050 C   0  0  0  0  0
   28.6100    6.6670   14.6830 O   0  0  0  0  0
   26.5760    5.8380   16.3420 C   0  0  0  0  0
   27.3280    5.7550   19.5810 O   0  0  0  0  0
   31.6520    9.5150   14.8030 C   0  0  0  0  0
   31.9740    5.1550   14.6640 C   0  0  0  0  0
   32.6100    4.4580   15.7470 O   0  0  0  0  0
   30.9060    4.2010   14.0630 C   0  0  0  0  0
   31.6250    3.2060   13.1350 C   0  0  0  0  0
   30.8100    1.8980   13.0480 C   0  0  0  0  0
   31.6660    3.7310   11.7080 C   0  0  0  0  0
   30.7560    4.4310   11.2930 O   0  0  0  0  0
   32.7300    3.3850   10.9810 N   0  0  0  0  0
   32.8420    3.8090    9.5900 C   0  0  0  0  0
   34.2010    3.2980    9.0660 C   0  0  0  0  0
   34.3310    3.4770    7.5290 C   0  0  0  0  0
   34.4690    4.9720    7.1620 C   0  0  0  0  0
   30.5240    5.8548   17.0920 H   0  0  0  0  0
   30.9141    6.9589   14.3037 H   0  0  0  0  0
   33.2518    7.4834   15.2806 H   0  0  0  0  0
   32.6638    6.9131   16.8470 H   0  0  0  0  0
   30.7112    8.6171   16.5862 H   0  0  0  0  0
   32.2653   10.6363   17.0856 H   0  0  0  0  0
   33.6186    9.4814   16.8781 H   0  0  0  0  0
   33.2735    9.2676   19.1714 H   0  0  0  0  0
   32.1509    8.0276   18.5901 H   0  0  0  0  0
   30.2987    9.6467   18.6382 H   0  0  0  0  0
   31.4328   10.9259   19.1926 H   0  0  0  0  0
   30.6611   10.2928   21.2784 H   0  0  0  0  0
   31.8940    9.0090   21.0940 H   0  0  0  0  0
   29.6584    8.0655   21.8045 H   0  0  0  0  0
   30.1630    7.4361   20.2605 H   0  0  0  0  0
   28.8728    9.2012   19.0797 H   0  0  0  0  0
   28.3464    9.8545   20.6872 H   0  0  0  0  0
   26.5695    8.6084   19.7959 H   0  0  0  0  0
   27.3565    7.6079   21.1110 H   0  0  0  0  0
   28.1786    8.0846   17.5721 H   0  0  0  0  0
   28.3518    5.0980   17.3785 H   0  0  0  0  0
   25.8936    5.6115   17.1612 H   0  0  0  0  0
   26.2626    6.7590   15.8504 H   0  0  0  0  0
   26.5664    5.0192   15.6225 H   0  0  0  0  0
   31.2057   10.4979   14.9542 H   0  0  0  0  0
   32.6632    9.6298   14.4127 H   0  0  0  0  0
   31.0500    8.9464   14.0942 H   0  0  0  0  0
   32.6999    5.4345   13.9004 H   0  0  0  0  0
   33.2783    5.0233   16.1413 H   0  0  0  0  0
   30.1651    4.7708   13.5023 H   0  0  0  0  0
   30.3881    3.6664   14.8592 H   0  0  0  0  0
   32.6260    3.0568   13.5397 H   0  0  0  0  0
   30.7158    1.4632   14.0431 H   0  0  0  0  0
   29.8189    2.1148   12.6495 H   0  0  0  0  0
   31.3218    1.1956   12.3902 H   0  0  0  0  0
   33.4691    2.8209   11.4004 H   0  0  0  0  0
   32.7845    4.8948    9.5135 H   0  0  0  0  0
   32.0236    3.4009    8.9969 H   0  0  0  0  0
   34.2786    2.2351    9.2948 H   0  0  0  0  0
   34.9918    3.8744    9.5460 H   0  0  0  0  0
   33.4361    3.0783    7.0512 H   0  0  0  0  0
   35.2198    2.9470    7.1868 H   0  0  0  0  0
   33.5873    5.5123    7.5066 H   0  0  0  0  0
   35.3581    5.3819    7.6412 H   0  0  0  0  0
   34.5586    5.0725    6.0803 H   0  0  0  0  0
  1  2  1  0  0  0
  1 15  1  0  0  0
  2  3  1  0  0  0
  2 20  1  0  0  0
  3  4  1  0  0  0
  4  5  1  0  0  0
  4 19  1  0  0  0
  5  6  1  0  0  0
  6  7  1  0  0  0
  7  8  1  0  0  0
  8  9  1  0  0  0
  9 10  1  0  0  0
 10 11  1  0  0  0
 11 12  1  0  0  0
 12 13  1  0  0  0
 12 18  2  0  0  0
 13 14  1  0  0  0
 14 15  1  0  0  0
 14 17  1  0  0  0
 15 16  2  0  0  0
 20 21  1  0  0  0
 20 22  1  0  0  0
 22 23  1  0  0  0
 23 24  1  0  0  0
 23 25  1  0  0  0
 25 26  2  0  0  0
 25 27  1  0  0  0
 27 28  1  0  0  0
 28 29  1  0  0  0
 29 30  1  0  0  0
 30 31  1  0  0  0
  1 32  1  0  0  0
  2 33  1  0  0  0
  3 34  1  0  0  0
  3 35  1  0  0  0
  4 36  1  0  0  0
  5 37  1  0  0  0
  5 38  1  0  0  0
  6 39  1  0  0  0
  6 40  1  0  0  0
  7 41  1  0  0  0
  7 42  1  0  0  0
  8 43  1  0  0  0
  8 44  1  0  0  0
  9 45  1  0  0  0
  9 46  1  0  0  0
 10 47  1  0  0  0
 10 48  1  0  0  0
 11 49  1  0  0  0
 11 50  1  0  0  0
 13 51  1  0  0  0
 14 52  1  0  0  0
 17 53  1  0  0  0
 17 54  1  0  0  0
 17 55  1  0  0  0
 19 56  1  0  0  0
 19 57  1  0  0  0
 19 58  1  0  0  0
 20 59  1  0  0  0
 21 60  1  0  0  0
 22 61  1  0  0  0
 22 62  1  0  0  0
 23 63  1  0  0  0
 24 64  1  0  0  0
 24 65  1  0  0  0
 24 66  1  0  0  0
 27 67  1  0  0  0
 28 68  1  0  0  0
 28 69  1  0  0  0
 29 70  1  0  0  0
 29 71  1  0  0  0
 30 72  1  0  0  0
 30 73  1  0  0  0
 31 74  1  0  0  0
 31 75  1  0  0  0
 31 76  1  0  0  0
M  END
$$$$
