3nam_ligand
  -I-interpret- 

 74 76  0  0  0  0  0  0  0  0999 V2000
   -4.5780    9.4530   84.8220 C   0  0  0  0  0
   -4.1430    9.0760   83.4020 C   0  0  0  0  0
   -2.8500    9.8570   83.1430 C   0  0  0  0  0
   -3.0390   10.9830   82.2760 O   0  0  0  0  0
   -2.3950   10.3950   84.5020 C   0  0  0  0  0
   -2.0190    9.6670   80.7820 O   0  0  0  0  0
   -3.2040    9.5670   85.5000 C   0  0  0  0  0
   -2.0730    9.5990   87.6930 O   0  0  0  0  0
   -3.1580   10.1380   86.9180 C   0  0  0  0  0
   -5.0250    8.6430   87.3520 O   0  0  0  0  0
   -4.4210    9.8790   87.7440 C   0  0  0  0  0
   -4.6710   12.2830   87.2490 O   0  0  0  0  0
   -5.3770   11.0460   87.4570 C   0  0  0  0  0
   -5.0230   12.7220   89.4300 O   0  0  0  0  0
   -6.2700   10.7460   86.2460 C   0  0  0  0  0
   -6.5840   10.2470   83.9340 O   0  0  0  0  0
   -5.5740   10.6160   84.8820 C   0  0  0  0  0
   -7.6710   12.1800   84.3300 O   0  0  0  0  0
   -3.9200    9.7520   89.1910 C   0  0  0  0  0
   -4.4230   10.8050   90.0150 O   0  0  0  0  0
   -2.4040    9.8720   88.9870 C   0  0  0  0  0
   -1.6060   10.2410   89.8430 O   0  0  0  0  0
   -2.5220   10.7540   81.0280 C   0  0  0  0  0
   -2.5750   11.8260   79.9540 C   0  0  0  0  0
   -2.5580   11.4050   78.4970 C   0  0  0  0  0
   -2.6400   13.2090   80.2620 C   0  0  0  0  0
   -2.6640   13.7310   81.6840 C   0  0  0  0  0
   -0.8910   10.1780   84.6920 C   0  0  0  0  0
   -4.5000   13.0460   88.3650 C   0  0  0  0  0
   -3.6860   14.3380   88.2540 C   0  0  0  0  0
   -3.6740   15.1330   89.5630 C   0  0  0  0  0
   -2.8360   16.4080   89.4350 C   0  0  0  0  0
   -4.9440   11.9460   84.4530 C   0  0  0  0  0
   -7.6210   11.1070   83.7310 C   0  0  0  0  0
   -8.7370   10.7080   82.7660 C   0  0  0  0  0
   -4.2760    8.3980   89.8100 C   0  0  0  0  0
   -5.2127    8.7475   85.3583 H   0  0  0  0  0
   -4.9118    9.3265   82.6711 H   0  0  0  0  0
   -3.9843    8.0018   83.3069 H   0  0  0  0  0
   -2.1312    9.1922   82.6640 H   0  0  0  0  0
   -2.5561   11.4669   84.6167 H   0  0  0  0  0
   -2.8074    8.5712   85.6978 H   0  0  0  0  0
   -3.0408   11.2073   86.7418 H   0  0  0  0  0
   -5.8146    8.4933   87.8771 H   0  0  0  0  0
   -6.0051   11.1597   88.3405 H   0  0  0  0  0
   -6.9454   11.5968   86.1559 H   0  0  0  0  0
   -6.7227    9.7743   86.4432 H   0  0  0  0  0
   -4.0919   10.6959   90.9094 H   0  0  0  0  0
   -3.4670   11.7556   78.0082 H   0  0  0  0  0
   -1.6883   11.8400   78.0046 H   0  0  0  0  0
   -2.5065   10.3180   78.4348 H   0  0  0  0  0
   -2.6741   13.9259   79.4416 H   0  0  0  0  0
   -3.5364   13.3319   82.2015 H   0  0  0  0  0
   -1.7576   13.4157   82.2008 H   0  0  0  0  0
   -2.7153   14.8197   81.6692 H   0  0  0  0  0
   -0.6071   10.4749   85.7016 H   0  0  0  0  0
   -0.6554    9.1244   84.5419 H   0  0  0  0  0
   -0.3438   10.7808   83.9672 H   0  0  0  0  0
   -4.1435   14.9604   87.4850 H   0  0  0  0  0
   -2.6576   14.0696   88.0124 H   0  0  0  0  0
   -3.2376   14.5089   90.3429 H   0  0  0  0  0
   -4.6984   15.4152   89.8059 H   0  0  0  0  0
   -1.8096   16.1427   89.1814 H   0  0  0  0  0
   -3.2540   17.0388   88.6505 H   0  0  0  0  0
   -2.8499   16.9470   90.3823 H   0  0  0  0  0
   -5.7209   12.7067   84.3769 H   0  0  0  0  0
   -4.2052   12.2522   85.1936 H   0  0  0  0  0
   -4.4595   11.8214   83.4846 H   0  0  0  0  0
   -9.6828   10.6612   83.3058 H   0  0  0  0  0
   -8.8083   11.4481   81.9690 H   0  0  0  0  0
   -8.5130    9.7311   82.3374 H   0  0  0  0  0
   -5.3591    8.2754   89.8143 H   0  0  0  0  0
   -3.8211    7.6005   89.2225 H   0  0  0  0  0
   -3.9004    8.3574   90.8325 H   0  0  0  0  0
  1  2  1  0  0  0
  1  7  1  0  0  0
  1 17  1  0  0  0
  2  3  1  0  0  0
  3  4  1  0  0  0
  3  5  1  0  0  0
  4 23  1  0  0  0
  5  7  1  0  0  0
  5 28  1  0  0  0
 23  6  2  0  0  0
  7  9  1  0  0  0
  9  8  1  0  0  0
  8 21  1  0  0  0
  9 11  1  0  0  0
 11 10  1  0  0  0
 11 13  1  0  0  0
 11 19  1  0  0  0
 13 12  1  0  0  0
 12 29  1  0  0  0
 13 15  1  0  0  0
 29 14  2  0  0  0
 15 17  1  0  0  0
 17 16  1  0  0  0
 16 34  1  0  0  0
 17 33  1  0  0  0
 34 18  2  0  0  0
 19 20  1  0  0  0
 19 21  1  0  0  0
 19 36  1  0  0  0
 21 22  2  0  0  0
 23 24  1  0  0  0
 24 25  1  0  0  0
 24 26  2  0  0  0
 26 27  1  0  0  0
 29 30  1  0  0  0
 30 31  1  0  0  0
 31 32  1  0  0  0
 34 35  1  0  0  0
  1 37  1  0  0  0
  2 38  1  0  0  0
  2 39  1  0  0  0
  3 40  1  0  0  0
  5 41  1  0  0  0
  7 42  1  0  0  0
  9 43  1  0  0  0
 10 44  1  0  0  0
 13 45  1  0  0  0
 15 46  1  0  0  0
 15 47  1  0  0  0
 20 48  1  0  0  0
 25 49  1  0  0  0
 25 50  1  0  0  0
 25 51  1  0  0  0
 26 52  1  0  0  0
 27 53  1  0  0  0
 27 54  1  0  0  0
 27 55  1  0  0  0
 28 56  1  0  0  0
 28 57  1  0  0  0
 28 58  1  0  0  0
 30 59  1  0  0  0
 30 60  1  0  0  0
 31 61  1  0  0  0
 31 62  1  0  0  0
 32 63  1  0  0  0
 32 64  1  0  0  0
 32 65  1  0  0  0
 33 66  1  0  0  0
 33 67  1  0  0  0
 33 68  1  0  0  0
 35 69  1  0  0  0
 35 70  1  0  0  0
 35 71  1  0  0  0
 36 72  1  0  0  0
 36 73  1  0  0  0
 36 74  1  0  0  0
M  END
$$$$
