1kc5_ligand
  -I-interpret- 

120122  0  0  0  0  0  0  0  0999 V2000
  -20.2960    2.9210   -6.9600 N   0  3  0  0  0
  -20.4190    3.7190   -5.7080 C   0  0  0  0  0
  -21.4790    3.1670   -4.7620 C   0  0  0  0  0
  -22.4230    3.8620   -4.3800 O   0  0  0  0  0
  -20.7080    5.1900   -6.0420 C   0  0  0  0  0
  -21.5730    5.3870   -7.2500 C   0  0  0  0  0
  -21.7270    6.6180   -7.8530 N   0  0  0  0  0
  -22.3230    4.5200   -7.9670 C   0  0  0  0  0
  -22.5330    6.4980   -8.8910 C   0  0  0  0  0
  -22.9100    5.2360   -8.9850 N   0  0  0  0  0
  -21.3030    1.9010   -4.3950 N   0  0  0  0  0
  -22.2090    1.2190   -3.4820 C   0  0  0  0  0
  -21.7200    1.3580   -2.0530 C   0  0  0  0  0
  -20.7090    0.7740   -1.6640 O   0  0  0  0  0
  -22.3310   -0.2650   -3.8390 C   0  0  0  0  0
  -21.0910   -0.8750   -4.4700 C   0  0  0  0  0
  -21.3210   -1.2540   -5.9240 C   0  0  0  0  0
  -21.1250   -0.4440   -6.8310 O   0  0  0  0  0
  -21.7620   -2.4890   -6.1480 N   0  0  0  0  0
  -22.4450    2.1530   -1.2790 N   0  0  0  0  0
  -22.1120    2.3860    0.1150 C   0  0  0  0  0
  -23.1020    1.6220    0.9690 C   0  0  0  0  0
  -24.2600    1.4520    0.5890 O   0  0  0  0  0
  -22.1730    3.8800    0.4250 C   0  0  0  0  0
  -20.9590    4.6940   -0.0290 C   0  0  0  0  0
  -20.4620    4.2340   -1.3790 C   0  0  0  0  0
  -21.3460    6.1570   -0.0740 C   0  0  0  0  0
  -22.6390    1.1430    2.1140 N   0  0  0  0  0
  -23.5010    0.3800    3.0020 C   0  0  0  0  0
  -24.5720    1.2750    3.6160 C   0  0  0  0  0
  -24.4330    2.4930    3.6450 O   0  0  0  0  0
  -22.6610   -0.2900    4.0870 C   0  0  0  0  0
  -21.6060   -1.2080    3.5110 C   0  0  0  0  0
  -21.6600   -1.4600    2.2920 O   0  0  0  0  0
  -20.7340   -1.6810    4.2690 O   0  0  0  0  0
  -25.6640    0.6790    4.1070 N   0  0  0  0  0
  -26.7520    1.4530    4.7120 C   0  0  0  0  0
  -26.3340    2.6200    5.6170 C   0  0  0  0  0
  -26.8200    3.7320    5.4420 O   0  0  0  0  0
  -27.5530    0.3800    5.4570 C   0  0  0  0  0
  -27.4310   -0.7830    4.5490 C   0  0  0  0  0
  -25.9540   -0.7640    4.1740 C   0  0  0  0  0
  -25.4340    2.3710    6.5670 N   0  0  0  0  0
  -24.9850    3.4010    7.5070 C   0  0  0  0  0
  -24.3260    4.6120    6.8620 C   0  0  0  0  0
  -24.3320    5.7050    7.4380 O   0  0  0  0  0
  -24.0340    2.7920    8.5390 C   0  0  0  0  0
  -23.7600    4.4220    5.6740 N   0  0  0  0  0
  -23.0830    5.4990    4.9590 C   0  0  0  0  0
  -23.9770    6.2160    3.9580 C   0  0  0  0  0
  -24.5300    5.5980    3.0530 O   0  0  0  0  0
  -21.8480    4.9460    4.2380 C   0  0  0  0  0
  -20.7720    4.4730    5.1670 C   0  0  0  0  0
  -20.0910    3.2880    4.9170 C   0  0  0  0  0
  -20.4540    5.2010    6.3140 C   0  0  0  0  0
  -19.1140    2.8380    5.7980 C   0  0  0  0  0
  -19.4830    4.7570    7.1940 C   0  0  0  0  0
  -18.8140    3.5790    6.9410 C   0  0  0  0  0
  -24.1100    7.5270    4.1270 N   0  0  0  0  0
  -24.9240    8.3180    3.2210 C   0  0  0  0  0
  -26.3940    7.9510    3.1550 C   0  0  0  0  0
  -26.7710    6.7970    3.3530 O   0  0  0  0  0
  -27.2438    8.8436    2.8928 O   0  0  0  0  0
  -20.1044    1.9474   -6.7238 H   0  0  0  0  0
  -21.1680    2.9792   -7.4859 H   0  0  0  0  0
  -19.5317    3.2919   -7.5245 H   0  0  0  0  0
  -19.4643    3.6475   -5.1869 H   0  0  0  0  0
  -19.7502    5.6666   -6.2510 H   0  0  0  0  0
  -21.2418    5.6141   -5.1915 H   0  0  0  0  0
  -22.4406    3.4536   -7.7746 H   0  0  0  0  0
  -22.8364    7.3047   -9.5583 H   0  0  0  0  0
  -20.5034    1.3886   -4.7671 H   0  0  0  0  0
  -23.1908    1.6833   -3.5749 H   0  0  0  0  0
  -23.1322   -0.3481   -4.5734 H   0  0  0  0  0
  -22.5064   -0.8006   -2.9060 H   0  0  0  0  0
  -20.8369   -1.7797   -3.9176 H   0  0  0  0  0
  -20.2904   -0.1362   -4.4325 H   0  0  0  0  0
  -21.9516   -2.7977   -7.1015 H   0  0  0  0  0
  -21.9105   -3.1272   -5.3663 H   0  0  0  0  0
  -23.2630    2.6159   -1.6752 H   0  0  0  0  0
  -21.0995    2.0423    0.3268 H   0  0  0  0  0
  -22.2211    3.9713    1.5101 H   0  0  0  0  0
  -23.0330    4.2754   -0.1155 H   0  0  0  0  0
  -20.1446    4.5470    0.6804 H   0  0  0  0  0
  -20.1737    3.1845   -1.3203 H   0  0  0  0  0
  -21.2554    4.3534   -2.1168 H   0  0  0  0  0
  -19.5995    4.8333   -1.6707 H   0  0  0  0  0
  -22.1678    6.2927   -0.7771 H   0  0  0  0  0
  -21.6588    6.4795    0.9191 H   0  0  0  0  0
  -20.4890    6.7484   -0.3963 H   0  0  0  0  0
  -21.6675    1.3112    2.3754 H   0  0  0  0  0
  -24.0074   -0.3935    2.4246 H   0  0  0  0  0
  -23.3268   -0.8882    4.7090 H   0  0  0  0  0
  -22.1559    0.4916    4.6546 H   0  0  0  0  0
  -20.8783   -1.3584    5.1616 H   0  0  0  0  0
  -27.3169    1.9904    3.9503 H   0  0  0  0  0
  -28.5859    0.6696    5.6504 H   0  0  0  0  0
  -27.1797    0.1834    6.4620 H   0  0  0  0  0
  -28.0898   -0.7166    3.6831 H   0  0  0  0  0
  -27.7388   -1.7193    5.0146 H   0  0  0  0  0
  -25.3240   -1.2948    4.8878 H   0  0  0  0  0
  -25.7421   -1.2872    3.2415 H   0  0  0  0  0
  -25.0443    1.4314    6.6425 H   0  0  0  0  0
  -25.8934    3.7721    7.9816 H   0  0  0  0  0
  -24.5516    2.0060    9.0889 H   0  0  0  0  0
  -23.1680    2.3703    8.0288 H   0  0  0  0  0
  -23.7072    3.5673    9.2320 H   0  0  0  0  0
  -23.8002    3.4954    5.2495 H   0  0  0  0  0
  -22.7941    6.2359    5.7084 H   0  0  0  0  0
  -21.4299    5.7551    3.6391 H   0  0  0  0  0
  -22.1709    4.0879    3.6485 H   0  0  0  0  0
  -20.3242    2.7074    4.0245 H   0  0  0  0  0
  -20.9786    6.1340    6.5200 H   0  0  0  0  0
  -18.5833    1.9076    5.5958 H   0  0  0  0  0
  -19.2476    5.3379    8.0858 H   0  0  0  0  0
  -18.0503    3.2263    7.6342 H   0  0  0  0  0
  -23.6336    7.9846    4.9042 H   0  0  0  0  0
  -24.5215    8.1498    2.2221 H   0  0  0  0  0
  -24.8809    9.3437    3.5873 H   0  0  0  0  0
  -26.7957    9.6830    2.7654 H   0  0  0  0  0
  1  2  1  0  0  0
  2  3  1  0  0  0
  2  5  1  0  0  0
  3  4  2  0  0  0
  3 11  1  0  0  0
  5  6  1  0  0  0
  6  7  4  0  0  0
  6  8  4  0  0  0
  7  9  4  0  0  0
  8 10  4  0  0  0
  9 10  4  0  0  0
 11 12  1  0  0  0
 12 13  1  0  0  0
 12 15  1  0  0  0
 13 14  2  0  0  0
 13 20  1  0  0  0
 15 16  1  0  0  0
 16 17  1  0  0  0
 17 18  2  0  0  0
 17 19  1  0  0  0
 20 21  1  0  0  0
 21 22  1  0  0  0
 21 24  1  0  0  0
 22 23  2  0  0  0
 22 28  1  0  0  0
 24 25  1  0  0  0
 25 26  1  0  0  0
 25 27  1  0  0  0
 28 29  1  0  0  0
 29 30  1  0  0  0
 29 32  1  0  0  0
 30 31  2  0  0  0
 30 36  1  0  0  0
 32 33  1  0  0  0
 33 34  2  0  0  0
 33 35  1  0  0  0
 36 37  1  0  0  0
 36 42  1  0  0  0
 37 38  1  0  0  0
 37 40  1  0  0  0
 38 39  2  0  0  0
 38 43  1  0  0  0
 40 41  1  0  0  0
 41 42  1  0  0  0
 43 44  1  0  0  0
 44 45  1  0  0  0
 44 47  1  0  0  0
 45 46  2  0  0  0
 45 48  1  0  0  0
 48 49  1  0  0  0
 49 50  1  0  0  0
 49 52  1  0  0  0
 50 51  2  0  0  0
 50 59  1  0  0  0
 52 53  1  0  0  0
 53 54  4  0  0  0
 53 55  4  0  0  0
 54 56  4  0  0  0
 55 57  4  0  0  0
 56 58  4  0  0  0
 57 58  4  0  0  0
 59 60  1  0  0  0
 60 61  1  0  0  0
 61 62  2  0  0  0
 61 63  1  0  0  0
  1 64  1  0  0  0
  1 65  1  0  0  0
  1 66  1  0  0  0
  2 67  1  0  0  0
  5 68  1  0  0  0
  5 69  1  0  0  0
  8 70  1  0  0  0
  9 71  1  0  0  0
 11 72  1  0  0  0
 12 73  1  0  0  0
 15 74  1  0  0  0
 15 75  1  0  0  0
 16 76  1  0  0  0
 16 77  1  0  0  0
 19 78  1  0  0  0
 19 79  1  0  0  0
 20 80  1  0  0  0
 21 81  1  0  0  0
 24 82  1  0  0  0
 24 83  1  0  0  0
 25 84  1  0  0  0
 26 85  1  0  0  0
 26 86  1  0  0  0
 26 87  1  0  0  0
 27 88  1  0  0  0
 27 89  1  0  0  0
 27 90  1  0  0  0
 28 91  1  0  0  0
 29 92  1  0  0  0
 32 93  1  0  0  0
 32 94  1  0  0  0
 35 95  1  0  0  0
 37 96  1  0  0  0
 40 97  1  0  0  0
 40 98  1  0  0  0
 41 99  1  0  0  0
 41100  1  0  0  0
 42101  1  0  0  0
 42102  1  0  0  0
 43103  1  0  0  0
 44104  1  0  0  0
 47105  1  0  0  0
 47106  1  0  0  0
 47107  1  0  0  0
 48108  1  0  0  0
 49109  1  0  0  0
 52110  1  0  0  0
 52111  1  0  0  0
 54112  1  0  0  0
 55113  1  0  0  0
 56114  1  0  0  0
 57115  1  0  0  0
 58116  1  0  0  0
 59117  1  0  0  0
 60118  1  0  0  0
 60119  1  0  0  0
 63120  1  0  0  0
M  END
$$$$
