### 
### Created by X-TOOL on Mon Sep 10 21:12:49 2018
### 

@<TRIPOS>MOLECULE
1kc5_ligand
  119   121     1     0     0
SMALL
GAST_HUCK


@<TRIPOS>ATOM
      1 N         -20.2960    2.9210   -6.9600 N.4       1 HIS         0.2390
      2 CA        -20.4190    3.7190   -5.7080 C.3       1 HIS         0.0708
      3 C         -21.4790    3.1670   -4.7620 C.2       1 HIS         0.2282
      4 O         -22.4230    3.8620   -4.3800 O.2       1 HIS        -0.3906
      5 CB        -20.7080    5.1900   -6.0420 C.3       1 HIS         0.0347
      6 CG        -21.5730    5.3870   -7.2500 C.2       1 HIS         0.0005
      7 ND1       -21.7270    6.6180   -7.8530 N.2       1 HIS        -0.3251
      8 CD2       -22.3230    4.5200   -7.9670 C.2       1 HIS         0.0293
      9 CE1       -22.5330    6.4980   -8.8910 C.2       1 HIS         0.0907
     10 NE2       -22.9100    5.2360   -8.9850 N.pl3     1 HIS        -0.2752
     11 N         -21.3030    1.9010   -4.3950 N.am      1 GLN        -0.2608
     12 CA        -22.2090    1.2190   -3.4820 C.3       1 GLN         0.1331
     13 C         -21.7200    1.3580   -2.0530 C.2       1 GLN         0.2040
     14 O         -20.7090    0.7740   -1.6640 O.2       1 GLN        -0.3944
     15 CB        -22.3310   -0.2650   -3.8390 C.3       1 GLN         0.0045
     16 CG        -21.0910   -0.8750   -4.4700 C.3       1 GLN         0.0412
     17 CD        -21.3210   -1.2540   -5.9240 C.2       1 GLN         0.1737
     18 OE1       -21.1250   -0.4440   -6.8310 O.2       1 GLN        -0.3973
     19 NE2       -21.7620   -2.4890   -6.1480 N.am      1 GLN        -0.3009
     20 N         -22.4450    2.1530   -1.2790 N.am      1 LEU        -0.2637
     21 CA        -22.1120    2.3860    0.1150 C.3       1 LEU         0.1312
     22 C         -23.1020    1.6220    0.9690 C.2       1 LEU         0.2040
     23 O         -24.2600    1.4520    0.5890 O.2       1 LEU        -0.3944
     24 CB        -22.1730    3.8800    0.4250 C.3       1 LEU        -0.0101
     25 CG        -20.9590    4.6940   -0.0290 C.3       1 LEU        -0.0425
     26 CD1       -20.4620    4.2340   -1.3790 C.3       1 LEU        -0.0625
     27 CD2       -21.3460    6.1570   -0.0740 C.3       1 LEU        -0.0625
     28 N         -22.6390    1.1430    2.1140 N.am      1 ASP        -0.2622
     29 CA        -23.5010    0.3800    3.0020 C.3       1 ASP         0.1425
     30 C         -24.5720    1.2750    3.6160 C.2       1 ASP         0.2081
     31 O         -24.4330    2.4930    3.6450 O.2       1 ASP        -0.3941
     32 CB        -22.6610   -0.2900    4.0870 C.3       1 ASP         0.0406
     33 CG        -21.6060   -1.2080    3.5110 C.2       1 ASP         0.0393
     34 OD1       -21.6600   -1.4600    2.2920 O.co2     1 ASP        -0.5688
     35 OD2       -20.7340   -1.6810    4.2690 O.co2     1 ASP        -0.5688
     36 N         -25.6640    0.6790    4.1070 N.am      1 PRO        -0.2497
     37 CA        -26.7520    1.4530    4.7120 C.3       1 PRO         0.1338
     38 C         -26.3340    2.6200    5.6170 C.2       1 PRO         0.2041
     39 O         -26.8200    3.7320    5.4420 O.2       1 PRO        -0.3944
     40 CB        -27.5530    0.3800    5.4570 C.3       1 PRO        -0.0104
     41 CG        -27.4310   -0.7830    4.5490 C.3       1 PRO        -0.0281
     42 CD        -25.9540   -0.7640    4.1740 C.3       1 PRO         0.0369
     43 N         -25.4340    2.3710    6.5670 N.am      1 ALA        -0.2640
     44 CA        -24.9850    3.4010    7.5070 C.3       1 ALA         0.1282
     45 C         -24.3260    4.6120    6.8620 C.2       1 ALA         0.2037
     46 O         -24.3320    5.7050    7.4380 O.2       1 ALA        -0.3944
     47 CB        -24.0340    2.7920    8.5390 C.3       1 ALA        -0.0244
     48 N         -23.7600    4.4220    5.6740 N.am      1 PHE        -0.2619
     49 CA        -23.0830    5.4990    4.9590 C.3       1 PHE         0.1404
     50 C         -23.9770    6.2160    3.9580 C.2       1 PHE         0.2052
     51 O         -24.5300    5.5980    3.0530 O.2       1 PHE        -0.3942
     52 CB        -21.8480    4.9460    4.2380 C.3       1 PHE         0.0214
     53 CG        -20.7720    4.4730    5.1670 C.ar      1 PHE        -0.0386
     54 CD1       -20.0910    3.2880    4.9170 C.ar      1 PHE        -0.0601
     55 CD2       -20.4540    5.2010    6.3140 C.ar      1 PHE        -0.0601
     56 CE1       -19.1140    2.8380    5.7980 C.ar      1 PHE        -0.0686
     57 CE2       -19.4830    4.7570    7.1940 C.ar      1 PHE        -0.0686
     58 CZ        -18.8140    3.5790    6.9410 C.ar      1 PHE        -0.0687
     59 N         -24.1100    7.5270    4.1270 N.am      1 GLY        -0.2720
     60 CA        -24.9240    8.3180    3.2210 C.3       1 GLY         0.0833
     61 C         -26.3940    7.9510    3.1550 C.2       1 GLY         0.0570
     62 O         -26.7710    6.7970    3.3530 O.co2     1 GLY        -0.5669
     63 O1        -27.2438    8.8436    2.8928 O.co2     1 GLY        -0.5669
     64 H1        -19.5849    3.3263   -7.5483 H         1 HIS         0.2016
     65 H2        -21.1778    2.9239   -7.4483 H         1 HIS         0.2016
     66 H3        -20.0420    1.9729   -6.7306 H         1 HIS         0.2016
     67 H4        -19.4516    3.6718   -5.1865 H         1 HIS         0.1116
     68 H5        -19.7487    5.6988   -6.2179 H         1 HIS         0.0453
     69 H6        -21.2126    5.6473   -5.1781 H         1 HIS         0.0453
     70 H7        -22.4405    3.4545   -7.7748 H         1 HIS         0.0729
     71 H8        -22.8361    7.3039   -9.5577 H         1 HIS         0.1199
     72 H9        -23.5402    4.8506   -9.7028 H         1 HIS         0.2361
     73 H10       -20.5190    1.3987   -4.7598 H         1 GLN         0.1885
     74 H11       -23.2026    1.6838   -3.5636 H         1 GLN         0.0801
     75 H12       -23.1656   -0.3788   -4.5465 H         1 GLN         0.0337
     76 H13       -22.5538   -0.8212   -2.9165 H         1 GLN         0.0337
     77 H14       -20.8135   -1.7783   -3.9070 H         1 GLN         0.0504
     78 H15       -20.2702   -0.1445   -4.4188 H         1 GLN         0.0504
     79 H16       -21.9322   -2.7971   -7.0840 H         1 GLN         0.1814
     80 H17       -21.9233   -3.1092   -5.3804 H         1 GLN         0.1814
     81 H18       -23.2469    2.6068   -1.6675 H         1 LEU         0.1883
     82 H19       -21.0949    2.0189    0.3169 H         1 LEU         0.0800
     83 H20       -22.2721    3.9970    1.5143 H         1 LEU         0.0315
     84 H21       -23.0636    4.2935   -0.0707 H         1 LEU         0.0315
     85 H22       -20.1490    4.5611    0.7033 H         1 LEU         0.0298
     86 H23       -19.5915    4.8381   -1.6746 H         1 LEU         0.0232
     87 H24       -21.2618    4.3541   -2.1246 H         1 LEU         0.0232
     88 H25       -20.1706    3.1749   -1.3211 H         1 LEU         0.0232
     89 H26       -21.7047    6.4720    0.9170 H         1 LEU         0.0232
     90 H27       -22.1447    6.3024   -0.8162 H         1 LEU         0.0232
     91 H28       -20.4698    6.7596   -0.3554 H         1 LEU         0.0232
     92 H29       -21.6866    1.3079    2.3703 H         1 ASP         0.1884
     93 H30       -24.0015   -0.4040    2.4147 H         1 ASP         0.0819
     94 H31       -23.3259   -0.8787    4.7362 H         1 ASP         0.0478
     95 H32       -22.1642    0.4903    4.6821 H         1 ASP         0.0478
     96 H33       -27.3706    1.8798    3.9088 H         1 PRO         0.0802
     97 H34       -28.6037    0.6807    5.5820 H         1 PRO         0.0313
     98 H35       -27.1133    0.1654    6.4422 H         1 PRO         0.0313
     99 H36       -28.0672   -0.6603    3.6601 H         1 PRO         0.0287
    100 H37       -27.6971   -1.7177    5.0642 H         1 PRO         0.0287
    101 H38       -25.3417   -1.2578    4.9429 H         1 PRO         0.0524
    102 H39       -25.7839   -1.2498    3.2019 H         1 PRO         0.0524
    103 H40       -25.0519    1.4498    6.6410 H         1 ALA         0.1883
    104 H41       -25.8778    3.7629    8.0379 H         1 ALA         0.0797
    105 H42       -23.7034    3.5735    9.2390 H         1 ALA         0.0277
    106 H43       -23.1595    2.3661    8.0254 H         1 ALA         0.0277
    107 H44       -24.5552    1.9986    9.0947 H         1 ALA         0.0277
    108 H45       -23.7994    3.5136    5.2579 H         1 PHE         0.1885
    109 H46       -22.7513    6.2383    5.7029 H         1 PHE         0.0823
    110 H47       -21.4325    5.7406    3.6009 H         1 PHE         0.0474
    111 H48       -22.1621    4.0992    3.6101 H         1 PHE         0.0474
    112 H49       -20.3229    2.7106    4.0294 H         1 PHE         0.0557
    113 H50       -20.9758    6.1288    6.5189 H         1 PHE         0.0557
    114 H51       -18.5863    1.9127    5.5969 H         1 PHE         0.0599
    115 H52       -19.2489    5.3347    8.0809 H         1 PHE         0.0599
    116 H53       -18.0545    3.2282    7.6304 H         1 PHE         0.0559
    117 H54       -23.6429    7.9756    4.8890 H         1 GLY         0.1873
    118 H55       -24.5045    8.2095    2.2100 H         1 GLY         0.0689
    119 H56       -24.8536    9.3695    3.5364 H         1 GLY         0.0689
@<TRIPOS>BOND
     1    1    2 1  
     2    2    3 1  
     3    2    5 1  
     4    3    4 2  
     5    3   11 am 
     6    5    6 1  
     7    6    7 1  
     8    6    8 2  
     9    7    9 2  
    10    8   10 1  
    11    9   10 1  
    12   11   12 1  
    13   12   13 1  
    14   12   15 1  
    15   13   14 2  
    16   13   20 am 
    17   15   16 1  
    18   16   17 1  
    19   17   18 2  
    20   17   19 am 
    21   20   21 1  
    22   21   22 1  
    23   21   24 1  
    24   22   23 2  
    25   22   28 am 
    26   24   25 1  
    27   25   26 1  
    28   25   27 1  
    29   28   29 1  
    30   29   30 1  
    31   29   32 1  
    32   30   31 2  
    33   30   36 am 
    34   32   33 1  
    35   33   34 ar 
    36   33   35 ar 
    37   36   37 1  
    38   36   42 1  
    39   37   38 1  
    40   37   40 1  
    41   38   39 2  
    42   38   43 am 
    43   40   41 1  
    44   41   42 1  
    45   43   44 1  
    46   44   45 1  
    47   44   47 1  
    48   45   46 2  
    49   45   48 am 
    50   48   49 1  
    51   49   50 1  
    52   49   52 1  
    53   50   51 2  
    54   50   59 am 
    55   52   53 1  
    56   53   54 ar 
    57   53   55 ar 
    58   54   56 ar 
    59   55   57 ar 
    60   56   58 ar 
    61   57   58 ar 
    62   59   60 1  
    63   60   61 1  
    64   61   62 ar 
    65   61   63 ar 
    66    1   64 1  
    67    1   65 1  
    68    1   66 1  
    69    2   67 1  
    70    5   68 1  
    71    5   69 1  
    72    8   70 1  
    73    9   71 1  
    74   10   72 1  
    75   11   73 1  
    76   12   74 1  
    77   15   75 1  
    78   15   76 1  
    79   16   77 1  
    80   16   78 1  
    81   19   79 1  
    82   19   80 1  
    83   20   81 1  
    84   21   82 1  
    85   24   83 1  
    86   24   84 1  
    87   25   85 1  
    88   26   86 1  
    89   26   87 1  
    90   26   88 1  
    91   27   89 1  
    92   27   90 1  
    93   27   91 1  
    94   28   92 1  
    95   29   93 1  
    96   32   94 1  
    97   32   95 1  
    98   37   96 1  
    99   40   97 1  
   100   40   98 1  
   101   41   99 1  
   102   41  100 1  
   103   42  101 1  
   104   42  102 1  
   105   43  103 1  
   106   44  104 1  
   107   47  105 1  
   108   47  106 1  
   109   47  107 1  
   110   48  108 1  
   111   49  109 1  
   112   52  110 1  
   113   52  111 1  
   114   54  112 1  
   115   55  113 1  
   116   56  114 1  
   117   57  115 1  
   118   58  116 1  
   119   59  117 1  
   120   60  118 1  
   121   60  119 1  
@<TRIPOS>SUBSTRUCTURE
     1 HIS         1

