1ld7_ligand
  -I-interpret- 

 58 63  0  0  0  0  0  0  0  0999 V2000
   15.4840  134.7230   -3.5960 C   0  0  0  0  0
   15.8530  136.0910   -3.8710 C   0  0  0  0  0
   14.1660  134.2280   -3.9540 C   0  0  0  0  0
   16.3520  133.8080   -2.9790 C   0  0  0  0  0
   17.1620  136.6060   -3.5460 N   0  0  0  0  0
   14.8920  136.9410   -4.4960 C   0  0  0  0  0
   13.7990  132.8670   -3.6870 C   0  0  0  0  0
   13.2420  135.1050   -4.5740 C   0  0  0  0  0
   16.0150  132.4470   -2.7110 C   0  0  0  0  0
   17.5370  137.2590   -2.3550 C   0  0  0  0  0
   18.2950  136.4860   -4.4480 C   0  0  0  0  0
   13.6000  136.4490   -4.8400 C   0  0  0  0  0
   14.7260  131.9730   -3.0710 C   0  0  0  0  0
   16.9350  131.5260   -2.1370 O   0  0  0  0  0
   19.0690  137.4730   -2.3930 C   0  0  0  0  0
   16.8270  137.5100   -1.4000 O   0  0  0  0  0
   19.4870  136.4930   -3.5110 C   0  0  0  0  0
   18.3230  131.8620   -2.1810 C   0  0  0  0  0
   19.7250  137.1780   -1.0840 N   0  3  0  0  0
   19.1080  132.0530   -3.3940 C   0  0  0  0  0
   18.9550  132.0180   -0.9140 C   0  0  0  0  0
   19.4420  135.8650   -0.4440 C   0  0  0  0  0
   20.4770  132.4050   -3.2740 C   0  0  0  0  0
   18.5190  131.8940   -4.7040 C   0  0  0  0  0
   20.3430  132.3640   -0.8160 C   0  0  0  0  0
   20.2050  135.6780    0.8550 C   0  0  0  0  0
   21.0850  132.5610   -2.0050 C   0  0  0  0  0
   17.9820  131.7600   -5.7230 N   0  0  0  0  0
   21.0630  132.5310    0.5020 C   0  0  0  0  0
   19.8860  134.4810    1.6960 C   0  0  0  0  0
   20.2520  133.1600    1.5410 N   0  0  0  0  0
   19.1280  134.4720    2.8420 C   0  0  0  0  0
   19.7040  132.4560    2.5870 C   0  0  0  0  0
   19.0090  133.2280    3.4020 N   0  0  0  0  0
   17.3423  134.1578   -2.6872 H   0  0  0  0  0
   15.1493  137.9778   -4.7125 H   0  0  0  0  0
   12.8041  132.5126   -3.9567 H   0  0  0  0  0
   12.2508  134.7434   -4.8476 H   0  0  0  0  0
   18.3337  137.2898   -5.1832 H   0  0  0  0  0
   18.2492  135.5872   -5.0629 H   0  0  0  0  0
   12.8786  137.1149   -5.3135 H   0  0  0  0  0
   14.4470  130.9370   -2.8790 H   0  0  0  0  0
   19.3669  138.5045   -2.5812 H   0  0  0  0  0
   20.4062  136.7997   -4.0102 H   0  0  0  0  0
   19.7198  135.4997   -3.1273 H   0  0  0  0  0
   19.3654  137.8789   -0.4361 H   0  0  0  0  0
   20.7266  137.1758   -1.2767 H   0  0  0  0  0
   18.3736  131.8719   -0.0036 H   0  0  0  0  0
   19.7524  135.0799   -1.1335 H   0  0  0  0  0
   18.3765  135.8225   -0.2184 H   0  0  0  0  0
   21.0713  132.5581   -4.1748 H   0  0  0  0  0
   19.9428  136.5394    1.4693 H   0  0  0  0  0
   21.2473  135.5537    0.5612 H   0  0  0  0  0
   22.1378  132.8363   -1.9429 H   0  0  0  0  0
   21.9218  133.1782    0.3236 H   0  0  0  0  0
   21.3289  131.5348    0.8557 H   0  0  0  0  0
   18.6675  135.3656    3.2632 H   0  0  0  0  0
   19.8291  131.3824    2.7275 H   0  0  0  0  0
  1  2  4  0  0  0
  1  3  4  0  0  0
  1  4  4  0  0  0
  2  5  1  0  0  0
  2  6  4  0  0  0
  3  7  4  0  0  0
  3  8  4  0  0  0
  4  9  4  0  0  0
  5 10  1  0  0  0
  5 11  1  0  0  0
  6 12  4  0  0  0
  7 13  4  0  0  0
  8 12  4  0  0  0
  9 13  4  0  0  0
  9 14  1  0  0  0
 10 15  1  0  0  0
 10 16  2  0  0  0
 11 17  1  0  0  0
 14 18  1  0  0  0
 15 17  1  0  0  0
 15 19  1  0  0  0
 18 20  4  0  0  0
 18 21  4  0  0  0
 19 22  1  0  0  0
 20 23  4  0  0  0
 20 24  1  0  0  0
 21 25  4  0  0  0
 22 26  1  0  0  0
 23 27  4  0  0  0
 24 28  3  0  0  0
 25 27  4  0  0  0
 25 29  1  0  0  0
 26 30  1  0  0  0
 29 31  1  0  0  0
 30 31  4  0  0  0
 30 32  4  0  0  0
 31 33  4  0  0  0
 32 34  4  0  0  0
 33 34  4  0  0  0
  4 35  1  0  0  0
  6 36  1  0  0  0
  7 37  1  0  0  0
  8 38  1  0  0  0
 11 39  1  0  0  0
 11 40  1  0  0  0
 12 41  1  0  0  0
 13 42  1  0  0  0
 15 43  1  0  0  0
 17 44  1  0  0  0
 17 45  1  0  0  0
 19 46  1  0  0  0
 19 47  1  0  0  0
 21 48  1  0  0  0
 22 49  1  0  0  0
 22 50  1  0  0  0
 23 51  1  0  0  0
 26 52  1  0  0  0
 26 53  1  0  0  0
 27 54  1  0  0  0
 29 55  1  0  0  0
 29 56  1  0  0  0
 32 57  1  0  0  0
 33 58  1  0  0  0
M  END
$$$$
