3que_ligand
  -I-interpret- 

 52 55  0  0  0  0  0  0  0  0999 V2000
    2.3180    3.9460   23.0190 O   0  0  0  0  0
    3.3050    5.6500   30.5640 O   0  0  0  0  0
    4.6640    3.4050   31.2010 O   0  0  0  0  0
    6.0590    0.6140   14.8610 F   0  0  0  0  0
    5.9520    0.0610   19.5230 F   0  0  0  0  0
    4.0940   -0.3520   15.8310 C   0  0  0  0  0
    3.3890    1.1640   20.1500 C   0  0  0  0  0
    1.4440    1.6660   27.3690 C   0  0  0  0  0
    0.6650    0.9990   26.4070 C   0  0  0  0  0
    3.4130   -0.7550   16.9860 C   0  0  0  0  0
    3.0750    2.0750   21.1380 C   0  0  0  0  0
    5.9680    0.3020   17.2050 C   0  0  0  0  0
    2.2090   -0.5560   21.3260 C   0  0  0  0  0
    2.5350    2.9430   25.6320 C   0  0  0  0  0
    4.3330    5.2260   29.6510 C   0  0  0  0  0
   -0.0140    0.5610   24.1130 C   0  0  0  0  0
    1.0080   -0.3340   23.4130 C   0  0  0  0  0
    3.4600    2.8090   29.1760 C   0  0  0  0  0
    3.2840   -1.0430   19.2800 N   0  0  0  0  0
    3.1610    3.3180   27.8470 O   0  0  0  0  0
    2.0720    2.7620   23.2550 C   0  0  0  0  0
    5.3730    0.1890   15.9490 C   0  0  0  0  0
    2.9730   -0.1550   20.2390 C   0  0  0  0  0
    5.2960   -0.1060   18.3420 C   0  0  0  0  0
    2.3780    2.6240   26.9720 C   0  0  0  0  0
    0.8410    1.3450   25.0640 C   0  0  0  0  0
    1.8730    0.3460   22.3270 C   0  0  0  0  0
    3.9970   -0.6450   18.2300 C   0  0  0  0  0
    2.3070    1.6670   22.2200 C   0  0  0  0  0
    1.7610    2.3110   24.6830 C   0  0  0  0  0
    4.5640    3.7070   29.8120 C   0  0  0  0  0
    3.1602    6.5939   30.4652 H   0  0  0  0  0
    4.8078    2.4624   31.3128 H   0  0  0  0  0
    3.6293   -0.4601   14.8510 H   0  0  0  0  0
    3.9724    1.4864   19.2875 H   0  0  0  0  0
    1.3182    1.4344   28.4267 H   0  0  0  0  0
   -0.0549    0.2347   26.6998 H   0  0  0  0  0
    2.4055   -1.1620   16.9003 H   0  0  0  0  0
    3.4265    3.1045   21.0694 H   0  0  0  0  0
    6.9726    0.7160   17.2911 H   0  0  0  0  0
    1.8692   -1.5894   21.3947 H   0  0  0  0  0
    3.2681    3.6911   25.3301 H   0  0  0  0  0
    5.2575    5.7608   29.8686 H   0  0  0  0  0
    4.0243    5.4418   28.6281 H   0  0  0  0  0
   -0.8039   -0.0007   24.6117 H   0  0  0  0  0
   -0.5744    1.1914   23.4226 H   0  0  0  0  0
    0.4372   -1.1125   22.9067 H   0  0  0  0  0
    1.6978   -0.6733   24.1857 H   0  0  0  0  0
    3.8102    1.7789   29.1101 H   0  0  0  0  0
    2.5619    2.8296   29.7933 H   0  0  0  0  0
    2.9765   -2.0125   19.3563 H   0  0  0  0  0
    5.4832    3.4792   29.2722 H   0  0  0  0  0
 21  1  2  0  0  0
 15  2  1  0  0  0
 31  3  1  0  0  0
 22  4  1  0  0  0
 24  5  1  0  0  0
 10  6  4  0  0  0
  6 22  4  0  0  0
 11  7  4  0  0  0
  7 23  4  0  0  0
  9  8  4  0  0  0
  8 25  4  0  0  0
 26  9  4  0  0  0
 28 10  4  0  0  0
 29 11  4  0  0  0
 22 12  4  0  0  0
 12 24  4  0  0  0
 23 13  4  0  0  0
 13 27  4  0  0  0
 25 14  4  0  0  0
 14 30  4  0  0  0
 31 15  1  0  0  0
 17 16  1  0  0  0
 16 26  1  0  0  0
 27 17  1  0  0  0
 20 18  1  0  0  0
 18 31  1  0  0  0
 23 19  1  0  0  0
 19 28  1  0  0  0
 25 20  1  0  0  0
 21 29  1  0  0  0
 21 30  1  0  0  0
 24 28  4  0  0  0
 26 30  4  0  0  0
 27 29  4  0  0  0
  2 32  1  0  0  0
  3 33  1  0  0  0
  6 34  1  0  0  0
  7 35  1  0  0  0
  8 36  1  0  0  0
  9 37  1  0  0  0
 10 38  1  0  0  0
 11 39  1  0  0  0
 12 40  1  0  0  0
 13 41  1  0  0  0
 14 42  1  0  0  0
 15 43  1  0  0  0
 15 44  1  0  0  0
 16 45  1  0  0  0
 16 46  1  0  0  0
 17 47  1  0  0  0
 17 48  1  0  0  0
 18 49  1  0  0  0
 18 50  1  0  0  0
 19 51  1  0  0  0
 31 52  1  0  0  0
M  END
$$$$
