1t1s_ligand
  -I-interpret- 

 26 26  0  0  0  0  0  0  0  0999 V2000
   17.2440    9.7120   61.9610 O   0  0  0  0  0
   17.2220   10.4400   60.5980 P   0  0  0  0  0
   18.4270   11.2310   60.4270 O   0  0  0  0  0
   17.2690    9.3990   59.4510 O   0  0  0  0  0
   15.7260   11.4740   60.4720 C   0  0  0  0  0
   15.6720   12.1800   59.2000 N   0  0  0  0  0
   14.9500   11.7550   58.1160 C   0  0  0  0  0
   14.9750   12.5370   56.9610 N   0  0  0  0  0
   14.2640   12.1710   55.8280 C   0  0  0  0  0
   13.5220   11.0080   55.8690 C   0  0  0  0  0
   12.5700   10.5900   54.5020 Cl  0  0  0  0  0
   13.4790   10.2020   57.0000 C   0  0  0  0  0
   14.1930   10.5720   58.1350 C   0  0  0  0  0
   15.6810   12.7180   61.7970 P   0  0  0  0  0
   15.7590   12.0370   63.1850 O   0  0  0  0  0
   14.4810   13.5320   61.6910 O   0  0  0  0  0
   16.8000   13.7640   61.6030 O   0  0  0  0  0
   16.4417    9.1940   62.0588 H   0  0  0  0  0
   16.4943    8.8342   59.5010 H   0  0  0  0  0
   14.8747   10.7986   60.5571 H   0  0  0  0  0
   16.2050   13.0450   59.1102 H   0  0  0  0  0
   14.2905   12.7859   54.9284 H   0  0  0  0  0
   12.8893    9.2853   56.9979 H   0  0  0  0  0
   14.1653    9.9503   59.0299 H   0  0  0  0  0
   16.5567   11.5052   63.2349 H   0  0  0  0  0
   17.6547   13.3300   61.6549 H   0  0  0  0  0
  1  2  1  0  0  0
  2  3  2  0  0  0
  2  4  1  0  0  0
  2  5  1  0  0  0
  5  6  1  0  0  0
  5 14  1  0  0  0
  6  7  1  0  0  0
  7  8  4  0  0  0
  7 13  4  0  0  0
  8  9  4  0  0  0
  9 10  4  0  0  0
 10 11  1  0  0  0
 10 12  4  0  0  0
 12 13  4  0  0  0
 14 15  1  0  0  0
 14 16  2  0  0  0
 14 17  1  0  0  0
  1 18  1  0  0  0
  4 19  1  0  0  0
  5 20  1  0  0  0
  6 21  1  0  0  0
  9 22  1  0  0  0
 12 23  1  0  0  0
 13 24  1  0  0  0
 15 25  1  0  0  0
 17 26  1  0  0  0
M  END
$$$$
