### 
### Created by X-TOOL on Mon Sep 10 21:12:51 2018
### 

@<TRIPOS>MOLECULE
1t1s_ligand
   22    22     1     0     0
SMALL
GAST_HUCK


@<TRIPOS>ATOM
      1 O1         17.2440    9.7120   61.9610 O.co2     1 CBQ        -0.5598
      2 P1         17.2220   10.4400   60.5980 P.3       1 CBQ         0.1025
      3 O2         18.4270   11.2310   60.4270 O.co2     1 CBQ        -0.5598
      4 O3         17.2690    9.3990   59.4510 O.co2     1 CBQ        -0.5598
      5 C1         15.7260   11.4740   60.4720 C.3       1 CBQ         0.1786
      6 N1         15.6720   12.1800   59.2000 N.pl3     1 CBQ        -0.2769
      7 C2         14.9500   11.7550   58.1160 C.ar      1 CBQ         0.1136
      8 N2         14.9750   12.5370   56.9610 N.ar      1 CBQ        -0.2846
      9 C3         14.2640   12.1710   55.8280 C.ar      1 CBQ         0.0099
     10 C4         13.5220   11.0080   55.8690 C.ar      1 CBQ         0.0535
     11 CL1        12.5700   10.5900   54.5020 Cl        1 CBQ        -0.0732
     12 C5         13.4790   10.2020   57.0000 C.ar      1 CBQ        -0.0402
     13 C6         14.1930   10.5720   58.1350 C.ar      1 CBQ        -0.0156
     14 P2         15.6810   12.7180   61.7970 P.3       1 CBQ         0.1025
     15 O4         15.7590   12.0370   63.1850 O.co2     1 CBQ        -0.5598
     16 O5         14.4810   13.5320   61.6910 O.co2     1 CBQ        -0.5598
     17 O6         16.8000   13.7640   61.6030 O.co2     1 CBQ        -0.5598
     18 H1         14.8444   10.8219   60.5588 H         1 CBQ         0.0947
     19 H2         16.2102   13.0535   59.1093 H         1 CBQ         0.1834
     20 H3         14.2903   12.7825   54.9333 H         1 CBQ         0.0788
     21 H4         12.8926    9.2903   56.9979 H         1 CBQ         0.0705
     22 H5         14.1655    9.9537   59.0250 H         1 CBQ         0.0611
@<TRIPOS>BOND
     1    1    2 ar 
     2    2    3 ar 
     3    2    4 ar 
     4    2    5 1  
     5    5    6 1  
     6    5   14 1  
     7    6    7 1  
     8    7    8 ar 
     9    7   13 ar 
    10    8    9 ar 
    11    9   10 ar 
    12   10   11 1  
    13   10   12 ar 
    14   12   13 ar 
    15   14   15 ar 
    16   14   16 ar 
    17   14   17 ar 
    18    5   18 1  
    19    6   19 1  
    20    9   20 1  
    21   12   21 1  
    22   13   22 1  
@<TRIPOS>SUBSTRUCTURE
     1 CBQ         1

