1uy7_ligand
  -I-interpret- 

 44 46  0  0  0  0  0  0  0  0999 V2000
    5.1810    7.0090   24.3200 C   0  0  0  0  0
    3.6330    6.9890   24.4800 C   0  0  0  0  0
    3.0520    7.5180   25.5700 C   0  0  0  0  0
    3.1690    9.0230   25.7360 C   0  0  0  0  0
    2.0420    9.7150   25.1430 N   0  0  0  0  0
    0.8050    9.8270   25.5980 C   0  0  0  0  0
    0.4000    9.2940   26.8260 N   0  0  0  0  0
   -0.9950    9.5150   27.1870 C   0  0  0  0  0
   -1.7470   10.3070   26.2660 N   0  0  0  0  0
   -0.0790   10.5990   24.6950 C   0  0  0  0  0
   -1.4200   10.8510   25.0730 C   0  0  0  0  0
   -2.2100   11.5750   24.2490 N   0  0  0  0  0
    0.7480   11.0000   23.6890 N   0  0  0  0  0
    1.8890   10.3900   23.9990 C   0  0  0  0  0
    3.2300   10.4940   23.2750 C   0  0  0  0  0
    4.1800   11.5770   23.7590 C   0  0  0  0  0
    5.5650   11.4710   23.8400 C   0  0  0  0  0
    6.3300   12.5480   24.2910 C   0  0  0  0  0
    3.4640   12.7390   24.1450 C   0  0  0  0  0
    4.2570   13.8070   24.6100 C   0  0  0  0  0
    5.6590   13.7180   24.6760 C   0  0  0  0  0
    6.4180   14.7770   25.1570 O   0  0  0  0  0
    5.8370   15.8210   25.9330 C   0  0  0  0  0
    5.5322    8.0409   24.3252 H   0  0  0  0  0
    5.6375    6.4643   25.1465 H   0  0  0  0  0
    5.4536    6.5358   23.3767 H   0  0  0  0  0
    3.3825    5.9294   24.5305 H   0  0  0  0  0
    3.2706    7.6055   23.6574 H   0  0  0  0  0
    3.5619    7.0788   26.4275 H   0  0  0  0  0
    1.9868    7.3061   25.4776 H   0  0  0  0  0
    4.0787    9.3548   25.2355 H   0  0  0  0  0
    3.1909    9.2510   26.8017 H   0  0  0  0  0
   -1.4338    9.1045   28.0964 H   0  0  0  0  0
   -3.1783   11.7648   24.5075 H   0  0  0  0  0
   -1.8378   11.9315   23.3688 H   0  0  0  0  0
    2.9954   10.7392   22.2392 H   0  0  0  0  0
    3.7401    9.5462   23.4471 H   0  0  0  0  0
    6.0553   10.5418   23.5497 H   0  0  0  0  0
    7.4168   12.4817   24.3425 H   0  0  0  0  0
    2.3774   12.8014   24.0861 H   0  0  0  0  0
    3.7697   14.7288   24.9277 H   0  0  0  0  0
    5.0613   16.3170   25.3496 H   0  0  0  0  0
    5.3992   15.3990   26.8376 H   0  0  0  0  0
    6.6076   16.5429   26.2034 H   0  0  0  0  0
  1  2  1  0  0  0
  2  3  1  0  0  0
  3  4  1  0  0  0
  4  5  1  0  0  0
  5  6  4  0  0  0
  5 14  4  0  0  0
  6  7  4  0  0  0
  6 10  4  0  0  0
  7  8  4  0  0  0
  8  9  4  0  0  0
  9 11  4  0  0  0
 10 11  4  0  0  0
 10 13  4  0  0  0
 11 12  1  0  0  0
 13 14  4  0  0  0
 14 15  1  0  0  0
 15 16  1  0  0  0
 16 17  4  0  0  0
 16 19  4  0  0  0
 17 18  4  0  0  0
 18 21  4  0  0  0
 19 20  4  0  0  0
 20 21  4  0  0  0
 21 22  1  0  0  0
 22 23  1  0  0  0
  1 24  1  0  0  0
  1 25  1  0  0  0
  1 26  1  0  0  0
  2 27  1  0  0  0
  2 28  1  0  0  0
  3 29  1  0  0  0
  3 30  1  0  0  0
  4 31  1  0  0  0
  4 32  1  0  0  0
  8 33  1  0  0  0
 12 34  1  0  0  0
 12 35  1  0  0  0
 15 36  1  0  0  0
 15 37  1  0  0  0
 17 38  1  0  0  0
 18 39  1  0  0  0
 19 40  1  0  0  0
 20 41  1  0  0  0
 23 42  1  0  0  0
 23 43  1  0  0  0
 23 44  1  0  0  0
M  END
$$$$
