1t7d_ligand
  -I-interpret- 

 89 91  0  0  0  0  0  0  0  0999 V2000
   -2.4720   59.2060    3.8130 C   0  0  0  0  0
   -2.1830   58.1320    4.8670 C   0  0  0  0  0
   -1.5180   58.4170    5.8640 O   0  0  0  0  0
   -2.6670   56.9110    4.6460 N   0  0  0  0  0
   -3.4100   56.6990    3.3920 C   0  0  0  0  0
   -2.4040   55.8560    5.6390 C   0  0  0  0  0
   -1.0990   55.1350    5.2910 C   0  0  0  0  0
   -1.1850   54.5820    3.9750 O   0  0  0  0  0
   -3.5330   54.8260    5.7380 C   0  0  0  0  0
   -4.1460   54.4540    4.7380 O   0  0  0  0  0
   -3.7850   54.3970    6.9730 N   0  0  0  0  0
   -4.7950   53.3700    7.2710 C   0  0  0  0  0
   -5.3270   53.5340    8.6970 C   0  0  0  0  0
   -4.0880   52.0220    7.1290 C   0  0  0  0  0
   -2.9230   51.8900    7.5030 O   0  0  0  0  0
   -4.8020   51.0410    6.5880 N   0  0  0  0  0
   -4.2350   49.7040    6.3540 C   0  0  0  0  0
   -3.8270   49.0030    7.6530 C   0  0  0  0  0
   -4.0050   49.5490    8.7400 O   0  0  0  0  0
   -3.2370   47.8160    7.5230 N   0  0  0  0  0
   -2.9920   47.3320    6.1550 C   0  0  0  0  0
   -2.8490   47.0620    8.7250 C   0  0  0  0  0
   -1.3300   47.0140    8.9110 C   0  0  0  0  0
   -0.5570   47.4040    8.0380 O   0  0  0  0  0
   -0.9630   46.4710   10.0690 N   0  0  0  0  0
    0.4270   46.2540   10.4960 C   0  0  0  0  0
    0.9020   47.4170   11.3710 C   0  0  0  0  0
    0.4280   44.9540   11.3030 C   0  0  0  0  0
   -0.1200   44.9020   12.4030 O   0  0  0  0  0
    1.0180   43.9160   10.7180 N   0  0  0  0  0
    1.0960   42.5810   11.3330 C   0  0  0  0  0
    2.2350   42.5030   12.3520 C   0  0  0  0  0
    2.2760   41.5770   13.1610 O   0  0  0  0  0
    3.1170   43.3600   12.3710 O   0  0  0  0  0
    1.3000   41.5090   10.2570 C   0  0  0  0  0
    0.1330   41.3990    9.2710 C   0  0  0  0  0
   -0.9130   42.3150    9.3010 C   0  0  0  0  0
    0.1200   40.3840    8.3160 C   0  0  0  0  0
   -0.9310   40.2990    7.4080 C   0  0  0  0  0
   -1.9730   41.2220    7.4430 C   0  0  0  0  0
   -2.9820   41.1290    6.5380 O   0  0  0  0  0
   -1.9670   42.2420    8.3950 C   0  0  0  0  0
   -2.9220   43.2530    8.4130 C   0  0  0  0  0
   -2.4830   44.5690    8.5230 C   0  0  0  0  0
   -3.3800   45.6290    8.6170 C   0  0  0  0  0
   -4.7470   45.3710    8.5950 C   0  0  0  0  0
   -5.1960   44.0580    8.4730 C   0  0  0  0  0
   -4.2940   43.0020    8.3800 C   0  0  0  0  0
   -4.7620   41.7300    8.2610 O   0  0  0  0  0
   -3.0211   60.0271    4.2739 H   0  0  0  0  0
   -1.5310   59.5785    3.4082 H   0  0  0  0  0
   -3.0687   58.7737    3.0098 H   0  0  0  0  0
   -2.8970   55.9494    2.7895 H   0  0  0  0  0
   -4.4180   56.3541    3.6223 H   0  0  0  0  0
   -3.4629   57.6371    2.8395 H   0  0  0  0  0
   -2.3306   56.3502    6.6077 H   0  0  0  0  0
   -0.9294   54.3319    6.0082 H   0  0  0  0  0
   -0.2739   55.8463    5.3291 H   0  0  0  0  0
   -0.3638   54.1319    3.7640 H   0  0  0  0  0
   -3.2544   54.7981    7.7463 H   0  0  0  0  0
   -5.6465   53.4512    6.5954 H   0  0  0  0  0
   -4.5035   53.4355    9.4042 H   0  0  0  0  0
   -5.7824   54.5187    8.8025 H   0  0  0  0  0
   -6.0726   52.7642    8.8960 H   0  0  0  0  0
   -5.7717   51.2201    6.3273 H   0  0  0  0  0
   -3.3416   49.8208    5.7405 H   0  0  0  0  0
   -4.9986   49.0955    5.8695 H   0  0  0  0  0
   -3.9412   47.2451    5.6263 H   0  0  0  0  0
   -2.3464   48.0372    5.6316 H   0  0  0  0  0
   -2.5076   46.3565    6.1974 H   0  0  0  0  0
   -3.2784   47.5729    9.5868 H   0  0  0  0  0
   -1.7028   46.1832   10.7096 H   0  0  0  0  0
    1.0989   46.1930    9.6399 H   0  0  0  0  0
    0.8447   48.3450   10.8021 H   0  0  0  0  0
    0.2656   47.4900   12.2529 H   0  0  0  0  0
    1.9327   47.2411   11.6788 H   0  0  0  0  0
    1.4371   44.0514    9.7980 H   0  0  0  0  0
    0.1542   42.4022   11.8517 H   0  0  0  0  0
    1.5246   40.9965   13.0196 H   0  0  0  0  0
    1.3896   40.5490   10.7653 H   0  0  0  0  0
    2.1859   41.7848    9.6850 H   0  0  0  0  0
   -0.9072   43.1069   10.0500 H   0  0  0  0  0
    0.9320   39.6577    8.2804 H   0  0  0  0  0
   -0.9387   39.5033    6.6631 H   0  0  0  0  0
   -3.6162   41.8325    6.6941 H   0  0  0  0  0
   -1.4126   44.7742    8.5358 H   0  0  0  0  0
   -5.4615   46.1904    8.6727 H   0  0  0  0  0
   -6.2667   43.8551    8.4501 H   0  0  0  0  0
   -5.7219   41.7427    8.2550 H   0  0  0  0  0
  1  2  1  0  0  0
  2  3  2  0  0  0
  2  4  1  0  0  0
  4  5  1  0  0  0
  4  6  1  0  0  0
  6  7  1  0  0  0
  6  9  1  0  0  0
  7  8  1  0  0  0
  9 10  2  0  0  0
  9 11  1  0  0  0
 11 12  1  0  0  0
 12 13  1  0  0  0
 12 14  1  0  0  0
 14 15  2  0  0  0
 14 16  1  0  0  0
 16 17  1  0  0  0
 17 18  1  0  0  0
 18 19  2  0  0  0
 18 20  1  0  0  0
 20 21  1  0  0  0
 20 22  1  0  0  0
 22 23  1  0  0  0
 22 45  1  0  0  0
 23 24  2  0  0  0
 23 25  1  0  0  0
 25 26  1  0  0  0
 26 27  1  0  0  0
 26 28  1  0  0  0
 28 29  2  0  0  0
 28 30  1  0  0  0
 30 31  1  0  0  0
 31 32  1  0  0  0
 31 35  1  0  0  0
 32 33  1  0  0  0
 32 34  2  0  0  0
 35 36  1  0  0  0
 36 37  4  0  0  0
 36 38  4  0  0  0
 37 42  4  0  0  0
 38 39  4  0  0  0
 39 40  4  0  0  0
 40 41  1  0  0  0
 40 42  4  0  0  0
 42 43  1  0  0  0
 43 44  4  0  0  0
 43 48  4  0  0  0
 44 45  4  0  0  0
 45 46  4  0  0  0
 46 47  4  0  0  0
 47 48  4  0  0  0
 48 49  1  0  0  0
  1 50  1  0  0  0
  1 51  1  0  0  0
  1 52  1  0  0  0
  5 53  1  0  0  0
  5 54  1  0  0  0
  5 55  1  0  0  0
  6 56  1  0  0  0
  7 57  1  0  0  0
  7 58  1  0  0  0
  8 59  1  0  0  0
 11 60  1  0  0  0
 12 61  1  0  0  0
 13 62  1  0  0  0
 13 63  1  0  0  0
 13 64  1  0  0  0
 16 65  1  0  0  0
 17 66  1  0  0  0
 17 67  1  0  0  0
 21 68  1  0  0  0
 21 69  1  0  0  0
 21 70  1  0  0  0
 22 71  1  0  0  0
 25 72  1  0  0  0
 26 73  1  0  0  0
 27 74  1  0  0  0
 27 75  1  0  0  0
 27 76  1  0  0  0
 30 77  1  0  0  0
 31 78  1  0  0  0
 33 79  1  0  0  0
 35 80  1  0  0  0
 35 81  1  0  0  0
 37 82  1  0  0  0
 38 83  1  0  0  0
 39 84  1  0  0  0
 41 85  1  0  0  0
 44 86  1  0  0  0
 46 87  1  0  0  0
 47 88  1  0  0  0
 49 89  1  0  0  0
M  END
$$$$
