1g45_ligand
  -I-interpret- 

 34 35  0  0  0  0  0  0  0  0999 V2000
   -3.9180    3.4410   14.6860 C   0  0  0  0  0
   -4.3030    2.2840   15.4070 C   0  0  0  0  0
   -5.6360    2.2460   15.9250 C   0  0  0  0  0
   -6.4850    3.3490   15.6910 C   0  0  0  0  0
   -6.0620    4.4710   14.9700 C   0  0  0  0  0
   -4.7860    4.5210   14.4700 C   0  0  0  0  0
   -4.3100    5.7250   13.6940 C   0  0  0  0  0
   -5.0740    6.6390   13.5200 O   0  0  0  0  0
   -3.0260    5.7820   13.1970 N   0  0  0  0  0
   -2.4130    6.8690   12.4430 C   0  0  0  0  0
   -6.1150    0.7670   16.8520 S   0  0  0  0  0
   -5.6910   -0.5790   16.1580 N   0  0  0  0  0
   -7.5940    1.0570   16.9230 O   0  0  0  0  0
   -5.5380    1.0750   18.1620 O   0  0  0  0  0
   -1.6820    7.8380   13.2000 C   0  0  0  0  0
   -2.2640    8.3240   14.4100 C   0  0  0  0  0
   -1.6080    9.2860   15.2280 C   0  0  0  0  0
   -0.3420    9.7690   14.8230 C   0  0  0  0  0
    0.2850    9.3050   13.6080 C   0  0  0  0  0
   -0.3940    8.3210   12.7780 C   0  0  0  0  0
    0.1690    7.8750   11.6460 F   0  0  0  0  0
   -2.9066    3.4939   14.2830 H   0  0  0  0  0
   -3.6113    1.4558   15.5610 H   0  0  0  0  0
   -7.5014    3.3260   16.0841 H   0  0  0  0  0
   -6.7456    5.3040   14.8060 H   0  0  0  0  0
   -2.4361    4.9697   13.3775 H   0  0  0  0  0
   -3.2338    7.4103   11.9724 H   0  0  0  0  0
   -1.6910    6.4020   11.7731 H   0  0  0  0  0
   -5.0331   -1.2062   16.6208 H   0  0  0  0  0
   -6.0739   -0.8248   15.2451 H   0  0  0  0  0
   -3.2398    7.9469   14.7162 H   0  0  0  0  0
   -2.0716    9.6432   16.1476 H   0  0  0  0  0
    0.1707   10.5064   15.4406 H   0  0  0  0  0
    1.2616    9.6896   13.3140 H   0  0  0  0  0
  1  6  4  0  0  0
  1  2  4  0  0  0
  2  3  4  0  0  0
  3 11  1  0  0  0
  3  4  4  0  0  0
  4  5  4  0  0  0
  5  6  4  0  0  0
  6  7  1  0  0  0
  7  9  1  0  0  0
  7  8  2  0  0  0
  9 10  1  0  0  0
 10 15  1  0  0  0
 15 20  4  0  0  0
 15 16  4  0  0  0
 16 17  4  0  0  0
 17 18  4  0  0  0
 18 19  4  0  0  0
 19 20  4  0  0  0
 11 14  2  0  0  0
 11 13  2  0  0  0
 11 12  1  0  0  0
 20 21  1  0  0  0
  1 22  1  0  0  0
  2 23  1  0  0  0
  4 24  1  0  0  0
  5 25  1  0  0  0
  9 26  1  0  0  0
 10 27  1  0  0  0
 10 28  1  0  0  0
 12 29  1  0  0  0
 12 30  1  0  0  0
 16 31  1  0  0  0
 17 32  1  0  0  0
 18 33  1  0  0  0
 19 34  1  0  0  0
M  END
$$$$
