1i90_ligand
  -I-interpret- 

 39 40  0  0  0  0  0  0  0  0999 V2000
   -3.8070    6.1240   13.3620 N   0  0  0  0  0
   -3.2350    5.0040   12.6710 C   0  0  0  0  0
   -5.2710    5.7440   14.0800 S   0  0  0  0  0
   -6.4790    5.8450   12.8990 O   0  0  0  0  0
   -5.6330    6.8010   15.3370 O   0  0  0  0  0
   -2.9130    3.7540   13.5460 C   0  0  0  0  0
   -2.4240    2.6860   12.6490 N   0  3  0  0  0
   -2.8620    6.7840   14.2810 C   0  0  0  0  0
   -2.3560    8.0930   13.6810 C   0  0  0  0  0
   -1.3800    8.8020   14.6000 C   0  0  0  0  0
   -0.9490   10.0090   13.9940 O   0  0  0  0  0
   -0.0220   10.7120   14.8280 C   0  0  0  0  0
   -4.1150    2.1930   15.0390 C   0  0  0  0  0
   -4.0170    3.3230   14.3240 C   0  0  0  0  0
   -5.1960    4.1310   14.6120 C   0  0  0  0  0
   -6.0290    3.4300   15.4720 S   0  0  0  0  0
   -5.3800    2.1290   15.7970 C   0  0  0  0  0
   -5.8920    0.9590   16.7020 S   0  0  0  0  0
   -5.8390   -0.2510   15.9890 N   0  0  0  0  0
   -5.0620    0.8360   17.8050 O   0  0  0  0  0
   -7.1600    1.2450   17.1710 O   0  0  0  0  0
   -2.2833    5.3476   12.2655 H   0  0  0  0  0
   -3.9772    4.6834   11.9400 H   0  0  0  0  0
   -2.1449    4.0182   14.2729 H   0  0  0  0  0
   -1.6323    3.0339   12.1081 H   0  0  0  0  0
   -2.1304    1.8837   13.2061 H   0  0  0  0  0
   -3.1731    2.4059   12.0159 H   0  0  0  0  0
   -2.0132    6.1216   14.4509 H   0  0  0  0  0
   -3.3734    6.9996   15.2191 H   0  0  0  0  0
   -3.2126    8.7485   13.5238 H   0  0  0  0  0
   -1.8396    7.8627   12.7491 H   0  0  0  0  0
   -0.5186    8.1588   14.7798 H   0  0  0  0  0
   -1.8713    9.0268   15.5467 H   0  0  0  0  0
   -0.5000   10.9531   15.7775 H   0  0  0  0  0
    0.8509   10.0845   15.0082 H   0  0  0  0  0
    0.2865   11.6318   14.3312 H   0  0  0  0  0
   -3.3520    1.4149   15.0582 H   0  0  0  0  0
   -6.6841   -0.8092   15.8682 H   0  0  0  0  0
   -4.9554   -0.5710   15.5924 H   0  0  0  0  0
  1  8  1  0  0  0
  1  3  1  0  0  0
  1  2  1  0  0  0
  2  6  1  0  0  0
  6 14  1  0  0  0
  6  7  1  0  0  0
 14 13  4  0  0  0
 14 15  4  0  0  0
 15 16  4  0  0  0
 15  3  1  0  0  0
  3  5  2  0  0  0
  3  4  2  0  0  0
 16 17  4  0  0  0
 17 13  4  0  0  0
 17 18  1  0  0  0
 18 21  2  0  0  0
 18 20  2  0  0  0
 18 19  1  0  0  0
  8  9  1  0  0  0
  9 10  1  0  0  0
 10 11  1  0  0  0
 11 12  1  0  0  0
  2 22  1  0  0  0
  2 23  1  0  0  0
  6 24  1  0  0  0
  7 25  1  0  0  0
  7 26  1  0  0  0
  7 27  1  0  0  0
  8 28  1  0  0  0
  8 29  1  0  0  0
  9 30  1  0  0  0
  9 31  1  0  0  0
 10 32  1  0  0  0
 10 33  1  0  0  0
 12 34  1  0  0  0
 12 35  1  0  0  0
 12 36  1  0  0  0
 13 37  1  0  0  0
 19 38  1  0  0  0
 19 39  1  0  0  0
M  END
$$$$
