6ggf_ligand
  -I-interpret- 

 47 50  0  0  0  0  0  0  0  0999 V2000
   91.7420   94.2170  -42.5510 N   0  0  0  0  0
   91.6890   95.5270  -42.0670 C   0  0  0  0  0
   91.3320   96.4110  -43.1280 C   0  0  0  0  0
   91.2240   97.7910  -42.8740 C   0  0  0  0  0
   91.4630   98.2820  -41.5760 C   0  0  0  0  0
   91.8380   97.4020  -40.5300 C   0  0  0  0  0
   91.9380   96.0220  -40.7700 C   0  0  0  0  0
   91.3490   99.7690  -41.3330 C   0  0  0  0  0
   91.4200   94.2540  -43.9010 C   0  0  0  0  0
   91.1590   95.5970  -44.2920 C   0  0  0  0  0
   90.8140   95.8500  -45.6300 C   0  0  0  0  0
   90.7270   94.7790  -46.5400 C   0  0  0  0  0
   90.9850   93.4430  -46.1590 C   0  0  0  0  0
   91.3470   93.1930  -44.8180 C   0  0  0  0  0
   92.0690   93.0080  -41.8240 C   0  0  0  0  0
   90.8930   92.3670  -47.1530 C   0  0  0  0  0
   90.4170   92.4120  -48.4420 C   0  0  0  0  0
   90.5010   91.1570  -49.1150 C   0  0  0  0  0
   91.0520   90.1760  -48.3290 C   0  0  0  0  0
   91.4710   90.7740  -46.7540 S   0  0  0  0  0
   90.0430   90.9440  -50.5240 C   0  0  0  0  0
   93.5850   92.8100  -41.7300 C   0  0  0  0  0
   89.9550  100.1580  -41.0500 N   0  3  0  0  0
   89.7910  101.5980  -40.7520 C   0  0  0  0  0
   90.9566   98.4765  -43.6782 H   0  0  0  0  0
   92.0493   97.7976  -39.5365 H   0  0  0  0  0
   92.2053   95.3405  -39.9624 H   0  0  0  0  0
   91.6818  100.2943  -42.2282 H   0  0  0  0  0
   91.9643  100.0289  -40.4717 H   0  0  0  0  0
   90.6149   96.8690  -45.9617 H   0  0  0  0  0
   90.4512   94.9877  -47.5737 H   0  0  0  0  0
   91.5699   92.1764  -44.4941 H   0  0  0  0  0
   91.6395   92.1573  -42.3531 H   0  0  0  0  0
   91.6659   93.0896  -40.8146 H   0  0  0  0  0
   90.0162   93.3148  -48.9029 H   0  0  0  0  0
   91.2075   89.1472  -48.6539 H   0  0  0  0  0
   88.9799   91.1730  -50.5977 H   0  0  0  0  0
   90.6041   91.5994  -51.1901 H   0  0  0  0  0
   90.2126   89.9051  -50.8067 H   0  0  0  0  0
   94.0035   92.7364  -42.7338 H   0  0  0  0  0
   94.0295   93.6592  -41.2110 H   0  0  0  0  0
   93.7970   91.8940  -41.1786 H   0  0  0  0  0
   89.6539   99.6387  -40.2253 H   0  0  0  0  0
   89.4050   99.9537  -41.8843 H   0  0  0  0  0
   90.3861  101.8565  -39.8761 H   0  0  0  0  0
   90.1264  102.1851  -41.6069 H   0  0  0  0  0
   88.7402  101.8094  -40.5542 H   0  0  0  0  0
  1  2  4  0  0  0
  1  9  4  0  0  0
  1 15  1  0  0  0
  2  3  4  0  0  0
  2  7  4  0  0  0
  3  4  4  0  0  0
  3 10  4  0  0  0
  4  5  4  0  0  0
  5  6  4  0  0  0
  5  8  1  0  0  0
  6  7  4  0  0  0
  8 23  1  0  0  0
  9 10  4  0  0  0
  9 14  4  0  0  0
 10 11  4  0  0  0
 11 12  4  0  0  0
 12 13  4  0  0  0
 13 14  4  0  0  0
 13 16  1  0  0  0
 15 22  1  0  0  0
 16 17  4  0  0  0
 16 20  4  0  0  0
 17 18  4  0  0  0
 18 19  4  0  0  0
 18 21  1  0  0  0
 19 20  4  0  0  0
 23 24  1  0  0  0
  4 25  1  0  0  0
  6 26  1  0  0  0
  7 27  1  0  0  0
  8 28  1  0  0  0
  8 29  1  0  0  0
 11 30  1  0  0  0
 12 31  1  0  0  0
 14 32  1  0  0  0
 15 33  1  0  0  0
 15 34  1  0  0  0
 17 35  1  0  0  0
 19 36  1  0  0  0
 21 37  1  0  0  0
 21 38  1  0  0  0
 21 39  1  0  0  0
 22 40  1  0  0  0
 22 41  1  0  0  0
 22 42  1  0  0  0
 23 43  1  0  0  0
 23 44  1  0  0  0
 24 45  1  0  0  0
 24 46  1  0  0  0
 24 47  1  0  0  0
M  END
$$$$
