6klk_ligand
  -I-interpret- 

 12 12  0  0  0  0  0  0  0  0999 V2000
   -3.8580   41.0340   12.5190 N   0  0  0  0  0
   -5.0110   41.1360   11.8080 C   0  0  0  0  0
   -6.1530   40.5360   12.2130 N   0  0  0  0  0
   -6.1750   39.8220   13.3490 C   0  0  0  0  0
   -4.9380   39.6910   14.1350 C   0  0  0  0  0
   -3.7880   40.3310   13.6720 C   0  0  0  0  0
   -5.0360   41.8060   10.7400 O   0  0  0  0  0
   -7.2060   39.2590   13.7730 O   0  0  0  0  0
   -4.9860   38.9680   15.2670 F   0  0  0  0  0
   -3.0202   41.5016   12.1729 H   0  0  0  0  0
   -7.0008   40.6264   11.6531 H   0  0  0  0  0
   -2.8527   40.2657   14.2280 H   0  0  0  0  0
  1  2  1  0  0  0
  1  6  1  0  0  0
  2  3  1  0  0  0
  2  7  2  0  0  0
  3  4  1  0  0  0
  4  5  1  0  0  0
  4  8  2  0  0  0
  5  6  2  0  0  0
  5  9  1  0  0  0
  1 10  1  0  0  0
  3 11  1  0  0  0
  6 12  1  0  0  0
M  END
$$$$
