### 
### Created by X-TOOL on Sun Sep  9 21:50:03 2018
### 

@<TRIPOS>MOLECULE
1los_ligand
   31    32     1     0     0
SMALL
GAST_HUCK


@<TRIPOS>ATOM
      1 N1         41.8400   25.8050   26.7710 N.am      1 NON        -0.0895
      2 C2         41.4900   24.7730   27.6750 C.2       1 NON         0.3448
      3 N3         40.1900   24.3010   27.5380 N.am      1 NON        -0.1783
      4 C4         39.2230   24.7470   26.6050 C.2       1 NON         0.2283
      5 C5         39.6810   25.7960   25.7320 C.2       1 NON         0.1074
      6 N6         40.9100   26.2660   25.8360 N.2       1 NON        -0.1511
      7 O2         42.2940   24.3540   28.5000 O.2       1 NON        -0.3820
      8 O4         38.1270   24.2330   26.6110 O.2       1 NON        -0.3896
      9 C1'        43.1860   26.4100   26.7790 C.3       1 NON         0.2182
     10 C2'        43.7720   26.9900   28.0640 C.3       1 NON         0.1395
     11 C3'        45.2900   26.8920   27.8330 C.3       1 NON         0.1149
     12 C4'        45.3690   25.6030   27.0250 C.3       1 NON         0.1182
     13 O2'        43.2910   28.3190   28.3740 O.3       1 NON        -0.3836
     14 O3'        45.8310   28.0720   27.1530 O.3       1 NON        -0.3864
     15 O4'        44.1680   25.5430   26.2440 O.3       1 NON        -0.3358
     16 C5'        45.5050   24.2750   27.7800 C.3       1 NON         0.1071
     17 O5'        46.6440   24.3540   28.6410 O.3       1 NON        -0.2734
     18 P          46.9800   23.3270   29.8230 P.3       1 NON         0.2008
     19 O1P        45.9610   23.1440   30.9210 O.co2     1 NON        -0.5537
     20 O2P        48.2050   23.8010   30.4790 O.co2     1 NON        -0.5537
     21 O3P        47.4300   21.9540   29.0050 O.co2     1 NON        -0.5537
     22 H1         39.9089   23.5720   28.1621 H         1 NON         0.2273
     23 H2         39.0081   26.2050   24.9798 H         1 NON         0.0786
     24 H3         43.1017   27.2628   26.0894 H         1 NON         0.1005
     25 H4         43.4969   26.3439   28.9107 H         1 NON         0.0676
     26 H5         45.8226   26.7763   28.7885 H         1 NON         0.0648
     27 H6         46.2390   25.6862   26.3570 H         1 NON         0.0650
     28 H7         42.3469   28.2967   28.4777 H         1 NON         0.2101
     29 H8         46.7674   27.9655   27.0331 H         1 NON         0.2100
     30 H9         45.6397   23.4526   27.0620 H         1 NON         0.0639
     31 H10        44.5999   24.0947   28.3786 H         1 NON         0.0639
@<TRIPOS>BOND
     1    9    1 1  
     2    1    6 am 
     3    1    2 am 
     4    2    7 2  
     5    2    3 am 
     6    3    4 am 
     7    4    8 2  
     8    4    5 1  
     9    6    5 2  
    10    9   15 1  
    11    9   10 1  
    12   10   13 1  
    13   10   11 1  
    14   11   14 1  
    15   11   12 1  
    16   12   16 1  
    17   12   15 1  
    18   16   17 1  
    19   17   18 1  
    20   18   21 ar 
    21   18   20 ar 
    22   18   19 ar 
    23    3   22 1  
    24    5   23 1  
    25    9   24 1  
    26   10   25 1  
    27   11   26 1  
    28   12   27 1  
    29   13   28 1  
    30   14   29 1  
    31   16   30 1  
    32   16   31 1  
@<TRIPOS>SUBSTRUCTURE
     1 NON         1

