1los_ligand
  -I-interpret- 

 33 34  0  0  0  0  0  0  0  0999 V2000
   41.8400   25.8050   26.7710 N   0  0  0  0  0
   41.4900   24.7730   27.6750 C   0  0  0  0  0
   40.1900   24.3010   27.5380 N   0  0  0  0  0
   39.2230   24.7470   26.6050 C   0  0  0  0  0
   39.6810   25.7960   25.7320 C   0  0  0  0  0
   40.9100   26.2660   25.8360 N   0  0  0  0  0
   42.2940   24.3540   28.5000 O   0  0  0  0  0
   38.1270   24.2330   26.6110 O   0  0  0  0  0
   43.1860   26.4100   26.7790 C   0  0  0  0  0
   43.7720   26.9900   28.0640 C   0  0  0  0  0
   45.2900   26.8920   27.8330 C   0  0  0  0  0
   45.3690   25.6030   27.0250 C   0  0  0  0  0
   43.2910   28.3190   28.3740 O   0  0  0  0  0
   45.8310   28.0720   27.1530 O   0  0  0  0  0
   44.1680   25.5430   26.2440 O   0  0  0  0  0
   45.5050   24.2750   27.7800 C   0  0  0  0  0
   46.6440   24.3540   28.6410 O   0  0  0  0  0
   46.9800   23.3270   29.8230 P   0  0  0  0  0
   45.9610   23.1440   30.9210 O   0  0  0  0  0
   48.2050   23.8010   30.4790 O   0  0  0  0  0
   47.4300   21.9540   29.0050 O   0  0  0  0  0
   39.9033   23.5574   28.1746 H   0  0  0  0  0
   39.0075   26.2054   24.9791 H   0  0  0  0  0
   42.9620   27.2787   26.1599 H   0  0  0  0  0
   43.4619   26.4453   28.9558 H   0  0  0  0  0
   45.8965   26.8676   28.7384 H   0  0  0  0  0
   46.3029   25.6748   26.4675 H   0  0  0  0  0
   43.6965   28.6227   29.1894 H   0  0  0  0  0
   46.7772   27.9644   27.0319 H   0  0  0  0  0
   45.6317   23.4566   27.0713 H   0  0  0  0  0
   44.6068   24.0894   28.3690 H   0  0  0  0  0
   45.1359   22.8328   30.5416 H   0  0  0  0  0
   46.6675   21.5899   28.5494 H   0  0  0  0  0
  9  1  1  0  0  0
  1  6  1  0  0  0
  1  2  1  0  0  0
  2  7  2  0  0  0
  2  3  1  0  0  0
  3  4  1  0  0  0
  4  8  2  0  0  0
  4  5  1  0  0  0
  6  5  2  0  0  0
  9 15  1  0  0  0
  9 10  1  0  0  0
 10 13  1  0  0  0
 10 11  1  0  0  0
 11 14  1  0  0  0
 11 12  1  0  0  0
 12 16  1  0  0  0
 12 15  1  0  0  0
 16 17  1  0  0  0
 17 18  1  0  0  0
 18 21  1  0  0  0
 18 20  2  0  0  0
 18 19  1  0  0  0
  3 22  1  0  0  0
  5 23  1  0  0  0
  9 24  1  0  0  0
 10 25  1  0  0  0
 11 26  1  0  0  0
 12 27  1  0  0  0
 13 28  1  0  0  0
 14 29  1  0  0  0
 16 30  1  0  0  0
 16 31  1  0  0  0
 19 32  1  0  0  0
 21 33  1  0  0  0
M  END
$$$$
