### 
### Created by X-TOOL on Mon Sep 10 21:13:32 2018
### 

@<TRIPOS>MOLECULE
5nmf_ligand
  144   144     1     0     0
SMALL
GAST_HUCK


@<TRIPOS>ATOM
      1 N           3.0440   17.8340    7.2640 N.4       1 SER         0.2396
      2 CA          3.4440   17.8400    5.8430 C.3       1 SER         0.0885
      3 C           4.1470   19.1390    5.4140 C.2       1 SER         0.2290
      4 O           3.6870   20.2550    5.6520 O.2       1 SER        -0.3906
      5 CB          2.2470   17.5540    4.9280 C.3       1 SER         0.1041
      6 OG          2.6730   17.3520    3.5870 O.3       1 SER        -0.3870
      7 N           5.2270   18.9200    4.6750 N.am      1 LEU        -0.2609
      8 CA          6.2200   19.8970    4.3290 C.3       1 LEU         0.1313
      9 C           5.7890   20.6900    3.0730 C.2       1 LEU         0.2040
     10 O           5.0010   20.2300    2.2340 O.2       1 LEU        -0.3944
     11 CB          7.4990   19.1190    4.0910 C.3       1 LEU        -0.0101
     12 CG          8.6990   19.7310    4.7640 C.3       1 LEU        -0.0425
     13 CD1         9.4430   18.7200    5.6210 C.3       1 LEU        -0.0625
     14 CD2         9.6210   20.2580    3.6990 C.3       1 LEU        -0.0625
     15 N           6.3110   21.8930    2.9450 N.am      1 TYR        -0.2621
     16 CA          5.9140   22.8110    1.8660 C.3       1 TYR         0.1390
     17 C           6.6080   22.3730    0.5870 C.2       1 TYR         0.2059
     18 O           7.6430   21.8090    0.6860 O.2       1 TYR        -0.3942
     19 CB          6.3220   24.2180    2.2780 C.3       1 TYR         0.0163
     20 CG          6.0780   25.3020    1.2740 C.ar      1 TYR        -0.0493
     21 CD1         4.8980   25.4030    0.5570 C.ar      1 TYR        -0.0685
     22 CD2         7.0140   26.2800    1.0880 C.ar      1 TYR        -0.0685
     23 CE1         4.7130   26.4370   -0.3500 C.ar      1 TYR        -0.0398
     24 CE2         6.8200   27.3040    0.1880 C.ar      1 TYR        -0.0398
     25 CZ          5.6860   27.3820   -0.5180 C.ar      1 TYR         0.0805
     26 OH          5.5890   28.4330   -1.3660 O.3       1 TYR        -0.3376
     27 N           6.0320   22.5730   -0.5880 N.am      1 ASN        -0.2615
     28 CA          6.6710   22.1380   -1.8420 C.3       1 ASN         0.1476
     29 C           7.6440   23.1150   -2.5060 C.2       1 ASN         0.2063
     30 O           8.7790   22.7590   -2.7910 O.2       1 ASN        -0.3942
     31 CB          5.6620   21.5870   -2.8790 C.3       1 ASN         0.0773
     32 CG          4.5160   22.5320   -3.2640 C.2       1 ASN         0.1780
     33 OD1         3.7420   22.1800   -4.1430 O.2       1 ASN        -0.3970
     34 ND2         4.3780   23.6820   -2.6250 N.am      1 ASN        -0.3007
     35 N           7.2040   24.3650   -2.6690 N.am      1 THR        -0.2612
     36 CA          7.8030   25.3620   -3.5700 C.3       1 THR         0.1565
     37 C           8.6260   26.3400   -2.7600 C.2       1 THR         0.2065
     38 O           8.4080   27.5690   -2.8090 O.2       1 THR        -0.3943
     39 CB          6.7060   26.1690   -4.3110 C.3       1 THR         0.0924
     40 OG1         5.7300   26.6270   -3.3760 O.3       1 THR        -0.3874
     41 CG2         6.0300   25.3450   -5.3760 C.3       1 THR        -0.0346
     42 N           9.5620   25.7700   -1.9940 N.am      1 ILE        -0.2634
     43 CA         10.4390   26.5330   -1.0960 C.3       1 ILE         0.1335
     44 C          11.3600   27.3120   -2.0030 C.2       1 ILE         0.2041
     45 O          11.8340   26.7360   -2.9670 O.2       1 ILE        -0.3944
     46 CB         11.2010   25.5930   -0.1260 C.3       1 ILE        -0.0037
     47 CG1        11.7940   26.3870    1.0240 C.3       1 ILE        -0.0491
     48 CG2        12.2850   24.7730   -0.8040 C.3       1 ILE        -0.0582
     49 CD1        10.7320   26.9440    1.9580 C.3       1 ILE        -0.0648
     50 N          11.5480   28.6090   -1.7610 N.am      1 ALA        -0.2640
     51 CA         12.2780   29.4560   -2.7120 C.3       1 ALA         0.1282
     52 C          13.7610   29.6200   -2.3670 C.2       1 ALA         0.2037
     53 O          14.1620   29.6280   -1.1880 O.2       1 ALA        -0.3944
     54 CB         11.6030   30.8130   -2.8230 C.3       1 ALA        -0.0244
     55 N          14.5710   29.7880   -3.3940 N.am      1 THR        -0.2613
     56 CA         15.9570   30.1680   -3.1810 C.3       1 THR         0.1564
     57 C          16.1260   31.6860   -2.9620 C.2       1 THR         0.2059
     58 O          15.2900   32.5000   -3.3690 O.2       1 THR        -0.3943
     59 CB         16.8880   29.6810   -4.3340 C.3       1 THR         0.0924
     60 OG1        16.6010   30.3590   -5.5730 O.3       1 THR        -0.3874
     61 CG2        16.7370   28.1790   -4.5320 C.3       1 THR        -0.0346
     62 N          17.2450   32.0490   -2.3360 N.am      1 LEU        -0.2694
     63 CA         17.6050   33.4610   -2.0620 C.3       1 LEU         0.0946
     64 C          17.9950   34.2660   -3.3210 C.2       1 LEU         0.0601
     65 O          18.1820   35.5040   -3.2520 O.co2     1 LEU        -0.5666
     66 CB         18.7420   33.5390   -1.0280 C.3       1 LEU        -0.0156
     67 CG         18.3720   33.6950    0.4390 C.3       1 LEU        -0.0431
     68 CD1        17.3370   32.6990    0.9310 C.3       1 LEU        -0.0625
     69 CD2        19.6430   33.5720    1.2600 C.3       1 LEU        -0.0625
     70 OXT        18.1470   33.7050   -4.4150 O.co2     1 LEU        -0.5666
     71 H1          2.5909   16.9603    7.4818 H         1 SER         0.2016
     72 H2          2.4064   18.5953    7.4368 H         1 SER         0.2016
     73 H3          3.8615   17.9422    7.8437 H         1 SER         0.2016
     74 H4          4.1664   17.0213    5.7095 H         1 SER         0.1122
     75 H5          1.5552   18.4085    4.9616 H         1 SER         0.0640
     76 H6          1.7304   16.6498    5.2822 H         1 SER         0.0640
     77 H7          3.2684   16.6126    3.5531 H         1 SER         0.2099
     78 H8          5.3611   17.9917    4.3282 H         1 LEU         0.1884
     79 H9          6.3621   20.6010    5.1622 H         1 LEU         0.0800
     80 H10         7.6878   19.0793    3.0081 H         1 LEU         0.0315
     81 H11         7.3643   18.0980    4.4774 H         1 LEU         0.0315
     82 H12         8.3658   20.5611    5.4043 H         1 LEU         0.0298
     83 H13        10.3095   19.2064    6.0929 H         1 LEU         0.0232
     84 H14         9.7884   17.8879    4.9899 H         1 LEU         0.0232
     85 H15         8.7697   18.3340    6.4005 H         1 LEU         0.0232
     86 H16         9.0835   20.9899    3.0781 H         1 LEU         0.0232
     87 H17         9.9665   19.4256    3.0683 H         1 LEU         0.0232
     88 H18        10.4872   20.7441    4.1716 H         1 LEU         0.0232
     89 H19         7.0009   22.1924    3.6041 H         1 TYR         0.1885
     90 H20         4.8244   22.7744    1.7196 H         1 TYR         0.0821
     91 H21         7.3994   24.2030    2.4993 H         1 TYR         0.0453
     92 H22         5.7638   24.4749    3.1904 H         1 TYR         0.0453
     93 H23         4.1135   24.6697    0.7050 H         1 TYR         0.0530
     94 H24         7.9322   26.2490    1.6633 H         1 TYR         0.0530
     95 H25         3.7962   26.4952   -0.9255 H         1 TYR         0.0525
     96 H26         7.5918   28.0526    0.0504 H         1 TYR         0.0525
     97 H27         6.2946   28.3924   -2.0008 H         1 TYR         0.2458
     98 H28         5.1431   23.0296   -0.6252 H         1 ASN         0.1885
     99 H29         7.2919   21.2791   -1.5475 H         1 ASN         0.0826
    100 H30         5.2182   20.6702   -2.4637 H         1 ASN         0.0551
    101 H31         6.2195   21.3421   -3.7951 H         1 ASN         0.0551
    102 H32         3.6339   24.3037   -2.8696 H         1 ASN         0.1814
    103 H33         5.0177   23.9296   -1.8974 H         1 ASN         0.1814
    104 H34         6.4049   24.6455   -2.1372 H         1 THR         0.1884
    105 H35         8.4436   24.8504   -4.3034 H         1 THR         0.0826
    106 H36         7.1778   27.0398   -4.7897 H         1 THR         0.0639
    107 H37         6.1487   27.1838   -2.7301 H         1 THR         0.2101
    108 H38         5.2611   25.9520   -5.8763 H         1 THR         0.0257
    109 H39         5.5591   24.4645   -4.9146 H         1 THR         0.0257
    110 H40         6.7762   25.0170   -6.1146 H         1 THR         0.0257
    111 H41         9.6702   24.7767   -2.0344 H         1 ILE         0.1883
    112 H42         9.8386   27.2332   -0.4967 H         1 ILE         0.0803
    113 H43        10.4670   24.8875    0.2905 H         1 ILE         0.0345
    114 H44        12.3747   27.2250    0.6112 H         1 ILE         0.0267
    115 H45        12.4599   25.7282    1.6007 H         1 ILE         0.0267
    116 H46        11.8465   24.2015   -1.6353 H         1 ILE         0.0235
    117 H47        12.7290   24.0785   -0.0756 H         1 ILE         0.0235
    118 H48        13.0645   25.4451   -1.1922 H         1 ILE         0.0235
    119 H49        11.2162   27.5077    2.7690 H         1 ILE         0.0230
    120 H50        10.1483   26.1153    2.3852 H         1 ILE         0.0230
    121 H51        10.0631   27.6121    1.3957 H         1 ILE         0.0230
    122 H52        11.1866   29.0109   -0.9196 H         1 ALA         0.1883
    123 H53        12.2233   28.9682   -3.6964 H         1 ALA         0.0797
    124 H54        12.1564   31.4404   -3.5372 H         1 ALA         0.0277
    125 H55        11.5946   31.3002   -1.8368 H         1 ALA         0.0277
    126 H56        10.5694   30.6807   -3.1755 H         1 ALA         0.0277
    127 H57        14.2295   29.6531   -4.3242 H         1 THR         0.1884
    128 H58        16.2876   29.6664   -2.2596 H         1 THR         0.0826
    129 H59        17.9290   29.8974   -4.0520 H         1 THR         0.0639
    130 H60        17.1847   30.0387   -6.2506 H         1 THR         0.2101
    131 H61        17.3979   27.8483   -5.3468 H         1 THR         0.0257
    132 H62        15.6932   27.9461   -4.7892 H         1 THR         0.0257
    133 H63        17.0109   27.6573   -3.6031 H         1 THR         0.0257
    134 H64        17.8743   31.3322   -2.0356 H         1 LEU         0.1875
    135 H65        16.7169   33.9430   -1.6274 H         1 LEU         0.0726
    136 H66        19.3703   34.4003   -1.2989 H         1 LEU         0.0308
    137 H67        19.3294   32.6135   -1.1192 H         1 LEU         0.0308
    138 H68        17.9555   34.7035    0.5786 H         1 LEU         0.0297
    139 H69        17.1291   32.8820    1.9956 H         1 LEU         0.0232
    140 H70        17.7221   31.6766    0.8031 H         1 LEU         0.0232
    141 H71        16.4099   32.8169    0.3509 H         1 LEU         0.0232
    142 H72        20.3860   34.2970    0.8963 H         1 LEU         0.0232
    143 H73        20.0460   32.5533    1.1615 H         1 LEU         0.0232
    144 H74        19.4180   33.7767    2.3171 H         1 LEU         0.0232
@<TRIPOS>BOND
     1    1    2 1  
     2    2    3 1  
     3    2    5 1  
     4    3    4 2  
     5    3    7 am 
     6    5    6 1  
     7    7    8 1  
     8    8    9 1  
     9    8   11 1  
    10    9   10 2  
    11    9   15 am 
    12   11   12 1  
    13   12   13 1  
    14   12   14 1  
    15   15   16 1  
    16   16   17 1  
    17   16   19 1  
    18   17   18 2  
    19   17   27 am 
    20   19   20 1  
    21   20   21 ar 
    22   20   22 ar 
    23   21   23 ar 
    24   22   24 ar 
    25   23   25 ar 
    26   24   25 ar 
    27   25   26 1  
    28   27   28 1  
    29   28   29 1  
    30   28   31 1  
    31   29   30 2  
    32   29   35 am 
    33   31   32 1  
    34   32   33 2  
    35   32   34 am 
    36   35   36 1  
    37   36   37 1  
    38   36   39 1  
    39   37   38 2  
    40   37   42 am 
    41   39   40 1  
    42   39   41 1  
    43   42   43 1  
    44   43   44 1  
    45   43   46 1  
    46   44   45 2  
    47   44   50 am 
    48   46   47 1  
    49   46   48 1  
    50   47   49 1  
    51   50   51 1  
    52   51   52 1  
    53   51   54 1  
    54   52   53 2  
    55   52   55 am 
    56   55   56 1  
    57   56   57 1  
    58   56   59 1  
    59   57   58 2  
    60   57   62 am 
    61   59   60 1  
    62   59   61 1  
    63   62   63 1  
    64   63   64 1  
    65   63   66 1  
    66   64   65 ar 
    67   64   70 ar 
    68   66   67 1  
    69   67   68 1  
    70   67   69 1  
    71    1   71 1  
    72    1   72 1  
    73    1   73 1  
    74    2   74 1  
    75    5   75 1  
    76    5   76 1  
    77    6   77 1  
    78    7   78 1  
    79    8   79 1  
    80   11   80 1  
    81   11   81 1  
    82   12   82 1  
    83   13   83 1  
    84   13   84 1  
    85   13   85 1  
    86   14   86 1  
    87   14   87 1  
    88   14   88 1  
    89   15   89 1  
    90   16   90 1  
    91   19   91 1  
    92   19   92 1  
    93   21   93 1  
    94   22   94 1  
    95   23   95 1  
    96   24   96 1  
    97   26   97 1  
    98   27   98 1  
    99   28   99 1  
   100   31  100 1  
   101   31  101 1  
   102   34  102 1  
   103   34  103 1  
   104   35  104 1  
   105   36  105 1  
   106   39  106 1  
   107   40  107 1  
   108   41  108 1  
   109   41  109 1  
   110   41  110 1  
   111   42  111 1  
   112   43  112 1  
   113   46  113 1  
   114   47  114 1  
   115   47  115 1  
   116   48  116 1  
   117   48  117 1  
   118   48  118 1  
   119   49  119 1  
   120   49  120 1  
   121   49  121 1  
   122   50  122 1  
   123   51  123 1  
   124   54  124 1  
   125   54  125 1  
   126   54  126 1  
   127   55  127 1  
   128   56  128 1  
   129   59  129 1  
   130   60  130 1  
   131   61  131 1  
   132   61  132 1  
   133   61  133 1  
   134   62  134 1  
   135   63  135 1  
   136   66  136 1  
   137   66  137 1  
   138   67  138 1  
   139   68  139 1  
   140   68  140 1  
   141   68  141 1  
   142   69  142 1  
   143   69  143 1  
   144   69  144 1  
@<TRIPOS>SUBSTRUCTURE
     1 SER         1

