5nmf_ligand
  -I-interpret- 

145145  0  0  0  0  0  0  0  0999 V2000
    3.0440   17.8340    7.2640 N   0  3  0  0  0
    3.4440   17.8400    5.8430 C   0  0  0  0  0
    4.1470   19.1390    5.4140 C   0  0  0  0  0
    3.6870   20.2550    5.6520 O   0  0  0  0  0
    2.2470   17.5540    4.9280 C   0  0  0  0  0
    2.6730   17.3520    3.5870 O   0  0  0  0  0
    5.2270   18.9200    4.6750 N   0  0  0  0  0
    6.2200   19.8970    4.3290 C   0  0  0  0  0
    5.7890   20.6900    3.0730 C   0  0  0  0  0
    5.0010   20.2300    2.2340 O   0  0  0  0  0
    7.4990   19.1190    4.0910 C   0  0  0  0  0
    8.6990   19.7310    4.7640 C   0  0  0  0  0
    9.4430   18.7200    5.6210 C   0  0  0  0  0
    9.6210   20.2580    3.6990 C   0  0  0  0  0
    6.3110   21.8930    2.9450 N   0  0  0  0  0
    5.9140   22.8110    1.8660 C   0  0  0  0  0
    6.6080   22.3730    0.5870 C   0  0  0  0  0
    7.6430   21.8090    0.6860 O   0  0  0  0  0
    6.3220   24.2180    2.2780 C   0  0  0  0  0
    6.0780   25.3020    1.2740 C   0  0  0  0  0
    4.8980   25.4030    0.5570 C   0  0  0  0  0
    7.0140   26.2800    1.0880 C   0  0  0  0  0
    4.7130   26.4370   -0.3500 C   0  0  0  0  0
    6.8200   27.3040    0.1880 C   0  0  0  0  0
    5.6860   27.3820   -0.5180 C   0  0  0  0  0
    5.5890   28.4330   -1.3660 O   0  0  0  0  0
    6.0320   22.5730   -0.5880 N   0  0  0  0  0
    6.6710   22.1380   -1.8420 C   0  0  0  0  0
    7.6440   23.1150   -2.5060 C   0  0  0  0  0
    8.7790   22.7590   -2.7910 O   0  0  0  0  0
    5.6620   21.5870   -2.8790 C   0  0  0  0  0
    4.5160   22.5320   -3.2640 C   0  0  0  0  0
    3.7420   22.1800   -4.1430 O   0  0  0  0  0
    4.3780   23.6820   -2.6250 N   0  0  0  0  0
    7.2040   24.3650   -2.6690 N   0  0  0  0  0
    7.8030   25.3620   -3.5700 C   0  0  0  0  0
    8.6260   26.3400   -2.7600 C   0  0  0  0  0
    8.4080   27.5690   -2.8090 O   0  0  0  0  0
    6.7060   26.1690   -4.3110 C   0  0  0  0  0
    5.7300   26.6270   -3.3760 O   0  0  0  0  0
    6.0300   25.3450   -5.3760 C   0  0  0  0  0
    9.5620   25.7700   -1.9940 N   0  0  0  0  0
   10.4390   26.5330   -1.0960 C   0  0  0  0  0
   11.3600   27.3120   -2.0030 C   0  0  0  0  0
   11.8340   26.7360   -2.9670 O   0  0  0  0  0
   11.2010   25.5930   -0.1260 C   0  0  0  0  0
   11.7940   26.3870    1.0240 C   0  0  0  0  0
   12.2850   24.7730   -0.8040 C   0  0  0  0  0
   10.7320   26.9440    1.9580 C   0  0  0  0  0
   11.5480   28.6090   -1.7610 N   0  0  0  0  0
   12.2780   29.4560   -2.7120 C   0  0  0  0  0
   13.7610   29.6200   -2.3670 C   0  0  0  0  0
   14.1620   29.6280   -1.1880 O   0  0  0  0  0
   11.6030   30.8130   -2.8230 C   0  0  0  0  0
   14.5710   29.7880   -3.3940 N   0  0  0  0  0
   15.9570   30.1680   -3.1810 C   0  0  0  0  0
   16.1260   31.6860   -2.9620 C   0  0  0  0  0
   15.2900   32.5000   -3.3690 O   0  0  0  0  0
   16.8880   29.6810   -4.3340 C   0  0  0  0  0
   16.6010   30.3590   -5.5730 O   0  0  0  0  0
   16.7370   28.1790   -4.5320 C   0  0  0  0  0
   17.2450   32.0490   -2.3360 N   0  0  0  0  0
   17.6050   33.4610   -2.0620 C   0  0  0  0  0
   17.9950   34.2660   -3.3210 C   0  0  0  0  0
   18.1820   35.5040   -3.2520 O   0  0  0  0  0
   18.7420   33.5390   -1.0280 C   0  0  0  0  0
   18.3720   33.6950    0.4390 C   0  0  0  0  0
   17.3370   32.6990    0.9310 C   0  0  0  0  0
   19.6430   33.5720    1.2600 C   0  0  0  0  0
   18.1470   33.7050   -4.4150 O   0  0  0  0  0
    3.8591   18.0266    7.8462 H   0  0  0  0  0
    2.3361   18.5517    7.4197 H   0  0  0  0  0
    2.6614   16.9196    7.5044 H   0  0  0  0  0
    4.1736   17.0373    5.7362 H   0  0  0  0  0
    1.5708   18.4084    4.9568 H   0  0  0  0  0
    1.7458   16.6512    5.2771 H   0  0  0  0  0
    1.9092   17.1750    3.0330 H   0  0  0  0  0
    5.3638   17.9731    4.3213 H   0  0  0  0  0
    6.3574   20.6358    5.1186 H   0  0  0  0  0
    7.6884   19.1149    3.0176 H   0  0  0  0  0
    7.3606   18.1207    4.5061 H   0  0  0  0  0
    8.3595   20.5321    5.4206 H   0  0  0  0  0
    8.7748   18.3383    6.3930 H   0  0  0  0  0
    9.7846   17.8960    4.9945 H   0  0  0  0  0
   10.3013   19.2031    6.0880 H   0  0  0  0  0
    9.9326   19.4382    3.0518 H   0  0  0  0  0
    9.0990   21.0107    3.1082 H   0  0  0  0  0
   10.4973   20.7057    4.1678 H   0  0  0  0  0
    7.0147   22.1984    3.6173 H   0  0  0  0  0
    4.8383   22.7976    1.6903 H   0  0  0  0  0
    7.4003   24.1872    2.4346 H   0  0  0  0  0
    5.7136   24.4676    3.1473 H   0  0  0  0  0
    4.1092   24.6656    0.7058 H   0  0  0  0  0
    7.9373   26.2488    1.6665 H   0  0  0  0  0
    3.7912   26.4955   -0.9287 H   0  0  0  0  0
    7.5961   28.0567    0.0496 H   0  0  0  0  0
    6.3901   28.9594   -1.3143 H   0  0  0  0  0
    5.1253   23.0388   -0.6259 H   0  0  0  0  0
    7.3039   21.3248   -1.4868 H   0  0  0  0  0
    5.1991   20.7120   -2.4228 H   0  0  0  0  0
    6.2286   21.4028   -3.7917 H   0  0  0  0  0
    3.6070   24.3070   -2.8605 H   0  0  0  0  0
    5.0426   23.9438   -1.8968 H   0  0  0  0  0
    6.3890   24.6511   -2.1265 H   0  0  0  0  0
    8.4210   24.8324   -4.2951 H   0  0  0  0  0
    7.1891   27.0175   -4.7955 H   0  0  0  0  0
    5.0535   27.1258   -3.8398 H   0  0  0  0  0
    6.7704   25.0206   -6.1072 H   0  0  0  0  0
    5.5639   24.4728   -4.9176 H   0  0  0  0  0
    5.2684   25.9475   -5.8710 H   0  0  0  0  0
    9.6723   24.7568   -2.0352 H   0  0  0  0  0
    9.8807   27.2073   -0.4466 H   0  0  0  0  0
   10.4640   24.8844    0.2519 H   0  0  0  0  0
   12.3447   27.2279    0.6025 H   0  0  0  0  0
   12.4307   25.7167    1.6015 H   0  0  0  0  0
   11.8370   24.1504   -1.5784 H   0  0  0  0  0
   13.0179   25.4429   -1.2535 H   0  0  0  0  0
   12.7752   24.1393   -0.0649 H   0  0  0  0  0
   10.0698   27.6058    1.3997 H   0  0  0  0  0
   10.1543   26.1219    2.3806 H   0  0  0  0  0
   11.2130   27.5023    2.7611 H   0  0  0  0  0
   11.1794   29.0189   -0.9028 H   0  0  0  0  0
   12.2456   28.9468   -3.6752 H   0  0  0  0  0
   10.5790   30.6805   -3.1723 H   0  0  0  0  0
   11.5953   31.2946   -1.8452 H   0  0  0  0  0
   12.1522   31.4338   -3.5309 H   0  0  0  0  0
   14.2227   29.6505   -4.3428 H   0  0  0  0  0
   16.2621   29.6628   -2.2646 H   0  0  0  0  0
   17.9133   29.9146   -4.0470 H   0  0  0  0  0
   17.1909   30.0353   -6.2577 H   0  0  0  0  0
   17.0087   27.6633   -3.6110 H   0  0  0  0  0
   15.7023   27.9496   -4.7867 H   0  0  0  0  0
   17.3923   27.8526   -5.3396 H   0  0  0  0  0
   17.8869   31.3179   -2.0296 H   0  0  0  0  0
   16.6999   33.9209   -1.6654 H   0  0  0  0  0
   18.0297   35.7998   -2.3515 H   0  0  0  0  0
   19.2985   34.4414   -1.2811 H   0  0  0  0  0
   19.2560   32.5801   -1.0939 H   0  0  0  0  0
   17.9070   34.6739    0.5552 H   0  0  0  0  0
   16.4189   32.8168    0.3554 H   0  0  0  0  0
   17.7198   31.6864    0.8037 H   0  0  0  0  0
   17.1319   32.8813    1.9859 H   0  0  0  0  0
   20.0927   32.5943    1.0868 H   0  0  0  0  0
   20.3429   34.3530    0.9629 H   0  0  0  0  0
   19.4028   33.6807    2.3176 H   0  0  0  0  0
  1  2  1  0  0  0
  2  3  1  0  0  0
  2  5  1  0  0  0
  3  4  2  0  0  0
  3  7  1  0  0  0
  5  6  1  0  0  0
  7  8  1  0  0  0
  8  9  1  0  0  0
  8 11  1  0  0  0
  9 10  2  0  0  0
  9 15  1  0  0  0
 11 12  1  0  0  0
 12 13  1  0  0  0
 12 14  1  0  0  0
 15 16  1  0  0  0
 16 17  1  0  0  0
 16 19  1  0  0  0
 17 18  2  0  0  0
 17 27  1  0  0  0
 19 20  1  0  0  0
 20 21  4  0  0  0
 20 22  4  0  0  0
 21 23  4  0  0  0
 22 24  4  0  0  0
 23 25  4  0  0  0
 24 25  4  0  0  0
 25 26  1  0  0  0
 27 28  1  0  0  0
 28 29  1  0  0  0
 28 31  1  0  0  0
 29 30  2  0  0  0
 29 35  1  0  0  0
 31 32  1  0  0  0
 32 33  2  0  0  0
 32 34  1  0  0  0
 35 36  1  0  0  0
 36 37  1  0  0  0
 36 39  1  0  0  0
 37 38  2  0  0  0
 37 42  1  0  0  0
 39 40  1  0  0  0
 39 41  1  0  0  0
 42 43  1  0  0  0
 43 44  1  0  0  0
 43 46  1  0  0  0
 44 45  2  0  0  0
 44 50  1  0  0  0
 46 47  1  0  0  0
 46 48  1  0  0  0
 47 49  1  0  0  0
 50 51  1  0  0  0
 51 52  1  0  0  0
 51 54  1  0  0  0
 52 53  2  0  0  0
 52 55  1  0  0  0
 55 56  1  0  0  0
 56 57  1  0  0  0
 56 59  1  0  0  0
 57 58  2  0  0  0
 57 62  1  0  0  0
 59 60  1  0  0  0
 59 61  1  0  0  0
 62 63  1  0  0  0
 63 64  1  0  0  0
 63 66  1  0  0  0
 64 65  1  0  0  0
 64 70  2  0  0  0
 66 67  1  0  0  0
 67 68  1  0  0  0
 67 69  1  0  0  0
  1 71  1  0  0  0
  1 72  1  0  0  0
  1 73  1  0  0  0
  2 74  1  0  0  0
  5 75  1  0  0  0
  5 76  1  0  0  0
  6 77  1  0  0  0
  7 78  1  0  0  0
  8 79  1  0  0  0
 11 80  1  0  0  0
 11 81  1  0  0  0
 12 82  1  0  0  0
 13 83  1  0  0  0
 13 84  1  0  0  0
 13 85  1  0  0  0
 14 86  1  0  0  0
 14 87  1  0  0  0
 14 88  1  0  0  0
 15 89  1  0  0  0
 16 90  1  0  0  0
 19 91  1  0  0  0
 19 92  1  0  0  0
 21 93  1  0  0  0
 22 94  1  0  0  0
 23 95  1  0  0  0
 24 96  1  0  0  0
 26 97  1  0  0  0
 27 98  1  0  0  0
 28 99  1  0  0  0
 31100  1  0  0  0
 31101  1  0  0  0
 34102  1  0  0  0
 34103  1  0  0  0
 35104  1  0  0  0
 36105  1  0  0  0
 39106  1  0  0  0
 40107  1  0  0  0
 41108  1  0  0  0
 41109  1  0  0  0
 41110  1  0  0  0
 42111  1  0  0  0
 43112  1  0  0  0
 46113  1  0  0  0
 47114  1  0  0  0
 47115  1  0  0  0
 48116  1  0  0  0
 48117  1  0  0  0
 48118  1  0  0  0
 49119  1  0  0  0
 49120  1  0  0  0
 49121  1  0  0  0
 50122  1  0  0  0
 51123  1  0  0  0
 54124  1  0  0  0
 54125  1  0  0  0
 54126  1  0  0  0
 55127  1  0  0  0
 56128  1  0  0  0
 59129  1  0  0  0
 60130  1  0  0  0
 61131  1  0  0  0
 61132  1  0  0  0
 61133  1  0  0  0
 62134  1  0  0  0
 63135  1  0  0  0
 65136  1  0  0  0
 66137  1  0  0  0
 66138  1  0  0  0
 67139  1  0  0  0
 68140  1  0  0  0
 68141  1  0  0  0
 68142  1  0  0  0
 69143  1  0  0  0
 69144  1  0  0  0
 69145  1  0  0  0
M  END
$$$$
