### 
### Created by X-TOOL on Mon Sep 10 21:13:03 2018
### 

@<TRIPOS>MOLECULE
3ob1_ligand
  161   162     1     0     0
SMALL
GAST_HUCK


@<TRIPOS>ATOM
      1 N         -57.7260   33.0720   -7.7840 N.4       1 ARG         0.2379
      2 CA        -58.1660   32.7060   -6.3930 C.3       1 ARG         0.0651
      3 C         -59.6590   32.3920   -6.2480 C.2       1 ARG         0.2268
      4 O         -60.5450   33.2080   -6.5430 O.2       1 ARG        -0.3907
      5 CB        -57.7690   33.7830   -5.3770 C.3       1 ARG         0.0110
      6 CG        -56.6310   33.4110   -4.4880 C.3       1 ARG        -0.0125
      7 CD        -55.9950   32.1290   -4.9580 C.3       1 ARG         0.0629
      8 NE        -56.6110   30.9740   -4.3190 N.pl3     1 ARG        -0.2723
      9 CZ        -56.4220   30.6440   -3.0490 C.cat     1 ARG         0.2882
     10 NH1       -57.0130   29.5590   -2.5430 N.pl3     1 ARG        -0.2849
     11 NH2       -55.6520   31.4080   -2.2860 N.pl3     1 ARG        -0.2849
     12 N         -59.9060   31.1940   -5.7450 N.am      1 ASN        -0.2589
     13 CA        -61.2150   30.6190   -5.6290 C.3       1 ASN         0.1477
     14 C         -61.1330   29.9670   -4.2880 C.2       1 ASN         0.2063
     15 O         -60.2340   29.1310   -4.0730 O.2       1 ASN        -0.3942
     16 CB        -61.3570   29.5360   -6.6820 C.3       1 ASN         0.0773
     17 CG        -62.7710   29.0680   -6.8430 C.2       1 ASN         0.1780
     18 OD1       -63.6540   29.4150   -6.0570 O.2       1 ASN        -0.3970
     19 ND2       -63.0050   28.2760   -7.8690 N.am      1 ASN        -0.3007
     20 N         -62.0060   30.3710   -3.3650 N.am      1 THR        -0.2612
     21 CA        -61.9280   29.8550   -2.0060 C.3       1 THR         0.1565
     22 C         -63.2910   29.5960   -1.4510 C.2       1 THR         0.2066
     23 O         -64.2920   30.2030   -1.8680 O.2       1 THR        -0.3943
     24 CB        -61.2720   30.8310   -1.0120 C.3       1 THR         0.0924
     25 OG1       -62.1370   31.9560   -0.8530 O.3       1 THR        -0.3874
     26 CG2       -59.9550   31.3560   -1.5150 C.3       1 THR        -0.0346
     27 N         -63.3290   28.7130   -0.4750 N.am      1 ASN        -0.2615
     28 CA        -64.5630   28.5340    0.2480 C.3       1 ASN         0.1476
     29 C         -64.4710   29.4160    1.5040 C.2       1 ASN         0.2063
     30 O         -63.3890   29.8710    1.8690 O.2       1 ASN        -0.3942
     31 CB        -64.8150   27.0640    0.5870 C.3       1 ASN         0.0773
     32 CG        -65.0230   26.2100   -0.6300 C.2       1 ASN         0.1780
     33 OD1       -64.3170   25.2160   -0.8440 O.2       1 ASN        -0.3970
     34 ND2       -65.9770   26.5660   -1.4230 N.am      1 ASN        -0.3007
     35 N         -65.5800   29.6030    2.1840 N.am      1 GLU        -0.2635
     36 CA        -65.6300   30.4510    3.3520 C.3       1 GLU         0.1325
     37 C         -65.2200   29.7540    4.6370 C.2       1 GLU         0.2042
     38 O         -65.9900   28.9660    5.2020 O.2       1 GLU        -0.3944
     39 CB        -67.0980   30.8330    3.4890 C.3       1 GLU        -0.0008
     40 CG        -67.3680   32.2120    3.8910 C.3       1 GLU         0.0044
     41 CD        -67.3950   32.3570    5.4260 C.2       1 GLU         0.0350
     42 OE1       -68.4690   32.0790    6.0860 O.co2     1 GLU        -0.5690
     43 OE2       -66.3170   32.7640    5.9400 O.co2     1 GLU        -0.5690
     44 N         -64.0320   30.0570    5.1410 N.am      1 PTR        -0.2607
     45 CA        -63.6240   29.5030    6.4230 C.3       1 PTR         0.1468
     46 C         -63.5730   30.6940    7.3650 C.2       1 PTR         0.2075
     47 O         -63.0310   31.7540    7.0170 O.2       1 PTR        -0.3941
     48 CB        -62.2640   28.7600    6.3830 C.3       1 PTR         0.0400
     49 CG        -62.2340   27.5250    5.5140 C.ar      1 PTR        -0.0004
     50 CD1       -62.8330   26.3520    5.9430 C.ar      1 PTR        -0.0239
     51 CD2       -61.6270   27.5240    4.2550 C.ar      1 PTR        -0.0239
     52 CE1       -62.8280   25.2210    5.1710 C.ar      1 PTR         0.0115
     53 CE2       -61.6160   26.3910    3.4720 C.ar      1 PTR         0.0115
     54 CZ        -62.2070   25.2330    3.9430 C.ar      1 PTR         0.1728
     55 OH        -62.2400   24.1620    3.2970 O.3       1 PTR        -0.2040
     56 P         -61.5310   23.8780    1.8810 P.3       1 PTR         0.1348
     57 O1P       -62.1200   24.6320    0.8110 O.co2     1 PTR        -0.6653
     58 O2P       -61.7300   22.4030    1.5140 O.co2     1 PTR        -0.6653
     59 O3P       -60.0500   24.0940    2.0410 O.co2     1 PTR        -0.6653
     60 N         -64.1390   30.5190    8.5640 N.am      1 TPO        -0.2608
     61 CA        -64.2730   31.6410    9.4670 C.3       1 TPO         0.1612
     62 CB        -65.7310   32.1020    9.5210 C.3       1 TPO         0.1262
     63 CG2       -66.6530   31.1640   10.3290 C.3       1 TPO        -0.0298
     64 OG1       -65.8140   33.3690   10.1820 O.3       1 TPO        -0.2685
     65 P         -65.3300   34.7900    9.4970 P.3       1 TPO         0.2014
     66 O1P       -64.3520   34.5120    8.4220 O.co2     1 TPO        -0.5537
     67 O2P       -66.6520   35.2840    9.0270 O.co2     1 TPO        -0.5537
     68 O3P       -64.6750   35.5410   10.6680 O.co2     1 TPO        -0.5537
     69 C         -63.7190   31.2640   10.8190 C.2       1 TPO         0.2068
     70 O         -63.2820   30.1420   11.0520 O.2       1 TPO        -0.3943
     71 N         -63.6990   32.2030   11.7250 N.am      1 GLU        -0.2635
     72 CA        -63.1380   31.9630   12.9910 C.3       1 GLU         0.1325
     73 C         -63.9250   30.9190   13.8150 C.2       1 GLU         0.2038
     74 O         -65.1530   30.8830   13.8040 O.2       1 GLU        -0.3944
     75 CB        -63.0670   33.3060   13.7160 C.3       1 GLU        -0.0008
     76 CG        -61.8470   33.3750   14.5160 C.3       1 GLU         0.0044
     77 CD        -62.0340   32.7650   15.8930 C.2       1 GLU         0.0350
     78 OE1       -63.1920   32.8540   16.3880 O.co2     1 GLU        -0.5690
     79 OE2       -61.0270   32.2510   16.4930 O.co2     1 GLU        -0.5690
     80 N         -63.1890   30.0870   14.5480 N.am      1 GLY        -0.2664
     81 CA        -63.7950   29.0470   15.3380 C.3       1 GLY         0.1203
     82 C         -64.4780   29.5930   16.5600 C.2       1 GLY         0.2027
     83 O         -64.2270   30.7110   16.9820 O.2       1 GLY        -0.3945
     84 N         -65.3470   28.7930   17.1450 N.am      1 PRO        -0.2558
     85 CA        -66.1300   29.1800   18.3300 C.3       1 PRO         0.0972
     86 C         -65.2720   29.2810   19.6040 C.2       1 PRO         0.0603
     87 O         -64.1360   28.7610   19.7260 O.co2     1 PRO        -0.5666
     88 CB        -67.1890   28.0640   18.4390 C.3       1 PRO        -0.0159
     89 CG        -66.7260   26.9270   17.4440 C.3       1 PRO        -0.0288
     90 CD        -65.4660   27.3730   16.7820 C.3       1 PRO         0.0362
     91 OXT       -65.6280   29.8930   20.6410 O.co2     1 PRO        -0.5666
     92 H1        -56.7358   33.2608   -7.7844 H         1 ARG         0.2015
     93 H2        -58.2247   33.8931   -8.0891 H         1 ARG         0.2015
     94 H3        -57.9225   32.3073   -8.4107 H         1 ARG         0.2015
     95 H4        -57.6222   31.7872   -6.1282 H         1 ARG         0.1098
     96 H5        -58.6430   33.9958   -4.7439 H         1 ARG         0.0347
     97 H6        -57.4882   34.6905   -5.9316 H         1 ARG         0.0347
     98 H7        -57.0021   33.2763   -3.4613 H         1 ARG         0.0302
     99 H8        -55.8805   34.2151   -4.5042 H         1 ARG         0.0302
    100 H9        -54.9234   32.1476   -4.7106 H         1 ARG         0.0689
    101 H10       -56.1183   32.0450   -6.0478 H         1 ARG         0.0689
    102 H11       -57.2300   30.3785   -4.8875 H         1 ARG         0.2642
    103 H12       -56.8646   29.3047   -1.5560 H         1 ARG         0.2615
    104 H13       -57.6174   28.9762   -3.1397 H         1 ARG         0.2615
    105 H14       -55.1996   32.2434   -2.6839 H         1 ARG         0.2615
    106 H15       -55.5064   31.1660   -1.2955 H         1 ARG         0.2615
    107 H16       -59.1285   30.6531   -5.4242 H         1 ASN         0.1886
    108 H17       -62.0220   31.3632   -5.6990 H         1 ASN         0.0826
    109 H18       -60.7334   28.6780   -6.3907 H         1 ASN         0.0551
    110 H19       -61.0062   29.9339   -7.6456 H         1 ASN         0.0551
    111 H20       -63.9285   27.9288   -8.0322 H         1 ASN         0.1814
    112 H21       -62.2592   28.0218   -8.4848 H         1 ASN         0.1814
    113 H22       -62.7172   31.0310   -3.6071 H         1 THR         0.1884
    114 H23       -61.3512   28.9186   -2.0290 H         1 THR         0.0826
    115 H24       -61.1224   30.3232   -0.0478 H         1 THR         0.0639
    116 H25       -62.9765   31.6637   -0.5180 H         1 THR         0.2101
    117 H26       -59.5278   32.0462   -0.7726 H         1 THR         0.0257
    118 H27       -60.1113   31.8894   -2.4642 H         1 THR         0.0257
    119 H28       -59.2629   30.5163   -1.6759 H         1 THR         0.0257
    120 H29       -62.5179   28.1773   -0.2401 H         1 ASN         0.1885
    121 H30       -65.3984   28.8860   -0.3750 H         1 ASN         0.0826
    122 H31       -65.7130   26.9987    1.2189 H         1 ASN         0.0551
    123 H32       -63.9472   26.6782    1.1420 H         1 ASN         0.0551
    124 H33       -66.1636   26.0360   -2.2502 H         1 ASN         0.1814
    125 H34       -66.5296   27.3719   -1.2102 H         1 ASN         0.1814
    126 H35       -66.4157   29.1436    1.8831 H         1 GLU         0.1883
    127 H36       -64.9984   31.3385    3.1992 H         1 GLU         0.0801
    128 H37       -67.5494   30.1691    4.2409 H         1 GLU         0.0330
    129 H38       -67.5812   30.6660    2.5150 H         1 GLU         0.0330
    130 H39       -68.3437   32.5182    3.4857 H         1 GLU         0.0433
    131 H40       -66.5809   32.8638    3.4840 H         1 GLU         0.0433
    132 H41       -63.4166   30.6659    4.6404 H         1 PTR         0.1886
    133 H42       -64.3882   28.7907    6.7674 H         1 PTR         0.0840
    134 H43       -62.0091   28.4601    7.4102 H         1 PTR         0.0584
    135 H44       -61.5040   29.4603    6.0062 H         1 PTR         0.0584
    136 H45       -63.3171   26.3288    6.9126 H         1 PTR         0.0703
    137 H46       -61.1572   28.4297    3.8889 H         1 PTR         0.0703
    138 H47       -63.3120   24.3185    5.5263 H         1 PTR         0.0736
    139 H48       -61.1478   26.4069    2.4944 H         1 PTR         0.0736
    140 H49       -64.4687   29.6148    8.8355 H         1 TPO         0.1884
    141 H50       -63.6722   32.4759    9.0771 H         1 TPO         0.0830
    142 H51       -66.1083   32.1856    8.4911 H         1 TPO         0.0695
    143 H52       -67.6786   31.5617   10.3208 H         1 TPO         0.0260
    144 H53       -66.2928   31.1001   11.3664 H         1 TPO         0.0260
    145 H54       -66.6447   30.1618    9.8756 H         1 TPO         0.0260
    146 H55       -64.0862   33.1011   11.5166 H         1 GLU         0.1883
    147 H56       -62.1165   31.5790   12.8531 H         1 GLU         0.0801
    148 H57       -63.9416   33.4116   14.3748 H         1 GLU         0.0330
    149 H58       -63.0646   34.1202   12.9763 H         1 GLU         0.0330
    150 H59       -61.5573   34.4299   14.6314 H         1 GLU         0.0433
    151 H60       -61.0476   32.8304   13.9921 H         1 GLU         0.0433
    152 H61       -62.1939   30.1863   14.5501 H         1 GLY         0.1881
    153 H62       -63.0136   28.3403   15.6541 H         1 GLY         0.0763
    154 H63       -64.5382   28.5203   14.7215 H         1 GLY         0.0763
    155 H64       -66.6165   30.1518   18.1603 H         1 PRO         0.0728
    156 H65       -68.1787   28.4463   18.1488 H         1 PRO         0.0306
    157 H66       -67.2325   27.6773   19.4679 H         1 PRO         0.0306
    158 H67       -67.5045   26.7555   16.6860 H         1 PRO         0.0286
    159 H68       -66.5448   25.9958   18.0007 H         1 PRO         0.0286
    160 H69       -64.6049   26.8012   17.1582 H         1 PRO         0.0524
    161 H70       -65.5363   27.2545   15.6907 H         1 PRO         0.0524
@<TRIPOS>BOND
     1    1    2 1  
     2    2    3 1  
     3    2    5 1  
     4    3    4 2  
     5    3   12 am 
     6    5    6 1  
     7    6    7 1  
     8    7    8 1  
     9    8    9 ar 
    10    9   10 ar 
    11    9   11 ar 
    12   12   13 1  
    13   13   14 1  
    14   13   16 1  
    15   14   15 2  
    16   14   20 am 
    17   16   17 1  
    18   17   18 2  
    19   17   19 am 
    20   20   21 1  
    21   21   22 1  
    22   21   24 1  
    23   22   23 2  
    24   22   27 am 
    25   24   25 1  
    26   24   26 1  
    27   27   28 1  
    28   28   29 1  
    29   28   31 1  
    30   29   30 2  
    31   29   35 am 
    32   31   32 1  
    33   32   33 2  
    34   32   34 am 
    35   35   36 1  
    36   36   37 1  
    37   36   39 1  
    38   37   38 2  
    39   37   44 am 
    40   39   40 1  
    41   40   41 1  
    42   41   42 ar 
    43   41   43 ar 
    44   44   45 1  
    45   45   46 1  
    46   45   48 1  
    47   46   47 2  
    48   46   60 am 
    49   48   49 1  
    50   49   50 ar 
    51   49   51 ar 
    52   50   52 ar 
    53   51   53 ar 
    54   52   54 ar 
    55   53   54 ar 
    56   54   55 1  
    57   55   56 1  
    58   56   57 ar 
    59   56   58 ar 
    60   56   59 ar 
    61   60   61 1  
    62   61   62 1  
    63   61   69 1  
    64   62   63 1  
    65   62   64 1  
    66   64   65 1  
    67   65   66 ar 
    68   65   67 ar 
    69   65   68 ar 
    70   69   70 2  
    71   69   71 am 
    72   71   72 1  
    73   72   73 1  
    74   72   75 1  
    75   73   74 2  
    76   73   80 am 
    77   75   76 1  
    78   76   77 1  
    79   77   78 ar 
    80   77   79 ar 
    81   80   81 1  
    82   81   82 1  
    83   82   83 2  
    84   82   84 am 
    85   84   85 1  
    86   84   90 1  
    87   85   86 1  
    88   85   88 1  
    89   86   87 ar 
    90   86   91 ar 
    91   88   89 1  
    92   89   90 1  
    93    1   92 1  
    94    1   93 1  
    95    1   94 1  
    96    2   95 1  
    97    5   96 1  
    98    5   97 1  
    99    6   98 1  
   100    6   99 1  
   101    7  100 1  
   102    7  101 1  
   103    8  102 1  
   104   10  103 1  
   105   10  104 1  
   106   11  105 1  
   107   11  106 1  
   108   12  107 1  
   109   13  108 1  
   110   16  109 1  
   111   16  110 1  
   112   19  111 1  
   113   19  112 1  
   114   20  113 1  
   115   21  114 1  
   116   24  115 1  
   117   25  116 1  
   118   26  117 1  
   119   26  118 1  
   120   26  119 1  
   121   27  120 1  
   122   28  121 1  
   123   31  122 1  
   124   31  123 1  
   125   34  124 1  
   126   34  125 1  
   127   35  126 1  
   128   36  127 1  
   129   39  128 1  
   130   39  129 1  
   131   40  130 1  
   132   40  131 1  
   133   44  132 1  
   134   45  133 1  
   135   48  134 1  
   136   48  135 1  
   137   50  136 1  
   138   51  137 1  
   139   52  138 1  
   140   53  139 1  
   141   60  140 1  
   142   61  141 1  
   143   62  142 1  
   144   63  143 1  
   145   63  144 1  
   146   63  145 1  
   147   71  146 1  
   148   72  147 1  
   149   75  148 1  
   150   75  149 1  
   151   76  150 1  
   152   76  151 1  
   153   80  152 1  
   154   81  153 1  
   155   81  154 1  
   156   85  155 1  
   157   88  156 1  
   158   88  157 1  
   159   89  158 1  
   160   89  159 1  
   161   90  160 1  
   162   90  161 1  
@<TRIPOS>SUBSTRUCTURE
     1 ARG         1

