3ob1_ligand
  -I-interpret- 

167168  0  0  0  0  0  0  0  0999 V2000
  -57.7260   33.0720   -7.7840 N   0  3  0  0  0
  -58.1660   32.7060   -6.3930 C   0  0  0  0  0
  -59.6590   32.3920   -6.2480 C   0  0  0  0  0
  -60.5450   33.2080   -6.5430 O   0  0  0  0  0
  -57.7690   33.7830   -5.3770 C   0  0  0  0  0
  -56.6310   33.4110   -4.4880 C   0  0  0  0  0
  -55.9950   32.1290   -4.9580 C   0  0  0  0  0
  -56.6110   30.9740   -4.3190 N   0  0  0  0  0
  -56.4220   30.6440   -3.0490 C   0  0  0  0  0
  -57.0130   29.5590   -2.5430 N   0  0  0  0  0
  -55.6520   31.4080   -2.2860 N   0  0  0  0  0
  -59.9060   31.1940   -5.7450 N   0  0  0  0  0
  -61.2150   30.6190   -5.6290 C   0  0  0  0  0
  -61.1330   29.9670   -4.2880 C   0  0  0  0  0
  -60.2340   29.1310   -4.0730 O   0  0  0  0  0
  -61.3570   29.5360   -6.6820 C   0  0  0  0  0
  -62.7710   29.0680   -6.8430 C   0  0  0  0  0
  -63.6540   29.4150   -6.0570 O   0  0  0  0  0
  -63.0050   28.2760   -7.8690 N   0  0  0  0  0
  -62.0060   30.3710   -3.3650 N   0  0  0  0  0
  -61.9280   29.8550   -2.0060 C   0  0  0  0  0
  -63.2910   29.5960   -1.4510 C   0  0  0  0  0
  -64.2920   30.2030   -1.8680 O   0  0  0  0  0
  -61.2720   30.8310   -1.0120 C   0  0  0  0  0
  -62.1370   31.9560   -0.8530 O   0  0  0  0  0
  -59.9550   31.3560   -1.5150 C   0  0  0  0  0
  -63.3290   28.7130   -0.4750 N   0  0  0  0  0
  -64.5630   28.5340    0.2480 C   0  0  0  0  0
  -64.4710   29.4160    1.5040 C   0  0  0  0  0
  -63.3890   29.8710    1.8690 O   0  0  0  0  0
  -64.8150   27.0640    0.5870 C   0  0  0  0  0
  -65.0230   26.2100   -0.6300 C   0  0  0  0  0
  -64.3170   25.2160   -0.8440 O   0  0  0  0  0
  -65.9770   26.5660   -1.4230 N   0  0  0  0  0
  -65.5800   29.6030    2.1840 N   0  0  0  0  0
  -65.6300   30.4510    3.3520 C   0  0  0  0  0
  -65.2200   29.7540    4.6370 C   0  0  0  0  0
  -65.9900   28.9660    5.2020 O   0  0  0  0  0
  -67.0980   30.8330    3.4890 C   0  0  0  0  0
  -67.3680   32.2120    3.8910 C   0  0  0  0  0
  -67.3950   32.3570    5.4260 C   0  0  0  0  0
  -68.4690   32.0790    6.0860 O   0  0  0  0  0
  -66.3170   32.7640    5.9400 O   0  0  0  0  0
  -64.0320   30.0570    5.1410 N   0  0  0  0  0
  -63.6240   29.5030    6.4230 C   0  0  0  0  0
  -63.5730   30.6940    7.3650 C   0  0  0  0  0
  -63.0310   31.7540    7.0170 O   0  0  0  0  0
  -62.2640   28.7600    6.3830 C   0  0  0  0  0
  -62.2340   27.5250    5.5140 C   0  0  0  0  0
  -62.8330   26.3520    5.9430 C   0  0  0  0  0
  -61.6270   27.5240    4.2550 C   0  0  0  0  0
  -62.8280   25.2210    5.1710 C   0  0  0  0  0
  -61.6160   26.3910    3.4720 C   0  0  0  0  0
  -62.2070   25.2330    3.9430 C   0  0  0  0  0
  -62.2400   24.1620    3.2970 O   0  0  0  0  0
  -61.5310   23.8780    1.8810 P   0  0  0  0  0
  -62.1200   24.6320    0.8110 O   0  0  0  0  0
  -61.7300   22.4030    1.5140 O   0  0  0  0  0
  -60.0500   24.0940    2.0410 O   0  0  0  0  0
  -64.1390   30.5190    8.5640 N   0  0  0  0  0
  -64.2730   31.6410    9.4670 C   0  0  0  0  0
  -65.7310   32.1020    9.5210 C   0  0  0  0  0
  -66.6530   31.1640   10.3290 C   0  0  0  0  0
  -65.8140   33.3690   10.1820 O   0  0  0  0  0
  -65.3300   34.7900    9.4970 P   0  0  0  0  0
  -64.3520   34.5120    8.4220 O   0  0  0  0  0
  -66.6520   35.2840    9.0270 O   0  0  0  0  0
  -64.6750   35.5410   10.6680 O   0  0  0  0  0
  -63.7190   31.2640   10.8190 C   0  0  0  0  0
  -63.2820   30.1420   11.0520 O   0  0  0  0  0
  -63.6990   32.2030   11.7250 N   0  0  0  0  0
  -63.1380   31.9630   12.9910 C   0  0  0  0  0
  -63.9250   30.9190   13.8150 C   0  0  0  0  0
  -65.1530   30.8830   13.8040 O   0  0  0  0  0
  -63.0670   33.3060   13.7160 C   0  0  0  0  0
  -61.8470   33.3750   14.5160 C   0  0  0  0  0
  -62.0340   32.7650   15.8930 C   0  0  0  0  0
  -63.1920   32.8540   16.3880 O   0  0  0  0  0
  -61.0270   32.2510   16.4930 O   0  0  0  0  0
  -63.1890   30.0870   14.5480 N   0  0  0  0  0
  -63.7950   29.0470   15.3380 C   0  0  0  0  0
  -64.4780   29.5930   16.5600 C   0  0  0  0  0
  -64.2270   30.7110   16.9820 O   0  0  0  0  0
  -65.3470   28.7930   17.1450 N   0  0  0  0  0
  -66.1300   29.1800   18.3300 C   0  0  0  0  0
  -65.2720   29.2810   19.6040 C   0  0  0  0  0
  -64.1360   28.7610   19.7260 O   0  0  0  0  0
  -67.1890   28.0640   18.4390 C   0  0  0  0  0
  -66.7260   26.9270   17.4440 C   0  0  0  0  0
  -65.4660   27.3730   16.7820 C   0  0  0  0  0
  -65.6280   29.8930   20.6410 O   0  0  0  0  0
  -58.0054   32.3359   -8.4324 H   0  0  0  0  0
  -58.1638   33.9518   -8.0574 H   0  0  0  0  0
  -56.7114   33.1757   -7.8022 H   0  0  0  0  0
  -57.6360   31.7769   -6.1832 H   0  0  0  0  0
  -58.6337   33.9470   -4.7340 H   0  0  0  0  0
  -57.4538   34.6567   -5.9474 H   0  0  0  0  0
  -57.0040   33.2712   -3.4734 H   0  0  0  0  0
  -55.8864   34.2066   -4.5127 H   0  0  0  0  0
  -54.9366   32.1486   -4.6981 H   0  0  0  0  0
  -56.1322   32.0460   -6.0361 H   0  0  0  0  0
  -57.2240   30.3843   -4.8819 H   0  0  0  0  0
  -56.8738   29.3126   -1.5631 H   0  0  0  0  0
  -57.6038   28.9765   -3.1364 H   0  0  0  0  0
  -55.2117   32.2406   -2.6776 H   0  0  0  0  0
  -59.1129   30.6423   -5.4178 H   0  0  0  0  0
  -62.0377   31.3246   -5.7448 H   0  0  0  0  0
  -60.7558   28.6828   -6.3678 H   0  0  0  0  0
  -61.0314   29.9516   -7.6356 H   0  0  0  0  0
  -63.9477   27.9248   -8.0376 H   0  0  0  0  0
  -62.2435   28.0139   -8.4950 H   0  0  0  0  0
  -62.7314   31.0442   -3.6120 H   0  0  0  0  0
  -61.3284   28.9495   -2.0987 H   0  0  0  0  0
  -61.1042   30.2913   -0.0800 H   0  0  0  0  0
  -61.7431   32.5763   -0.2352 H   0  0  0  0  0
  -59.2701   30.5231   -1.6741 H   0  0  0  0  0
  -60.1112   31.8843   -2.4555 H   0  0  0  0  0
  -59.5327   32.0397   -0.7786 H   0  0  0  0  0
  -62.5017   28.1666   -0.2354 H   0  0  0  0  0
  -65.4158   28.8329   -0.3615 H   0  0  0  0  0
  -65.7225   27.0123    1.1885 H   0  0  0  0  0
  -63.9360   26.6881    1.1107 H   0  0  0  0  0
  -66.1723   26.0210   -2.2628 H   0  0  0  0  0
  -66.5356   27.3924   -1.2100 H   0  0  0  0  0
  -66.4324   29.1344    1.8771 H   0  0  0  0  0
  -64.9397   31.2839    3.2184 H   0  0  0  0  0
  -67.5063   30.1997    4.2766 H   0  0  0  0  0
  -67.5390   30.7113    2.4996 H   0  0  0  0  0
  -68.3430   32.5017    3.4992 H   0  0  0  0  0
  -66.5752   32.8483    3.4976 H   0  0  0  0  0
  -69.1521   31.7902    5.4764 H   0  0  0  0  0
  -63.4043   30.6781    4.6304 H   0  0  0  0  0
  -64.3292   28.7363    6.7440 H   0  0  0  0  0
  -62.0554   28.4323    7.4014 H   0  0  0  0  0
  -61.5381   29.4566    5.9636 H   0  0  0  0  0
  -63.3198   26.3287    6.9180 H   0  0  0  0  0
  -61.1546   28.4347    3.8868 H   0  0  0  0  0
  -63.3147   24.3135    5.5283 H   0  0  0  0  0
  -61.1452   26.4070    2.4890 H   0  0  0  0  0
  -61.3516   21.8496    2.2011 H   0  0  0  0  0
  -59.7270   23.5609    2.7711 H   0  0  0  0  0
  -64.4753   29.5967    8.8410 H   0  0  0  0  0
  -63.6941   32.4913    9.1066 H   0  0  0  0  0
  -66.0568   32.1281    8.4812 H   0  0  0  0  0
  -66.6439   30.1714    9.8788 H   0  0  0  0  0
  -66.2950   31.1015   11.3566 H   0  0  0  0  0
  -67.6688   31.5591   10.3201 H   0  0  0  0  0
  -67.2222   35.4381    9.7837 H   0  0  0  0  0
  -65.3321   35.7068   11.3479 H   0  0  0  0  0
  -64.0940   33.1191   11.5125 H   0  0  0  0  0
  -62.1446   31.5317   12.8678 H   0  0  0  0  0
  -63.9325   33.4073   14.3708 H   0  0  0  0  0
  -63.0613   34.1113   12.9814 H   0  0  0  0  0
  -61.5810   34.4246   14.6417 H   0  0  0  0  0
  -61.0682   32.8151   13.9984 H   0  0  0  0  0
  -60.2578   32.2953   15.9202 H   0  0  0  0  0
  -62.1740   30.1883   14.5502 H   0  0  0  0  0
  -63.0095   28.3647   15.6631 H   0  0  0  0  0
  -64.5438   28.5459   14.7246 H   0  0  0  0  0
  -66.5648   30.1744   18.2292 H   0  0  0  0  0
  -68.1813   28.4344   18.1816 H   0  0  0  0  0
  -67.2645   27.6892   19.4597 H   0  0  0  0  0
  -67.4983   26.7453   16.6966 H   0  0  0  0  0
  -66.5551   25.9985   17.9888 H   0  0  0  0  0
  -64.6033   26.7925   17.1089 H   0  0  0  0  0
  -65.4961   27.2269   15.7023 H   0  0  0  0  0
  -66.4987   30.2733   20.5038 H   0  0  0  0  0
  1  2  1  0  0  0
  2  3  1  0  0  0
  2  5  1  0  0  0
  3  4  2  0  0  0
  3 12  1  0  0  0
  5  6  1  0  0  0
  6  7  1  0  0  0
  7  8  1  0  0  0
  8  9  1  0  0  0
  9 10  1  0  0  0
  9 11  2  0  0  0
 12 13  1  0  0  0
 13 14  1  0  0  0
 13 16  1  0  0  0
 14 15  2  0  0  0
 14 20  1  0  0  0
 16 17  1  0  0  0
 17 18  2  0  0  0
 17 19  1  0  0  0
 20 21  1  0  0  0
 21 22  1  0  0  0
 21 24  1  0  0  0
 22 23  2  0  0  0
 22 27  1  0  0  0
 24 25  1  0  0  0
 24 26  1  0  0  0
 27 28  1  0  0  0
 28 29  1  0  0  0
 28 31  1  0  0  0
 29 30  2  0  0  0
 29 35  1  0  0  0
 31 32  1  0  0  0
 32 33  2  0  0  0
 32 34  1  0  0  0
 35 36  1  0  0  0
 36 37  1  0  0  0
 36 39  1  0  0  0
 37 38  2  0  0  0
 37 44  1  0  0  0
 39 40  1  0  0  0
 40 41  1  0  0  0
 41 42  1  0  0  0
 41 43  2  0  0  0
 44 45  1  0  0  0
 45 46  1  0  0  0
 45 48  1  0  0  0
 46 47  2  0  0  0
 46 60  1  0  0  0
 48 49  1  0  0  0
 49 50  4  0  0  0
 49 51  4  0  0  0
 50 52  4  0  0  0
 51 53  4  0  0  0
 52 54  4  0  0  0
 53 54  4  0  0  0
 54 55  1  0  0  0
 55 56  1  0  0  0
 56 57  2  0  0  0
 56 58  1  0  0  0
 56 59  1  0  0  0
 60 61  1  0  0  0
 61 62  1  0  0  0
 61 69  1  0  0  0
 62 63  1  0  0  0
 62 64  1  0  0  0
 64 65  1  0  0  0
 65 66  2  0  0  0
 65 67  1  0  0  0
 65 68  1  0  0  0
 69 70  2  0  0  0
 69 71  1  0  0  0
 71 72  1  0  0  0
 72 73  1  0  0  0
 72 75  1  0  0  0
 73 74  2  0  0  0
 73 80  1  0  0  0
 75 76  1  0  0  0
 76 77  1  0  0  0
 77 78  2  0  0  0
 77 79  1  0  0  0
 80 81  1  0  0  0
 81 82  1  0  0  0
 82 83  2  0  0  0
 82 84  1  0  0  0
 84 85  1  0  0  0
 84 90  1  0  0  0
 85 86  1  0  0  0
 85 88  1  0  0  0
 86 87  2  0  0  0
 86 91  1  0  0  0
 88 89  1  0  0  0
 89 90  1  0  0  0
  1 92  1  0  0  0
  1 93  1  0  0  0
  1 94  1  0  0  0
  2 95  1  0  0  0
  5 96  1  0  0  0
  5 97  1  0  0  0
  6 98  1  0  0  0
  6 99  1  0  0  0
  7100  1  0  0  0
  7101  1  0  0  0
  8102  1  0  0  0
 10103  1  0  0  0
 10104  1  0  0  0
 11105  1  0  0  0
 12106  1  0  0  0
 13107  1  0  0  0
 16108  1  0  0  0
 16109  1  0  0  0
 19110  1  0  0  0
 19111  1  0  0  0
 20112  1  0  0  0
 21113  1  0  0  0
 24114  1  0  0  0
 25115  1  0  0  0
 26116  1  0  0  0
 26117  1  0  0  0
 26118  1  0  0  0
 27119  1  0  0  0
 28120  1  0  0  0
 31121  1  0  0  0
 31122  1  0  0  0
 34123  1  0  0  0
 34124  1  0  0  0
 35125  1  0  0  0
 36126  1  0  0  0
 39127  1  0  0  0
 39128  1  0  0  0
 40129  1  0  0  0
 40130  1  0  0  0
 42131  1  0  0  0
 44132  1  0  0  0
 45133  1  0  0  0
 48134  1  0  0  0
 48135  1  0  0  0
 50136  1  0  0  0
 51137  1  0  0  0
 52138  1  0  0  0
 53139  1  0  0  0
 58140  1  0  0  0
 59141  1  0  0  0
 60142  1  0  0  0
 61143  1  0  0  0
 62144  1  0  0  0
 63145  1  0  0  0
 63146  1  0  0  0
 63147  1  0  0  0
 67148  1  0  0  0
 68149  1  0  0  0
 71150  1  0  0  0
 72151  1  0  0  0
 75152  1  0  0  0
 75153  1  0  0  0
 76154  1  0  0  0
 76155  1  0  0  0
 79156  1  0  0  0
 80157  1  0  0  0
 81158  1  0  0  0
 81159  1  0  0  0
 85160  1  0  0  0
 88161  1  0  0  0
 88162  1  0  0  0
 89163  1  0  0  0
 89164  1  0  0  0
 90165  1  0  0  0
 90166  1  0  0  0
 91167  1  0  0  0
M  END
$$$$
