1kjr_ligand
  -I-interpret- 

 68 70  0  0  0  0  0  0  0  0999 V2000
    2.6590   -8.2880    1.5890 C   0  0  0  0  0
    2.5350   -7.6440    2.7720 O   0  0  0  0  0
    1.4680   -8.5870    0.9860 N   0  0  0  0  0
    3.7870   -8.7550    0.9030 C   0  0  0  0  0
    4.7170   -9.5220    1.7030 C   0  0  0  0  0
    4.0600   -8.4890   -0.5510 C   0  0  0  0  0
    4.5020   -9.7230    2.8510 F   0  0  0  0  0
    3.3160   -7.8610   -1.2350 F   0  0  0  0  0
    5.9010  -10.0330    1.1040 C   0  0  0  0  0
    5.2700   -9.0100   -1.1410 C   0  0  0  0  0
    6.2220   -9.7970   -0.3160 C   0  0  0  0  0
    6.5870  -10.6120    1.7440 F   0  0  0  0  0
    5.4670   -8.8140   -2.2160 F   0  0  0  0  0
    7.2250  -10.2610   -0.6760 O   0  0  0  0  0
    7.8410  -10.2180   -1.9470 C   0  0  0  0  0
   -2.2820   -8.9560    1.3620 C   0  0  0  0  0
   -0.8600   -9.4000    1.1410 C   0  0  0  0  0
    0.1110   -8.2710    1.3610 C   0  0  0  0  0
   -0.3190   -6.9710    0.6680 C   0  0  0  0  0
   -1.7690   -6.6680    0.9560 C   0  0  0  0  0
   -2.3000   -5.4840    0.1980 C   0  0  0  0  0
   -0.5360  -10.4400    2.0540 O   0  0  0  0  0
   -0.1090   -7.1380   -0.7080 O   0  0  0  0  0
   -2.5880   -7.7960    0.5840 O   0  0  0  0  0
   -3.6860   -5.3160    0.4510 O   0  0  0  0  0
   -6.9250  -11.3630    1.2440 C   0  0  0  0  0
   -6.7210  -10.4140    0.0340 C   0  0  0  0  0
   -5.1990  -10.3290   -0.1730 C   0  0  0  0  0
   -4.4900   -9.8840    1.1130 C   0  0  0  0  0
   -4.8440  -10.8490    2.2350 C   0  0  0  0  0
   -4.2030  -10.4790    3.5600 C   0  0  0  0  0
   -8.4650  -10.3970   -1.6860 C   0  0  0  0  0
   -9.0160  -11.0320   -2.9560 C   0  0  0  0  0
   -7.3870  -10.9760   -1.1430 N   0  0  0  0  0
   -8.2690  -11.4640    1.5530 O   0  0  0  0  0
   -4.8580   -9.4470   -1.2430 O   0  0  0  0  0
   -3.0990   -9.9760    0.9050 O   0  0  0  0  0
   -6.2610  -10.8290    2.3950 O   0  0  0  0  0
   -4.5500   -9.1600    3.9020 O   0  0  0  0  0
   -9.0280   -9.3990   -1.2220 O   0  0  0  0  0
    1.5540   -9.1254    0.1239 H   0  0  0  0  0
    7.1796  -10.6711   -2.6854 H   0  0  0  0  0
    8.0360   -9.1809   -2.2199 H   0  0  0  0  0
    8.7809  -10.7689   -1.9126 H   0  0  0  0  0
   -2.4269   -8.7281    2.4180 H   0  0  0  0  0
   -0.7815   -9.7452    0.1101 H   0  0  0  0  0
    0.0919   -8.1176    2.4400 H   0  0  0  0  0
    0.2647   -6.1294    1.0409 H   0  0  0  0  0
   -1.8136   -6.4500    2.0230 H   0  0  0  0  0
   -2.1514   -5.6498   -0.8690 H   0  0  0  0  0
   -1.7690   -4.5885    0.5209 H   0  0  0  0  0
    0.3709  -10.7199    1.9097 H   0  0  0  0  0
   -0.3699   -6.3379   -1.1698 H   0  0  0  0  0
   -4.0100   -4.5570   -0.0394 H   0  0  0  0  0
   -6.5211  -12.3401    0.9791 H   0  0  0  0  0
   -7.1454   -9.4239    0.2006 H   0  0  0  0  0
   -4.8598  -11.3311   -0.4355 H   0  0  0  0  0
   -4.7901   -8.8677    1.3681 H   0  0  0  0  0
   -4.4696  -11.8353    1.9609 H   0  0  0  0  0
   -3.1194  -10.5562    3.4713 H   0  0  0  0  0
   -4.5573  -11.1585    4.3351 H   0  0  0  0  0
  -10.0437  -11.3521   -2.7843 H   0  0  0  0  0
   -8.9918  -10.3025   -3.7655 H   0  0  0  0  0
   -8.4055  -11.8943   -3.2239 H   0  0  0  0  0
   -7.0198  -11.8313   -1.5601 H   0  0  0  0  0
   -8.3805  -12.0534    2.3025 H   0  0  0  0  0
   -3.9035   -9.4198   -1.3419 H   0  0  0  0  0
   -4.1426   -8.9303    4.7404 H   0  0  0  0  0
  1  2  2  0  0  0
  3  1  1  0  0  0
  1  4  1  0  0  0
 18  3  1  0  0  0
  4  5  4  0  0  0
  4  6  4  0  0  0
  5  7  1  0  0  0
  5  9  4  0  0  0
  6  8  1  0  0  0
  6 10  4  0  0  0
  9 11  4  0  0  0
  9 12  1  0  0  0
 10 11  4  0  0  0
 10 13  1  0  0  0
 11 14  1  0  0  0
 14 15  1  0  0  0
 16 17  1  0  0  0
 16 24  1  0  0  0
 37 16  1  0  0  0
 17 18  1  0  0  0
 17 22  1  0  0  0
 18 19  1  0  0  0
 20 19  1  0  0  0
 19 23  1  0  0  0
 20 21  1  0  0  0
 24 20  1  0  0  0
 21 25  1  0  0  0
 27 26  1  0  0  0
 26 35  1  0  0  0
 26 38  1  0  0  0
 27 28  1  0  0  0
 34 27  1  0  0  0
 28 29  1  0  0  0
 28 36  1  0  0  0
 29 30  1  0  0  0
 29 37  1  0  0  0
 30 31  1  0  0  0
 38 30  1  0  0  0
 31 39  1  0  0  0
 32 33  1  0  0  0
 32 34  1  0  0  0
 32 40  2  0  0  0
  3 41  1  0  0  0
 15 42  1  0  0  0
 15 43  1  0  0  0
 15 44  1  0  0  0
 16 45  1  0  0  0
 17 46  1  0  0  0
 18 47  1  0  0  0
 19 48  1  0  0  0
 20 49  1  0  0  0
 21 50  1  0  0  0
 21 51  1  0  0  0
 22 52  1  0  0  0
 23 53  1  0  0  0
 25 54  1  0  0  0
 26 55  1  0  0  0
 27 56  1  0  0  0
 28 57  1  0  0  0
 29 58  1  0  0  0
 30 59  1  0  0  0
 31 60  1  0  0  0
 31 61  1  0  0  0
 33 62  1  0  0  0
 33 63  1  0  0  0
 33 64  1  0  0  0
 34 65  1  0  0  0
 35 66  1  0  0  0
 36 67  1  0  0  0
 39 68  1  0  0  0
M  END
$$$$
