1b8y_ligand
  -I-interpret- 

 48 50  0  0  0  0  0  0  0  0999 V2000
   16.4370    8.1110   18.8350 C   0  0  0  0  0
   16.4080    8.4840   20.1980 C   0  0  0  0  0
   15.9000    7.6090   21.1620 C   0  0  0  0  0
   18.0070    9.2300   15.6150 C   0  0  0  0  0
   15.9040    6.8600   18.4390 C   0  0  0  0  0
   15.0640    3.8730   21.5820 O   0  0  0  0  0
   15.4570    6.3390   20.7640 C   0  0  0  0  0
   15.3990    5.9670   19.4060 C   0  0  0  0  0
   11.8280    7.3580   21.4890 O   0  0  0  0  0
   15.0200    5.2200   22.0640 S   0  0  0  0  0
   18.5830   10.5510   16.1060 C   0  0  0  0  0
   18.6300   10.8780   17.5890 C   0  0  0  0  0
   17.4540   10.3170   18.3620 C   0  0  0  0  0
   16.9670    8.9940   17.9170 N   0  0  0  0  0
   16.8520    8.7250   16.4730 C   0  0  0  0  0
   20.6670   13.0040   13.2980 C   0  0  0  0  0
   21.2510   12.7380   14.5490 C   0  0  0  0  0
   20.5460   11.9450   15.4800 C   0  0  0  0  0
   19.2700   11.4320   15.1510 C   0  0  0  0  0
   18.6770   11.7290   13.9010 C   0  0  0  0  0
   19.3870   12.5120   12.9650 C   0  0  0  0  0
   15.7680    5.6020   23.2110 O   0  0  0  0  0
   13.4270    5.4730   22.6580 N   0  0  0  0  0
   12.2390    5.0450   21.9600 C   0  0  0  0  0
   11.8140    6.1060   21.0180 C   0  0  0  0  0
   11.5150    5.8160   19.9150 O   0  0  0  0  0
   16.7847    9.4614   20.4995 H   0  0  0  0  0
   15.8487    7.9092   22.2086 H   0  0  0  0  0
   18.8020    8.4856   15.6586 H   0  0  0  0  0
   17.6252    9.3897   14.6066 H   0  0  0  0  0
   15.8842    6.5870   17.3839 H   0  0  0  0  0
   14.9725    5.0087   19.1094 H   0  0  0  0  0
   12.1026    7.3496   22.4089 H   0  0  0  0  0
   17.5864   10.9913   16.0745 H   0  0  0  0  0
   19.5366   10.4311   17.9970 H   0  0  0  0  0
   18.6032   11.9631   17.6888 H   0  0  0  0  0
   17.7922   10.1915   19.3906 H   0  0  0  0  0
   16.6288   11.0143   18.2177 H   0  0  0  0  0
   15.9597    9.2490   16.1305 H   0  0  0  0  0
   16.8336    7.6410   16.3605 H   0  0  0  0  0
   21.2144   13.6028   12.5701 H   0  0  0  0  0
   22.2341   13.1384   14.7964 H   0  0  0  0  0
   20.9856   11.7279   16.4535 H   0  0  0  0  0
   17.6807   11.3565   13.6628 H   0  0  0  0  0
   18.9495   12.7349   11.9919 H   0  0  0  0  0
   13.3156    5.9514   23.5519 H   0  0  0  0  0
   11.4421    4.8557   22.6792 H   0  0  0  0  0
   12.4512    4.1301   21.4067 H   0  0  0  0  0
 14  1  1  0  0  0
  1  5  4  0  0  0
  1  2  4  0  0  0
  2  3  4  0  0  0
  3  7  4  0  0  0
  7 10  1  0  0  0
  7  8  4  0  0  0
  5  8  4  0  0  0
 10  6  2  0  0  0
 10 23  1  0  0  0
 10 22  2  0  0  0
 23 24  1  0  0  0
 24 25  1  0  0  0
 25  9  1  0  0  0
 25 26  2  0  0  0
 14 15  1  0  0  0
 14 13  1  0  0  0
 13 12  1  0  0  0
 12 11  1  0  0  0
 11  4  1  0  0  0
 11 19  1  0  0  0
 19 20  4  0  0  0
 19 18  4  0  0  0
 18 17  4  0  0  0
 17 16  4  0  0  0
 16 21  4  0  0  0
 21 20  4  0  0  0
  4 15  1  0  0  0
  2 27  1  0  0  0
  3 28  1  0  0  0
  4 29  1  0  0  0
  4 30  1  0  0  0
  5 31  1  0  0  0
  8 32  1  0  0  0
  9 33  1  0  0  0
 11 34  1  0  0  0
 12 35  1  0  0  0
 12 36  1  0  0  0
 13 37  1  0  0  0
 13 38  1  0  0  0
 15 39  1  0  0  0
 15 40  1  0  0  0
 16 41  1  0  0  0
 17 42  1  0  0  0
 18 43  1  0  0  0
 20 44  1  0  0  0
 21 45  1  0  0  0
 23 46  1  0  0  0
 24 47  1  0  0  0
 24 48  1  0  0  0
M  END
$$$$
