2yfa_ligand
  -I-interpret- 

 15 14  0  0  0  0  0  0  0  0999 V2000
  -60.1610   27.0270   18.9840 C   0  0  0  0  0
  -59.4130   28.0130   18.7570 O   0  0  0  0  0
  -59.6910   25.8870   19.2480 O   0  0  0  0  0
  -61.6380   27.2250   18.9800 C   0  0  0  0  0
  -61.8780   28.5700   19.3340 O   0  0  0  0  0
  -62.2050   26.9160   17.5990 C   0  0  0  0  0
  -63.6900   27.1770   17.5900 C   0  0  0  0  0
  -64.2080   27.8760   16.6900 O   0  0  0  0  0
  -64.4240   26.6990   18.4840 O   0  0  0  0  0
  -60.4124   25.2697   19.3898 H   0  0  0  0  0
  -62.1255   26.5549   19.6881 H   0  0  0  0  0
  -61.5128   28.7404   20.2053 H   0  0  0  0  0
  -62.0205   25.8690   17.3584 H   0  0  0  0  0
  -61.7214   27.5534   16.8587 H   0  0  0  0  0
  -63.5257   28.1695   16.0818 H   0  0  0  0  0
  1  2  2  0  0  0
  1  3  1  0  0  0
  1  4  1  0  0  0
  4  5  1  0  0  0
  4  6  1  0  0  0
  6  7  1  0  0  0
  7  8  1  0  0  0
  7  9  2  0  0  0
  3 10  1  0  0  0
  4 11  1  0  0  0
  5 12  1  0  0  0
  6 13  1  0  0  0
  6 14  1  0  0  0
  8 15  1  0  0  0
M  END
$$$$
