4nku_ligand
  -I-interpret- 

 63 67  0  0  0  0  0  0  0  0999 V2000
   13.6170   21.4400   15.1760 O   0  0  0  0  0
   12.3320   20.9260   15.4940 C   0  0  0  0  0
   11.2400   21.6390   14.7320 C   0  0  0  0  0
   11.4190   23.0760   14.8450 O   0  0  0  0  0
   11.1910   21.3930   13.2300 C   0  0  0  0  0
   10.5470   20.1770   12.8870 O   0  0  0  0  0
   10.4530   22.6240   12.7250 C   0  0  0  0  0
    9.0610   22.5000   12.9690 O   0  0  0  0  0
   11.0120   23.7070   13.6460 C   0  0  0  0  0
   12.1780   24.3830   13.0440 N   0  0  0  0  0
   13.4940   24.3060   13.4460 C   0  0  0  0  0
   14.3110   25.0210   12.7090 N   0  0  0  0  0
   13.4840   25.6100   11.7570 C   0  0  0  0  0
   13.7510   26.4800   10.6870 C   0  0  0  0  0
   14.9710   26.9280   10.3810 N   0  0  0  0  0
   12.7080   26.8790    9.9270 N   0  0  0  0  0
   11.4840   26.4250   10.2280 C   0  0  0  0  0
   11.1080   25.6060   11.2070 N   0  0  0  0  0
   12.1670   25.2270   11.9490 C   0  0  0  0  0
   11.1930   19.1850   11.7950 P   0  0  0  0  0
   10.1870   18.1220   11.5440 O   0  0  0  0  0
   12.5690   18.8040   12.2080 O   0  0  0  0  0
   11.3300   20.0850   10.4810 O   0  0  0  0  0
   10.1900   20.5860    9.7890 C   0  0  0  0  0
   10.5930   21.4830    8.6380 C   0  0  0  0  0
   11.2330   22.6850    9.1470 O   0  0  0  0  0
   11.6180   20.8980    7.6730 C   0  0  0  0  0
   11.0410   20.0380    6.7040 O   0  0  0  0  0
   12.2630   22.1400    7.0710 C   0  0  0  0  0
   11.4520   22.6810    6.0310 O   0  0  0  0  0
   12.2570   23.1000    8.2660 C   0  0  0  0  0
   13.5460   23.0640    8.9920 N   0  0  0  0  0
   14.5980   23.7740    8.4530 C   0  0  0  0  0
   14.4820   24.4260    7.4250 O   0  0  0  0  0
   15.7800   23.6980    9.1570 N   0  0  0  0  0
   16.0030   22.9900   10.3200 C   0  0  0  0  0
   17.1190   23.0080   10.8450 O   0  0  0  0  0
   14.8620   22.2750   10.8080 C   0  0  0  0  0
   13.6970   22.3270   10.1460 C   0  0  0  0  0
   14.2836   20.9646   15.6772 H   0  0  0  0  0
   12.1582   21.0721   16.5601 H   0  0  0  0  0
   12.3075   19.8708   15.2219 H   0  0  0  0  0
   10.3308   21.2417   15.1833 H   0  0  0  0  0
   12.1768   21.2700   12.7816 H   0  0  0  0  0
   10.5786   22.8049   11.6575 H   0  0  0  0  0
    8.6960   21.8217   12.3961 H   0  0  0  0  0
   10.2435   24.4597   13.8222 H   0  0  0  0  0
   13.8247   23.7081   14.2953 H   0  0  0  0  0
   15.7750   26.6391   10.9383 H   0  0  0  0  0
   15.0990   27.5591    9.5900 H   0  0  0  0  0
   10.6822   26.7765    9.5786 H   0  0  0  0  0
   13.0962   19.5969   12.3306 H   0  0  0  0  0
    9.5890   21.1681   10.4876 H   0  0  0  0  0
    9.6286   19.7414    9.3896 H   0  0  0  0  0
    9.6547   21.6487    8.1087 H   0  0  0  0  0
   12.3402   20.2454    8.1635 H   0  0  0  0  0
   11.7297   19.7007    6.1265 H   0  0  0  0  0
   13.2433   21.9525    6.6329 H   0  0  0  0  0
   11.8777   23.4610    5.6677 H   0  0  0  0  0
   12.0952   24.1161    7.9061 H   0  0  0  0  0
   16.5716   24.2188    8.7795 H   0  0  0  0  0
   14.9410   21.6859   11.7217 H   0  0  0  0  0
   12.8439   21.7694   10.5326 H   0  0  0  0  0
  1  2  1  0  0  0
  2  3  1  0  0  0
  3  4  1  0  0  0
  3  5  1  0  0  0
  4  9  1  0  0  0
  5  6  1  0  0  0
  5  7  1  0  0  0
  6 20  1  0  0  0
  7  8  1  0  0  0
  7  9  1  0  0  0
  9 10  1  0  0  0
 10 11  4  0  0  0
 10 19  4  0  0  0
 11 12  4  0  0  0
 12 13  4  0  0  0
 13 14  4  0  0  0
 13 19  4  0  0  0
 14 15  1  0  0  0
 14 16  4  0  0  0
 16 17  4  0  0  0
 17 18  4  0  0  0
 18 19  4  0  0  0
 20 21  2  0  0  0
 20 22  1  0  0  0
 20 23  1  0  0  0
 23 24  1  0  0  0
 24 25  1  0  0  0
 25 26  1  0  0  0
 25 27  1  0  0  0
 26 31  1  0  0  0
 27 28  1  0  0  0
 27 29  1  0  0  0
 29 30  1  0  0  0
 29 31  1  0  0  0
 31 32  1  0  0  0
 32 33  1  0  0  0
 32 39  1  0  0  0
 33 34  2  0  0  0
 33 35  1  0  0  0
 35 36  1  0  0  0
 36 37  2  0  0  0
 36 38  1  0  0  0
 38 39  2  0  0  0
  1 40  1  0  0  0
  2 41  1  0  0  0
  2 42  1  0  0  0
  3 43  1  0  0  0
  5 44  1  0  0  0
  7 45  1  0  0  0
  8 46  1  0  0  0
  9 47  1  0  0  0
 11 48  1  0  0  0
 15 49  1  0  0  0
 15 50  1  0  0  0
 17 51  1  0  0  0
 22 52  1  0  0  0
 24 53  1  0  0  0
 24 54  1  0  0  0
 25 55  1  0  0  0
 27 56  1  0  0  0
 28 57  1  0  0  0
 29 58  1  0  0  0
 30 59  1  0  0  0
 31 60  1  0  0  0
 35 61  1  0  0  0
 38 62  1  0  0  0
 39 63  1  0  0  0
M  END
$$$$
