5lmb_ligand
  -I-interpret- 

 53 56  0  0  0  0  0  0  0  0999 V2000
    5.9840    1.7270  -30.6700 N   0  0  0  0  0
   -2.6800    1.7680  -29.2570 N   0  0  0  0  0
    3.6390    2.2700  -30.8290 C   0  0  0  0  0
    2.3200    1.9770  -30.5280 C   0  0  0  0  0
    2.0400    0.8100  -29.8190 C   0  0  0  0  0
    3.1090    0.0160  -29.4150 C   0  0  0  0  0
    0.6710    0.4440  -29.3970 C   0  0  0  0  0
   -1.6330    0.9430  -29.1000 C   0  0  0  0  0
   -1.8180   -0.2980  -28.4480 C   0  0  0  0  0
    0.4640   -3.0470  -27.3330 C   0  0  0  0  0
    1.5470   -4.4080  -25.5190 C   0  0  0  0  0
    0.8360   -2.1080  -25.0200 C   0  0  0  0  0
    6.3570    2.8250  -31.5560 C   0  0  0  0  0
    7.0360    0.9970  -29.9690 C   0  0  0  0  0
    4.6700    1.4220  -30.4110 C   0  0  0  0  0
    4.3840    0.2980  -29.6960 N   0  0  0  0  0
    0.5310   -0.7200  -28.7440 N   0  0  0  0  0
   -0.6440   -1.1150  -28.2870 C   0  0  0  0  0
   -3.0270   -0.6710  -28.0020 N   0  0  0  0  0
   -4.0500    0.1640  -28.1720 C   0  0  0  0  0
   -3.8780    1.3830  -28.8030 C   0  0  0  0  0
   -0.3760    1.3070  -29.5510 C   0  0  0  0  0
   -0.7320   -2.2940  -27.6530 N   0  0  0  0  0
    0.5010   -3.3420  -25.8380 C   0  0  0  0  0
    0.8710   -2.3750  -23.5930 N   0  3  0  0  0
    1.6640   -3.5030  -23.1580 C   0  0  0  0  0
    1.5330   -4.7410  -24.0290 C   0  0  0  0  0
    3.8764    3.1696  -31.3969 H   0  0  0  0  0
    1.5169    2.6451  -30.8390 H   0  0  0  0  0
    2.8945   -0.8839  -28.8386 H   0  0  0  0  0
    1.3426   -2.4634  -27.6079 H   0  0  0  0  0
    0.4585   -3.9860  -27.8865 H   0  0  0  0  0
    2.5329   -4.0288  -25.7881 H   0  0  0  0  0
    1.3177   -5.3103  -26.0859 H   0  0  0  0  0
    0.0604   -1.3643  -25.2027 H   0  0  0  0  0
    1.8259   -1.7652  -25.3210 H   0  0  0  0  0
    6.8867    3.5873  -30.9847 H   0  0  0  0  0
    7.0041    2.4475  -32.3478 H   0  0  0  0  0
    5.4579    3.2574  -31.9950 H   0  0  0  0  0
    7.7104    0.5459  -30.6969 H   0  0  0  0  0
    7.5930    1.6857  -29.3338 H   0  0  0  0  0
    6.5874    0.2163  -29.3548 H   0  0  0  0  0
   -5.0383   -0.1172  -27.8084 H   0  0  0  0  0
   -4.7357    2.0430  -28.9329 H   0  0  0  0  0
   -0.2229    2.2761  -30.0259 H   0  0  0  0  0
   -1.6471   -2.6629  -27.3944 H   0  0  0  0  0
   -0.4972   -3.6914  -25.5741 H   0  0  0  0  0
   -0.0897   -2.5891  -23.3252 H   0  0  0  0  0
    1.2968   -1.5527  -23.1653 H   0  0  0  0  0
    1.3116   -3.7751  -22.1631 H   0  0  0  0  0
    2.7082   -3.1932  -23.2001 H   0  0  0  0  0
    2.3824   -5.3915  -23.8207 H   0  0  0  0  0
    0.5796   -5.2164  -23.7985 H   0  0  0  0  0
  1 13  1  0  0  0
  1 14  1  0  0  0
 15  1  1  0  0  0
  8  2  4  0  0  0
  2 21  4  0  0  0
  4  3  4  0  0  0
  3 15  4  0  0  0
  5  4  4  0  0  0
  5  6  4  0  0  0
  7  5  1  0  0  0
  6 16  4  0  0  0
 17  7  4  0  0  0
  7 22  4  0  0  0
  9  8  4  0  0  0
  8 22  4  0  0  0
 18  9  4  0  0  0
  9 19  4  0  0  0
 23 10  1  0  0  0
 10 24  1  0  0  0
 24 11  1  0  0  0
 11 27  1  0  0  0
 24 12  1  0  0  0
 12 25  1  0  0  0
 16 15  4  0  0  0
 18 17  4  0  0  0
 18 23  1  0  0  0
 19 20  4  0  0  0
 20 21  4  0  0  0
 25 26  1  0  0  0
 26 27  1  0  0  0
  3 28  1  0  0  0
  4 29  1  0  0  0
  6 30  1  0  0  0
 10 31  1  0  0  0
 10 32  1  0  0  0
 11 33  1  0  0  0
 11 34  1  0  0  0
 12 35  1  0  0  0
 12 36  1  0  0  0
 13 37  1  0  0  0
 13 38  1  0  0  0
 13 39  1  0  0  0
 14 40  1  0  0  0
 14 41  1  0  0  0
 14 42  1  0  0  0
 20 43  1  0  0  0
 21 44  1  0  0  0
 22 45  1  0  0  0
 23 46  1  0  0  0
 24 47  1  0  0  0
 25 48  1  0  0  0
 25 49  1  0  0  0
 26 50  1  0  0  0
 26 51  1  0  0  0
 27 52  1  0  0  0
 27 53  1  0  0  0
M  END
$$$$
