### 
### Created by X-TOOL on Mon Sep 10 21:13:09 2018
### 

@<TRIPOS>MOLECULE
3rum_ligand
  138   148     1     0     0
SMALL
GAST_HUCK


@<TRIPOS>ATOM
      1 N         -19.7820   -4.9440   -3.6010 N.4       1 GHP         0.2481
      2 CA        -19.7340   -6.1670   -4.4100 C.3       1 GHP         0.0913
      3 C         -18.2700   -6.3440   -4.8060 C.2       1 GHP         0.2368
      4 O         -17.3950   -5.7840   -4.1510 O.2       1 GHP        -0.3881
      5 C1        -20.2500   -7.3430   -3.5800 C.ar      1 GHP         0.0049
      6 C2        -19.3770   -8.1560   -2.8600 C.ar      1 GHP        -0.0277
      7 C3        -19.8700   -9.2340   -2.1240 C.ar      1 GHP         0.1368
      8 C4        -21.2210   -9.4880   -2.0940 C.ar      1 GHP         0.1140
      9 O4        -21.6680  -10.5340   -1.3510 O.3       1 GHP        -0.3403
     10 C5        -22.0960   -8.6780   -2.8030 C.ar      1 GHP        -0.0466
     11 C6        -21.6150   -7.6070   -3.5500 C.ar      1 GHP        -0.0717
     12 C         -16.0460   -8.5570   -6.2170 C.2       1 HTY         0.2100
     13 N         -17.9890   -7.0840   -5.8730 N.am      1 HTY        -0.2556
     14 O         -14.8550   -8.7690   -6.4020 O.2       1 HTY        -0.3940
     15 CA        -16.5920   -7.1280   -6.3440 C.3       1 HTY         0.1655
     16 CB        -16.4390   -6.6230   -7.7940 C.3       1 HTY         0.1244
     17 OB        -17.0310   -5.3250   -7.8570 O.3       1 HTY        -0.3762
     18 CG        -17.1720   -7.5740   -8.7270 C.ar      1 HTY        -0.0205
     19 OH        -18.8680  -10.3500  -11.2500 O.3       1 HTY        -0.2703
     20 CZ        -18.3270   -9.4260  -10.4220 C.ar      1 HTY         0.1058
     21 CD1       -18.5440   -7.5590   -8.9130 C.ar      1 HTY        -0.0653
     22 CD2       -16.3870   -8.5050   -9.3900 C.ar      1 HTY        -0.0653
     23 CE1       -19.1290   -8.4950   -9.7660 C.ar      1 HTY        -0.0354
     24 CE2       -16.9620   -9.4330  -10.2380 C.ar      1 HTY        -0.0354
     25 C4        -16.9530  -11.1800   -1.2260 C.ar      1 MP4         0.0088
     26 C5        -17.9520  -10.6320   -2.0170 C.ar      1 MP4         0.1006
     27 C6        -17.7640  -10.5420   -3.4010 C.ar      1 MP4        -0.0405
     28 N         -16.8970   -9.5400   -5.9200 N.am      1 MP4        -0.2541
     29 C3        -15.7720  -11.6220   -1.8000 C.ar      1 MP4         0.0756
     30 O3        -14.9290  -12.3740   -1.0410 O.3       1 MP4        -0.3413
     31 C2        -15.5820  -11.5210   -3.1780 C.ar      1 MP4        -0.0443
     32 C1        -16.5860  -10.9910   -3.9810 C.ar      1 MP4        -0.0220
     33 CA        -16.3450  -10.8440   -5.4940 C.3       1 MP4         0.1571
     34 C         -16.7690  -12.0530   -6.3390 C.2       1 MP4         0.2159
     35 O         -15.8980  -12.8090   -6.7710 O.2       1 MP4        -0.3914
     36 CH3       -17.1360  -11.3070    0.2880 C.3       1 MP4        -0.0378
     37 O10       -19.0580  -10.0600   -1.4090 O.3       1 MP4        -0.2711
     38 N         -18.0680  -12.2300   -6.5670 N.am      1 GHP        -0.2533
     39 CA        -18.5590  -13.4180   -7.3100 C.3       1 GHP         0.1555
     40 C         -19.6590  -14.1370   -6.5300 C.2       1 GHP         0.2152
     41 O         -20.5590  -13.5010   -5.9770 O.2       1 GHP        -0.3916
     42 C1        -19.1130  -13.0490   -8.7190 C.ar      1 GHP        -0.0249
     43 C2        -18.7470  -11.8390   -9.3330 C.ar      1 GHP        -0.0412
     44 C3        -19.2500  -11.5110  -10.5960 C.ar      1 GHP         0.1300
     45 C4        -20.1020  -12.3860  -11.2540 C.ar      1 GHP         0.1464
     46 O4        -20.5710  -12.0380  -12.4810 O.3       1 GHP        -0.3447
     47 C5        -20.4770  -13.5800  -10.6710 C.ar      1 GHP         0.1300
     48 C6        -19.9780  -13.9260   -9.3980 C.ar      1 GHP        -0.0412
     49 N         -19.5720  -15.4620   -6.4720 N.am      1 GHP        -0.2531
     50 CA        -20.7610  -16.2710   -6.1380 C.3       1 GHP         0.1588
     51 C         -20.6690  -17.5610   -6.9500 C.2       1 GHP         0.2141
     52 O         -19.5690  -17.9130   -7.3570 O.2       1 GHP        -0.3918
     53 C1        -20.8500  -16.8110   -4.7250 C.ar      1 GHP        -0.0134
     54 C2        -22.0150  -16.5750   -4.0050 C.ar      1 GHP        -0.0626
     55 C3        -22.1430  -17.1300   -2.7450 C.ar      1 GHP        -0.0067
     56 C4        -21.1380  -17.9300   -2.2180 C.ar      1 GHP         0.0844
     57 O4        -21.2730  -18.4520   -0.9730 O.3       1 GHP        -0.3377
     58 C5        -19.9750  -18.1730   -2.9440 C.ar      1 GHP        -0.0419
     59 C6        -19.8540  -17.6260   -4.2150 C.ar      1 GHP        -0.0677
     60 N         -21.7770  -18.2820   -7.1510 N.am      1 OMX        -0.2584
     61 CA        -23.1390  -17.8650   -6.7360 C.3       1 OMX         0.1655
     62 C         -23.5980  -18.7330   -5.5540 C.2       1 OMX         0.2102
     63 O         -23.2950  -19.9270   -5.4840 O.2       1 OMX        -0.3940
     64 CB        -24.0520  -18.0040   -7.9580 C.3       1 OMX         0.1244
     65 OC        -23.9540  -19.3780   -8.3890 O.3       1 OMX        -0.3762
     66 CG        -23.3830  -17.0410   -8.9210 C.ar      1 OMX        -0.0205
     67 CD1       -22.4400  -17.5070   -9.8310 C.ar      1 OMX        -0.0653
     68 CD2       -23.6430  -15.6800   -8.8090 C.ar      1 OMX        -0.0653
     69 CE1       -21.7820  -16.6060  -10.6610 C.ar      1 OMX        -0.0354
     70 CE2       -22.9840  -14.7730   -9.6380 C.ar      1 OMX        -0.0354
     71 CZ        -22.0530  -15.2440  -10.5610 C.ar      1 OMX         0.1058
     72 OH        -21.3880  -14.3700  -11.3630 O.3       1 OMX        -0.2703
     73 N         -24.3320  -18.1190   -4.6320 N.am      1 MDF        -0.2518
     74 CA        -24.5120  -18.7100   -3.2870 C.3       1 MDF         0.1721
     75 CG        -24.5110  -17.5840   -2.2420 C.ar      1 MDF        -0.0059
     76 CD1       -25.6560  -17.2550   -1.5000 C.ar      1 MDF        -0.0374
     77 CD2       -23.3220  -16.8880   -2.0320 C.ar      1 MDF         0.0048
     78 CE1       -25.6460  -16.2220   -0.5510 C.ar      1 MDF         0.0738
     79 CE2       -23.4010  -15.8890   -1.1050 C.ar      1 MDF         0.0827
     80 CZ        -24.4760  -15.4920   -0.3330 C.ar      1 MDF        -0.0109
     81 OH1       -26.7760  -15.9220    0.1610 O.3       1 MDF        -0.3370
     82 OH2       -22.1880  -15.2570   -0.9050 O.3       1 MDF        -0.3356
     83 C         -25.7820  -19.5450   -3.2420 C.2       1 MDF         0.2711
     84 O         -26.7020  -19.3140   -4.0300 O.2       1 MDF        -0.3646
     85 OXT       -25.8540  -20.5430   -2.3290 O.3       1 MDF        -0.2769
     86 CH3       -27.1170  -21.2150   -2.4400 C.3       1 MDF         0.0659
     87 H         -19.4380   -4.1586   -4.1535 H         1 GHP         0.2027
     88 H         -20.7445   -4.7645   -3.3151 H         1 GHP         0.2027
     89 H         -19.1967   -5.0617   -2.7740 H         1 GHP         0.2027
     90 H         -20.3613   -6.1122   -5.2997 H         1 GHP         0.1237
     91 H         -18.3068   -7.9494   -2.8718 H         1 GHP         0.0465
     92 H         -22.6236  -10.5911   -1.4232 H         1 GHP         0.2425
     93 H         -23.1664   -8.8816   -2.7748 H         1 GHP         0.0495
     94 H         -22.3061   -6.9769   -4.1099 H         1 GHP         0.0447
     95 H         -18.7202   -7.6080   -6.3539 H         1 HTY         0.1888
     96 H         -16.0136   -6.4538   -5.7123 H         1 HTY         0.0848
     97 H         -15.3912   -6.5770   -8.0908 H         1 HTY         0.0786
     98 H         -17.9586   -5.3856   -7.6171 H         1 HTY         0.2130
     99 H         -19.1611   -6.8228   -8.3978 H         1 HTY         0.0532
    100 H         -15.3072   -8.5051   -9.2413 H         1 HTY         0.0532
    101 H         -20.2083   -8.4978   -9.9184 H         1 HTY         0.0534
    102 H         -16.3409  -10.1636  -10.7563 H         1 HTY         0.0534
    103 H         -18.5480  -10.1164   -4.0274 H         1 MP4         0.0387
    104 H         -17.9046   -9.3957   -5.9852 H         1 MP4         0.1907
    105 H         -14.1566  -12.6094   -1.5603 H         1 MP4         0.2451
    106 H         -14.6467  -11.8574   -3.6254 H         1 MP4         0.0382
    107 H         -15.2721  -10.8421   -5.6862 H         1 MP4         0.0944
    108 H         -17.2907  -10.3175    0.7183 H         1 MP4         0.0334
    109 H         -18.0023  -11.9348    0.4966 H         1 MP4         0.0334
    110 H         -16.2449  -11.7588    0.7238 H         1 MP4         0.0334
    111 H         -18.7365  -11.5391   -6.2262 H         1 GHP         0.1908
    112 H         -17.6971  -14.0737   -7.4335 H         1 GHP         0.0937
    113 H         -18.0692  -11.1542   -8.8234 H         1 GHP         0.0383
    114 H         -21.1441  -12.7333  -12.8123 H         1 GHP         0.2387
    115 H         -20.2628  -14.8733   -8.9402 H         1 GHP         0.0383
    116 H         -18.6807  -15.9215   -6.6589 H         1 GHP         0.1908
    117 H         -21.5965  -15.5947   -6.3187 H         1 GHP         0.0938
    118 H         -22.8132  -15.9636   -4.4258 H         1 GHP         0.0497
    119 H         -20.4972  -18.9763   -0.7612 H         1 GHP         0.2460
    120 H         -19.1745  -18.7811   -2.5228 H         1 GHP         0.0515
    121 H         -18.9692  -17.8398   -4.8146 H         1 GHP         0.0506
    122 H         -21.6790  -19.1812   -7.6224 H         1 OMX         0.1887
    123 H         -23.1647  -16.8299   -6.3953 H         1 OMX         0.0848
    124 H         -25.1122  -17.7866   -7.8280 H         1 OMX         0.0786
    125 H         -24.2407  -19.9563   -7.6785 H         1 OMX         0.2130
    126 H         -22.2180  -18.5723   -9.8932 H         1 OMX         0.0532
    127 H         -24.3624  -15.3217   -8.0727 H         1 OMX         0.0532
    128 H         -21.0549  -16.9656  -11.3891 H         1 OMX         0.0534
    129 H         -23.1952  -13.7062   -9.5646 H         1 OMX         0.0534
    130 H         -24.7773  -17.2286   -4.8541 H         1 MDF         0.1911
    131 H         -23.6873  -19.3846   -3.0569 H         1 MDF         0.0976
    132 H         -26.5758  -17.8161   -1.6652 H         1 MDF         0.0399
    133 H         -24.4156  -14.6759    0.3871 H         1 MDF         0.0413
    134 H         -27.4862  -16.5107   -0.1050 H         1 MDF         0.2482
    135 H         -21.5335  -15.6268   -1.5021 H         1 MDF         0.2488
    136 H         -27.9228  -20.5033   -2.2604 H         1 MDF         0.0577
    137 H         -27.2173  -21.6343   -3.4411 H         1 MDF         0.0577
    138 H         -27.1670  -22.0161   -1.7025 H         1 MDF         0.0577
@<TRIPOS>BOND
     1    2    1 1  
     2    2    3 1  
     3    5    2 1  
     4    3    4 2  
     5    3   13 am 
     6    6    5 ar 
     7    5   11 ar 
     8    7    6 ar 
     9    7    8 ar 
    10   37    7 1  
    11    8    9 1  
    12    8   10 ar 
    13   10   11 ar 
    14   12   14 2  
    15   15   12 1  
    16   12   28 am 
    17   13   15 1  
    18   15   16 1  
    19   16   17 1  
    20   16   18 1  
    21   18   21 ar 
    22   18   22 ar 
    23   20   19 1  
    24   19   44 1  
    25   23   20 ar 
    26   24   20 ar 
    27   21   23 ar 
    28   22   24 ar 
    29   26   25 ar 
    30   25   29 ar 
    31   25   36 1  
    32   26   27 ar 
    33   26   37 1  
    34   27   32 ar 
    35   28   33 1  
    36   29   30 1  
    37   29   31 ar 
    38   31   32 ar 
    39   32   33 1  
    40   33   34 1  
    41   34   35 2  
    42   34   38 am 
    43   38   39 1  
    44   39   40 1  
    45   39   42 1  
    46   40   41 2  
    47   40   49 am 
    48   42   43 ar 
    49   42   48 ar 
    50   43   44 ar 
    51   44   45 ar 
    52   45   46 1  
    53   45   47 ar 
    54   47   48 ar 
    55   47   72 1  
    56   49   50 1  
    57   50   51 1  
    58   50   53 1  
    59   51   52 2  
    60   51   60 am 
    61   53   54 ar 
    62   53   59 ar 
    63   54   55 ar 
    64   55   56 ar 
    65   55   77 1  
    66   56   57 1  
    67   56   58 ar 
    68   58   59 ar 
    69   60   61 1  
    70   61   62 1  
    71   61   64 1  
    72   62   63 2  
    73   62   73 am 
    74   64   65 1  
    75   64   66 1  
    76   66   67 ar 
    77   66   68 ar 
    78   67   69 ar 
    79   68   70 ar 
    80   69   71 ar 
    81   70   71 ar 
    82   71   72 1  
    83   73   74 1  
    84   74   75 1  
    85   74   83 1  
    86   75   76 ar 
    87   75   77 ar 
    88   76   78 ar 
    89   77   79 ar 
    90   78   80 ar 
    91   78   81 1  
    92   79   80 ar 
    93   79   82 1  
    94   83   84 2  
    95   83   85 1  
    96   85   86 1  
    97    1   87 1  
    98    1   88 1  
    99    1   89 1  
   100    2   90 1  
   101    6   91 1  
   102    9   92 1  
   103   10   93 1  
   104   11   94 1  
   105   13   95 1  
   106   15   96 1  
   107   16   97 1  
   108   17   98 1  
   109   21   99 1  
   110   22  100 1  
   111   23  101 1  
   112   24  102 1  
   113   27  103 1  
   114   28  104 1  
   115   30  105 1  
   116   31  106 1  
   117   33  107 1  
   118   36  108 1  
   119   36  109 1  
   120   36  110 1  
   121   38  111 1  
   122   39  112 1  
   123   43  113 1  
   124   46  114 1  
   125   48  115 1  
   126   49  116 1  
   127   50  117 1  
   128   54  118 1  
   129   57  119 1  
   130   58  120 1  
   131   59  121 1  
   132   60  122 1  
   133   61  123 1  
   134   64  124 1  
   135   65  125 1  
   136   67  126 1  
   137   68  127 1  
   138   69  128 1  
   139   70  129 1  
   140   73  130 1  
   141   74  131 1  
   142   76  132 1  
   143   80  133 1  
   144   81  134 1  
   145   82  135 1  
   146   86  136 1  
   147   86  137 1  
   148   86  138 1  
@<TRIPOS>SUBSTRUCTURE
     1 GHP         1

