6fut_ligand
  -I-interpret- 

 52 55  0  0  0  0  0  0  0  0999 V2000
    2.3940   10.0840  -24.3520 C   0  0  0  0  0
    1.8440   17.7020  -19.7140 C   0  0  0  0  0
    1.2730   17.1520  -20.8410 C   0  0  0  0  0
    5.1600   15.8280  -19.7910 C   0  0  0  0  0
    5.3010    9.1960  -24.4620 C   0  0  0  0  0
    4.4910    9.1180  -23.2080 C   0  0  0  0  0
    3.1320    9.5130  -23.2230 C   0  0  0  0  0
    2.4190    9.3590  -22.0190 C   0  0  0  0  0
    2.9820    8.8210  -20.8540 C   0  0  0  0  0
    4.3020    8.4780  -20.8560 C   0  0  0  0  0
    5.0290    8.6010  -22.0050 C   0  0  0  0  0
    1.1130   12.1840  -24.6150 C   0  0  0  0  0
    0.8810   13.6440  -24.2730 C   0  0  0  0  0
    1.5250   14.1810  -23.1310 C   0  0  0  0  0
    1.2620   15.5170  -22.8170 C   0  0  0  0  0
    0.3340   16.2860  -23.4940 C   0  0  0  0  0
    0.1680   11.6750  -25.3010 O   0  0  0  0  0
    2.1470   11.5700  -24.1380 N   0  0  0  0  0
    4.6990   10.0630  -25.5610 C   0  0  0  0  0
    3.1960    9.8890  -25.6620 C   0  0  0  0  0
   -0.0790   14.4130  -24.9310 C   0  0  0  0  0
   -0.3120   15.7680  -24.6300 C   0  0  0  0  0
    1.9460   16.1740  -21.6380 C   0  0  0  0  0
    3.1400   17.3130  -19.3480 C   0  0  0  0  0
    3.7990   16.3350  -20.1440 C   0  0  0  0  0
    3.2280   15.8290  -21.2890 C   0  0  0  0  0
    6.2400   16.6910  -20.3210 N   0  3  0  0  0
    1.4355    9.5701  -24.4249 H   0  0  0  0  0
    1.2956   18.4294  -19.1155 H   0  0  0  0  0
    0.2739   17.4735  -21.1351 H   0  0  0  0  0
    5.2746   14.8370  -20.2301 H   0  0  0  0  0
    5.2428   15.8139  -18.7042 H   0  0  0  0  0
    5.3664    8.1830  -24.8592 H   0  0  0  0  0
    6.2568    9.6456  -24.1930 H   0  0  0  0  0
    1.3760    9.6743  -21.9915 H   0  0  0  0  0
    2.3745    8.6789  -19.9602 H   0  0  0  0  0
    4.7737    8.1079  -19.9457 H   0  0  0  0  0
    6.0726    8.2864  -21.9956 H   0  0  0  0  0
    2.1979   13.5769  -22.5224 H   0  0  0  0  0
    0.1033   17.2933  -23.1472 H   0  0  0  0  0
    2.8254   12.1047  -23.5955 H   0  0  0  0  0
    5.1414    9.7647  -26.5115 H   0  0  0  0  0
    4.9063   11.1066  -25.3241 H   0  0  0  0  0
    2.8466   10.6592  -26.3496 H   0  0  0  0  0
    3.0297    8.8565  -25.9692 H   0  0  0  0  0
   -0.6754   13.9435  -25.7133 H   0  0  0  0  0
   -0.9625   16.3864  -25.2484 H   0  0  0  0  0
    3.6298   17.7481  -18.4769 H   0  0  0  0  0
    3.7975   15.1496  -21.9232 H   0  0  0  0  0
    7.1450   16.3036  -20.0541 H   0  0  0  0  0
    6.1728   16.7317  -21.3380 H   0  0  0  0  0
    6.1436   17.6301  -19.9348 H   0  0  0  0  0
  1  7  1  0  0  0
 18  1  1  0  0  0
  1 20  1  0  0  0
  2  3  4  0  0  0
 24  2  4  0  0  0
  3 23  4  0  0  0
 25  4  1  0  0  0
  4 27  1  0  0  0
  6  5  1  0  0  0
 19  5  1  0  0  0
  7  6  4  0  0  0
  6 11  4  0  0  0
  7  8  4  0  0  0
  8  9  4  0  0  0
  9 10  4  0  0  0
 11 10  4  0  0  0
 13 12  1  0  0  0
 12 17  2  0  0  0
 12 18  1  0  0  0
 14 13  4  0  0  0
 13 21  4  0  0  0
 15 14  4  0  0  0
 15 16  4  0  0  0
 23 15  1  0  0  0
 16 22  4  0  0  0
 20 19  1  0  0  0
 22 21  4  0  0  0
 23 26  4  0  0  0
 24 25  4  0  0  0
 25 26  4  0  0  0
  1 28  1  0  0  0
  2 29  1  0  0  0
  3 30  1  0  0  0
  4 31  1  0  0  0
  4 32  1  0  0  0
  5 33  1  0  0  0
  5 34  1  0  0  0
  8 35  1  0  0  0
  9 36  1  0  0  0
 10 37  1  0  0  0
 11 38  1  0  0  0
 14 39  1  0  0  0
 16 40  1  0  0  0
 18 41  1  0  0  0
 19 42  1  0  0  0
 19 43  1  0  0  0
 20 44  1  0  0  0
 20 45  1  0  0  0
 21 46  1  0  0  0
 22 47  1  0  0  0
 24 48  1  0  0  0
 26 49  1  0  0  0
 27 50  1  0  0  0
 27 51  1  0  0  0
 27 52  1  0  0  0
M  END
$$$$
