4u6z_ligand
  -I-interpret- 

 28 27  0  0  0  0  0  0  0  0999 V2000
   21.8290   -2.2160   12.0950 O   0  0  0  0  0
   21.2380   -2.4930   10.7310 P   0  0  0  0  0
   19.8900   -3.2450   10.9220 O   0  0  0  0  0
   21.0290   -1.3930    9.9600 O   0  0  0  0  0
   22.3770   -3.6270    9.8660 C   0  0  0  0  0
   23.5770   -2.9960    9.3980 N   0  3  0  0  0
   22.7210   -4.8040   10.7450 C   0  0  0  0  0
   23.7300   -4.4590   11.7990 C   0  0  0  0  0
   23.1100   -6.0400    9.9860 C   0  0  0  0  0
   23.0310   -7.2790   10.8580 C   0  0  0  0  0
   23.0750   -8.5750   10.0950 C   0  0  0  0  0
   21.9419   -3.0439   12.5677 H   0  0  0  0  0
   20.0331   -4.0228   11.4661 H   0  0  0  0  0
   21.8422   -3.9682    8.9796 H   0  0  0  0  0
   23.3335   -2.2024    8.8053 H   0  0  0  0  0
   24.1224   -2.6710   10.1963 H   0  0  0  0  0
   24.1255   -3.6675    8.8607 H   0  0  0  0  0
   21.7897   -5.0516   11.2544 H   0  0  0  0  0
   23.8118   -5.2846   12.5060 H   0  0  0  0  0
   24.6981   -4.2834   11.3298 H   0  0  0  0  0
   23.4111   -3.5590   12.3248 H   0  0  0  0  0
   24.1385   -5.9246    9.6440 H   0  0  0  0  0
   22.4206   -6.1623    9.1506 H   0  0  0  0  0
   22.0740   -7.2450   11.3786 H   0  0  0  0  0
   23.8994   -7.2643   11.5166 H   0  0  0  0  0
   22.2339   -8.6164    9.4029 H   0  0  0  0  0
   24.0095   -8.6352    9.5372 H   0  0  0  0  0
   23.0133   -9.4090   10.7941 H   0  0  0  0  0
  1  2  1  0  0  0
  2  3  1  0  0  0
  2  4  2  0  0  0
  2  5  1  0  0  0
  5  6  1  0  0  0
  5  7  1  0  0  0
  7  8  1  0  0  0
  7  9  1  0  0  0
  9 10  1  0  0  0
 10 11  1  0  0  0
  1 12  1  0  0  0
  3 13  1  0  0  0
  5 14  1  0  0  0
  6 15  1  0  0  0
  6 16  1  0  0  0
  6 17  1  0  0  0
  7 18  1  0  0  0
  8 19  1  0  0  0
  8 20  1  0  0  0
  8 21  1  0  0  0
  9 22  1  0  0  0
  9 23  1  0  0  0
 10 24  1  0  0  0
 10 25  1  0  0  0
 11 26  1  0  0  0
 11 27  1  0  0  0
 11 28  1  0  0  0
M  END
$$$$
