### 
### Created by X-TOOL on Mon Sep 10 21:12:59 2018
### 

@<TRIPOS>MOLECULE
3eqs_ligand
  181   184     1     0     0
SMALL
GAST_HUCK


@<TRIPOS>ATOM
      1 N          -6.1800    8.9780   13.3720 N.4       1 THR         0.2398
      2 CA         -6.1270    7.7350   12.5510 C.3       1 THR         0.0910
      3 C          -5.8490    8.0770   11.0730 C.2       1 THR         0.2293
      4 O          -6.5630    8.8690   10.4600 O.2       1 THR        -0.3906
      5 CB         -7.4440    6.9700   12.6710 C.3       1 THR         0.1120
      6 OG1        -7.7200    6.7720   14.0770 O.3       1 THR        -0.3840
      7 CG2        -7.3300    5.6150   11.9580 C.3       1 THR        -0.0314
      8 N          -4.7920    7.5050   10.5070 N.am      1 SER        -0.2588
      9 CA         -4.4550    7.8090    9.1080 C.3       1 SER         0.1540
     10 C          -5.3060    6.9970    8.1350 C.2       1 SER         0.2063
     11 O          -5.9080    5.9860    8.4980 O.2       1 SER        -0.3943
     12 CB         -2.9770    7.4830    8.8350 C.3       1 SER         0.0843
     13 OG         -2.7750    6.0650    8.8990 O.3       1 SER        -0.3903
     14 N          -5.3450    7.4270    6.8750 N.am      1 PHE        -0.2619
     15 CA         -5.9760    6.6400    5.8470 C.3       1 PHE         0.1404
     16 C          -5.5060    5.1940    5.8610 C.2       1 PHE         0.2059
     17 O          -6.3450    4.2750    5.8310 O.2       1 PHE        -0.3942
     18 CB         -5.7580    7.2550    4.4630 C.3       1 PHE         0.0214
     19 CG         -6.2540    6.3630    3.3680 C.ar      1 PHE        -0.0386
     20 CD1        -7.6150    6.3630    3.0250 C.ar      1 PHE        -0.0601
     21 CD2        -5.4020    5.4430    2.7420 C.ar      1 PHE        -0.0601
     22 CE1        -8.0810    5.4650    2.0530 C.ar      1 PHE        -0.0686
     23 CE2        -5.8770    4.5600    1.7680 C.ar      1 PHE        -0.0686
     24 CZ         -7.2200    4.5700    1.4170 C.ar      1 PHE        -0.0687
     25 N          -4.1910    4.9730    5.9400 N.am      1 ALA        -0.2639
     26 CA         -3.6970    3.6030    5.8560 C.3       1 ALA         0.1282
     27 C          -4.2290    2.8100    7.0460 C.2       1 ALA         0.2036
     28 O          -4.5390    1.6170    6.9190 O.2       1 ALA        -0.3944
     29 CB         -2.1890    3.6040    5.8360 C.3       1 ALA        -0.0244
     30 N          -4.3060    3.4490    8.2220 N.am      1 GLU        -0.2636
     31 CA         -4.8390    2.7460    9.4010 C.3       1 GLU         0.1325
     32 C          -6.2660    2.3250    9.1690 C.2       1 GLU         0.2041
     33 O          -6.6180    1.1680    9.4670 O.2       1 GLU        -0.3944
     34 CB         -4.7160    3.5920   10.6600 C.3       1 GLU        -0.0008
     35 CG         -3.2740    3.6490   11.1650 C.3       1 GLU         0.0044
     36 CD         -3.1510    4.5620   12.3430 C.2       1 GLU         0.0350
     37 OE1        -3.2420    5.7770   12.1300 O.co2     1 GLU        -0.5690
     38 OE2        -2.9160    4.0820   13.4760 O.co2     1 GLU        -0.5690
     39 N          -7.0930    3.2210    8.6400 N.am      1 TYR        -0.2621
     40 CA         -8.4820    2.8350    8.3630 C.3       1 TYR         0.1390
     41 C          -8.5340    1.7470    7.2910 C.2       1 TYR         0.2058
     42 O          -9.2740    0.7580    7.3970 O.2       1 TYR        -0.3942
     43 CB         -9.2540    4.0250    7.8190 C.3       1 TYR         0.0163
     44 CG         -9.6920    5.0040    8.9010 C.ar      1 TYR        -0.0493
     45 CD1       -10.6150    4.6400    9.8710 C.ar      1 TYR        -0.0685
     46 CD2        -9.2390    6.3300    8.8750 C.ar      1 TYR        -0.0685
     47 CE1       -11.0490    5.5710   10.8550 C.ar      1 TYR        -0.0398
     48 CE2        -9.6540    7.2570    9.8430 C.ar      1 TYR        -0.0398
     49 CZ        -10.5690    6.8700   10.8140 C.ar      1 TYR         0.0805
     50 OH        -10.9920    7.7790   11.7570 O.3       1 TYR        -0.3376
     51 N          -7.7190    1.9180    6.2640 N.am      1 TRP        -0.2625
     52 CA         -7.8020    1.0160    5.1030 C.3       1 TRP         0.1352
     53 C          -7.3730   -0.4170    5.4840 C.2       1 TRP         0.2053
     54 O          -7.9400   -1.4180    4.9890 O.2       1 TRP        -0.3942
     55 CB         -6.8940    1.5470    3.9640 C.3       1 TRP         0.0042
     56 CG         -7.1350    0.8400    2.6750 C.2       1 TRP        -0.0418
     57 CD1        -6.3450   -0.1420    2.0830 C.2       1 TRP         0.0167
     58 CD2        -8.2810    0.9970    1.8220 C.ar      1 TRP        -0.0214
     59 NE1        -6.9380   -0.5780    0.9210 N.pl3     1 TRP        -0.2890
     60 CE2        -8.1250    0.0930    0.7390 C.ar      1 TRP         0.0603
     61 CE3        -9.4110    1.8460    1.8480 C.ar      1 TRP        -0.0747
     62 CZ2        -9.0530   -0.0030   -0.2940 C.ar      1 TRP        -0.0443
     63 CZ3       -10.3660    1.7290    0.8290 C.ar      1 TRP        -0.0792
     64 CH2       -10.1810    0.7950   -0.2310 C.ar      1 TRP        -0.0768
     65 N          -6.3770   -0.5210    6.3560 N.am      1 ASN        -0.2615
     66 CA         -5.8650   -1.8300    6.7330 C.3       1 ASN         0.1476
     67 C          -6.8480   -2.6370    7.5490 C.2       1 ASN         0.2063
     68 O          -6.7130   -3.8570    7.6420 O.2       1 ASN        -0.3942
     69 CB         -4.5040   -1.6870    7.3920 C.3       1 ASN         0.0773
     70 CG         -3.4010   -1.4290    6.3720 C.2       1 ASN         0.1780
     71 OD1        -3.4700   -1.9260    5.2370 O.2       1 ASN        -0.3970
     72 ND2        -2.3630   -0.6900    6.7730 N.am      1 ASN        -0.3007
     73 N          -7.8500   -1.9770    8.1340 N.am      1 LEU        -0.2636
     74 CA         -8.9020   -2.7300    8.8240 C.3       1 LEU         0.1312
     75 C          -9.7730   -3.5580    7.8560 C.2       1 LEU         0.2039
     76 O         -10.5640   -4.3770    8.3080 O.2       1 LEU        -0.3944
     77 CB         -9.7870   -1.7780    9.6430 C.3       1 LEU        -0.0101
     78 CG         -9.0150   -1.1670   10.8000 C.3       1 LEU        -0.0425
     79 CD1        -9.8040    0.0060   11.3640 C.3       1 LEU        -0.0625
     80 CD2        -8.7660   -2.1740   11.8530 C.3       1 LEU        -0.0625
     81 N          -9.6670   -3.3200    6.5390 N.am      1 LEU        -0.2637
     82 CA        -10.4420   -4.1100    5.5730 C.3       1 LEU         0.1312
     83 C          -9.9310   -5.5120    5.4540 C.2       1 LEU         0.2040
     84 O         -10.6650   -6.4050    5.0200 O.2       1 LEU        -0.3944
     85 CB        -10.3920   -3.4900    4.1830 C.3       1 LEU        -0.0101
     86 CG        -11.2280   -2.2270    4.0090 C.3       1 LEU        -0.0425
     87 CD1       -10.6880   -1.3950    2.8660 C.3       1 LEU        -0.0625
     88 CD2       -12.6940   -2.6450    3.7730 C.3       1 LEU        -0.0625
     89 N          -8.6740   -5.7310    5.8010 N.am      1 SER        -0.2627
     90 CA         -8.1170   -7.0530    5.6290 C.3       1 SER         0.1356
     91 C          -8.0370   -7.7360    6.9820 C.2       1 SER         0.1267
     92 O          -7.1780   -7.4000    7.7810 O.2       1 SER        -0.3724
     93 CB         -6.7160   -6.9780    4.9930 C.3       1 SER         0.0830
     94 OG         -6.6710   -6.2150    3.7660 O.3       1 SER        -0.3903
     95 H1         -5.3072    9.4749   13.2860 H         1 THR         0.2016
     96 H2         -6.3352    8.7362   14.3382 H         1 THR         0.2016
     97 H3         -6.9334    9.5635   13.0470 H         1 THR         0.2016
     98 H4         -5.3118    7.0987   12.9259 H         1 THR         0.1125
     99 H5         -8.2556    7.5543   12.2130 H         1 THR         0.0674
    100 H6         -7.7903    7.6164   14.5068 H         1 THR         0.2102
    101 H7         -8.2819    5.0714   12.0494 H         1 THR         0.0258
    102 H8         -6.5248    5.0244   12.4194 H         1 THR         0.0258
    103 H9         -7.1017    5.7783   10.8944 H         1 THR         0.0258
    104 H10        -4.2263    6.8686   11.0314 H         1 SER         0.1885
    105 H11        -4.6301    8.8802    8.9297 H         1 SER         0.0823
    106 H12        -2.3481    7.9763    9.5907 H         1 SER         0.0606
    107 H13        -2.7011    7.8468    7.8342 H         1 SER         0.0606
    108 H14        -1.8611    5.8685    8.7298 H         1 SER         0.2097
    109 H15        -4.9313    8.3066    6.6400 H         1 PHE         0.1885
    110 H16        -7.0573    6.6408    6.0487 H         1 PHE         0.0823
    111 H17        -4.6818    7.4304    4.3179 H         1 PHE         0.0474
    112 H18        -6.2959    8.2131    4.4115 H         1 PHE         0.0474
    113 H19        -8.3002    7.0509    3.5070 H         1 PHE         0.0557
    114 H20        -4.3542    5.4156    3.0185 H         1 PHE         0.0557
    115 H21        -9.1327    5.4665    1.7904 H         1 PHE         0.0599
    116 H22        -5.1963    3.8672    1.2866 H         1 PHE         0.0599
    117 H23        -7.5948    3.8917    0.6591 H         1 PHE         0.0559
    118 H24        -3.5545    5.7356    6.0551 H         1 ALA         0.1883
    119 H25        -4.0635    3.1423    4.9268 H         1 ALA         0.0797
    120 H26        -1.8225    2.5688    5.7726 H         1 ALA         0.0277
    121 H27        -1.8104    4.0712    6.7570 H         1 ALA         0.0277
    122 H28        -1.8342    4.1726    4.9638 H         1 ALA         0.0277
    123 H29        -4.0028    4.3989    8.2982 H         1 GLU         0.1883
    124 H30        -4.2385    1.8364    9.5495 H         1 GLU         0.0801
    125 H31        -5.3516    3.1569   11.4453 H         1 GLU         0.0330
    126 H32        -5.0562    4.6141   10.4373 H         1 GLU         0.0330
    127 H33        -2.6247    4.0163   10.3567 H         1 GLU         0.0433
    128 H34        -2.9564    2.6379   11.4597 H         1 GLU         0.0433
    129 H35        -6.7733    4.1457    8.4334 H         1 TYR         0.1885
    130 H36        -8.9509    2.4722    9.2896 H         1 TYR         0.0821
    131 H37       -10.1503    3.6528    7.3013 H         1 TYR         0.0453
    132 H38        -8.6125    4.5598    7.1031 H         1 TYR         0.0453
    133 H39       -11.0113    3.6311    9.8790 H         1 TYR         0.0530
    134 H40        -8.5565    6.6447    8.0939 H         1 TYR         0.0530
    135 H41       -11.7466    5.2679   11.6273 H         1 TYR         0.0525
    136 H42        -9.2634    8.2681    9.8333 H         1 TYR         0.0525
    137 H43       -11.6114    7.3604   12.3432 H         1 TYR         0.2458
    138 H44        -7.0473    2.6587    6.2757 H         1 TRP         0.1884
    139 H45        -8.8431    0.9908    4.7488 H         1 TRP         0.0815
    140 H46        -5.8425    1.4054    4.2542 H         1 TRP         0.0397
    141 H47        -7.0941    2.6193    3.8224 H         1 TRP         0.0397
    142 H48        -5.3999   -0.5095    2.4802 H         1 TRP         0.0795
    143 H49        -6.5541   -1.2936    0.2874 H         1 TRP         0.2216
    144 H50        -9.5365    2.5740    2.6413 H         1 TRP         0.0540
    145 H51        -8.8963   -0.6831   -1.1234 H         1 TRP         0.0541
    146 H52       -11.2518    2.3536    0.8474 H         1 TRP         0.0510
    147 H53       -10.9380    0.7083   -1.0020 H         1 TRP         0.0530
    148 H54        -5.9770    0.3039    6.7554 H         1 ASN         0.1885
    149 H55        -5.7079   -2.3914    5.8002 H         1 ASN         0.0826
    150 H56        -4.2740   -2.6143    7.9371 H         1 ASN         0.0551
    151 H57        -4.5382   -0.8449    8.0989 H         1 ASN         0.0551
    152 H58        -1.6146   -0.4936    6.1395 H         1 ASN         0.1814
    153 H59        -2.3343   -0.3332    7.7067 H         1 ASN         0.1814
    154 H60        -7.8829   -0.9781    8.1019 H         1 LEU         0.1883
    155 H61        -8.4132   -3.4294    9.5182 H         1 LEU         0.0800
    156 H62       -10.6450   -2.3395   10.0412 H         1 LEU         0.0315
    157 H63       -10.1486   -0.9718    8.9878 H         1 LEU         0.0315
    158 H64        -8.0469   -0.8005   10.4280 H         1 LEU         0.0298
    159 H65        -9.2489    0.4520   12.2024 H         1 LEU         0.0232
    160 H66       -10.7831   -0.3476   11.7194 H         1 LEU         0.0232
    161 H67        -9.9502    0.7614   10.5779 H         1 LEU         0.0232
    162 H68        -8.1956   -3.0139   11.4296 H         1 LEU         0.0232
    163 H69        -9.7265   -2.5425   12.2425 H         1 LEU         0.0232
    164 H70        -8.1906   -1.7151   12.6705 H         1 LEU         0.0232
    165 H71        -9.0555   -2.5991    6.2130 H         1 LEU         0.1883
    166 H72       -11.4869   -4.1395    5.9155 H         1 LEU         0.0800
    167 H73       -10.7519   -4.2391    3.4623 H         1 LEU         0.0315
    168 H74        -9.3447   -3.2392    3.9590 H         1 LEU         0.0315
    169 H75       -11.1738   -1.6288    4.9305 H         1 LEU         0.0298
    170 H76       -11.2998   -0.4880    2.7518 H         1 LEU         0.0232
    171 H77       -10.7248   -1.9815    1.9362 H         1 LEU         0.0232
    172 H78        -9.6470   -1.1107    3.0793 H         1 LEU         0.0232
    173 H79       -13.0455   -3.2459    4.6246 H         1 LEU         0.0232
    174 H80       -12.7615   -3.2411    2.8510 H         1 LEU         0.0232
    175 H81       -13.3204   -1.7461    3.6752 H         1 LEU         0.0232
    176 H82        -8.1162   -4.9913    6.1775 H         1 SER         0.1885
    177 H83        -8.7756   -7.6361    4.9685 H         1 SER         0.0813
    178 H84        -8.7440   -8.5235    7.2390 H         1 SER         0.1374
    179 H85        -6.3783   -8.0023    4.7767 H         1 SER         0.0607
    180 H86        -6.0314   -6.5113    5.7166 H         1 SER         0.0607
    181 H87        -5.7825   -6.2099    3.4300 H         1 SER         0.2097
@<TRIPOS>BOND
     1    1    2 1  
     2    2    3 1  
     3    2    5 1  
     4    3    4 2  
     5    3    8 am 
     6    5    6 1  
     7    5    7 1  
     8    8    9 1  
     9    9   10 1  
    10    9   12 1  
    11   10   11 2  
    12   10   14 am 
    13   12   13 1  
    14   14   15 1  
    15   15   16 1  
    16   15   18 1  
    17   16   17 2  
    18   16   25 am 
    19   18   19 1  
    20   19   20 ar 
    21   19   21 ar 
    22   20   22 ar 
    23   21   23 ar 
    24   22   24 ar 
    25   23   24 ar 
    26   25   26 1  
    27   26   27 1  
    28   26   29 1  
    29   27   28 2  
    30   27   30 am 
    31   30   31 1  
    32   31   32 1  
    33   31   34 1  
    34   32   33 2  
    35   32   39 am 
    36   34   35 1  
    37   35   36 1  
    38   36   37 ar 
    39   36   38 ar 
    40   39   40 1  
    41   40   41 1  
    42   40   43 1  
    43   41   42 2  
    44   41   51 am 
    45   43   44 1  
    46   44   45 ar 
    47   44   46 ar 
    48   45   47 ar 
    49   46   48 ar 
    50   47   49 ar 
    51   48   49 ar 
    52   49   50 1  
    53   51   52 1  
    54   52   53 1  
    55   52   55 1  
    56   53   54 2  
    57   53   65 am 
    58   55   56 1  
    59   56   57 2  
    60   56   58 1  
    61   57   59 1  
    62   58   60 ar 
    63   58   61 ar 
    64   59   60 1  
    65   60   62 ar 
    66   61   63 ar 
    67   62   64 ar 
    68   63   64 ar 
    69   65   66 1  
    70   66   67 1  
    71   66   69 1  
    72   67   68 2  
    73   67   73 am 
    74   69   70 1  
    75   70   71 2  
    76   70   72 am 
    77   73   74 1  
    78   74   75 1  
    79   74   77 1  
    80   75   76 2  
    81   75   81 am 
    82   77   78 1  
    83   78   79 1  
    84   78   80 1  
    85   81   82 1  
    86   82   83 1  
    87   82   85 1  
    88   83   84 2  
    89   83   89 am 
    90   85   86 1  
    91   86   87 1  
    92   86   88 1  
    93   89   90 1  
    94   90   91 1  
    95   90   93 1  
    96   91   92 2  
    97   93   94 1  
    98    1   95 1  
    99    1   96 1  
   100    1   97 1  
   101    2   98 1  
   102    5   99 1  
   103    6  100 1  
   104    7  101 1  
   105    7  102 1  
   106    7  103 1  
   107    8  104 1  
   108    9  105 1  
   109   12  106 1  
   110   12  107 1  
   111   13  108 1  
   112   14  109 1  
   113   15  110 1  
   114   18  111 1  
   115   18  112 1  
   116   20  113 1  
   117   21  114 1  
   118   22  115 1  
   119   23  116 1  
   120   24  117 1  
   121   25  118 1  
   122   26  119 1  
   123   29  120 1  
   124   29  121 1  
   125   29  122 1  
   126   30  123 1  
   127   31  124 1  
   128   34  125 1  
   129   34  126 1  
   130   35  127 1  
   131   35  128 1  
   132   39  129 1  
   133   40  130 1  
   134   43  131 1  
   135   43  132 1  
   136   45  133 1  
   137   46  134 1  
   138   47  135 1  
   139   48  136 1  
   140   50  137 1  
   141   51  138 1  
   142   52  139 1  
   143   55  140 1  
   144   55  141 1  
   145   57  142 1  
   146   59  143 1  
   147   61  144 1  
   148   62  145 1  
   149   63  146 1  
   150   64  147 1  
   151   65  148 1  
   152   66  149 1  
   153   69  150 1  
   154   69  151 1  
   155   72  152 1  
   156   72  153 1  
   157   73  154 1  
   158   74  155 1  
   159   77  156 1  
   160   77  157 1  
   161   78  158 1  
   162   79  159 1  
   163   79  160 1  
   164   79  161 1  
   165   80  162 1  
   166   80  163 1  
   167   80  164 1  
   168   81  165 1  
   169   82  166 1  
   170   85  167 1  
   171   85  168 1  
   172   86  169 1  
   173   87  170 1  
   174   87  171 1  
   175   87  172 1  
   176   88  173 1  
   177   88  174 1  
   178   88  175 1  
   179   89  176 1  
   180   90  177 1  
   181   91  178 1  
   182   93  179 1  
   183   93  180 1  
   184   94  181 1  
@<TRIPOS>SUBSTRUCTURE
     1 THR         1

