3eqs_ligand
  -I-interpret- 

181184  0  0  0  0  0  0  0  0999 V2000
   -6.1800    8.9780   13.3720 N   0  3  0  0  0
   -6.1270    7.7350   12.5510 C   0  0  0  0  0
   -5.8490    8.0770   11.0730 C   0  0  0  0  0
   -6.5630    8.8690   10.4600 O   0  0  0  0  0
   -7.4440    6.9700   12.6710 C   0  0  0  0  0
   -7.7200    6.7720   14.0770 O   0  0  0  0  0
   -7.3300    5.6150   11.9580 C   0  0  0  0  0
   -4.7920    7.5050   10.5070 N   0  0  0  0  0
   -4.4550    7.8090    9.1080 C   0  0  0  0  0
   -5.3060    6.9970    8.1350 C   0  0  0  0  0
   -5.9080    5.9860    8.4980 O   0  0  0  0  0
   -2.9770    7.4830    8.8350 C   0  0  0  0  0
   -2.7750    6.0650    8.8990 O   0  0  0  0  0
   -5.3450    7.4270    6.8750 N   0  0  0  0  0
   -5.9760    6.6400    5.8470 C   0  0  0  0  0
   -5.5060    5.1940    5.8610 C   0  0  0  0  0
   -6.3450    4.2750    5.8310 O   0  0  0  0  0
   -5.7580    7.2550    4.4630 C   0  0  0  0  0
   -6.2540    6.3630    3.3680 C   0  0  0  0  0
   -7.6150    6.3630    3.0250 C   0  0  0  0  0
   -5.4020    5.4430    2.7420 C   0  0  0  0  0
   -8.0810    5.4650    2.0530 C   0  0  0  0  0
   -5.8770    4.5600    1.7680 C   0  0  0  0  0
   -7.2200    4.5700    1.4170 C   0  0  0  0  0
   -4.1910    4.9730    5.9400 N   0  0  0  0  0
   -3.6970    3.6030    5.8560 C   0  0  0  0  0
   -4.2290    2.8100    7.0460 C   0  0  0  0  0
   -4.5390    1.6170    6.9190 O   0  0  0  0  0
   -2.1890    3.6040    5.8360 C   0  0  0  0  0
   -4.3060    3.4490    8.2220 N   0  0  0  0  0
   -4.8390    2.7460    9.4010 C   0  0  0  0  0
   -6.2660    2.3250    9.1690 C   0  0  0  0  0
   -6.6180    1.1680    9.4670 O   0  0  0  0  0
   -4.7160    3.5920   10.6600 C   0  0  0  0  0
   -3.2740    3.6490   11.1650 C   0  0  0  0  0
   -3.1510    4.5620   12.3430 C   0  0  0  0  0
   -3.2420    5.7770   12.1300 O   0  0  0  0  0
   -2.9160    4.0820   13.4760 O   0  0  0  0  0
   -7.0930    3.2210    8.6400 N   0  0  0  0  0
   -8.4820    2.8350    8.3630 C   0  0  0  0  0
   -8.5340    1.7470    7.2910 C   0  0  0  0  0
   -9.2740    0.7580    7.3970 O   0  0  0  0  0
   -9.2540    4.0250    7.8190 C   0  0  0  0  0
   -9.6920    5.0040    8.9010 C   0  0  0  0  0
  -10.6150    4.6400    9.8710 C   0  0  0  0  0
   -9.2390    6.3300    8.8750 C   0  0  0  0  0
  -11.0490    5.5710   10.8550 C   0  0  0  0  0
   -9.6540    7.2570    9.8430 C   0  0  0  0  0
  -10.5690    6.8700   10.8140 C   0  0  0  0  0
  -10.9920    7.7790   11.7570 O   0  0  0  0  0
   -7.7190    1.9180    6.2640 N   0  0  0  0  0
   -7.8020    1.0160    5.1030 C   0  0  0  0  0
   -7.3730   -0.4170    5.4840 C   0  0  0  0  0
   -7.9400   -1.4180    4.9890 O   0  0  0  0  0
   -6.8940    1.5470    3.9640 C   0  0  0  0  0
   -7.1350    0.8400    2.6750 C   0  0  0  0  0
   -6.3450   -0.1420    2.0830 C   0  0  0  0  0
   -8.2810    0.9970    1.8220 C   0  0  0  0  0
   -6.9380   -0.5780    0.9210 N   0  0  0  0  0
   -8.1250    0.0930    0.7390 C   0  0  0  0  0
   -9.4110    1.8460    1.8480 C   0  0  0  0  0
   -9.0530   -0.0030   -0.2940 C   0  0  0  0  0
  -10.3660    1.7290    0.8290 C   0  0  0  0  0
  -10.1810    0.7950   -0.2310 C   0  0  0  0  0
   -6.3770   -0.5210    6.3560 N   0  0  0  0  0
   -5.8650   -1.8300    6.7330 C   0  0  0  0  0
   -6.8480   -2.6370    7.5490 C   0  0  0  0  0
   -6.7130   -3.8570    7.6420 O   0  0  0  0  0
   -4.5040   -1.6870    7.3920 C   0  0  0  0  0
   -3.4010   -1.4290    6.3720 C   0  0  0  0  0
   -3.4700   -1.9260    5.2370 O   0  0  0  0  0
   -2.3630   -0.6900    6.7730 N   0  0  0  0  0
   -7.8500   -1.9770    8.1340 N   0  0  0  0  0
   -8.9020   -2.7300    8.8240 C   0  0  0  0  0
   -9.7730   -3.5580    7.8560 C   0  0  0  0  0
  -10.5640   -4.3770    8.3080 O   0  0  0  0  0
   -9.7870   -1.7780    9.6430 C   0  0  0  0  0
   -9.0150   -1.1670   10.8000 C   0  0  0  0  0
   -9.8040    0.0060   11.3640 C   0  0  0  0  0
   -8.7660   -2.1740   11.8530 C   0  0  0  0  0
   -9.6670   -3.3200    6.5390 N   0  0  0  0  0
  -10.4420   -4.1100    5.5730 C   0  0  0  0  0
   -9.9310   -5.5120    5.4540 C   0  0  0  0  0
  -10.6650   -6.4050    5.0200 O   0  0  0  0  0
  -10.3920   -3.4900    4.1830 C   0  0  0  0  0
  -11.2280   -2.2270    4.0090 C   0  0  0  0  0
  -10.6880   -1.3950    2.8660 C   0  0  0  0  0
  -12.6940   -2.6450    3.7730 C   0  0  0  0  0
   -8.6740   -5.7310    5.8010 N   0  0  0  0  0
   -8.1170   -7.0530    5.6290 C   0  0  0  0  0
   -8.0370   -7.7360    6.9820 C   0  0  0  0  0
   -7.1780   -7.4000    7.7810 O   0  0  0  0  0
   -6.7160   -6.9780    4.9930 C   0  0  0  0  0
   -6.6710   -6.2150    3.7660 O   0  0  0  0  0
   -5.2964    9.4799   13.2842 H   0  0  0  0  0
   -6.9427    9.5696   13.0422 H   0  0  0  0  0
   -6.3371    8.7320   14.3494 H   0  0  0  0  0
   -5.3165    7.1080   12.9227 H   0  0  0  0  0
   -8.2530    7.5329   12.2053 H   0  0  0  0  0
   -7.7890    7.6252   14.5117 H   0  0  0  0  0
   -6.5196    5.0383   12.4039 H   0  0  0  0  0
   -8.2676    5.0695   12.0651 H   0  0  0  0  0
   -7.1222    5.7786   10.9006 H   0  0  0  0  0
   -4.2150    6.8559   11.0419 H   0  0  0  0  0
   -4.6498    8.8706    8.9558 H   0  0  0  0  0
   -2.3549    7.9708    9.5854 H   0  0  0  0  0
   -2.7052    7.8422    7.8424 H   0  0  0  0  0
   -1.8515    5.8664    8.7280 H   0  0  0  0  0
   -4.9230    8.3242    6.6353 H   0  0  0  0  0
   -7.0440    6.6431    6.0649 H   0  0  0  0  0
   -4.6877    7.4050    4.3216 H   0  0  0  0  0
   -6.3119    8.1926    4.4158 H   0  0  0  0  0
   -8.3040    7.0547    3.5096 H   0  0  0  0  0
   -4.3484    5.4155    3.0201 H   0  0  0  0  0
   -9.1385    5.4665    1.7890 H   0  0  0  0  0
   -5.1926    3.8633    1.2839 H   0  0  0  0  0
   -7.5968    3.8879    0.6549 H   0  0  0  0  0
   -3.5417    5.7509    6.0574 H   0  0  0  0  0
   -4.0459    3.1341    4.9360 H   0  0  0  0  0
   -1.8388    4.1677    4.9713 H   0  0  0  0  0
   -1.8151    4.0672    6.7491 H   0  0  0  0  0
   -1.8271    2.5778    5.7732 H   0  0  0  0  0
   -3.9967    4.4179    8.2997 H   0  0  0  0  0
   -4.2383    1.8492    9.5526 H   0  0  0  0  0
   -5.3343    3.1428   11.4372 H   0  0  0  0  0
   -5.0376    4.6065   10.4246 H   0  0  0  0  0
   -2.6388    4.0265   10.3637 H   0  0  0  0  0
   -2.9709    2.6467   11.4677 H   0  0  0  0  0
   -2.8874    3.1243   13.4169 H   0  0  0  0  0
   -6.7669    4.1642    8.4293 H   0  0  0  0  0
   -8.9152    2.4765    9.2968 H   0  0  0  0  0
  -10.1536    3.6420    7.3372 H   0  0  0  0  0
   -8.5949    4.5614    7.1363 H   0  0  0  0  0
  -11.0135    3.6255    9.8791 H   0  0  0  0  0
   -8.5527    6.6465    8.0895 H   0  0  0  0  0
  -11.7505    5.2662   11.6316 H   0  0  0  0  0
   -9.2612    8.2737    9.8332 H   0  0  0  0  0
  -10.5721    8.6267   11.5937 H   0  0  0  0  0
   -7.0338    2.6735    6.2759 H   0  0  0  0  0
   -8.8377    0.9860    4.7646 H   0  0  0  0  0
   -5.8562    1.3808    4.2527 H   0  0  0  0  0
   -7.1172    2.6038    3.8176 H   0  0  0  0  0
   -5.3991   -0.5098    2.4805 H   0  0  0  0  0
   -9.5372    2.5780    2.6457 H   0  0  0  0  0
   -8.8954   -0.6869   -1.1280 H   0  0  0  0  0
  -11.2567    2.3570    0.8475 H   0  0  0  0  0
  -10.9422    0.7078   -1.0063 H   0  0  0  0  0
   -5.9690    0.3204    6.7634 H   0  0  0  0  0
   -5.7297   -2.4149    5.8232 H   0  0  0  0  0
   -4.2771   -2.6178    7.9118 H   0  0  0  0  0
   -4.5429   -0.8380    8.0745 H   0  0  0  0  0
   -1.5854   -0.5150    6.1365 H   0  0  0  0  0
   -2.3480   -0.3007    7.7157 H   0  0  0  0  0
   -7.8835   -0.9581    8.1013 H   0  0  0  0  0
   -8.4031   -3.4338    9.4902 H   0  0  0  0  0
  -10.6265   -2.3445   10.0461 H   0  0  0  0  0
  -10.1293   -0.9745    8.9909 H   0  0  0  0  0
   -8.0490   -0.8149   10.4382 H   0  0  0  0  0
   -9.9482    0.7538   10.5842 H   0  0  0  0  0
  -10.7739   -0.3457   11.7157 H   0  0  0  0  0
   -9.2530    0.4470   12.1946 H   0  0  0  0  0
   -9.7183   -2.5518   12.2251 H   0  0  0  0  0
   -8.1848   -2.9969   11.4369 H   0  0  0  0  0
   -8.2119   -1.7133   12.6708 H   0  0  0  0  0
   -9.0433   -2.5846    6.2064 H   0  0  0  0  0
  -11.4639   -4.1195    5.9522 H   0  0  0  0  0
  -10.7956   -4.2315    3.4935 H   0  0  0  0  0
   -9.3549   -3.2077    4.0020 H   0  0  0  0  0
  -11.1771   -1.6074    4.9043 H   0  0  0  0  0
   -9.6565   -1.1140    3.0785 H   0  0  0  0  0
  -10.7250   -1.9773    1.9453 H   0  0  0  0  0
  -11.2950   -0.4966    2.7538 H   0  0  0  0  0
  -12.7549   -3.2608    2.8757 H   0  0  0  0  0
  -13.0507   -3.2147    4.6311 H   0  0  0  0  0
  -13.3086   -1.7538    3.6461 H   0  0  0  0  0
   -8.1050   -4.9766    6.1851 H   0  0  0  0  0
   -8.7607   -7.6264    4.9619 H   0  0  0  0  0
   -8.7446   -8.5242    7.2392 H   0  0  0  0  0
   -6.4137   -7.9973    4.7527 H   0  0  0  0  0
   -6.0609   -6.4810    5.7085 H   0  0  0  0  0
   -5.7731   -6.2098    3.4265 H   0  0  0  0  0
  1  2  1  0  0  0
  2  3  1  0  0  0
  2  5  1  0  0  0
  3  4  2  0  0  0
  3  8  1  0  0  0
  5  6  1  0  0  0
  5  7  1  0  0  0
  8  9  1  0  0  0
  9 10  1  0  0  0
  9 12  1  0  0  0
 10 11  2  0  0  0
 10 14  1  0  0  0
 12 13  1  0  0  0
 14 15  1  0  0  0
 15 16  1  0  0  0
 15 18  1  0  0  0
 16 17  2  0  0  0
 16 25  1  0  0  0
 18 19  1  0  0  0
 19 20  4  0  0  0
 19 21  4  0  0  0
 20 22  4  0  0  0
 21 23  4  0  0  0
 22 24  4  0  0  0
 23 24  4  0  0  0
 25 26  1  0  0  0
 26 27  1  0  0  0
 26 29  1  0  0  0
 27 28  2  0  0  0
 27 30  1  0  0  0
 30 31  1  0  0  0
 31 32  1  0  0  0
 31 34  1  0  0  0
 32 33  2  0  0  0
 32 39  1  0  0  0
 34 35  1  0  0  0
 35 36  1  0  0  0
 36 37  2  0  0  0
 36 38  1  0  0  0
 39 40  1  0  0  0
 40 41  1  0  0  0
 40 43  1  0  0  0
 41 42  2  0  0  0
 41 51  1  0  0  0
 43 44  1  0  0  0
 44 45  4  0  0  0
 44 46  4  0  0  0
 45 47  4  0  0  0
 46 48  4  0  0  0
 47 49  4  0  0  0
 48 49  4  0  0  0
 49 50  1  0  0  0
 51 52  1  0  0  0
 52 53  1  0  0  0
 52 55  1  0  0  0
 53 54  2  0  0  0
 53 65  1  0  0  0
 55 56  1  0  0  0
 56 57  4  0  0  0
 56 58  4  0  0  0
 57 59  4  0  0  0
 58 60  4  0  0  0
 58 61  4  0  0  0
 59 60  4  0  0  0
 60 62  4  0  0  0
 61 63  4  0  0  0
 62 64  4  0  0  0
 63 64  4  0  0  0
 65 66  1  0  0  0
 66 67  1  0  0  0
 66 69  1  0  0  0
 67 68  2  0  0  0
 67 73  1  0  0  0
 69 70  1  0  0  0
 70 71  2  0  0  0
 70 72  1  0  0  0
 73 74  1  0  0  0
 74 75  1  0  0  0
 74 77  1  0  0  0
 75 76  2  0  0  0
 75 81  1  0  0  0
 77 78  1  0  0  0
 78 79  1  0  0  0
 78 80  1  0  0  0
 81 82  1  0  0  0
 82 83  1  0  0  0
 82 85  1  0  0  0
 83 84  2  0  0  0
 83 89  1  0  0  0
 85 86  1  0  0  0
 86 87  1  0  0  0
 86 88  1  0  0  0
 89 90  1  0  0  0
 90 91  1  0  0  0
 90 93  1  0  0  0
 91 92  2  0  0  0
 93 94  1  0  0  0
  1 95  1  0  0  0
  1 96  1  0  0  0
  1 97  1  0  0  0
  2 98  1  0  0  0
  5 99  1  0  0  0
  6100  1  0  0  0
  7101  1  0  0  0
  7102  1  0  0  0
  7103  1  0  0  0
  8104  1  0  0  0
  9105  1  0  0  0
 12106  1  0  0  0
 12107  1  0  0  0
 13108  1  0  0  0
 14109  1  0  0  0
 15110  1  0  0  0
 18111  1  0  0  0
 18112  1  0  0  0
 20113  1  0  0  0
 21114  1  0  0  0
 22115  1  0  0  0
 23116  1  0  0  0
 24117  1  0  0  0
 25118  1  0  0  0
 26119  1  0  0  0
 29120  1  0  0  0
 29121  1  0  0  0
 29122  1  0  0  0
 30123  1  0  0  0
 31124  1  0  0  0
 34125  1  0  0  0
 34126  1  0  0  0
 35127  1  0  0  0
 35128  1  0  0  0
 38129  1  0  0  0
 39130  1  0  0  0
 40131  1  0  0  0
 43132  1  0  0  0
 43133  1  0  0  0
 45134  1  0  0  0
 46135  1  0  0  0
 47136  1  0  0  0
 48137  1  0  0  0
 50138  1  0  0  0
 51139  1  0  0  0
 52140  1  0  0  0
 55141  1  0  0  0
 55142  1  0  0  0
 57143  1  0  0  0
 61144  1  0  0  0
 62145  1  0  0  0
 63146  1  0  0  0
 64147  1  0  0  0
 65148  1  0  0  0
 66149  1  0  0  0
 69150  1  0  0  0
 69151  1  0  0  0
 72152  1  0  0  0
 72153  1  0  0  0
 73154  1  0  0  0
 74155  1  0  0  0
 77156  1  0  0  0
 77157  1  0  0  0
 78158  1  0  0  0
 79159  1  0  0  0
 79160  1  0  0  0
 79161  1  0  0  0
 80162  1  0  0  0
 80163  1  0  0  0
 80164  1  0  0  0
 81165  1  0  0  0
 82166  1  0  0  0
 85167  1  0  0  0
 85168  1  0  0  0
 86169  1  0  0  0
 87170  1  0  0  0
 87171  1  0  0  0
 87172  1  0  0  0
 88173  1  0  0  0
 88174  1  0  0  0
 88175  1  0  0  0
 89176  1  0  0  0
 90177  1  0  0  0
 91178  1  0  0  0
 93179  1  0  0  0
 93180  1  0  0  0
 94181  1  0  0  0
M  END
$$$$
