5h08_ligand
  -I-interpret- 

 50 52  0  0  0  0  0  0  0  0999 V2000
   31.7900    2.1840   41.1370 C   0  0  0  0  0
   30.5160    2.3100   41.7610 C   0  0  0  0  0
   30.2610    1.7240   43.0050 C   0  0  0  0  0
   31.3100    0.9840   43.6150 C   0  0  0  0  0
   33.4880   -1.5850   43.0620 N   0  0  0  0  0
   24.1320   -5.9260   46.6990 F   0  0  0  0  0
   24.8920   -6.4090   45.7160 C   0  0  0  0  0
   24.8430   -5.5380   44.7010 F   0  0  0  0  0
   24.4390   -7.6100   45.3750 F   0  0  0  0  0
   26.3310   -6.4720   46.1460 C   0  0  0  0  0
   27.3410   -6.2800   45.1880 C   0  0  0  0  0
   26.6730   -6.7210   47.4840 C   0  0  0  0  0
   28.0100   -6.7570   47.8380 C   0  0  0  0  0
   29.0250   -6.5390   46.8910 C   0  0  0  0  0
   30.3730   -6.5420   47.1920 O   0  0  0  0  0
   30.8460   -6.9380   48.4860 C   0  0  0  0  0
   32.3120   -7.3460   48.4080 C   0  0  0  0  0
   28.6730   -6.2980   45.5660 C   0  0  0  0  0
   29.6880   -6.0910   44.4830 C   0  0  0  0  0
   30.3250   -4.4070   44.2850 S   0  0  0  0  0
   31.6260   -4.6790   43.1520 C   0  0  0  0  0
   31.9280   -5.8310   42.4440 C   0  0  0  0  0
   33.0650   -5.7060   41.6620 C   0  0  0  0  0
   33.7840   -4.1350   41.7680 S   0  0  0  0  0
   32.5120   -3.6720   42.8890 C   0  0  0  0  0
   32.4550   -2.3640   43.4490 C   0  0  0  0  0
   31.6140   -1.9530   44.2460 O   0  0  0  0  0
   33.7890   -0.1040   43.7970 S   0  0  0  0  0
   35.1640    0.2230   43.3790 O   0  0  0  0  0
   33.4360   -0.1350   45.2110 O   0  0  0  0  0
   32.5700    0.8660   42.9900 C   0  0  0  0  0
   32.8370    1.4500   41.7410 C   0  0  0  0  0
   31.9617    2.6635   40.1733 H   0  0  0  0  0
   29.7272    2.8721   41.2611 H   0  0  0  0  0
   29.2908    1.8311   43.4902 H   0  0  0  0  0
   31.1393    0.5016   44.5774 H   0  0  0  0  0
   34.0979   -1.9019   42.3083 H   0  0  0  0  0
   27.0750   -6.1163   44.1437 H   0  0  0  0  0
   25.8976   -6.8835   48.2326 H   0  0  0  0  0
   28.2819   -6.9589   48.8741 H   0  0  0  0  0
   30.2578   -7.7859   48.8369 H   0  0  0  0  0
   30.7452   -6.0993   49.1749 H   0  0  0  0  0
   32.4188   -8.1822   47.7170 H   0  0  0  0  0
   32.9043   -6.5023   48.0537 H   0  0  0  0  0
   32.6579   -7.6443   49.3977 H   0  0  0  0  0
   29.1856   -6.3360   43.5472 H   0  0  0  0  0
   30.5453   -6.7089   44.7502 H   0  0  0  0  0
   31.3322   -6.7422   42.4968 H   0  0  0  0  0
   33.4643   -6.5114   41.0456 H   0  0  0  0  0
   33.8084    1.3423   41.2584 H   0  0  0  0  0
  2  1  4  0  0  0
  1 32  4  0  0  0
  3  2  4  0  0  0
  4  3  4  0  0  0
 31  4  4  0  0  0
  5 26  1  0  0  0
 28  5  1  0  0  0
  7  6  1  0  0  0
  7  8  1  0  0  0
  7  9  1  0  0  0
 10  7  1  0  0  0
 11 10  4  0  0  0
 10 12  4  0  0  0
 18 11  4  0  0  0
 13 12  4  0  0  0
 14 13  4  0  0  0
 14 15  1  0  0  0
 18 14  4  0  0  0
 15 16  1  0  0  0
 16 17  1  0  0  0
 19 18  1  0  0  0
 20 19  1  0  0  0
 21 20  1  0  0  0
 21 22  4  0  0  0
 25 21  4  0  0  0
 23 22  4  0  0  0
 24 23  4  0  0  0
 25 24  4  0  0  0
 26 25  1  0  0  0
 26 27  2  0  0  0
 28 29  2  0  0  0
 28 30  2  0  0  0
 28 31  1  0  0  0
 31 32  4  0  0  0
  1 33  1  0  0  0
  2 34  1  0  0  0
  3 35  1  0  0  0
  4 36  1  0  0  0
  5 37  1  0  0  0
 11 38  1  0  0  0
 12 39  1  0  0  0
 13 40  1  0  0  0
 16 41  1  0  0  0
 16 42  1  0  0  0
 17 43  1  0  0  0
 17 44  1  0  0  0
 17 45  1  0  0  0
 19 46  1  0  0  0
 19 47  1  0  0  0
 22 48  1  0  0  0
 23 49  1  0  0  0
 32 50  1  0  0  0
M  END
$$$$
