4qqi_ligand
  -I-interpret- 

251255  0  0  0  0  0  0  0  0999 V2000
   21.2830   20.8500   29.9760 N   0  3  0  0  0
   20.7640   19.4470   29.9830 C   0  0  0  0  0
   21.5920   18.5520   29.0500 C   0  0  0  0  0
   22.0140   18.9880   27.9730 O   0  0  0  0  0
   19.2890   19.4220   29.5850 C   0  0  0  0  0
   21.8280   17.3070   29.4650 N   0  0  0  0  0
   22.5720   16.3380   28.6740 C   0  0  0  0  0
   21.6730   15.1370   28.4970 C   0  0  0  0  0
   20.9150   14.8010   29.3950 O   0  0  0  0  0
   23.8510   15.9040   29.3870 C   0  0  0  0  0
   24.9000   16.9780   29.4480 C   0  0  0  0  0
   21.7470   14.5090   27.3320 N   0  0  0  0  0
   21.1120   13.2200   27.0880 C   0  0  0  0  0
   22.2220   12.1840   26.8770 C   0  0  0  0  0
   23.2900   12.5170   26.4220 O   0  0  0  0  0
   20.1410   13.2230   25.8670 C   0  0  0  0  0
   18.9480   14.1210   26.1120 C   0  0  0  0  0
   20.8320   13.6460   24.5840 C   0  0  0  0  0
   21.9350   10.9390   27.2110 N   0  0  0  0  0
   22.8960    9.8400   27.1320 C   0  0  0  0  0
   22.8720    9.2120   25.7550 C   0  0  0  0  0
   21.8900    9.3300   25.0500 O   0  0  0  0  0
   22.5540    8.7910   28.2070 C   0  0  0  0  0
   22.8790    9.2620   29.5880 C   0  0  0  0  0
   21.9080    9.6080   30.5080 N   0  0  0  0  0
   24.0730    9.5410   30.1700 C   0  0  0  0  0
   22.4920   10.0420   31.6100 C   0  0  0  0  0
   23.8050   10.0180   31.4270 N   0  0  0  0  0
   23.9620    8.5810   25.3590 N   0  0  0  0  0
   23.9170    7.7160   24.2000 C   0  0  0  0  0
   23.1950    6.4220   24.5830 C   0  0  0  0  0
   23.5790    5.7840   25.5410 O   0  0  0  0  0
   25.3270    7.3730   23.7460 C   0  0  0  0  0
   25.3600    6.4380   22.5420 C   0  0  0  0  0
   24.7630    7.1990   21.0110 S   0  0  0  0  0
   26.1460    8.2320   20.5920 C   0  0  0  0  0
   22.1560    6.0240   23.8390 N   0  0  0  0  0
   21.6150    4.6890   24.1180 C   0  0  0  0  0
   22.6790    3.5950   23.9040 C   0  0  0  0  0
   23.5460    3.7230   23.0280 O   0  0  0  0  0
   20.4670    4.5550   23.0980 C   0  0  0  0  0
   20.0550    5.9710   22.8160 C   0  0  0  0  0
   21.3430    6.7460   22.8420 C   0  0  0  0  0
   22.6440    2.5480   24.7200 N   0  0  0  0  0
   23.5720    1.4370   24.5200 C   0  0  0  0  0
   22.9260    0.4700   23.5280 C   0  0  0  0  0
   21.7040    0.3990   23.4340 O   0  0  0  0  0
   23.9260    0.7340   25.8330 C   0  0  0  0  0
   22.7370    0.2140   26.4080 O   0  0  0  0  0
   24.5450    1.7180   26.7960 C   0  0  0  0  0
   23.7660   -0.2080   22.7560 N   0  0  0  0  0
   23.3370   -1.2350   21.8250 C   0  0  0  0  0
   22.8010   -2.4260   22.6420 C   0  0  0  0  0
   23.2750   -2.7010   23.7340 O   0  0  0  0  0
   24.5070   -1.6690   20.9340 C   0  0  0  0  0
   24.9280   -0.6920   19.8340 C   0  0  0  0  0
   26.1900   -1.1760   19.1540 C   0  0  0  0  0
   23.8380   -0.4800   18.7810 C   0  0  0  0  0
   21.7810   -3.1050   22.1270 N   0  0  0  0  0
   21.1780   -4.1400   22.9420 C   0  0  0  0  0
   22.0970   -5.3270   23.1470 C   0  0  0  0  0
   23.0630   -5.5390   22.3720 O   0  0  0  0  0
   19.9350   -4.5640   22.1450 C   0  0  0  0  0
   20.0510   -3.9520   20.7990 C   0  0  0  0  0
   21.0420   -2.8320   20.8800 C   0  0  0  0  0
   21.7870   -6.0890   24.1920 N   0  0  0  0  0
   22.4740   -7.3400   24.4710 C   0  0  0  0  0
   21.8690   -8.4200   23.5910 C   0  0  0  0  0
   20.7080   -8.7840   23.7510 O   0  0  0  0  0
   22.2860   -7.6920   25.9360 C   0  0  0  0  0
   23.1690   -8.8110   26.3790 C   0  0  0  0  0
   23.5830   -9.6470   25.5970 O   0  0  0  0  0
   23.4490   -8.8400   27.6600 N   0  0  0  0  0
   22.6410   -8.9250   22.6420 N   0  0  0  0  0
   22.0970   -9.9210   21.7180 C   0  0  0  0  0
   22.0280  -11.3250   22.3260 C   0  0  0  0  0
   21.4990  -12.2610   21.7030 O   0  0  0  0  0
   22.9230   -9.9410   20.4490 C   0  0  0  0  0
   22.9230   -8.6030   19.6820 C   0  0  0  0  0
   23.9970   -8.6580   18.6020 C   0  0  0  0  0
   21.5750   -8.2510   19.0790 C   0  0  0  0  0
   22.5740  -11.4820   23.5340 N   0  0  0  0  0
   22.5190  -12.7790   24.2130 C   0  0  0  0  0
   21.1780  -13.0150   24.8960 C   0  0  0  0  0
   20.9460  -14.1010   25.3940 O   0  0  0  0  0
   23.6810  -12.9370   25.1920 C   0  0  0  0  0
   25.0490  -12.8510   24.5020 C   0  0  0  0  0
   25.2090  -13.3010   23.3460 O   0  0  0  0  0
   25.9590  -12.2850   25.1140 O   0  0  0  0  0
   20.2830  -12.0260   24.8950 N   0  0  0  0  0
   19.0000  -12.1450   25.5740 C   0  0  0  0  0
   17.8190  -11.8200   24.6700 C   0  0  0  0  0
   17.9500  -11.0320   23.7220 O   0  0  0  0  0
   18.9710  -11.1900   26.7850 C   0  0  0  0  0
   19.7450  -11.6790   28.0010 C   0  0  0  0  0
   21.1060  -11.4580   28.1090 C   0  0  0  0  0
   19.0910  -12.3160   29.0620 C   0  0  0  0  0
   21.8230  -11.8670   29.2290 C   0  0  0  0  0
   19.7960  -12.7270   30.1960 C   0  0  0  0  0
   21.1700  -12.5000   30.2840 C   0  0  0  0  0
   16.6610  -12.4120   24.9690 N   0  0  0  0  0
   15.4000  -11.9270   24.4340 C   0  0  0  0  0
   15.2540  -10.4680   24.8720 C   0  0  0  0  0
   15.5740  -10.1280   26.0020 O   0  0  0  0  0
   14.1690  -12.7130   24.9360 C   0  0  0  0  0
   14.0860  -14.1230   24.4460 C   0  0  0  0  0
   13.0020  -14.5880   23.7430 N   0  0  0  0  0
   14.9290  -15.1750   24.5730 C   0  0  0  0  0
   13.1860  -15.8580   23.4380 C   0  0  0  0  0
   14.3440  -16.2410   23.9350 N   0  0  0  0  0
   14.7740   -9.6310   23.9610 N   0  0  0  0  0
   14.5810   -8.2050   24.1650 C   0  0  0  0  0
   13.6580   -7.8630   25.3340 C   0  0  0  0  0
   13.9730   -6.9580   26.1190 O   0  0  0  0  0
   13.9960   -7.6020   22.8620 C   0  0  0  0  0
   13.6950   -6.1160   22.8720 C   0  0  0  0  0
   13.1550   -5.6800   21.5210 C   0  0  0  0  0
   13.3110   -4.1700   21.3300 C   0  0  0  0  0
   12.5550   -3.6370   20.1500 N   0  3  0  0  0
   12.5440   -8.5830   25.4830 N   0  0  0  0  0
   11.5190   -8.2450   26.4980 C   0  0  0  0  0
   12.0680   -8.0150   27.9270 C   0  0  0  0  0
   12.3410   -6.8790   28.3470 O   0  0  0  0  0
   10.4330   -9.3360   26.5600 C   0  0  0  0  0
   12.2580   -8.9570   28.7130 O   0  0  0  0  0
   22.2673   20.8485   30.2435 H   0  0  0  0  0
   21.1844   21.2430   29.0399 H   0  0  0  0  0
   20.7499   21.4118   30.6398 H   0  0  0  0  0
   20.8558   19.0542   30.9956 H   0  0  0  0  0
   19.1837   19.7845   28.5625 H   0  0  0  0  0
   18.9137   18.4007   29.6502 H   0  0  0  0  0
   18.7211   20.0629   30.2594 H   0  0  0  0  0
   21.4714   17.0212   30.3769 H   0  0  0  0  0
   22.8593   16.7797   27.7198 H   0  0  0  0  0
   24.2706   15.0690   28.8259 H   0  0  0  0  0
   23.5832   15.6502   30.4127 H   0  0  0  0  0
   25.1753   17.2731   28.4355 H   0  0  0  0  0
   24.5044   17.8405   29.9844 H   0  0  0  0  0
   25.7787   16.5967   29.9683 H   0  0  0  0  0
   22.2707   14.9465   26.5739 H   0  0  0  0  0
   20.4946   12.9781   27.9531 H   0  0  0  0  0
   19.7991   12.1947   25.7499 H   0  0  0  0  0
   18.4027   13.7679   26.9873 H   0  0  0  0  0
   19.2918   15.1410   26.2836 H   0  0  0  0  0
   18.2931   14.0987   25.2410 H   0  0  0  0  0
   21.2301   14.6538   24.7025 H   0  0  0  0  0
   21.6468   12.9553   24.3669 H   0  0  0  0  0
   20.1137   13.6317   23.7642 H   0  0  0  0  0
   20.9924   10.7331   27.5418 H   0  0  0  0  0
   23.8999   10.2260   27.3090 H   0  0  0  0  0
   23.1468    7.8984   28.0073 H   0  0  0  0  0
   21.4822    8.5980   28.1604 H   0  0  0  0  0
   25.0584    9.4105   29.7227 H   0  0  0  0  0
   21.9810   10.3653   32.5169 H   0  0  0  0  0
   24.8361    8.7033   25.8703 H   0  0  0  0  0
   23.3936    8.2249   23.3906 H   0  0  0  0  0
   25.8255    6.8656   24.5719 H   0  0  0  0  0
   25.8157    8.3030   23.4554 H   0  0  0  0  0
   24.7035    5.5969   22.7649 H   0  0  0  0  0
   26.3994    6.1526   22.3799 H   0  0  0  0  0
   26.3209    8.9467   21.3962 H   0  0  0  0  0
   27.0324    7.6125   20.4556 H   0  0  0  0  0
   25.9304    8.7685   19.6680 H   0  0  0  0  0
   21.2872    4.5712   25.1508 H   0  0  0  0  0
   19.6420    3.9566   23.4846 H   0  0  0  0  0
   20.7793    4.0307   22.1949 H   0  0  0  0  0
   19.3380    6.3428   23.5480 H   0  0  0  0  0
   19.5391    6.0653   21.8605 H   0  0  0  0  0
   21.8233    6.7930   21.8647 H   0  0  0  0  0
   21.1958    7.7944   23.1015 H   0  0  0  0  0
   21.9703    2.5193   25.4853 H   0  0  0  0  0
   24.5151    1.8154   24.1256 H   0  0  0  0  0
   24.6360   -0.0685   25.6333 H   0  0  0  0  0
   22.9490   -0.2292   27.2327 H   0  0  0  0  0
   25.4513    2.1340   26.3559 H   0  0  0  0  0
   23.8363    2.5210   26.9986 H   0  0  0  0  0
   24.7928    1.2070   27.7264 H   0  0  0  0  0
   24.7618    0.0031   22.8202 H   0  0  0  0  0
   22.5527   -0.8506   21.1730 H   0  0  0  0  0
   24.1776   -2.5740   20.4235 H   0  0  0  0  0
   25.3683   -1.7685   21.5946 H   0  0  0  0  0
   25.1071    0.2655   20.3230 H   0  0  0  0  0
   26.9914   -1.2510   19.8890 H   0  0  0  0  0
   26.0095   -2.1551   18.7102 H   0  0  0  0  0
   26.4751   -0.4694   18.3746 H   0  0  0  0  0
   23.6011   -1.4331   18.3082 H   0  0  0  0  0
   22.9449   -0.0787   19.2601 H   0  0  0  0  0
   24.1943    0.2223   18.0274 H   0  0  0  0  0
   20.9518   -3.7746   23.9437 H   0  0  0  0  0
   19.0254   -4.2287   22.6432 H   0  0  0  0  0
   19.8774   -5.6499   22.0705 H   0  0  0  0  0
   19.0820   -3.5731   20.4742 H   0  0  0  0  0
   20.3840   -4.6963   20.0757 H   0  0  0  0  0
   21.6969   -2.7938   20.0095 H   0  0  0  0  0
   20.5622   -1.8533   20.8879 H   0  0  0  0  0
   21.0420   -5.7856   24.8191 H   0  0  0  0  0
   23.5404   -7.2514   24.2634 H   0  0  0  0  0
   21.2519   -8.0078   26.0737 H   0  0  0  0  0
   22.5404   -6.8118   26.5265 H   0  0  0  0  0
   24.0356   -9.5844   28.0371 H   0  0  0  0  0
   23.0802   -8.1182   28.2791 H   0  0  0  0  0
   23.6109   -8.6213   22.5550 H   0  0  0  0  0
   21.0713   -9.6278   21.4942 H   0  0  0  0  0
   22.4871  -10.6922   19.7903 H   0  0  0  0  0
   23.9535  -10.1499   20.7363 H   0  0  0  0  0
   23.1390   -7.8112   20.3992 H   0  0  0  0  0
   24.9698   -8.8188   19.0667 H   0  0  0  0  0
   23.7801   -9.4778   17.9171 H   0  0  0  0  0
   24.0065   -7.7167   18.0526 H   0  0  0  0  0
   21.2777   -9.0303   18.3773 H   0  0  0  0  0
   20.8325   -8.1728   19.8731 H   0  0  0  0  0
   21.6504   -7.2981   18.5552 H   0  0  0  0  0
   23.0333  -10.6925   23.9880 H   0  0  0  0  0
   22.6196  -13.5472   23.4463 H   0  0  0  0  0
   23.5993  -13.9209   25.6539 H   0  0  0  0  0
   23.6201  -12.1269   25.9187 H   0  0  0  0  0
   24.3908  -13.7020   23.0438 H   0  0  0  0  0
   20.5039  -11.1599   24.4037 H   0  0  0  0  0
   18.9018  -13.1846   25.8866 H   0  0  0  0  0
   17.9286  -11.0963   27.0896 H   0  0  0  0  0
   19.4386  -10.2587   26.4653 H   0  0  0  0  0
   21.6291  -10.9516   27.2978 H   0  0  0  0  0
   18.0172  -12.4938   29.0027 H   0  0  0  0  0
   22.8976  -11.6918   29.2809 H   0  0  0  0  0
   19.2726  -13.2251   31.0122 H   0  0  0  0  0
   21.7255  -12.8142   31.1676 H   0  0  0  0  0
   16.6610  -13.2234   25.5871 H   0  0  0  0  0
   15.4273  -12.0494   23.3512 H   0  0  0  0  0
   13.2867  -12.1943   24.5610 H   0  0  0  0  0
   14.2430  -12.7585   26.0225 H   0  0  0  0  0
   15.8911  -15.1756   25.0853 H   0  0  0  0  0
   12.4969  -16.4840   22.8711 H   0  0  0  0  0
   14.5220  -10.0166   23.0509 H   0  0  0  0  0
   15.5547   -7.7822   24.4127 H   0  0  0  0  0
   13.0394   -8.1002   22.7046 H   0  0  0  0  0
   14.7577   -7.7481   22.0961 H   0  0  0  0  0
   14.6133   -5.5678   23.0826 H   0  0  0  0  0
   12.9479   -5.9088   23.6382 H   0  0  0  0  0
   12.0956   -5.9315   21.4700 H   0  0  0  0  0
   13.7157   -6.1914   20.7386 H   0  0  0  0  0
   14.3687   -3.9681   21.1607 H   0  0  0  0  0
   12.9141   -3.6837   22.2211 H   0  0  0  0  0
   12.7013   -2.6299   20.0806 H   0  0  0  0  0
   12.8906   -4.0899   19.2999 H   0  0  0  0  0
   11.5606   -3.8298   20.2695 H   0  0  0  0  0
   12.3937   -9.3912   24.8792 H   0  0  0  0  0
   11.1065   -7.2937   26.1619 H   0  0  0  0  0
   12.1569   -6.2328   27.6614 H   0  0  0  0  0
    9.9504   -9.4222   25.5865 H   0  0  0  0  0
   10.8915  -10.2886   26.8253 H   0  0  0  0  0
    9.6914   -9.0663   27.3119 H   0  0  0  0  0
  1  2  1  0  0  0
  2  3  1  0  0  0
  2  5  1  0  0  0
  3  4  2  0  0  0
  3  6  1  0  0  0
  6  7  1  0  0  0
  7  8  1  0  0  0
  7 10  1  0  0  0
  8  9  2  0  0  0
  8 12  1  0  0  0
 10 11  1  0  0  0
 12 13  1  0  0  0
 13 14  1  0  0  0
 13 16  1  0  0  0
 14 15  2  0  0  0
 14 19  1  0  0  0
 16 17  1  0  0  0
 16 18  1  0  0  0
 19 20  1  0  0  0
 20 21  1  0  0  0
 20 23  1  0  0  0
 21 22  2  0  0  0
 21 29  1  0  0  0
 23 24  1  0  0  0
 24 25  4  0  0  0
 24 26  4  0  0  0
 25 27  4  0  0  0
 26 28  4  0  0  0
 27 28  4  0  0  0
 29 30  1  0  0  0
 30 31  1  0  0  0
 30 33  1  0  0  0
 31 32  2  0  0  0
 31 37  1  0  0  0
 33 34  1  0  0  0
 34 35  1  0  0  0
 35 36  1  0  0  0
 37 38  1  0  0  0
 37 43  1  0  0  0
 38 39  1  0  0  0
 38 41  1  0  0  0
 39 40  2  0  0  0
 39 44  1  0  0  0
 41 42  1  0  0  0
 42 43  1  0  0  0
 44 45  1  0  0  0
 45 46  1  0  0  0
 45 48  1  0  0  0
 46 47  2  0  0  0
 46 51  1  0  0  0
 48 49  1  0  0  0
 48 50  1  0  0  0
 51 52  1  0  0  0
 52 53  1  0  0  0
 52 55  1  0  0  0
 53 54  2  0  0  0
 53 59  1  0  0  0
 55 56  1  0  0  0
 56 57  1  0  0  0
 56 58  1  0  0  0
 59 60  1  0  0  0
 59 65  1  0  0  0
 60 61  1  0  0  0
 60 63  1  0  0  0
 61 62  2  0  0  0
 61 66  1  0  0  0
 63 64  1  0  0  0
 64 65  1  0  0  0
 66 67  1  0  0  0
 67 68  1  0  0  0
 67 70  1  0  0  0
 68 69  2  0  0  0
 68 74  1  0  0  0
 70 71  1  0  0  0
 71 72  2  0  0  0
 71 73  1  0  0  0
 74 75  1  0  0  0
 75 76  1  0  0  0
 75 78  1  0  0  0
 76 77  2  0  0  0
 76 82  1  0  0  0
 78 79  1  0  0  0
 79 80  1  0  0  0
 79 81  1  0  0  0
 82 83  1  0  0  0
 83 84  1  0  0  0
 83 86  1  0  0  0
 84 85  2  0  0  0
 84 90  1  0  0  0
 86 87  1  0  0  0
 87 88  1  0  0  0
 87 89  2  0  0  0
 90 91  1  0  0  0
 91 92  1  0  0  0
 91 94  1  0  0  0
 92 93  2  0  0  0
 92101  1  0  0  0
 94 95  1  0  0  0
 95 96  4  0  0  0
 95 97  4  0  0  0
 96 98  4  0  0  0
 97 99  4  0  0  0
 98100  4  0  0  0
 99100  4  0  0  0
101102  1  0  0  0
102103  1  0  0  0
102105  1  0  0  0
103104  2  0  0  0
103111  1  0  0  0
105106  1  0  0  0
106107  4  0  0  0
106108  4  0  0  0
107109  4  0  0  0
108110  4  0  0  0
109110  4  0  0  0
111112  1  0  0  0
112113  1  0  0  0
112115  1  0  0  0
113114  2  0  0  0
113120  1  0  0  0
115116  1  0  0  0
116117  1  0  0  0
117118  1  0  0  0
118119  1  0  0  0
120121  1  0  0  0
121122  1  0  0  0
121124  1  0  0  0
122123  1  0  0  0
122125  2  0  0  0
  1126  1  0  0  0
  1127  1  0  0  0
  1128  1  0  0  0
  2129  1  0  0  0
  5130  1  0  0  0
  5131  1  0  0  0
  5132  1  0  0  0
  6133  1  0  0  0
  7134  1  0  0  0
 10135  1  0  0  0
 10136  1  0  0  0
 11137  1  0  0  0
 11138  1  0  0  0
 11139  1  0  0  0
 12140  1  0  0  0
 13141  1  0  0  0
 16142  1  0  0  0
 17143  1  0  0  0
 17144  1  0  0  0
 17145  1  0  0  0
 18146  1  0  0  0
 18147  1  0  0  0
 18148  1  0  0  0
 19149  1  0  0  0
 20150  1  0  0  0
 23151  1  0  0  0
 23152  1  0  0  0
 26153  1  0  0  0
 27154  1  0  0  0
 29155  1  0  0  0
 30156  1  0  0  0
 33157  1  0  0  0
 33158  1  0  0  0
 34159  1  0  0  0
 34160  1  0  0  0
 36161  1  0  0  0
 36162  1  0  0  0
 36163  1  0  0  0
 38164  1  0  0  0
 41165  1  0  0  0
 41166  1  0  0  0
 42167  1  0  0  0
 42168  1  0  0  0
 43169  1  0  0  0
 43170  1  0  0  0
 44171  1  0  0  0
 45172  1  0  0  0
 48173  1  0  0  0
 49174  1  0  0  0
 50175  1  0  0  0
 50176  1  0  0  0
 50177  1  0  0  0
 51178  1  0  0  0
 52179  1  0  0  0
 55180  1  0  0  0
 55181  1  0  0  0
 56182  1  0  0  0
 57183  1  0  0  0
 57184  1  0  0  0
 57185  1  0  0  0
 58186  1  0  0  0
 58187  1  0  0  0
 58188  1  0  0  0
 60189  1  0  0  0
 63190  1  0  0  0
 63191  1  0  0  0
 64192  1  0  0  0
 64193  1  0  0  0
 65194  1  0  0  0
 65195  1  0  0  0
 66196  1  0  0  0
 67197  1  0  0  0
 70198  1  0  0  0
 70199  1  0  0  0
 73200  1  0  0  0
 73201  1  0  0  0
 74202  1  0  0  0
 75203  1  0  0  0
 78204  1  0  0  0
 78205  1  0  0  0
 79206  1  0  0  0
 80207  1  0  0  0
 80208  1  0  0  0
 80209  1  0  0  0
 81210  1  0  0  0
 81211  1  0  0  0
 81212  1  0  0  0
 82213  1  0  0  0
 83214  1  0  0  0
 86215  1  0  0  0
 86216  1  0  0  0
 88217  1  0  0  0
 90218  1  0  0  0
 91219  1  0  0  0
 94220  1  0  0  0
 94221  1  0  0  0
 96222  1  0  0  0
 97223  1  0  0  0
 98224  1  0  0  0
 99225  1  0  0  0
100226  1  0  0  0
101227  1  0  0  0
102228  1  0  0  0
105229  1  0  0  0
105230  1  0  0  0
108231  1  0  0  0
109232  1  0  0  0
111233  1  0  0  0
112234  1  0  0  0
115235  1  0  0  0
115236  1  0  0  0
116237  1  0  0  0
116238  1  0  0  0
117239  1  0  0  0
117240  1  0  0  0
118241  1  0  0  0
118242  1  0  0  0
119243  1  0  0  0
119244  1  0  0  0
119245  1  0  0  0
120246  1  0  0  0
121247  1  0  0  0
123248  1  0  0  0
124249  1  0  0  0
124250  1  0  0  0
124251  1  0  0  0
M  END
$$$$
