### 
### Created by X-TOOL on Mon Sep 10 21:13:20 2018
### 

@<TRIPOS>MOLECULE
4qqi_ligand
  251   255     1     0     0
SMALL
GAST_HUCK


@<TRIPOS>ATOM
      1 N          21.2830   20.8500   29.9760 N.4       1 ALA         0.2377
      2 CA         20.7640   19.4470   29.9830 C.3       1 ALA         0.0621
      3 C          21.5920   18.5520   29.0500 C.2       1 ALA         0.2264
      4 O          22.0140   18.9880   27.9730 O.2       1 ALA        -0.3907
      5 CB         19.2890   19.4220   29.5850 C.3       1 ALA        -0.0040
      6 N          21.8280   17.3070   29.4650 N.am      1 PHE        -0.2610
      7 CA         22.5720   16.3380   28.6740 C.3       1 PHE         0.1308
      8 C          21.6730   15.1370   28.4970 C.2       1 PHE         0.2039
      9 O          20.9150   14.8010   29.3950 O.2       1 PHE        -0.3944
     10 CB         23.8510   15.9040   29.3870 C.3       1 PHE        -0.0152
     11 CG         24.9000   16.9780   29.4480 C.3       1 PHE        -0.0610
     12 N          21.7470   14.5090   27.3320 N.am      1 VAL        -0.2635
     13 CA         21.1120   13.2200   27.0880 C.3       1 VAL         0.1333
     14 C          22.2220   12.1840   26.8770 C.2       1 VAL         0.2042
     15 O          23.2900   12.5170   26.4220 O.2       1 VAL        -0.3944
     16 CB         20.1410   13.2230   25.8670 C.3       1 VAL        -0.0063
     17 CG1        18.9480   14.1210   26.1120 C.3       1 VAL        -0.0584
     18 CG2        20.8320   13.6460   24.5840 C.3       1 VAL        -0.0584
     19 N          21.9350   10.9390   27.2110 N.am      1 HIS        -0.2625
     20 CA         22.8960    9.8400   27.1320 C.3       1 HIS         0.1369
     21 C          22.8720    9.2120   25.7550 C.2       1 HIS         0.2054
     22 O          21.8900    9.3300   25.0500 O.2       1 HIS        -0.3942
     23 CB         22.5540    8.7910   28.2070 C.3       1 HIS         0.0145
     24 CG         22.8790    9.2620   29.5880 C.2       1 HIS        -0.0027
     25 ND1        21.9080    9.6080   30.5080 N.2       1 HIS        -0.3252
     26 CD2        24.0730    9.5410   30.1700 C.2       1 HIS         0.0291
     27 CE1        22.4920   10.0420   31.6100 C.2       1 HIS         0.0907
     28 NE2        23.8050   10.0180   31.4270 N.pl3     1 HIS        -0.2752
     29 N          23.9620    8.5810   25.3590 N.am      1 MET        -0.2636
     30 CA         23.9170    7.7160   24.2000 C.3       1 MET         0.1319
     31 C          23.1950    6.4220   24.5830 C.2       1 MET         0.2064
     32 O          23.5790    5.7840   25.5410 O.2       1 MET        -0.3942
     33 CB         25.3270    7.3730   23.7460 C.3       1 MET        -0.0034
     34 CG         25.3600    6.4380   22.5420 C.3       1 MET        -0.0024
     35 SD         24.7630    7.1990   21.0110 S.3       1 MET        -0.1639
     36 CE         26.1460    8.2320   20.5920 C.3       1 MET        -0.0181
     37 N          22.1560    6.0240   23.8390 N.am      1 PRO        -0.2498
     38 CA         21.6150    4.6890   24.1180 C.3       1 PRO         0.1338
     39 C          22.6790    3.5950   23.9040 C.2       1 PRO         0.2042
     40 O          23.5460    3.7230   23.0280 O.2       1 PRO        -0.3944
     41 CB         20.4670    4.5550   23.0980 C.3       1 PRO        -0.0104
     42 CG         20.0550    5.9710   22.8160 C.3       1 PRO        -0.0281
     43 CD         21.3430    6.7460   22.8420 C.3       1 PRO         0.0369
     44 N          22.6440    2.5480   24.7200 N.am      1 THR        -0.2613
     45 CA         23.5720    1.4370   24.5200 C.3       1 THR         0.1565
     46 C          22.9260    0.4700   23.5280 C.2       1 THR         0.2065
     47 O          21.7040    0.3990   23.4340 O.2       1 THR        -0.3943
     48 CB         23.9260    0.7340   25.8330 C.3       1 THR         0.0924
     49 OG1        22.7370    0.2140   26.4080 O.3       1 THR        -0.3874
     50 CG2        24.5450    1.7180   26.7960 C.3       1 THR        -0.0346
     51 N          23.7660   -0.2080   22.7560 N.am      1 LEU        -0.2636
     52 CA         23.3370   -1.2350   21.8250 C.3       1 LEU         0.1314
     53 C          22.8010   -2.4260   22.6420 C.2       1 LEU         0.2064
     54 O          23.2750   -2.7010   23.7340 O.2       1 LEU        -0.3942
     55 CB         24.5070   -1.6690   20.9340 C.3       1 LEU        -0.0101
     56 CG         24.9280   -0.6920   19.8340 C.3       1 LEU        -0.0425
     57 CD1        26.1900   -1.1760   19.1540 C.3       1 LEU        -0.0625
     58 CD2        23.8380   -0.4800   18.7810 C.3       1 LEU        -0.0625
     59 N          21.7810   -3.1050   22.1270 N.am      1 PRO        -0.2498
     60 CA         21.1780   -4.1400   22.9420 C.3       1 PRO         0.1338
     61 C          22.0970   -5.3270   23.1470 C.2       1 PRO         0.2042
     62 O          23.0630   -5.5390   22.3720 O.2       1 PRO        -0.3944
     63 CB         19.9350   -4.5640   22.1450 C.3       1 PRO        -0.0104
     64 CG         20.0510   -3.9520   20.7990 C.3       1 PRO        -0.0281
     65 CD         21.0420   -2.8320   20.8800 C.3       1 PRO         0.0369
     66 N          21.7870   -6.0890   24.1920 N.am      1 ASN        -0.2616
     67 CA         22.4740   -7.3400   24.4710 C.3       1 ASN         0.1476
     68 C          21.8690   -8.4200   23.5910 C.2       1 ASN         0.2063
     69 O          20.7080   -8.7840   23.7510 O.2       1 ASN        -0.3942
     70 CB         22.2860   -7.6920   25.9360 C.3       1 ASN         0.0773
     71 CG         23.1690   -8.8110   26.3790 C.2       1 ASN         0.1780
     72 OD1        23.5830   -9.6470   25.5970 O.2       1 ASN        -0.3970
     73 ND2        23.4490   -8.8400   27.6600 N.am      1 ASN        -0.3007
     74 N          22.6410   -8.9250   22.6420 N.am      1 LEU        -0.2636
     75 CA         22.0970   -9.9210   21.7180 C.3       1 LEU         0.1312
     76 C          22.0280  -11.3250   22.3260 C.2       1 LEU         0.2040
     77 O          21.4990  -12.2610   21.7030 O.2       1 LEU        -0.3944
     78 CB         22.9230   -9.9410   20.4490 C.3       1 LEU        -0.0101
     79 CG         22.9230   -8.6030   19.6820 C.3       1 LEU        -0.0425
     80 CD1        23.9970   -8.6580   18.6020 C.3       1 LEU        -0.0625
     81 CD2        21.5750   -8.2510   19.0790 C.3       1 LEU        -0.0625
     82 N          22.5740  -11.4820   23.5340 N.am      1 ASP        -0.2622
     83 CA         22.5190  -12.7790   24.2130 C.3       1 ASP         0.1423
     84 C          21.1780  -13.0150   24.8960 C.2       1 ASP         0.2057
     85 O          20.9460  -14.1010   25.3940 O.2       1 ASP        -0.3943
     86 CB         23.6810  -12.9370   25.1920 C.3       1 ASP         0.0406
     87 CG         25.0490  -12.8510   24.5020 C.2       1 ASP         0.0393
     88 OD1        25.2090  -13.3010   23.3460 O.co2     1 ASP        -0.5688
     89 OD2        25.9590  -12.2850   25.1140 O.co2     1 ASP        -0.5688
     90 N          20.2830  -12.0260   24.8950 N.am      1 PHE        -0.2618
     91 CA         19.0000  -12.1450   25.5740 C.3       1 PHE         0.1404
     92 C          17.8190  -11.8200   24.6700 C.2       1 PHE         0.2060
     93 O          17.9500  -11.0320   23.7220 O.2       1 PHE        -0.3942
     94 CB         18.9710  -11.1900   26.7850 C.3       1 PHE         0.0214
     95 CG         19.7450  -11.6790   28.0010 C.ar      1 PHE        -0.0386
     96 CD1        21.1060  -11.4580   28.1090 C.ar      1 PHE        -0.0601
     97 CD2        19.0910  -12.3160   29.0620 C.ar      1 PHE        -0.0601
     98 CE1        21.8230  -11.8670   29.2290 C.ar      1 PHE        -0.0686
     99 CE2        19.7960  -12.7270   30.1960 C.ar      1 PHE        -0.0686
    100 CZ         21.1700  -12.5000   30.2840 C.ar      1 PHE        -0.0687
    101 N          16.6610  -12.4120   24.9690 N.am      1 HIS        -0.2623
    102 CA         15.4000  -11.9270   24.4340 C.3       1 HIS         0.1369
    103 C          15.2540  -10.4680   24.8720 C.2       1 HIS         0.2054
    104 O          15.5740  -10.1280   26.0020 O.2       1 HIS        -0.3942
    105 CB         14.1690  -12.7130   24.9360 C.3       1 HIS         0.0145
    106 CG         14.0860  -14.1230   24.4460 C.2       1 HIS        -0.0027
    107 ND1        13.0020  -14.5880   23.7430 N.2       1 HIS        -0.3252
    108 CD2        14.9290  -15.1750   24.5730 C.2       1 HIS         0.0291
    109 CE1        13.1860  -15.8580   23.4380 C.2       1 HIS         0.0907
    110 NE2        14.3440  -16.2410   23.9350 N.pl3     1 HIS        -0.2752
    111 N          14.7740   -9.6310   23.9610 N.am      1 LYS        -0.2636
    112 CA         14.5810   -8.2050   24.1650 C.3       1 LYS         0.1309
    113 C          13.6580   -7.8630   25.3340 C.2       1 LYS         0.2033
    114 O          13.9730   -6.9580   26.1190 O.2       1 LYS        -0.3944
    115 CB         13.9960   -7.6020   22.8620 C.3       1 LYS        -0.0122
    116 CG         13.6950   -6.1160   22.8720 C.3       1 LYS        -0.0440
    117 CD         13.1550   -5.6800   21.5210 C.3       1 LYS        -0.0124
    118 CE         13.3110   -4.1700   21.3300 C.3       1 LYS        -0.0354
    119 NZ         12.5550   -3.6370   20.1500 N.4       1 LYS         0.2185
    120 N          12.5440   -8.5830   25.4830 N.am      1 THR        -0.2698
    121 CA         11.5190   -8.2450   26.4980 C.3       1 THR         0.0916
    122 C          12.0680   -8.0150   27.9270 C.2       1 THR         0.0598
    123 O          12.3410   -6.8790   28.3470 O.co2     1 THR        -0.5666
    124 CB         10.4330   -9.3360   26.5600 C.3       1 THR        -0.0300
    125 OXT        12.2580   -8.9570   28.7130 O.co2     1 THR        -0.5666
    126 H1         20.7250   21.4177   30.5944 H         1 ALA         0.2015
    127 H2         21.2323   21.2224   29.0407 H         1 ALA         0.2015
    128 H3         22.2414   20.8553   30.2883 H         1 ALA         0.2015
    129 H4         20.8524   19.0521   31.0058 H         1 ALA         0.1095
    130 H5         18.9240   18.3844   29.5953 H         1 ALA         0.0310
    131 H6         19.1748   19.8408   28.5743 H         1 ALA         0.0310
    132 H7         18.7063   20.0227   30.2989 H         1 ALA         0.0310
    133 H8         21.4784   17.0268   30.3590 H         1 PHE         0.1884
    134 H9         22.8278   16.7713   27.6958 H         1 PHE         0.0800
    135 H10        24.2702   15.0385   28.8530 H         1 PHE         0.0310
    136 H11        23.5934   15.6108   30.4154 H         1 PHE         0.0310
    137 H12        25.7873   16.5944   29.9729 H         1 PHE         0.0232
    138 H13        24.5020   17.8490   29.9891 H         1 PHE         0.0232
    139 H14        25.1788   17.2767   28.4267 H         1 PHE         0.0232
    140 H15        22.2604   14.9380   26.5888 H         1 VAL         0.1883
    141 H16        20.5307   12.9462   27.9808 H         1 VAL         0.0802
    142 H17        19.7741   12.1948   25.7320 H         1 VAL         0.0343
    143 H18        18.2863   14.0993   25.2336 H         1 VAL         0.0234
    144 H19        19.2936   15.1508   26.2853 H         1 VAL         0.0234
    145 H20        18.3968   13.7657   26.9951 H         1 VAL         0.0234
    146 H21        21.6999   12.9948   24.4031 H         1 VAL         0.0234
    147 H22        21.1690   14.6891   24.6757 H         1 VAL         0.0234
    148 H23        20.1281   13.5607   23.7431 H         1 VAL         0.0234
    149 H24        21.0108   10.7371   27.5353 H         1 HIS         0.1885
    150 H25        23.9054   10.2330   27.3235 H         1 HIS         0.0817
    151 H26        23.1280    7.8753   28.0021 H         1 HIS         0.0420
    152 H27        21.4780    8.5688   28.1539 H         1 HIS         0.0420
    153 H28        25.0575    9.4106   29.7231 H         1 HIS         0.0729
    154 H29        21.9814   10.3650   32.5160 H         1 HIS         0.1199
    155 H30        24.5103   10.3107   32.1182 H         1 HIS         0.2361
    156 H31        24.8190    8.7009   25.8602 H         1 MET         0.1883
    157 H32        23.3780    8.2189   23.3836 H         1 MET         0.0800
    158 H33        25.8544    6.8873   24.5802 H         1 MET         0.0320
    159 H34        25.8447    8.3059   23.4783 H         1 MET         0.0320
    160 H35        24.7298    5.5641   22.7638 H         1 MET         0.0378
    161 H36        26.3984    6.1109   22.3849 H         1 MET         0.0378
    162 H37        25.9296    8.7740   19.6596 H         1 MET         0.0340
    163 H38        27.0413    7.6080   20.4540 H         1 MET         0.0340
    164 H39        26.3235    8.9538   21.4029 H         1 MET         0.0340
    165 H40        21.2338    4.6284   25.1481 H         1 PRO         0.0802
    166 H41        19.6302    3.9835   23.5258 H         1 PRO         0.0313
    167 H42        20.8171    4.0608   22.1798 H         1 PRO         0.0313
    168 H43        19.3645    6.3372   23.5900 H         1 PRO         0.0287
    169 H44        19.5742    6.0477   21.8296 H         1 PRO         0.0287
    170 H45        21.8290    6.7350   21.8552 H         1 PRO         0.0524
    171 H46        21.1701    7.7865   23.1540 H         1 PRO         0.0524
    172 H47        21.9835    2.5198   25.4703 H         1 THR         0.1884
    173 H48        24.5024    1.8281   24.0825 H         1 THR         0.0826
    174 H49        24.6342   -0.0841   25.6350 H         1 THR         0.0639
    175 H50        22.3407   -0.4058   25.8069 H         1 THR         0.2101
    176 H51        24.7955    1.2035   27.7354 H         1 THR         0.0257
    177 H52        23.8307    2.5289   27.0013 H         1 THR         0.0257
    178 H53        25.4598    2.1385   26.3531 H         1 THR         0.0257
    179 H54        24.7423   -0.0010   22.8190 H         1 LEU         0.1883
    180 H55        22.5325   -0.8386   21.1881 H         1 LEU         0.0800
    181 H56        24.2249   -2.6156   20.4499 H         1 LEU         0.0315
    182 H57        25.3784   -1.8352   21.5844 H         1 LEU         0.0315
    183 H58        25.1368    0.2784   20.3079 H         1 LEU         0.0298
    184 H59        26.4788   -0.4637   18.3671 H         1 LEU         0.0232
    185 H60        26.0091   -2.1641   18.7057 H         1 LEU         0.0232
    186 H61        26.9996   -1.2521   19.8948 H         1 LEU         0.0232
    187 H62        22.9183   -0.1280   19.2711 H         1 LEU         0.0232
    188 H63        23.6375   -1.4302   18.2643 H         1 LEU         0.0232
    189 H64        24.1746    0.2706   18.0507 H         1 LEU         0.0232
    190 H65        20.8918   -3.7337   23.9233 H         1 PRO         0.0802
    191 H66        19.0244   -4.2039   22.6461 H         1 PRO         0.0313
    192 H67        19.8974   -5.6600   22.0592 H         1 PRO         0.0313
    193 H68        19.0728   -3.5618   20.4814 H         1 PRO         0.0287
    194 H69        20.3978   -4.7049   20.0759 H         1 PRO         0.0287
    195 H70        21.7187   -2.8442   20.0129 H         1 PRO         0.0524
    196 H71        20.5307   -1.8595   20.9325 H         1 PRO         0.0524
    197 H72        21.0566   -5.7916   24.8069 H         1 ASN         0.1885
    198 H73        23.5468   -7.2377   24.2505 H         1 ASN         0.0826
    199 H74        21.2383   -7.9868   26.0952 H         1 ASN         0.0551
    200 H75        22.5132   -6.8033   26.5431 H         1 ASN         0.0551
    201 H76        24.0353   -9.5620   28.0274 H         1 ASN         0.1814
    202 H77        23.0762   -8.1401   28.2693 H         1 ASN         0.1814
    203 H78        23.5918   -8.6273   22.5567 H         1 LEU         0.1883
    204 H79        21.0718   -9.6170   21.4600 H         1 LEU         0.0800
    205 H80        22.5199  -10.7204   19.7856 H         1 LEU         0.0315
    206 H81        23.9614  -10.1873   20.7155 H         1 LEU         0.0315
    207 H82        23.1853   -7.8061   20.3934 H         1 LEU         0.0298
    208 H83        24.0076   -7.7085   18.0468 H         1 LEU         0.0232
    209 H84        23.7792   -9.4849   17.9101 H         1 LEU         0.0232
    210 H85        24.9793   -8.8202   19.0696 H         1 LEU         0.0232
    211 H86        20.8155   -8.2166   19.8739 H         1 LEU         0.0232
    212 H87        21.2949   -9.0132   18.3370 H         1 LEU         0.0232
    213 H88        21.6378   -7.2681   18.5892 H         1 LEU         0.0232
    214 H89        23.0243  -10.7079   23.9791 H         1 ASP         0.1884
    215 H90        22.6314  -13.5554   23.4419 H         1 ASP         0.0819
    216 H91        23.5959  -13.9167   25.6848 H         1 ASP         0.0478
    217 H92        23.6165  -12.1398   25.9472 H         1 ASP         0.0478
    218 H93        20.4995  -11.1768   24.4133 H         1 PHE         0.1885
    219 H94        18.8919  -13.1806   25.9287 H         1 PHE         0.0823
    220 H95        17.9218  -11.0458   27.0823 H         1 PHE         0.0474
    221 H96        19.3991  -10.2264   26.4715 H         1 PHE         0.0474
    222 H97        21.6262  -10.9544   27.3023 H         1 PHE         0.0557
    223 H98        18.0231  -12.4928   29.0030 H         1 PHE         0.0557
    224 H99        22.8917  -11.6927   29.2807 H         1 PHE         0.0599
    225 H100       19.2755  -13.2223   31.0077 H         1 PHE         0.0599
    226 H101       21.7225  -12.8125   31.1627 H         1 PHE         0.0559
    227 H102       16.6610  -13.2075   25.5750 H         1 HIS         0.1885
    228 H103       15.4322  -11.9879   23.3362 H         1 HIS         0.0817
    229 H104       13.2647  -12.1814   24.6050 H         1 HIS         0.0420
    230 H105       14.2005  -12.7336   26.0353 H         1 HIS         0.0420
    231 H106       15.8902  -15.1756   25.0849 H         1 HIS         0.0729
    232 H107       12.4976  -16.4834   22.8716 H         1 HIS         0.1199
    233 H108       14.7455  -17.1864   23.8577 H         1 HIS         0.2361
    234 H109       14.5270  -10.0091   23.0688 H         1 LYS         0.1883
    235 H110       15.5631   -7.7510   24.3633 H         1 LYS         0.0800
    236 H111       13.0564   -8.1304   22.6432 H         1 LYS         0.0312
    237 H112       14.7189   -7.7897   22.0545 H         1 LYS         0.0312
    238 H113       14.6185   -5.5598   23.0906 H         1 LYS         0.0269
    239 H114       12.9458   -5.9024   23.6486 H         1 LYS         0.0269
    240 H115       12.0886   -5.9423   21.4581 H         1 LYS         0.0317
    241 H116       13.7086   -6.2022   20.7267 H         1 LYS         0.0317
    242 H117       14.3786   -3.9448   21.1905 H         1 LYS         0.0813
    243 H118       12.9449   -3.6644   22.2357 H         1 LYS         0.0813
    244 H119       12.6989   -2.6418   20.0805 H         1 LYS         0.1994
    245 H120       11.5720   -3.8270   20.2670 H         1 LYS         0.1994
    246 H121       12.8859   -4.0838   19.3092 H         1 LYS         0.1994
    247 H122       12.3966   -9.3754   24.8910 H         1 THR         0.1875
    248 H123       11.0448   -7.3068   26.1741 H         1 THR         0.0723
    249 H124        9.6839   -9.0650   27.3186 H         1 THR         0.0270
    250 H125       10.8945  -10.2979   26.8277 H         1 THR         0.0270
    251 H126        9.9451   -9.4240   25.5780 H         1 THR         0.0270
@<TRIPOS>BOND
     1    1    2 1  
     2    2    3 1  
     3    2    5 1  
     4    3    4 2  
     5    3    6 am 
     6    6    7 1  
     7    7    8 1  
     8    7   10 1  
     9    8    9 2  
    10    8   12 am 
    11   10   11 1  
    12   12   13 1  
    13   13   14 1  
    14   13   16 1  
    15   14   15 2  
    16   14   19 am 
    17   16   17 1  
    18   16   18 1  
    19   19   20 1  
    20   20   21 1  
    21   20   23 1  
    22   21   22 2  
    23   21   29 am 
    24   23   24 1  
    25   24   25 1  
    26   24   26 2  
    27   25   27 2  
    28   26   28 1  
    29   27   28 1  
    30   29   30 1  
    31   30   31 1  
    32   30   33 1  
    33   31   32 2  
    34   31   37 am 
    35   33   34 1  
    36   34   35 1  
    37   35   36 1  
    38   37   38 1  
    39   37   43 1  
    40   38   39 1  
    41   38   41 1  
    42   39   40 2  
    43   39   44 am 
    44   41   42 1  
    45   42   43 1  
    46   44   45 1  
    47   45   46 1  
    48   45   48 1  
    49   46   47 2  
    50   46   51 am 
    51   48   49 1  
    52   48   50 1  
    53   51   52 1  
    54   52   53 1  
    55   52   55 1  
    56   53   54 2  
    57   53   59 am 
    58   55   56 1  
    59   56   57 1  
    60   56   58 1  
    61   59   60 1  
    62   59   65 1  
    63   60   61 1  
    64   60   63 1  
    65   61   62 2  
    66   61   66 am 
    67   63   64 1  
    68   64   65 1  
    69   66   67 1  
    70   67   68 1  
    71   67   70 1  
    72   68   69 2  
    73   68   74 am 
    74   70   71 1  
    75   71   72 2  
    76   71   73 am 
    77   74   75 1  
    78   75   76 1  
    79   75   78 1  
    80   76   77 2  
    81   76   82 am 
    82   78   79 1  
    83   79   80 1  
    84   79   81 1  
    85   82   83 1  
    86   83   84 1  
    87   83   86 1  
    88   84   85 2  
    89   84   90 am 
    90   86   87 1  
    91   87   88 ar 
    92   87   89 ar 
    93   90   91 1  
    94   91   92 1  
    95   91   94 1  
    96   92   93 2  
    97   92  101 am 
    98   94   95 1  
    99   95   96 ar 
   100   95   97 ar 
   101   96   98 ar 
   102   97   99 ar 
   103   98  100 ar 
   104   99  100 ar 
   105  101  102 1  
   106  102  103 1  
   107  102  105 1  
   108  103  104 2  
   109  103  111 am 
   110  105  106 1  
   111  106  107 1  
   112  106  108 2  
   113  107  109 2  
   114  108  110 1  
   115  109  110 1  
   116  111  112 1  
   117  112  113 1  
   118  112  115 1  
   119  113  114 2  
   120  113  120 am 
   121  115  116 1  
   122  116  117 1  
   123  117  118 1  
   124  118  119 1  
   125  120  121 1  
   126  121  122 1  
   127  121  124 1  
   128  122  123 ar 
   129  122  125 ar 
   130    1  126 1  
   131    1  127 1  
   132    1  128 1  
   133    2  129 1  
   134    5  130 1  
   135    5  131 1  
   136    5  132 1  
   137    6  133 1  
   138    7  134 1  
   139   10  135 1  
   140   10  136 1  
   141   11  137 1  
   142   11  138 1  
   143   11  139 1  
   144   12  140 1  
   145   13  141 1  
   146   16  142 1  
   147   17  143 1  
   148   17  144 1  
   149   17  145 1  
   150   18  146 1  
   151   18  147 1  
   152   18  148 1  
   153   19  149 1  
   154   20  150 1  
   155   23  151 1  
   156   23  152 1  
   157   26  153 1  
   158   27  154 1  
   159   28  155 1  
   160   29  156 1  
   161   30  157 1  
   162   33  158 1  
   163   33  159 1  
   164   34  160 1  
   165   34  161 1  
   166   36  162 1  
   167   36  163 1  
   168   36  164 1  
   169   38  165 1  
   170   41  166 1  
   171   41  167 1  
   172   42  168 1  
   173   42  169 1  
   174   43  170 1  
   175   43  171 1  
   176   44  172 1  
   177   45  173 1  
   178   48  174 1  
   179   49  175 1  
   180   50  176 1  
   181   50  177 1  
   182   50  178 1  
   183   51  179 1  
   184   52  180 1  
   185   55  181 1  
   186   55  182 1  
   187   56  183 1  
   188   57  184 1  
   189   57  185 1  
   190   57  186 1  
   191   58  187 1  
   192   58  188 1  
   193   58  189 1  
   194   60  190 1  
   195   63  191 1  
   196   63  192 1  
   197   64  193 1  
   198   64  194 1  
   199   65  195 1  
   200   65  196 1  
   201   66  197 1  
   202   67  198 1  
   203   70  199 1  
   204   70  200 1  
   205   73  201 1  
   206   73  202 1  
   207   74  203 1  
   208   75  204 1  
   209   78  205 1  
   210   78  206 1  
   211   79  207 1  
   212   80  208 1  
   213   80  209 1  
   214   80  210 1  
   215   81  211 1  
   216   81  212 1  
   217   81  213 1  
   218   82  214 1  
   219   83  215 1  
   220   86  216 1  
   221   86  217 1  
   222   90  218 1  
   223   91  219 1  
   224   94  220 1  
   225   94  221 1  
   226   96  222 1  
   227   97  223 1  
   228   98  224 1  
   229   99  225 1  
   230  100  226 1  
   231  101  227 1  
   232  102  228 1  
   233  105  229 1  
   234  105  230 1  
   235  108  231 1  
   236  109  232 1  
   237  110  233 1  
   238  111  234 1  
   239  112  235 1  
   240  115  236 1  
   241  115  237 1  
   242  116  238 1  
   243  116  239 1  
   244  117  240 1  
   245  117  241 1  
   246  118  242 1  
   247  118  243 1  
   248  119  244 1  
   249  119  245 1  
   250  119  246 1  
   251  120  247 1  
   252  121  248 1  
   253  124  249 1  
   254  124  250 1  
   255  124  251 1  
@<TRIPOS>SUBSTRUCTURE
     1 ALA         1

