6ge0_ligand
  -I-interpret- 

 68 72  0  0  0  0  0  0  0  0999 V2000
   -2.9080   12.0180   47.1850 C   0  0  0  0  0
   -2.5220   11.0510   49.3560 C   0  0  0  0  0
   -2.0960   10.2060   51.5570 C   0  0  0  0  0
   -1.2960    9.2130   51.0190 C   0  0  0  0  0
   -1.0770    9.1370   49.6480 C   0  0  0  0  0
   -1.7080   10.0630   48.8220 C   0  0  0  0  0
   -0.9960    6.7490   48.8670 C   0  0  0  0  0
    1.7150    8.2750   47.5330 C   0  0  0  0  0
    2.0960    8.5570   46.0950 C   0  0  0  0  0
    4.2880    9.8530   46.0620 C   0  0  0  0  0
    8.0370    9.4920   45.3290 C   0  0  0  0  0
    6.8480    7.4330   45.0040 C   0  0  0  0  0
    5.6790    8.0650   45.3750 C   0  0  0  0  0
    4.2910    7.5620   45.4820 C   0  0  0  0  0
    9.3500    7.5030   44.6200 C   0  0  0  0  0
   11.4080    7.6730   43.5930 C   0  0  0  0  0
   13.0470   11.6820   41.1590 C   0  0  0  0  0
   11.0030    5.7780   44.8000 C   0  0  0  0  0
    9.7510    6.2640   45.1240 C   0  0  0  0  0
   -3.1700   11.9890   48.5910 O   0  0  0  0  0
   -2.7170   11.1120   50.7240 C   0  0  0  0  0
   -0.1990    8.0340   49.0730 C   0  0  0  0  0
    0.4210    8.4170   47.8100 N   0  0  0  0  0
    2.5550    7.9400   48.3610 O   0  0  0  0  0
    3.5320    8.6180   45.9010 N   0  0  0  0  0
    5.6800    9.4050   45.7210 C   0  0  0  0  0
    6.8600   10.1120   45.6940 C   0  0  0  0  0
    8.0540    8.1510   44.9540 C   0  0  0  0  0
    3.8610    6.4380   45.2500 O   0  0  0  0  0
   10.2000    8.2200   43.8750 N   0  0  0  0  0
   12.2660    8.3680   42.8220 N   0  0  0  0  0
   11.9980    9.6480   42.1970 C   0  0  0  0  0
   13.2930   10.4290   41.9820 C   0  0  0  0  0
   12.4210   11.3730   39.8990 O   0  0  0  0  0
   11.1320   10.7730   40.1200 C   0  0  0  0  0
   11.2690    9.4530   40.8650 C   0  0  0  0  0
   11.8440    6.4720   44.0260 N   0  0  0  0  0
    8.7060    5.3280   46.1460 Cl  0  0  0  0  0
   -1.8471   12.2045   47.0182 H   0  0  0  0  0
   -3.1832   11.0592   46.7456 H   0  0  0  0  0
   -3.4948   12.8123   46.7237 H   0  0  0  0  0
   -2.2346   10.2715   52.6362 H   0  0  0  0  0
   -0.8313    8.4805   51.6790 H   0  0  0  0  0
   -1.5607   10.0110   47.7432 H   0  0  0  0  0
   -1.7669    6.9177   48.1151 H   0  0  0  0  0
   -0.3262    5.9574   48.5312 H   0  0  0  0  0
   -1.4622    6.4573   49.8081 H   0  0  0  0  0
    1.6788    9.5260   45.8210 H   0  0  0  0  0
    1.7083    7.7452   45.4796 H   0  0  0  0  0
    4.2033   10.2874   47.0581 H   0  0  0  0  0
    3.9278   10.6678   45.4339 H   0  0  0  0  0
    8.9673   10.0600   45.3342 H   0  0  0  0  0
    6.8355    6.3733   44.7490 H   0  0  0  0  0
   14.0073   12.1575   40.9595 H   0  0  0  0  0
   12.3839   12.3393   41.7215 H   0  0  0  0  0
   11.3125    4.8061   45.1843 H   0  0  0  0  0
   -3.3650   11.8804   51.1456 H   0  0  0  0  0
    0.5912    7.8639   49.8043 H   0  0  0  0  0
   -0.1777    8.8212   47.0899 H   0  0  0  0  0
    6.8649   11.1684   45.9626 H   0  0  0  0  0
   13.1861    7.9572   42.6638 H   0  0  0  0  0
   11.3568   10.2232   42.8649 H   0  0  0  0  0
   13.6882   10.7228   42.9544 H   0  0  0  0  0
   13.9984    9.7934   41.4467 H   0  0  0  0  0
   10.6628   10.5839   39.1545 H   0  0  0  0  0
   10.5266   11.4530   40.7194 H   0  0  0  0  0
   10.2725    9.0598   41.0660 H   0  0  0  0  0
   11.8446    8.7620   40.2492 H   0  0  0  0  0
 20  1  1  0  0  0
  6  2  4  0  0  0
  2 20  1  0  0  0
  2 21  4  0  0  0
  4  3  4  0  0  0
  3 21  4  0  0  0
  5  4  4  0  0  0
  5  6  4  0  0  0
 22  5  1  0  0  0
 22  7  1  0  0  0
  9  8  1  0  0  0
  8 23  1  0  0  0
  8 24  2  0  0  0
 25  9  1  0  0  0
 10 25  1  0  0  0
 26 10  1  0  0  0
 11 27  4  0  0  0
 28 11  4  0  0  0
 12 13  4  0  0  0
 28 12  4  0  0  0
 13 14  1  0  0  0
 13 26  4  0  0  0
 14 25  1  0  0  0
 14 29  2  0  0  0
 15 19  4  0  0  0
 15 28  1  0  0  0
 30 15  4  0  0  0
 16 30  4  0  0  0
 31 16  1  0  0  0
 16 37  4  0  0  0
 33 17  1  0  0  0
 17 34  1  0  0  0
 18 19  4  0  0  0
 37 18  4  0  0  0
 19 38  1  0  0  0
 23 22  1  0  0  0
 27 26  4  0  0  0
 32 31  1  0  0  0
 32 33  1  0  0  0
 32 36  1  0  0  0
 34 35  1  0  0  0
 35 36  1  0  0  0
  1 39  1  0  0  0
  1 40  1  0  0  0
  1 41  1  0  0  0
  3 42  1  0  0  0
  4 43  1  0  0  0
  6 44  1  0  0  0
  7 45  1  0  0  0
  7 46  1  0  0  0
  7 47  1  0  0  0
  9 48  1  0  0  0
  9 49  1  0  0  0
 10 50  1  0  0  0
 10 51  1  0  0  0
 11 52  1  0  0  0
 12 53  1  0  0  0
 17 54  1  0  0  0
 17 55  1  0  0  0
 18 56  1  0  0  0
 21 57  1  0  0  0
 22 58  1  0  0  0
 23 59  1  0  0  0
 27 60  1  0  0  0
 31 61  1  0  0  0
 32 62  1  0  0  0
 33 63  1  0  0  0
 33 64  1  0  0  0
 35 65  1  0  0  0
 35 66  1  0  0  0
 36 67  1  0  0  0
 36 68  1  0  0  0
M  END
$$$$
