4ob1_ligand

Created by X-TOOL on Fri Nov 18 17:46:03 2016
 21 20  0  0  0  0  0  0  0  0999 V2000
    8.6070   34.2520   21.0540  C 0  0  0  4  0  4
    8.4900   34.7210   19.6230  C 0  0  0  3  0  4
    9.5940   34.2330   18.7260  C 0  0  0  3  0  4
    9.2100   34.3650   17.2680  C 0  0  0  4  0  5
    9.7650   35.7940   16.6310  B 0  0  0  1  0  3
    9.9550   36.9480   17.4430  O 0  0  0  3  0  3
    9.6070   36.0750   15.2440  O 0  0  0  3  0  3
    7.7659   34.6504   21.6403  H 0  0  0  1  0  1
    9.5546   34.6115   21.4814  H 0  0  0  1  0  1
    8.5856   33.1526   21.0825  H 0  0  0  1  0  1
    8.5011   35.8209   19.6177  H 0  0  0  1  0  1
    7.5321   34.3620   19.2188  H 0  0  0  1  0  1
    9.7975   33.1754   18.9495  H 0  0  0  1  0  1
   10.4995   34.8284   18.9143  H 0  0  0  1  0  1
    9.8497   35.1198   16.7873  H 0  0  0  1  0  1
    8.1573   34.6749   17.1927  H 0  0  0  1  0  1
    9.3440   33.3963   16.7644  H 0  0  0  1  0  1
   10.7371   37.4074   17.1605  H 0  0  0  1  0  1
   10.7371   37.4074   17.1605  H 0  0  0  1  0  1
    9.4856   35.2613   14.7690  H 0  0  0  1  0  1
    9.4856   35.2613   14.7690  H 0  0  0  1  0  1
  1  2  1  0  0  2
  2  3  1  0  0  2
  3  4  1  0  0  2
  4  5  1  0  0  2
  5  6  1  0  0  2
  5  7  1  0  0  2
  1  8  1  0  0  2
  1  9  1  0  0  2
  1 10  1  0  0  2
  2 11  1  0  0  2
  2 12  1  0  0  2
  3 13  1  0  0  2
  3 14  1  0  0  2
  4 15  1  0  0  2
  4 16  1  0  0  2
  4 17  1  0  0  2
  6 18  1  0  0  2
  6 19  1  0  0  2
  7 20  1  0  0  2
  7 21  1  0  0  2
M  END
> <MOLECULAR_FORMULA>
C4H14O2B

> <MOLECULAR_WEIGHT>
104.9

> <NUM_HB_ATOMS>
2  

> <NUM_ROTOR>
3  

> <XLOGP2>
0.86 

$$$$
