#	Name:			4ob1_ligand
#	Creating user name:	wangrx
#	Creation time:		Thu Aug  5 16:46:17 2021

#	Modifying user name:	wangrx
#	Modification time:	Thu Aug  5 16:46:42 2021

@<TRIPOS>MOLECULE
4ob1_ligand
   20    19     1     0     0
SMALL
GAST_HUCK


@<TRIPOS>ATOM
      1 C1          8.6070   34.2520   21.0540 C.3       1 BUB        -0.0676 
      2 C2          8.4900   34.7210   19.6230 C.3       1 BUB        -0.0831 
      3 C6          9.5940   34.2330   18.7260 C.3       1 BUB        -0.1829 
      4 C9          9.2100   34.3650   17.2680 C.3       1 BUB        -0.3457 
      5 B12         9.7650   35.7940   16.6310 B         1 BUB         3.0000 
      6 O15         9.9550   36.9480   17.4430 O.3       1 BUB        -0.4105 
      7 O16         9.6070   36.0750   15.2440 O.3       1 BUB        -0.4105 
      8 H1          7.7659   34.6504   21.6403 H         1 BUB         0.0229 
      9 H2          9.5546   34.6115   21.4814 H         1 BUB         0.0229 
     10 H3          8.5856   33.1526   21.0825 H         1 BUB         0.0229 
     11 H4          8.5011   35.8209   19.6177 H         1 BUB         0.0238 
     12 H5          7.5321   34.3620   19.2188 H         1 BUB         0.0238 
     13 H6          9.7975   33.1754   18.9495 H         1 BUB        -0.0084 
     14 H7         10.4995   34.8284   18.9143 H         1 BUB        -0.0084 
     15 H9          8.1573   34.6749   17.1927 H         1 BUB        -0.2101 
     16 H10         9.3440   33.3963   16.7644 H         1 BUB        -0.2101 
     17 H11        10.7371   37.4074   17.1605 H         1 BUB         0.2052 
     18 H12        10.7371   37.4074   17.1605 H         1 BUB         0.2052 
     19 H13         9.4856   35.2613   14.7690 H         1 BUB         0.2052 
     20 H14         9.4856   35.2613   14.7690 H         1 BUB         0.2052 
@<TRIPOS>BOND
     1    1    2 1    
     2    2    3 1    
     3    3    4 1    
     4    4    5 1    
     5    5    6 1    
     6    5    7 1    
     7    1    8 1    
     8    1    9 1    
     9    1   10 1    
    10    2   11 1    
    11    2   12 1    
    12    3   13 1    
    13    3   14 1    
    14    4   15 1    
    15    4   16 1    
    16    6   17 1    
    17    6   18 1    
    18    7   19 1    
    19    7   20 1    
@<TRIPOS>SUBSTRUCTURE
     1 BUB         1 PERM              0 ****  ****    0 ROOT 
