4yk0_ligand
  -I-interpret- 

 25 26  0  0  0  0  0  0  0  0999 V2000
  -31.7800    4.1330  -37.7770 C   0  0  0  0  0
  -31.7560    3.0540  -38.8380 C   0  0  0  0  0
  -32.6040    3.4760  -40.0370 C   0  0  0  0  0
  -34.0740    3.6440  -39.6780 C   0  0  0  0  0
  -34.5400    4.7740  -39.4920 O   0  0  0  0  0
  -34.8520    2.5830  -39.5140 N   0  0  0  0  0
  -34.4110    1.3260  -39.5660 C   0  0  0  0  0
  -35.2470    0.3990  -40.2030 C   0  0  0  0  0
  -34.7880   -0.9400  -40.2590 C   0  0  0  0  0
  -33.5520   -1.2870  -39.7130 C   0  0  0  0  0
  -32.7420   -0.3390  -39.0970 C   0  0  0  0  0
  -33.1650    0.9720  -39.0210 C   0  0  0  0  0
  -32.2840    1.7850  -38.3710 N   0  0  0  0  0
  -32.8075    4.3006  -37.4543 H   0  0  0  0  0
  -31.1774    3.8170  -36.9255 H   0  0  0  0  0
  -31.3723    5.0558  -38.1898 H   0  0  0  0  0
  -30.7072    2.9250  -39.1052 H   0  0  0  0  0
  -32.5289    2.6958  -40.7944 H   0  0  0  0  0
  -32.2316    4.4370  -40.3919 H   0  0  0  0  0
  -35.8448    2.7373  -39.3380 H   0  0  0  0  0
  -36.2036    0.6939  -40.6343 H   0  0  0  0  0
  -35.4047   -1.7043  -40.7319 H   0  0  0  0  0
  -33.2144   -2.3218  -39.7703 H   0  0  0  0  0
  -31.7792   -0.6299  -38.6770 H   0  0  0  0  0
  -31.9609    1.4668  -37.4573 H   0  0  0  0  0
  1  2  1  0  0  0
  2  3  1  0  0  0
  2 13  1  0  0  0
  3  4  1  0  0  0
  4  5  2  0  0  0
  4  6  1  0  0  0
  6  7  1  0  0  0
  7  8  4  0  0  0
  7 12  4  0  0  0
  8  9  4  0  0  0
  9 10  4  0  0  0
 10 11  4  0  0  0
 11 12  4  0  0  0
 12 13  1  0  0  0
  1 14  1  0  0  0
  1 15  1  0  0  0
  1 16  1  0  0  0
  2 17  1  0  0  0
  3 18  1  0  0  0
  3 19  1  0  0  0
  6 20  1  0  0  0
  8 21  1  0  0  0
  9 22  1  0  0  0
 10 23  1  0  0  0
 11 24  1  0  0  0
 13 25  1  0  0  0
M  END
$$$$
