1b2i_ligand
  -I-interpret- 

 27 27  0  0  0  0  0  0  0  0999 V2000
    5.6330   -0.3560   -9.0440 C   0  0  0  0  0
    5.0730    0.7890   -9.8920 C   0  0  0  0  0
    3.9840    0.2530  -10.8180 C   0  0  0  0  0
    2.7720   -0.3120  -10.0490 C   0  0  0  0  0
    3.2750   -1.3200   -9.0140 C   0  0  0  0  0
    4.4740   -0.8420   -8.1730 C   0  0  0  0  0
    1.7660   -0.9960  -11.0170 C   0  0  0  0  0
    6.8660    0.0820   -8.2090 C   0  0  0  0  0
    2.4750   -1.7890  -12.0240 N   0  3  0  0  0
    7.4630    1.1180   -8.4980 O   0  0  0  0  0
    7.2650   -0.6270   -7.2870 O   0  0  0  0  0
    6.0069   -1.1644   -9.6724 H   0  0  0  0  0
    5.8747    1.2243  -10.4886 H   0  0  0  0  0
    4.6501    1.5516   -9.2380 H   0  0  0  0  0
    4.4143   -0.5577  -11.4059 H   0  0  0  0  0
    3.6325    1.0803  -11.4346 H   0  0  0  0  0
    2.2501    0.5061   -9.5525 H   0  0  0  0  0
    3.6069   -2.1997   -9.5655 H   0  0  0  0  0
    2.4532   -1.4967   -8.3201 H   0  0  0  0  0
    4.1429   -0.0088   -7.5531 H   0  0  0  0  0
    4.8272   -1.6835   -7.5769 H   0  0  0  0  0
    1.1827   -0.2257  -11.5214 H   0  0  0  0  0
    1.1164   -1.6558  -10.4419 H   0  0  0  0  0
    1.7979   -2.2283  -12.6476 H   0  0  0  0  0
    3.0904   -1.1799  -12.5632 H   0  0  0  0  0
    3.0287   -2.5090  -11.5599 H   0  0  0  0  0
    7.0209    1.5458   -9.2349 H   0  0  0  0  0
  1  2  1  0  0  0
  1  6  1  0  0  0
  1  8  1  0  0  0
  2  3  1  0  0  0
  3  4  1  0  0  0
  4  5  1  0  0  0
  4  7  1  0  0  0
  5  6  1  0  0  0
  7  9  1  0  0  0
  8 10  1  0  0  0
  8 11  2  0  0  0
  1 12  1  0  0  0
  2 13  1  0  0  0
  2 14  1  0  0  0
  3 15  1  0  0  0
  3 16  1  0  0  0
  4 17  1  0  0  0
  5 18  1  0  0  0
  5 19  1  0  0  0
  6 20  1  0  0  0
  6 21  1  0  0  0
  7 22  1  0  0  0
  7 23  1  0  0  0
  9 24  1  0  0  0
  9 25  1  0  0  0
  9 26  1  0  0  0
 10 27  1  0  0  0
M  END
$$$$
