6ary_ligand
  -I-interpret- 

 31 31  0  0  0  0  0  0  0  0999 V2000
  -60.0810   57.9020   15.8700 N   0  0  0  0  0
  -57.6830   58.7810   18.6970 C   0  0  0  0  0
  -60.4560   61.1420   14.8030 C   0  0  0  0  0
  -61.9270   60.7930   15.1440 C   0  0  0  0  0
  -62.1120   59.5480   16.0940 C   0  0  0  0  0
  -63.1110   58.4530   15.5540 C   0  0  0  0  0
  -63.2810   57.2420   16.5020 C   0  0  0  0  0
  -59.9850   59.3860   17.5920 C   0  0  0  0  0
  -58.8300   58.6030   17.6960 C   0  0  0  0  0
  -58.9060   57.6770   16.5860 C   0  0  0  0  0
  -57.0950   57.3860   18.9410 C   0  0  0  0  0
  -57.9430   56.5750   19.6650 F   0  0  0  0  0
  -56.0190   57.4250   19.8340 F   0  0  0  0  0
  -60.7380   58.9570   16.5030 N   0  0  0  0  0
  -56.7170   59.5790   18.0710 O   0  0  0  0  0
  -58.0063   59.2351   19.6337 H   0  0  0  0  0
  -59.9146   61.3659   15.7222 H   0  0  0  0  0
  -59.9893   60.2936   14.3024 H   0  0  0  0  0
  -60.4332   62.0110   14.1455 H   0  0  0  0  0
  -62.4189   60.5472   14.2029 H   0  0  0  0  0
  -62.3418   61.6539   15.6683 H   0  0  0  0  0
  -62.6004   59.9251   16.9925 H   0  0  0  0  0
  -62.7047   58.0767   14.6152 H   0  0  0  0  0
  -64.0878   58.9258   15.4519 H   0  0  0  0  0
  -62.3155   56.7572   16.6468 H   0  0  0  0  0
  -63.6644   57.5854   17.4628 H   0  0  0  0  0
  -63.9825   56.5333   16.0618 H   0  0  0  0  0
  -60.2532   60.2045   18.2599 H   0  0  0  0  0
  -58.1592   56.9200   16.3466 H   0  0  0  0  0
  -56.8653   57.0359   17.9346 H   0  0  0  0  0
  -55.9785   59.7140   18.6693 H   0  0  0  0  0
  1 10  4  0  0  0
 14  1  4  0  0  0
  9  2  1  0  0  0
  2 11  1  0  0  0
  2 15  1  0  0  0
  4  3  1  0  0  0
  5  4  1  0  0  0
  5  6  1  0  0  0
 14  5  1  0  0  0
  6  7  1  0  0  0
  8  9  4  0  0  0
  8 14  4  0  0  0
  9 10  4  0  0  0
 11 12  1  0  0  0
 11 13  1  0  0  0
  2 16  1  0  0  0
  3 17  1  0  0  0
  3 18  1  0  0  0
  3 19  1  0  0  0
  4 20  1  0  0  0
  4 21  1  0  0  0
  5 22  1  0  0  0
  6 23  1  0  0  0
  6 24  1  0  0  0
  7 25  1  0  0  0
  7 26  1  0  0  0
  7 27  1  0  0  0
  8 28  1  0  0  0
 10 29  1  0  0  0
 11 30  1  0  0  0
 15 31  1  0  0  0
M  END
$$$$
