1vru_ligand
  -I-interpret- 

 39 40  0  0  0  0  0  0  0  0999 V2000
    1.3940  -39.5760   22.0630 C   0  0  0  0  0
    1.4470  -38.0900   22.2840 C   0  0  0  0  0
    0.3870  -40.0320   21.5120 O   0  0  0  0  0
    2.4110  -40.3380   22.4690 N   0  0  0  0  0
    0.5470  -37.2830   21.3060 C   0  0  0  0  0
    0.7670  -37.3320   19.9340 C   0  0  0  0  0
   -0.0520  -36.5780   19.0820 C   0  0  0  0  0
   -1.0760  -35.7550   19.6090 C   0  0  0  0  0
   -1.2820  -35.7070   20.9710 C   0  0  0  0  0
   -0.4750  -36.4490   21.8140 C   0  0  0  0  0
    2.1020  -38.1980   19.2190 Cl  0  0  0  0  0
   -0.7520  -36.2920   23.4880 Cl  0  0  0  0  0
    2.8180  -37.6390   22.2900 N   0  0  0  0  0
    3.3580  -36.6160   23.0490 C   0  0  0  0  0
    4.6660  -36.1520   22.8150 C   0  0  0  0  0
    5.1620  -35.1660   23.6300 C   0  0  0  0  0
    4.3960  -34.6280   24.6440 C   0  0  0  0  0
    3.1160  -35.0700   24.8690 C   0  0  0  0  0
    2.5950  -36.0620   24.0690 C   0  0  0  0  0
    5.5520  -36.6660   21.6550 C   0  0  0  0  0
    5.1610  -37.5720   20.9000 O   0  0  0  0  0
    6.9130  -36.0400   21.3660 C   0  0  0  0  0
    2.2760  -34.4310   25.9850 C   0  0  0  0  0
    1.0195  -37.8901   23.2665 H   0  0  0  0  0
    2.3792  -41.3479   22.3291 H   0  0  0  0  0
    3.2204  -39.9107   22.9193 H   0  0  0  0  0
    0.1011  -36.6259   18.0039 H   0  0  0  0  0
   -1.6993  -35.1614   18.9402 H   0  0  0  0  0
   -2.0782  -35.0864   21.3822 H   0  0  0  0  0
    3.4595  -38.1284   21.6659 H   0  0  0  0  0
    6.1774  -34.8017   23.4741 H   0  0  0  0  0
    4.8126  -33.8422   25.2742 H   0  0  0  0  0
    1.5775  -36.4148   24.2371 H   0  0  0  0  0
    7.6836  -36.8091   21.4178 H   0  0  0  0  0
    6.9044  -35.5990   20.3692 H   0  0  0  0  0
    7.1199  -35.2662   22.1053 H   0  0  0  0  0
    2.7791  -34.5704   26.9418 H   0  0  0  0  0
    2.1599  -33.3656   25.7859 H   0  0  0  0  0
    1.2950  -34.9051   26.0164 H   0  0  0  0  0
  1  4  1  0  0  0
  1  3  2  0  0  0
  1  2  1  0  0  0
  2 13  1  0  0  0
  2  5  1  0  0  0
  5 10  4  0  0  0
  5  6  4  0  0  0
  6 11  1  0  0  0
  6  7  4  0  0  0
  7  8  4  0  0  0
  8  9  4  0  0  0
  9 10  4  0  0  0
 10 12  1  0  0  0
 13 14  1  0  0  0
 14 19  4  0  0  0
 14 15  4  0  0  0
 15 20  1  0  0  0
 15 16  4  0  0  0
 16 17  4  0  0  0
 17 18  4  0  0  0
 18 23  1  0  0  0
 18 19  4  0  0  0
 20 22  1  0  0  0
 20 21  2  0  0  0
  2 24  1  0  0  0
  4 25  1  0  0  0
  4 26  1  0  0  0
  7 27  1  0  0  0
  8 28  1  0  0  0
  9 29  1  0  0  0
 13 30  1  0  0  0
 16 31  1  0  0  0
 17 32  1  0  0  0
 19 33  1  0  0  0
 22 34  1  0  0  0
 22 35  1  0  0  0
 22 36  1  0  0  0
 23 37  1  0  0  0
 23 38  1  0  0  0
 23 39  1  0  0  0
M  END
$$$$
