5tt7_ligand
  -I-interpret- 

 51 54  0  0  0  0  0  0  0  0999 V2000
    1.6500    0.0920   13.2420 C   0  0  0  0  0
    0.2930   -0.1740   13.4320 C   0  0  0  0  0
   -0.4840    0.6370   14.2790 C   0  0  0  0  0
   -2.7050   -0.5870   14.1850 C   0  0  0  0  0
   -3.2270   -2.6250   13.1490 C   0  0  0  0  0
    0.2180   -4.7320   10.3110 C   0  0  0  0  0
    0.8940   -4.6310   12.7580 C   0  0  0  0  0
   -4.9270   -1.5640   14.3000 C   0  0  0  0  0
    0.1240    1.7210   14.9170 C   0  0  0  0  0
    2.0980    3.1690   15.4380 C   0  0  0  0  0
    1.4740    1.9850   14.7330 C   0  0  0  0  0
    2.2400    1.1740   13.8940 C   0  0  0  0  0
   -1.8570    0.4550   14.5300 N   0  0  0  0  0
   -2.3620   -1.6440   13.4460 N   0  0  0  0  0
   -2.8120   -3.7060   12.3920 N   0  0  0  0  0
   -1.3980   -3.8530   12.0000 C   0  0  0  0  0
   -1.2730   -4.6830   10.7090 C   0  0  0  0  0
    1.0290   -5.4050   11.4320 C   0  0  0  0  0
   -0.5850   -4.4580   13.1700 C   0  0  0  0  0
   -1.1310   -5.7630   13.6080 N   0  3  0  0  0
   -4.4960   -2.5870   13.5720 N   0  0  0  0  0
   -6.2380   -1.2020   14.9440 C   0  0  0  0  0
   -5.9980    0.0590   15.6730 N   0  0  0  0  0
   -4.7340    0.4610   15.4580 C   0  0  0  0  0
   -4.2010    1.4580   15.9240 O   0  0  0  0  0
   -4.0430   -0.5130   14.6260 C   0  0  0  0  0
    2.2458   -0.5434   12.5868 H   0  0  0  0  0
   -0.1688   -1.0178   12.9194 H   0  0  0  0  0
    0.5855   -3.7174   10.1569 H   0  0  0  0  0
    0.3286   -5.3044    9.3900 H   0  0  0  0  0
    1.3315   -3.6416   12.6245 H   0  0  0  0  0
    1.4044   -5.1951   13.5386 H   0  0  0  0  0
   -0.4681    2.3661   15.5661 H   0  0  0  0  0
    1.5967    4.0839   15.1221 H   0  0  0  0  0
    1.9893    3.0471   16.5157 H   0  0  0  0  0
    3.1561    3.2261   15.1824 H   0  0  0  0  0
    3.2991    1.3865   13.7486 H   0  0  0  0  0
   -2.3003    1.2123   15.0500 H   0  0  0  0  0
   -3.4916   -4.4091   12.1018 H   0  0  0  0  0
   -0.9806   -2.8698   11.7829 H   0  0  0  0  0
   -1.6507   -5.6921   10.8737 H   0  0  0  0  0
   -1.8594   -4.2268    9.9114 H   0  0  0  0  0
    2.0796   -5.4183   11.1419 H   0  0  0  0  0
    0.6484   -6.4158   11.5785 H   0  0  0  0  0
   -0.6580   -3.7640   14.0073 H   0  0  0  0  0
   -2.1074   -5.6478   13.8798 H   0  0  0  0  0
   -1.0671   -6.4318   12.8405 H   0  0  0  0  0
   -0.5933   -6.1052   14.4044 H   0  0  0  0  0
   -6.5780   -1.9889   15.6172 H   0  0  0  0  0
   -7.0248   -1.0840   14.1990 H   0  0  0  0  0
   -6.6834    0.5479   16.2489 H   0  0  0  0  0
  2  1  4  0  0  0
  1 12  4  0  0  0
  3  2  4  0  0  0
  3  9  4  0  0  0
 13  3  1  0  0  0
  4 13  1  0  0  0
 14  4  4  0  0  0
  4 26  4  0  0  0
  5 14  4  0  0  0
 15  5  1  0  0  0
  5 21  4  0  0  0
 17  6  1  0  0  0
  6 18  1  0  0  0
 18  7  1  0  0  0
  7 19  1  0  0  0
 21  8  4  0  0  0
  8 22  1  0  0  0
  8 26  4  0  0  0
  9 11  4  0  0  0
 11 10  1  0  0  0
 11 12  4  0  0  0
 16 15  1  0  0  0
 16 17  1  0  0  0
 16 19  1  0  0  0
 19 20  1  0  0  0
 22 23  1  0  0  0
 23 24  1  0  0  0
 24 25  2  0  0  0
 24 26  1  0  0  0
  1 27  1  0  0  0
  2 28  1  0  0  0
  6 29  1  0  0  0
  6 30  1  0  0  0
  7 31  1  0  0  0
  7 32  1  0  0  0
  9 33  1  0  0  0
 10 34  1  0  0  0
 10 35  1  0  0  0
 10 36  1  0  0  0
 12 37  1  0  0  0
 13 38  1  0  0  0
 15 39  1  0  0  0
 16 40  1  0  0  0
 17 41  1  0  0  0
 17 42  1  0  0  0
 18 43  1  0  0  0
 18 44  1  0  0  0
 19 45  1  0  0  0
 20 46  1  0  0  0
 20 47  1  0  0  0
 20 48  1  0  0  0
 22 49  1  0  0  0
 22 50  1  0  0  0
 23 51  1  0  0  0
M  END
$$$$
