6n3w_ligand
  -I-interpret- 

 52 55  0  0  0  0  0  0  0  0999 V2000
  -31.9050    4.7060  -24.1190 C   0  0  0  0  0
  -26.7640    5.0210  -32.8540 C   0  0  0  0  0
  -32.8800    8.2640  -24.7750 C   0  0  0  0  0
  -28.6840    5.1780  -31.5140 C   0  0  0  0  0
  -29.5160    4.8840  -32.6850 C   0  0  0  0  0
  -28.8200    4.6840  -33.9650 C   0  0  0  0  0
  -30.7890    5.1490  -30.9420 C   0  0  0  0  0
  -32.0080    8.9310  -25.6350 C   0  0  0  0  0
  -32.3340    9.1050  -26.9810 C   0  0  0  0  0
  -33.5400    8.6150  -27.4720 C   0  0  0  0  0
  -29.4770    4.4330  -35.0070 O   0  0  0  0  0
  -27.4820    4.7790  -33.9630 N   0  0  0  0  0
  -25.4180    5.1030  -32.9560 N   0  0  0  0  0
  -27.3390    5.2350  -31.6440 N   0  0  0  0  0
  -30.7960    4.8830  -32.2750 N   0  0  0  0  0
  -29.5220    5.3100  -30.5000 N   0  0  0  0  0
  -29.1070    5.6590  -29.1460 C   0  0  0  0  0
  -29.4280    4.6010  -28.2830 O   0  0  0  0  0
  -29.8690    6.8610  -28.5960 C   0  0  0  0  0
  -29.3390    8.0920  -29.0530 O   0  0  0  0  0
  -29.7910    6.6360  -27.0800 C   0  0  0  0  0
  -28.7150    7.3780  -26.5080 O   0  0  0  0  0
  -29.5300    5.1280  -26.9430 C   0  0  0  0  0
  -30.5990    4.3970  -26.1960 C   0  0  0  0  0
  -30.7340    4.9670  -24.9040 O   0  0  0  0  0
  -32.5350    3.6850  -24.3320 O   0  0  0  0  0
  -32.1940    5.6150  -23.1900 N   0  0  0  0  0
  -31.5340    6.9140  -23.1840 C   0  0  0  0  0
  -32.5190    8.0770  -23.3190 C   0  0  0  0  0
  -34.4160    7.9580  -26.6100 C   0  0  0  0  0
  -34.0890    7.7850  -25.2650 C   0  0  0  0  0
  -31.6795    5.2221  -30.3177 H   0  0  0  0  0
  -31.0641    9.3197  -25.2529 H   0  0  0  0  0
  -31.6445    9.6242  -27.6467 H   0  0  0  0  0
  -33.7978    8.7440  -28.5232 H   0  0  0  0  0
  -24.9669    4.9818  -33.8628 H   0  0  0  0  0
  -26.7566    5.4390  -30.8318 H   0  0  0  0  0
  -28.0400    5.8758  -29.1960 H   0  0  0  0  0
  -30.9019    6.9337  -28.9364 H   0  0  0  0  0
  -29.8488    8.8160  -28.6821 H   0  0  0  0  0
  -30.6947    6.9617  -26.5648 H   0  0  0  0  0
  -28.6872    7.2210  -25.5613 H   0  0  0  0  0
  -28.6181    4.9853  -26.3631 H   0  0  0  0  0
  -30.3300    3.3445  -26.1065 H   0  0  0  0  0
  -31.5437    4.4786  -26.7336 H   0  0  0  0  0
  -32.8866    5.3991  -22.4730 H   0  0  0  0  0
  -30.8558    6.9489  -24.0366 H   0  0  0  0  0
  -31.0167    7.0223  -22.2307 H   0  0  0  0  0
  -33.4202    7.8587  -22.7460 H   0  0  0  0  0
  -32.0592    8.9890  -22.9383 H   0  0  0  0  0
  -35.3638    7.5764  -26.9896 H   0  0  0  0  0
  -34.7826    7.2735  -24.5976 H   0  0  0  0  0
  1 25  1  0  0  0
  1 26  2  0  0  0
 27  1  1  0  0  0
  2 12  4  0  0  0
  2 13  2  0  0  0
 14  2  1  0  0  0
  3  8  4  0  0  0
 29  3  1  0  0  0
  3 31  4  0  0  0
  4  5  4  0  0  0
  4 14  1  0  0  0
 16  4  4  0  0  0
  5  6  1  0  0  0
 15  5  4  0  0  0
  6 11  2  0  0  0
  6 12  1  0  0  0
  7 15  4  0  0  0
 16  7  4  0  0  0
  8  9  4  0  0  0
  9 10  4  0  0  0
 10 30  4  0  0  0
 17 16  1  0  0  0
 18 17  1  0  0  0
 19 17  1  0  0  0
 23 18  1  0  0  0
 19 20  1  0  0  0
 21 19  1  0  0  0
 21 22  1  0  0  0
 23 21  1  0  0  0
 24 23  1  0  0  0
 25 24  1  0  0  0
 28 27  1  0  0  0
 28 29  1  0  0  0
 30 31  4  0  0  0
  7 32  1  0  0  0
  8 33  1  0  0  0
  9 34  1  0  0  0
 10 35  1  0  0  0
 13 36  1  0  0  0
 14 37  1  0  0  0
 17 38  1  0  0  0
 19 39  1  0  0  0
 20 40  1  0  0  0
 21 41  1  0  0  0
 22 42  1  0  0  0
 23 43  1  0  0  0
 24 44  1  0  0  0
 24 45  1  0  0  0
 27 46  1  0  0  0
 28 47  1  0  0  0
 28 48  1  0  0  0
 29 49  1  0  0  0
 29 50  1  0  0  0
 30 51  1  0  0  0
 31 52  1  0  0  0
M  END
$$$$
