4ts1_ligand
  -I-interpret- 

 25 25  0  0  0  0  0  0  0  0999 V2000
   15.4720    2.5710   27.7220 N   0  3  0  0  0
   14.3700    2.7470   28.6720 C   0  0  0  0  0
   13.6960    1.4030   29.0050 C   0  0  0  0  0
   12.9010    1.4090   29.9760 O   0  0  0  0  0
   13.2860    3.7660   28.1840 C   0  0  0  0  0
   13.8610    5.0950   27.8010 C   0  0  0  0  0
   14.5160    5.9320   28.7800 C   0  0  0  0  0
   13.7710    5.5630   26.5260 C   0  0  0  0  0
   15.0490    7.1460   28.4030 C   0  0  0  0  0
   14.2770    6.8150   26.1290 C   0  0  0  0  0
   14.9270    7.5770   27.0800 C   0  0  0  0  0
   15.4140    8.7930   26.6570 O   0  0  0  0  0
   13.9160    0.4080   28.3030 O   0  0  0  0  0
   16.1397    1.8981   28.0986 H   0  0  0  0  0
   15.1034    2.2263   26.8356 H   0  0  0  0  0
   15.9372    3.4665   27.5730 H   0  0  0  0  0
   14.8271    3.1605   29.5710 H   0  0  0  0  0
   12.8885    2.2832   30.3725 H   0  0  0  0  0
   12.5907    3.9302   29.0072 H   0  0  0  0  0
   12.8083    3.3440   27.2998 H   0  0  0  0  0
   14.5886    5.6033   29.8167 H   0  0  0  0  0
   13.2840    4.9386   25.7769 H   0  0  0  0  0
   15.5642    7.7678   29.1352 H   0  0  0  0  0
   14.1598    7.1712   25.1055 H   0  0  0  0  0
   15.2317    8.9013   25.7207 H   0  0  0  0  0
  2  3  1  0  0  0
  2  5  1  0  0  0
  2  1  1  0  0  0
  5  6  1  0  0  0
  6  8  4  0  0  0
  6  7  4  0  0  0
  7  9  4  0  0  0
  9 11  4  0  0  0
 11 12  1  0  0  0
 11 10  4  0  0  0
 10  8  4  0  0  0
  3 13  2  0  0  0
  3  4  1  0  0  0
  1 14  1  0  0  0
  1 15  1  0  0  0
  1 16  1  0  0  0
  2 17  1  0  0  0
  4 18  1  0  0  0
  5 19  1  0  0  0
  5 20  1  0  0  0
  7 21  1  0  0  0
  8 22  1  0  0  0
  9 23  1  0  0  0
 10 24  1  0  0  0
 12 25  1  0  0  0
M  END
$$$$
