6n92_ligand
  -I-interpret- 

 94 96  0  0  0  0  0  0  0  0999 V2000
   27.0310   21.9620   15.6450 N   0  0  0  0  0
   26.3970   22.9890   15.0370 C   0  0  0  0  0
   25.2140   23.5100   15.4440 N   0  0  0  0  0
   24.6480   22.9540   16.5170 C   0  0  0  0  0
   25.2720   21.8140   17.2340 C   0  0  0  0  0
   26.5220   21.3520   16.7390 C   0  0  0  0  0
   27.1480   20.3420   17.3800 N   0  0  0  0  0
   24.4810   21.4340   18.2580 N   0  0  0  0  0
   23.4080   22.3030   18.2280 C   0  0  0  0  0
   23.5130   23.1630   17.1810 N   0  0  0  0  0
   22.5720   24.2650   16.7970 C   0  0  0  0  0
   21.2180   23.7360   16.4220 C   0  0  0  0  0
   21.1730   23.2500   15.0740 O   0  0  0  0  0
   20.4150   25.0160   16.6490 C   0  0  0  0  0
   20.4600   25.7710   15.4380 O   0  0  0  0  0
   21.1010   25.7170   17.8170 C   0  0  0  0  0
   22.4540   25.2240   17.8770 O   0  0  0  0  0
   20.4580   25.3220   19.1520 C   0  0  0  0  0
   20.1630   23.9290   18.9770 O   0  0  0  0  0
   19.7240   27.2350   13.6660 O   0  0  0  0  0
   19.2530   26.8070   15.0130 P   0  0  0  0  0
   18.0340   25.9320   15.0120 O   0  0  0  0  0
   19.3150   27.8990   16.0390 O   0  0  0  0  0
   18.9020   23.1740   19.5760 P   0  0  0  0  0
   17.6640   23.9860   19.2310 O   0  0  0  0  0
   18.7190   21.7860   19.1330 O   0  0  0  0  0
   18.9770   23.2930   21.1870 O   0  0  0  0  0
   18.4600   22.1850   22.2050 P   0  0  0  0  0
   18.6340   22.9000   23.4930 O   0  0  0  0  0
   17.1010   21.6660   22.0680 O   0  0  0  0  0
   19.3880   20.8380   22.2230 O   0  0  0  0  0
   20.7840   21.0430   22.4130 C   0  0  0  0  0
   21.5290   19.7500   22.0620 C   0  0  0  0  0
   21.1780   18.7130   23.1160 C   0  0  0  0  0
   23.0470   19.9630   22.1720 C   0  0  0  0  0
   21.1300   19.3850   20.6010 C   0  0  0  0  0
   21.2500   20.5220   19.7700 O   0  0  0  0  0
   21.9780   18.3080   20.0370 C   0  0  0  0  0
   21.8030   17.1310   20.3700 O   0  0  0  0  0
   22.9460   18.7350   19.2650 N   0  0  0  0  0
   23.8770   17.8050   18.6500 C   0  0  0  0  0
   24.9380   17.3630   19.6240 C   0  0  0  0  0
   25.8610   16.4000   18.9220 C   0  0  0  0  0
   25.4180   15.2880   18.6320 O   0  0  0  0  0
   27.1090   16.8210   18.6500 N   0  0  0  0  0
   28.0720   15.9870   18.0060 C   0  0  0  0  0
   28.7530   16.6910   16.8450 C   0  0  0  0  0
   29.7260   15.4450   16.0030 S   0  0  0  0  0
   31.1500   15.3690   16.9260 C   0  0  0  0  0
   31.2500   16.0690   17.9370 O   0  0  0  0  0
   32.2440   14.5740   16.3470 C   0  0  0  0  0
   33.6600   14.7410   16.8670 C   0  0  0  0  0
   32.0060   13.7460   15.3700 N   0  0  0  0  0
   32.8780   13.0120   14.9760 O   0  0  0  0  0
   30.8990   13.6270   14.8930 O   0  0  0  0  0
   26.8697   23.4286   14.1587 H   0  0  0  0  0
   28.0495   20.0047   17.0424 H   0  0  0  0  0
   26.7195   19.9163   18.2019 H   0  0  0  0  0
   22.5883   22.2995   18.9465 H   0  0  0  0  0
   22.9870   24.7617   15.9200 H   0  0  0  0  0
   20.8653   22.8660   16.9760 H   0  0  0  0  0
   20.2908   22.9237   14.8820 H   0  0  0  0  0
   19.3637   24.8586   16.8901 H   0  0  0  0  0
   21.0301   26.7945   17.6681 H   0  0  0  0  0
   19.5714   25.9130   19.3818 H   0  0  0  0  0
   21.1117   25.5086   20.0040 H   0  0  0  0  0
   17.8030   25.7059   15.9160 H   0  0  0  0  0
   19.0002   27.5632   16.8815 H   0  0  0  0  0
   17.7862   24.8928   19.5216 H   0  0  0  0  0
   19.5335   23.2293   23.5559 H   0  0  0  0  0
   20.9789   21.3098   23.4517 H   0  0  0  0  0
   21.1282   21.8525   21.7693 H   0  0  0  0  0
   21.4870   19.0746   24.0967 H   0  0  0  0  0
   20.1013   18.5434   23.1126 H   0  0  0  0  0
   21.6948   17.7798   22.8920 H   0  0  0  0  0
   23.3532   20.7495   21.4822 H   0  0  0  0  0
   23.2988   20.2541   23.1918 H   0  0  0  0  0
   23.5619   19.0360   21.9197 H   0  0  0  0  0
   20.0991   19.0326   20.6356 H   0  0  0  0  0
   21.0025   20.2885   18.8723 H   0  0  0  0  0
   23.0476   19.7353   19.0931 H   0  0  0  0  0
   24.3632   18.3054   17.8126 H   0  0  0  0  0
   23.3218   16.9265   18.3212 H   0  0  0  0  0
   24.4753   16.8759   20.4823 H   0  0  0  0  0
   25.5009   18.2267   19.9780 H   0  0  0  0  0
   27.3768   17.7694   18.9131 H   0  0  0  0  0
   27.5554   15.1101   17.6158 H   0  0  0  0  0
   28.8353   15.7219   18.7375 H   0  0  0  0  0
   29.3823   17.5085   17.1968 H   0  0  0  0  0
   28.0202   17.1370   16.1725 H   0  0  0  0  0
   31.9051   13.8170   17.0542 H   0  0  0  0  0
   33.9789   15.7734   16.7238 H   0  0  0  0  0
   33.6873   14.4948   17.9285 H   0  0  0  0  0
   34.3273   14.0742   16.3208 H   0  0  0  0  0
  1  2  4  0  0  0
  1  6  4  0  0  0
  2  3  4  0  0  0
  3  4  4  0  0  0
  4  5  4  0  0  0
  4 10  4  0  0  0
  5  6  4  0  0  0
  5  8  4  0  0  0
  6  7  1  0  0  0
  8  9  4  0  0  0
  9 10  4  0  0  0
 10 11  1  0  0  0
 11 12  1  0  0  0
 11 17  1  0  0  0
 12 13  1  0  0  0
 12 14  1  0  0  0
 14 15  1  0  0  0
 14 16  1  0  0  0
 15 21  1  0  0  0
 16 17  1  0  0  0
 16 18  1  0  0  0
 18 19  1  0  0  0
 19 24  1  0  0  0
 21 20  2  0  0  0
 21 22  1  0  0  0
 21 23  1  0  0  0
 24 25  1  0  0  0
 24 26  2  0  0  0
 24 27  1  0  0  0
 27 28  1  0  0  0
 28 29  1  0  0  0
 28 30  2  0  0  0
 28 31  1  0  0  0
 31 32  1  0  0  0
 32 33  1  0  0  0
 33 34  1  0  0  0
 33 35  1  0  0  0
 33 36  1  0  0  0
 36 37  1  0  0  0
 36 38  1  0  0  0
 38 39  2  0  0  0
 38 40  1  0  0  0
 40 41  1  0  0  0
 41 42  1  0  0  0
 42 43  1  0  0  0
 43 44  2  0  0  0
 43 45  1  0  0  0
 45 46  1  0  0  0
 46 47  1  0  0  0
 47 48  1  0  0  0
 48 49  1  0  0  0
 49 50  2  0  0  0
 49 51  1  0  0  0
 51 52  1  0  0  0
 51 53  1  0  0  0
 53 54  2  0  0  0
 53 55  2  0  0  0
  2 56  1  0  0  0
  7 57  1  0  0  0
  7 58  1  0  0  0
  9 59  1  0  0  0
 11 60  1  0  0  0
 12 61  1  0  0  0
 13 62  1  0  0  0
 14 63  1  0  0  0
 16 64  1  0  0  0
 18 65  1  0  0  0
 18 66  1  0  0  0
 22 67  1  0  0  0
 23 68  1  0  0  0
 25 69  1  0  0  0
 29 70  1  0  0  0
 32 71  1  0  0  0
 32 72  1  0  0  0
 34 73  1  0  0  0
 34 74  1  0  0  0
 34 75  1  0  0  0
 35 76  1  0  0  0
 35 77  1  0  0  0
 35 78  1  0  0  0
 36 79  1  0  0  0
 37 80  1  0  0  0
 40 81  1  0  0  0
 41 82  1  0  0  0
 41 83  1  0  0  0
 42 84  1  0  0  0
 42 85  1  0  0  0
 45 86  1  0  0  0
 46 87  1  0  0  0
 46 88  1  0  0  0
 47 89  1  0  0  0
 47 90  1  0  0  0
 51 91  1  0  0  0
 52 92  1  0  0  0
 52 93  1  0  0  0
 52 94  1  0  0  0
M  END
$$$$
