### 
### Created by X-TOOL on Mon Aug  2 16:10:59 2021
### 

@<TRIPOS>MOLECULE
6n92_ligand
   90    92     1     0     0
SMALL
GAST_HUCK


@<TRIPOS>ATOM
      1 N1         27.0310   21.9620   15.6450 N.ar      1 KFV        -0.2698
      2 C2         26.3970   22.9890   15.0370 C.ar      1 KFV         0.0533
      3 N3         25.2140   23.5100   15.4440 N.ar      1 KFV        -0.2714
      4 C4         24.6480   22.9540   16.5170 C.ar      1 KFV         0.1613
      5 C5         25.2720   21.8140   17.2340 C.ar      1 KFV         0.1045
      6 C6         26.5220   21.3520   16.7390 C.ar      1 KFV         0.1298
      7 N6         27.1480   20.3420   17.3800 N.pl3     1 KFV        -0.3152
      8 N7         24.4810   21.4340   18.2580 N.2       1 KFV        -0.2958
      9 C8         23.4080   22.3030   18.2280 C.2       1 KFV         0.1123
     10 N9         23.5130   23.1630   17.1810 N.pl3     1 KFV        -0.1919
     11 C1'        22.5720   24.2650   16.7970 C.3       1 KFV         0.2013
     12 C2'        21.2180   23.7360   16.4220 C.3       1 KFV         0.1432
     13 O2'        21.1730   23.2500   15.0740 O.3       1 KFV        -0.3832
     14 C3'        20.4150   25.0160   16.6490 C.3       1 KFV         0.1487
     15 O3'        20.4600   25.7710   15.4380 O.3       1 KFV        -0.2674
     16 C4'        21.1010   25.7170   17.8170 C.3       1 KFV         0.1235
     17 O4'        22.4540   25.2240   17.8770 O.3       1 KFV        -0.3360
     18 C5'        20.4580   25.3220   19.1520 C.3       1 KFV         0.1131
     19 O5'        20.1630   23.9290   18.9770 O.3       1 KFV        -0.2476
     20 O31        19.7240   27.2350   13.6660 O.co2     1 KFV        -0.5537
     21 P3         19.2530   26.8070   15.0130 P.3       1 KFV         0.2013
     22 O32        18.0340   25.9320   15.0120 O.co2     1 KFV        -0.5537
     23 O33        19.3150   27.8990   16.0390 O.co2     1 KFV        -0.5537
     24 P1         18.9020   23.1740   19.5760 P.3       1 KFV         0.2972
     25 O11        17.6640   23.9860   19.2310 O.co2     1 KFV        -0.6127
     26 O12        18.7190   21.7860   19.1330 O.co2     1 KFV        -0.6127
     27 O6         18.9770   23.2930   21.1870 O.3       1 KFV        -0.1319
     28 P2         18.4600   22.1850   22.2050 P.3       1 KFV         0.2971
     29 O21        18.6340   22.9000   23.4930 O.co2     1 KFV        -0.6127
     30 O22        17.1010   21.6660   22.0680 O.co2     1 KFV        -0.6127
     31 O7         19.3880   20.8380   22.2230 O.3       1 KFV        -0.2496
     32 CPB        20.7840   21.0430   22.4130 C.3       1 KFV         0.0936
     33 CPA        21.5290   19.7500   22.0620 C.3       1 KFV         0.0367
     34 CP9        21.1780   18.7130   23.1160 C.3       1 KFV        -0.0528
     35 CP8        23.0470   19.9630   22.1720 C.3       1 KFV        -0.0528
     36 CP7        21.1300   19.3850   20.6010 C.3       1 KFV         0.1510
     37 OP3        21.2500   20.5220   19.7700 O.3       1 KFV        -0.3708
     38 CP6        21.9780   18.3080   20.0370 C.2       1 KFV         0.2057
     39 OP2        21.8030   17.1310   20.3700 O.2       1 KFV        -0.3942
     40 NP2        22.9460   18.7350   19.2650 N.am      1 KFV        -0.2826
     41 CP5        23.8770   17.8050   18.6500 C.3       1 KFV         0.0477
     42 CP4        24.9380   17.3630   19.6240 C.3       1 KFV         0.0574
     43 CP3        25.8610   16.4000   18.9220 C.2       1 KFV         0.1779
     44 OP1        25.4180   15.2880   18.6320 O.2       1 KFV        -0.3970
     45 NP1        27.1090   16.8210   18.6500 N.am      1 KFV        -0.2860
     46 CP2        28.0720   15.9870   18.0060 C.3       1 KFV         0.0422
     47 CP1        28.7530   16.6910   16.8450 C.3       1 KFV         0.0336
     48 S          29.7260   15.4450   16.0030 S.3       1 KFV        -0.0453
     49 CS1        31.1500   15.3690   16.9260 C.2       1 KFV         0.2022
     50 OS1        31.2500   16.0690   17.9370 O.2       1 KFV        -0.3761
     51 CS2        32.2440   14.5740   16.3470 C.3       1 KFV         0.2558
     52 CS3        33.6600   14.7410   16.8670 C.3       1 KFV        -0.0121
     53 NS4        32.0060   13.7460   15.3700 N.2       1 KFV         0.3127
     54 OS4        32.8780   13.0120   14.9760 O.2       1 KFV         0.1891
     55 OS5        30.8990   13.6270   14.8930 O.2       1 KFV         0.1891
     56 H1         26.8671   23.4262   14.1635 H         1 KFV         0.0996
     57 H2         26.7153   19.9121   18.2100 H         1 KFV         0.1820
     58 H3         28.0583   20.0014   17.0390 H         1 KFV         0.1820
     59 H4         22.5891   22.2995   18.9458 H         1 KFV         0.1349
     60 H5         22.9911   24.7807   15.9204 H         1 KFV         0.0996
     61 H6         20.8923   22.9315   17.0978 H         1 KFV         0.0680
     62 H7         21.3875   23.9567   14.4764 H         1 KFV         0.2101
     63 H8         19.3694   24.7904   16.9054 H         1 KFV         0.0704
     64 H9         21.0744   26.8080   17.6793 H         1 KFV         0.0654
     65 H10        19.5395   25.8995   19.3331 H         1 KFV         0.0648
     66 H11        21.1578   25.4747   19.9869 H         1 KFV         0.0648
     67 H12        20.9787   21.3077   23.4628 H         1 KFV         0.0628
     68 H13        21.1298   21.8573   21.7593 H         1 KFV         0.0628
     69 H14        21.6990   17.7707   22.8910 H         1 KFV         0.0238
     70 H15        20.0916   18.5408   23.1135 H         1 KFV         0.0238
     71 H16        21.4894   19.0767   24.1063 H         1 KFV         0.0238
     72 H17        23.3674   20.7087   21.4295 H         1 KFV         0.0238
     73 H18        23.5654   19.0114   21.9832 H         1 KFV         0.0238
     74 H19        23.2948   20.3215   23.1820 H         1 KFV         0.0238
     75 H20        20.0835   19.0462   20.6018 H         1 KFV         0.0844
     76 H21        20.6762   21.2083   20.0895 H         1 KFV         0.2133
     77 H22        23.0456   19.7157   19.0965 H         1 KFV         0.1853
     78 H23        24.3606   18.2970   17.7932 H         1 KFV         0.0545
     79 H24        23.3221   16.9219   18.3005 H         1 KFV         0.0545
     80 H25        24.4674   16.8652   20.4846 H         1 KFV         0.0522
     81 H26        25.5086   18.2364   19.9726 H         1 KFV         0.0522
     82 H27        27.3715   17.7508   18.9079 H         1 KFV         0.1851
     83 H28        27.5651   15.0874   17.6270 H         1 KFV         0.0529
     84 H29        28.8364   15.6950   18.7411 H         1 KFV         0.0529
     85 H30        29.4042   17.4959   17.2166 H         1 KFV         0.0424
     86 H31        28.0014   17.1133   16.1618 H         1 KFV         0.0424
     87 H32        32.0602   13.7743   17.0796 H         1 KFV         0.0933
     88 H33        33.6657   15.4758   17.6855 H         1 KFV         0.0282
     89 H34        34.3103   15.0938   16.0530 H         1 KFV         0.0282
     90 H35        34.0303   13.7745   17.2394 H         1 KFV         0.0282
@<TRIPOS>BOND
     1    1    2 ar 
     2    1    6 ar 
     3    2    3 ar 
     4    3    4 ar 
     5    4    5 ar 
     6    4   10 1  
     7    5    6 ar 
     8    5    8 1  
     9    6    7 1  
    10    8    9 2  
    11    9   10 1  
    12   10   11 1  
    13   11   12 1  
    14   11   17 1  
    15   12   13 1  
    16   12   14 1  
    17   14   15 1  
    18   14   16 1  
    19   15   21 1  
    20   16   17 1  
    21   16   18 1  
    22   18   19 1  
    23   19   24 1  
    24   21   20 ar 
    25   21   22 ar 
    26   21   23 ar 
    27   24   25 ar 
    28   24   26 ar 
    29   24   27 1  
    30   27   28 1  
    31   28   29 ar 
    32   28   30 ar 
    33   28   31 1  
    34   31   32 1  
    35   32   33 1  
    36   33   34 1  
    37   33   35 1  
    38   33   36 1  
    39   36   37 1  
    40   36   38 1  
    41   38   39 2  
    42   38   40 am 
    43   40   41 1  
    44   41   42 1  
    45   42   43 1  
    46   43   44 2  
    47   43   45 am 
    48   45   46 1  
    49   46   47 1  
    50   47   48 1  
    51   48   49 1  
    52   49   50 2  
    53   49   51 1  
    54   51   52 1  
    55   51   53 1  
    56   53   54 2  
    57   53   55 2  
    58    2   56 1  
    59    7   57 1  
    60    7   58 1  
    61    9   59 1  
    62   11   60 1  
    63   12   61 1  
    64   13   62 1  
    65   14   63 1  
    66   16   64 1  
    67   18   65 1  
    68   18   66 1  
    69   32   67 1  
    70   32   68 1  
    71   34   69 1  
    72   34   70 1  
    73   34   71 1  
    74   35   72 1  
    75   35   73 1  
    76   35   74 1  
    77   36   75 1  
    78   37   76 1  
    79   40   77 1  
    80   41   78 1  
    81   41   79 1  
    82   42   80 1  
    83   42   81 1  
    84   45   82 1  
    85   46   83 1  
    86   46   84 1  
    87   47   85 1  
    88   47   86 1  
    89   51   87 1  
    90   52   88 1  
    91   52   89 1  
    92   52   90 1  
@<TRIPOS>SUBSTRUCTURE
     1 KFV         1

