4xsy_ligand
  -I-interpret- 

 47 49  0  0  0  0  0  0  0  0999 V2000
   35.0060  -96.4780   -5.6100 C   0  0  0  0  0
   34.6740  -97.4690   -4.7350 C   0  0  0  0  0
   34.4950  -98.7440   -5.1820 C   0  0  0  0  0
   34.6220  -99.1060   -6.4900 C   0  0  0  0  0
   34.9680  -98.0970   -7.3720 C   0  0  0  0  0
   35.1500  -96.8080   -6.9310 C   0  0  0  0  0
   34.4590 -100.4050   -6.9600 N   0  0  0  0  0
   33.7750 -100.9100   -8.0430 C   0  0  0  0  0
   32.9900 -100.0770   -8.9940 C   0  0  0  0  0
   31.9400  -99.2970   -8.5650 C   0  0  0  0  0
   31.2290  -98.5450   -9.4650 C   0  0  0  0  0
   31.5300  -98.5330  -10.8100 C   0  0  0  0  0
   32.5760  -99.3140  -11.2580 C   0  0  0  0  0
   33.3040 -100.0770  -10.3580 C   0  0  0  0  0
   30.1090  -97.7090   -8.9830 C   0  0  0  0  0
   28.9820  -98.3400   -8.8000 F   0  0  0  0  0
   29.7750  -96.8070   -9.8600 F   0  0  0  0  0
   30.3330  -97.0710   -7.8880 F   0  0  0  0  0
   33.6150 -102.1140   -8.5120 N   0  0  0  0  0
   34.1810 -103.1350   -7.9120 O   0  0  0  0  0
   32.9250  -99.3500  -12.4890 N   0  0  0  0  0
   32.8950  -98.3410  -13.4390 C   0  0  0  0  0
   32.4890  -97.1960  -13.2670 O   0  0  0  0  0
   33.3690  -98.6360  -14.7630 N   0  0  0  0  0
   33.3110  -97.5750  -15.6760 C   0  0  0  0  0
   32.1520  -97.0260  -16.2300 C   0  0  0  0  0
   30.5460  -97.5510  -15.9260 Cl  0  0  0  0  0
   32.1800  -95.9580  -17.1270 C   0  0  0  0  0
   33.3780  -95.3800  -17.5090 C   0  0  0  0  0
   34.5640  -95.8890  -16.9770 C   0  0  0  0  0
   34.5180  -96.9490  -16.0870 C   0  0  0  0  0
   36.0390  -97.4970  -15.4940 Cl  0  0  0  0  0
   35.1525  -95.4534   -5.2683 H   0  0  0  0  0
   34.5515  -97.2414   -3.6761 H   0  0  0  0  0
   34.2368  -99.5145   -4.4556 H   0  0  0  0  0
   35.0978  -98.3275   -8.4294 H   0  0  0  0  0
   35.4148  -96.0315   -7.6486 H   0  0  0  0  0
   31.6732  -99.2770   -7.5083 H   0  0  0  0  0
   30.9548  -97.9204  -11.5043 H   0  0  0  0  0
   34.1333 -100.6860  -10.7180 H   0  0  0  0  0
   33.0489 -102.2641   -9.3471 H   0  0  0  0  0
   33.9634 -103.9425   -8.3833 H   0  0  0  0  0
   33.2752 -100.2498  -12.8179 H   0  0  0  0  0
   33.7241  -99.5567  -15.0210 H   0  0  0  0  0
   31.2445  -95.5731  -17.5330 H   0  0  0  0  0
   33.3951  -94.5455  -18.2100 H   0  0  0  0  0
   35.5222  -95.4540  -17.2609 H   0  0  0  0  0
  1  2  4  0  0  0
  1  6  4  0  0  0
  2  3  4  0  0  0
  3  4  4  0  0  0
  4  5  4  0  0  0
  4  7  1  0  0  0
  5  6  4  0  0  0
  7  8  2  0  0  0
  8  9  1  0  0  0
  8 19  1  0  0  0
  9 10  4  0  0  0
  9 14  4  0  0  0
 10 11  4  0  0  0
 11 12  4  0  0  0
 11 15  1  0  0  0
 12 13  4  0  0  0
 13 14  4  0  0  0
 13 21  1  0  0  0
 15 16  1  0  0  0
 15 17  1  0  0  0
 15 18  1  0  0  0
 19 20  1  0  0  0
 21 22  1  0  0  0
 22 23  2  0  0  0
 22 24  1  0  0  0
 24 25  1  0  0  0
 25 26  4  0  0  0
 25 31  4  0  0  0
 26 27  1  0  0  0
 26 28  4  0  0  0
 28 29  4  0  0  0
 29 30  4  0  0  0
 30 31  4  0  0  0
 31 32  1  0  0  0
  1 33  1  0  0  0
  2 34  1  0  0  0
  3 35  1  0  0  0
  5 36  1  0  0  0
  6 37  1  0  0  0
 10 38  1  0  0  0
 12 39  1  0  0  0
 14 40  1  0  0  0
 19 41  1  0  0  0
 20 42  1  0  0  0
 21 43  1  0  0  0
 24 44  1  0  0  0
 28 45  1  0  0  0
 29 46  1  0  0  0
 30 47  1  0  0  0
M  END
$$$$
