### 
### Created by X-TOOL on Mon Sep 10 21:12:59 2018
### 

@<TRIPOS>MOLECULE
2k0x_ligand
   43    42     1     0     0
SMALL
GAST_HUCK


@<TRIPOS>ATOM
      1 O23        -7.6390  -10.4470   -0.8670 O.co2     1 PNS        -0.6222
      2 P24        -6.7120  -10.9360   -1.9980 P.3       1 PNS         0.1063
      3 O26        -6.1560  -12.3910   -1.9300 O.co2     1 PNS        -0.6222
      4 O27        -7.4740  -10.7490   -3.3470 O.3       1 PNS        -0.2822
      5 C28        -8.6010  -11.6720   -3.5940 C.3       1 PNS         0.0913
      6 C29        -9.3860  -11.3090   -4.8540 C.3       1 PNS         0.0369
      7 C30       -10.0420   -9.9750   -4.5770 C.3       1 PNS        -0.0528
      8 C31        -8.4380  -11.2100   -6.0620 C.3       1 PNS        -0.0528
      9 C32       -10.4970  -12.4210   -5.1090 C.3       1 PNS         0.1511
     10 O33        -9.9290  -13.7440   -5.1530 O.3       1 PNS        -0.3708
     11 C34       -11.3160  -12.2010   -6.3960 C.2       1 PNS         0.2057
     12 O35       -11.6440  -11.0840   -6.8130 O.2       1 PNS        -0.3942
     13 N36       -11.6550  -13.3000   -7.0030 N.am      1 PNS        -0.2826
     14 C37       -12.4570  -13.3650   -8.2370 C.3       1 PNS         0.0477
     15 C38       -12.4920  -14.7710   -8.8540 C.3       1 PNS         0.0574
     16 C39       -11.2790  -15.1420   -9.7370 C.2       1 PNS         0.1779
     17 O40       -11.1220  -16.2970  -10.1510 O.2       1 PNS        -0.3970
     18 N41       -10.4470  -14.1520  -10.0310 N.am      1 PNS        -0.2861
     19 C42        -9.2570  -14.2920  -10.8550 C.3       1 PNS         0.0396
     20 C43        -8.2530  -13.1930  -10.5650 C.3       1 PNS         0.0109
     21 S44        -6.8610  -13.1090  -11.7010 S.3       1 PNS        -0.1763
     22 H1         -5.9097  -10.3257   -1.9961 H         1 PNS         0.1780
     23 H2         -9.2822  -11.6367   -2.7310 H         1 PNS         0.0630
     24 H3         -8.2043  -12.6918   -3.7066 H         1 PNS         0.0630
     25 H4        -10.6243   -9.6631   -5.4566 H         1 PNS         0.0238
     26 H5         -9.2680   -9.2229   -4.3642 H         1 PNS         0.0238
     27 H6        -10.7110  -10.0686   -3.7088 H         1 PNS         0.0238
     28 H7         -7.9731  -12.1901   -6.2445 H         1 PNS         0.0238
     29 H8         -7.6551  -10.4659   -5.8537 H         1 PNS         0.0238
     30 H9         -9.0081  -10.9033   -6.9513 H         1 PNS         0.0238
     31 H10       -11.1944  -12.3781   -4.2595 H         1 PNS         0.0844
     32 H11       -10.6191  -14.3788   -5.3062 H         1 PNS         0.2133
     33 H12       -11.3490  -14.1639   -6.6030 H         1 PNS         0.1853
     34 H13       -12.0263  -12.6697   -8.9725 H         1 PNS         0.0545
     35 H14       -13.4872  -13.0590   -8.0025 H         1 PNS         0.0545
     36 H15       -13.3976  -14.8464   -9.4738 H         1 PNS         0.0522
     37 H16       -12.5482  -15.5001   -8.0323 H         1 PNS         0.0522
     38 H17       -10.6522  -13.2462   -9.6603 H         1 PNS         0.1851
     39 H18        -9.5471  -14.2416  -11.9148 H         1 PNS         0.0528
     40 H19        -8.7908  -15.2667  -10.6484 H         1 PNS         0.0528
     41 H20        -7.8562  -13.3532   -9.5517 H         1 PNS         0.0393
     42 H21        -8.7823  -12.2295  -10.6035 H         1 PNS         0.0393
     43 H22        -6.2523  -12.3529  -11.4293 H         1 PNS         0.1017
@<TRIPOS>BOND
     1    1    2 ar 
     2    2    3 ar 
     3    2    4 1  
     4    4    5 1  
     5    5    6 1  
     6    6    7 1  
     7    6    8 1  
     8    6    9 1  
     9    9   10 1  
    10    9   11 1  
    11   11   12 2  
    12   11   13 am 
    13   13   14 1  
    14   14   15 1  
    15   15   16 1  
    16   16   17 2  
    17   16   18 am 
    18   18   19 1  
    19   19   20 1  
    20   20   21 1  
    21    2   22 1  
    22    5   23 1  
    23    5   24 1  
    24    7   25 1  
    25    7   26 1  
    26    7   27 1  
    27    8   28 1  
    28    8   29 1  
    29    8   30 1  
    30    9   31 1  
    31   10   32 1  
    32   13   33 1  
    33   14   34 1  
    34   14   35 1  
    35   15   36 1  
    36   15   37 1  
    37   18   38 1  
    38   19   39 1  
    39   19   40 1  
    40   20   41 1  
    41   20   42 1  
    42   21   43 1  
@<TRIPOS>SUBSTRUCTURE
     1 PNS         1

