2k0x_ligand
  -I-interpret- 

 43 42  0  0  0  0  0  0  0  0999 V2000
   -7.6390  -10.4470   -0.8670 O   0  0  0  0  0
   -6.7120  -10.9360   -1.9980 P   0  0  0  0  0
   -6.1560  -12.3910   -1.9300 O   0  0  0  0  0
   -7.4740  -10.7490   -3.3470 O   0  0  0  0  0
   -8.6010  -11.6720   -3.5940 C   0  0  0  0  0
   -9.3860  -11.3090   -4.8540 C   0  0  0  0  0
  -10.0420   -9.9750   -4.5770 C   0  0  0  0  0
   -8.4380  -11.2100   -6.0620 C   0  0  0  0  0
  -10.4970  -12.4210   -5.1090 C   0  0  0  0  0
   -9.9290  -13.7440   -5.1530 O   0  0  0  0  0
  -11.3160  -12.2010   -6.3960 C   0  0  0  0  0
  -11.6440  -11.0840   -6.8130 O   0  0  0  0  0
  -11.6550  -13.3000   -7.0030 N   0  0  0  0  0
  -12.4570  -13.3650   -8.2370 C   0  0  0  0  0
  -12.4920  -14.7710   -8.8540 C   0  0  0  0  0
  -11.2790  -15.1420   -9.7370 C   0  0  0  0  0
  -11.1220  -16.2970  -10.1510 O   0  0  0  0  0
  -10.4470  -14.1520  -10.0310 N   0  0  0  0  0
   -9.2570  -14.2920  -10.8550 C   0  0  0  0  0
   -8.2530  -13.1930  -10.5650 C   0  0  0  0  0
   -6.8610  -13.1090  -11.7010 S   0  0  0  0  0
   -5.5983  -12.5553   -2.6939 H   0  0  0  0  0
   -9.2803  -11.6099   -2.7438 H   0  0  0  0  0
   -8.1932  -12.6740   -3.7277 H   0  0  0  0  0
   -9.2743   -9.2316   -4.3625 H   0  0  0  0  0
  -10.6155   -9.6652   -5.4506 H   0  0  0  0  0
  -10.7074  -10.0700   -3.7189 H   0  0  0  0  0
   -9.0041  -10.9060   -6.9425 H   0  0  0  0  0
   -7.6628  -10.4724   -5.8544 H   0  0  0  0  0
   -7.9780  -12.1817   -6.2418 H   0  0  0  0  0
  -11.1727  -12.3277   -4.2588 H   0  0  0  0  0
   -9.4148  -13.8969   -4.3569 H   0  0  0  0  0
  -11.3429  -14.1812   -6.5950 H   0  0  0  0  0
  -12.0024  -12.6932   -8.9651 H   0  0  0  0  0
  -13.4801  -13.0870   -7.9840 H   0  0  0  0  0
  -13.3682  -14.8035   -9.5016 H   0  0  0  0  0
  -12.4961  -15.4747   -8.0216 H   0  0  0  0  0
  -10.6563  -13.2281   -9.6529 H   0  0  0  0  0
   -9.5508  -14.2258  -11.9026 H   0  0  0  0  0
   -8.7929  -15.2530  -10.6335 H   0  0  0  0  0
   -7.8395  -13.3991   -9.5778 H   0  0  0  0  0
   -8.7884  -12.2479  -10.6554 H   0  0  0  0  0
   -6.0578  -12.1114  -11.3425 H   0  0  0  0  0
  1  2  2  0  0  0
  2  3  1  0  0  0
  2  4  1  0  0  0
  4  5  1  0  0  0
  5  6  1  0  0  0
  6  7  1  0  0  0
  6  8  1  0  0  0
  6  9  1  0  0  0
  9 10  1  0  0  0
  9 11  1  0  0  0
 11 12  2  0  0  0
 11 13  1  0  0  0
 13 14  1  0  0  0
 14 15  1  0  0  0
 15 16  1  0  0  0
 16 17  2  0  0  0
 16 18  1  0  0  0
 18 19  1  0  0  0
 19 20  1  0  0  0
 20 21  1  0  0  0
  3 22  1  0  0  0
  5 23  1  0  0  0
  5 24  1  0  0  0
  7 25  1  0  0  0
  7 26  1  0  0  0
  7 27  1  0  0  0
  8 28  1  0  0  0
  8 29  1  0  0  0
  8 30  1  0  0  0
  9 31  1  0  0  0
 10 32  1  0  0  0
 13 33  1  0  0  0
 14 34  1  0  0  0
 14 35  1  0  0  0
 15 36  1  0  0  0
 15 37  1  0  0  0
 18 38  1  0  0  0
 19 39  1  0  0  0
 19 40  1  0  0  0
 20 41  1  0  0  0
 20 42  1  0  0  0
 21 43  1  0  0  0
M  END
$$$$
