1rsi_ligand
  -I-interpret- 

 23 24  0  0  0  0  0  0  0  0999 V2000
   47.8010   44.9010   78.9940 N   0  0  0  0  0
   47.8660   45.6470   77.8720 C   0  0  0  0  0
   48.9410   45.5550   77.0970 N   0  0  0  0  0
   49.0550   46.3020   75.9260 C   0  0  0  0  0
   48.0250   47.1780   75.5140 C   0  0  0  0  0
   48.1460   48.2120   73.8810 Br  0  0  0  0  0
   46.8040   47.2640   76.4030 C   0  0  0  0  0
   45.8350   48.0110   76.1340 O   0  0  0  0  0
   46.8000   46.4920   77.5330 N   0  0  0  0  0
   50.2730   46.1180   75.1110 C   0  0  0  0  0
   51.2510   47.1380   75.0150 C   0  0  0  0  0
   52.3990   46.9520   74.2010 C   0  0  0  0  0
   52.5650   45.7410   73.4750 C   0  0  0  0  0
   51.5910   44.7120   73.5740 C   0  0  0  0  0
   50.4480   44.8940   74.3850 C   0  0  0  0  0
   48.5707   44.2773   79.2371 H   0  0  0  0  0
   46.9822   44.9606   79.5993 H   0  0  0  0  0
   45.9905   46.5330   78.1522 H   0  0  0  0  0
   51.1218   48.0685   75.5678 H   0  0  0  0  0
   53.1524   47.7368   74.1327 H   0  0  0  0  0
   53.4410   45.6020   72.8415 H   0  0  0  0  0
   51.7253   43.7807   73.0237 H   0  0  0  0  0
   49.7001   44.1045   74.4585 H   0  0  0  0  0
  1  2  1  0  0  0
  2  3  2  0  0  0
  2  9  1  0  0  0
  3  4  1  0  0  0
  4  5  2  0  0  0
  4 10  1  0  0  0
  5  6  1  0  0  0
  5  7  1  0  0  0
  7  8  2  0  0  0
  7  9  1  0  0  0
 10 11  4  0  0  0
 10 15  4  0  0  0
 11 12  4  0  0  0
 12 13  4  0  0  0
 13 14  4  0  0  0
 14 15  4  0  0  0
  1 16  1  0  0  0
  1 17  1  0  0  0
  9 18  1  0  0  0
 11 19  1  0  0  0
 12 20  1  0  0  0
 13 21  1  0  0  0
 14 22  1  0  0  0
 15 23  1  0  0  0
M  END
$$$$
