5t4v_ligand
  -I-interpret- 

 44 46  0  0  0  0  0  0  0  0999 V2000
   -0.0750  -15.2780  -14.4840 O   0  0  0  0  0
   -0.7200  -15.8910  -13.6460 C   0  0  0  0  0
   -0.5970  -17.2700  -13.3980 C   0  0  0  0  0
   -1.3390  -17.9860  -12.5420 C   0  0  0  0  0
   -1.1680  -19.4730  -12.4240 C   0  0  0  0  0
   -1.6980  -15.2410  -12.9060 N   0  0  0  0  0
   -1.9080  -13.8220  -13.1800 C   0  0  0  0  0
   -2.4870  -15.9160  -11.9320 C   0  0  0  0  0
   -3.4070  -15.2030  -11.1730 C   0  0  0  0  0
   -4.1420  -15.8650  -10.1950 C   0  0  0  0  0
   -5.0240  -15.2410   -9.3570 O   0  0  0  0  0
   -4.7720  -13.8690   -9.0550 C   0  0  0  0  0
   -2.3090  -17.2960  -11.7310 C   0  0  0  0  0
   -3.0480  -17.9360  -10.7310 C   0  0  0  0  0
   -3.9650  -17.2340   -9.9670 C   0  0  0  0  0
   -4.7190  -17.9290   -8.9410 N   0  0  0  0  0
   -5.2110  -19.4930   -8.9840 S   0  0  0  0  0
   -4.1010  -20.3840   -9.1220 O   0  0  0  0  0
   -6.0350  -19.5730   -7.8140 O   0  0  0  0  0
   -6.2410  -19.7290  -10.4010 C   0  0  0  0  0
   -7.0510  -18.7000  -10.8370 C   0  0  0  0  0
   -7.8410  -18.8810  -11.9560 C   0  0  0  0  0
   -7.8360  -20.0960  -12.6330 C   0  0  0  0  0
   -8.6320  -20.2550  -13.8160 C   0  0  0  0  0
   -9.2660  -20.3360  -14.7590 N   0  0  0  0  0
   -7.0180  -21.1140  -12.2000 C   0  0  0  0  0
   -6.2100  -20.9360  -11.0860 C   0  0  0  0  0
    0.1729  -17.8058  -13.9533 H   0  0  0  0  0
   -1.3732  -19.9387  -13.3879 H   0  0  0  0  0
   -0.1451  -19.6969  -12.1212 H   0  0  0  0  0
   -1.8620  -19.8591  -11.6775 H   0  0  0  0  0
   -2.9306  -13.6672  -13.5240 H   0  0  0  0  0
   -1.7391  -13.2484  -12.2686 H   0  0  0  0  0
   -1.2104  -13.4950  -13.9511 H   0  0  0  0  0
   -3.5512  -14.1359  -11.3422 H   0  0  0  0  0
   -3.7971  -13.7768   -8.5762 H   0  0  0  0  0
   -4.7819  -13.2876   -9.9769 H   0  0  0  0  0
   -5.5452  -13.4985   -8.3820 H   0  0  0  0  0
   -2.9003  -19.0008  -10.5507 H   0  0  0  0  0
   -4.9679  -17.3918   -8.1104 H   0  0  0  0  0
   -7.0673  -17.7505  -10.3019 H   0  0  0  0  0
   -8.4723  -18.0663  -12.3106 H   0  0  0  0  0
   -7.0046  -22.0641  -12.7341 H   0  0  0  0  0
   -5.5545  -21.7397  -10.7506 H   0  0  0  0  0
  1  2  2  0  0  0
  2  3  1  0  0  0
  2  6  1  0  0  0
  3  4  2  0  0  0
  4  5  1  0  0  0
  4 13  1  0  0  0
  6  7  1  0  0  0
  6  8  1  0  0  0
  8  9  4  0  0  0
  8 13  4  0  0  0
  9 10  4  0  0  0
 10 11  1  0  0  0
 10 15  4  0  0  0
 11 12  1  0  0  0
 13 14  4  0  0  0
 14 15  4  0  0  0
 15 16  1  0  0  0
 16 17  1  0  0  0
 17 18  2  0  0  0
 17 19  2  0  0  0
 17 20  1  0  0  0
 20 21  4  0  0  0
 20 27  4  0  0  0
 21 22  4  0  0  0
 22 23  4  0  0  0
 23 24  1  0  0  0
 23 26  4  0  0  0
 24 25  3  0  0  0
 26 27  4  0  0  0
  3 28  1  0  0  0
  5 29  1  0  0  0
  5 30  1  0  0  0
  5 31  1  0  0  0
  7 32  1  0  0  0
  7 33  1  0  0  0
  7 34  1  0  0  0
  9 35  1  0  0  0
 12 36  1  0  0  0
 12 37  1  0  0  0
 12 38  1  0  0  0
 14 39  1  0  0  0
 16 40  1  0  0  0
 21 41  1  0  0  0
 22 42  1  0  0  0
 26 43  1  0  0  0
 27 44  1  0  0  0
M  END
$$$$
