### 
### Created by X-TOOL on Mon Sep 10 21:13:09 2018
### 

@<TRIPOS>MOLECULE
3ual_ligand
  128   130     1     0     0
SMALL
GAST_HUCK


@<TRIPOS>ATOM
      1 N         -15.2450   -2.4680   31.7850 N.4       1 ARG         0.2379
      2 CA        -15.0000   -3.9490   31.5860 C.3       1 ARG         0.0651
      3 C         -16.0520   -4.6060   30.6830 C.2       1 ARG         0.2268
      4 O         -15.8510   -5.7200   30.2000 O.2       1 ARG        -0.3907
      5 CB        -14.8900   -4.6900   32.9040 C.3       1 ARG         0.0110
      6 CG        -14.0050   -5.9540   32.8560 C.3       1 ARG        -0.0125
      7 CD        -14.0370   -6.6390   34.2350 C.3       1 ARG         0.0629
      8 NE        -13.1290   -7.7900   34.3500 N.pl3     1 ARG        -0.2723
      9 CZ        -13.0510   -8.5720   35.4290 C.cat     1 ARG         0.2882
     10 NH1       -13.8340   -8.3370   36.4930 N.pl3     1 ARG        -0.2849
     11 NH2       -12.1990   -9.5970   35.4520 N.pl3     1 ARG        -0.2849
     12 N         -17.1730   -3.9330   30.4350 N.am      1 SER        -0.2589
     13 CA        -18.0870   -4.4210   29.3970 C.3       1 SER         0.1540
     14 C         -17.4990   -4.1750   28.0250 C.2       1 SER         0.2063
     15 O         -16.6260   -3.2930   27.8710 O.2       1 SER        -0.3943
     16 CB        -19.3940   -3.6560   29.4660 C.3       1 SER         0.0843
     17 OG        -19.9700   -3.8530   30.7310 O.3       1 SER        -0.3903
     18 N         -18.0360   -4.8650   26.9970 N.am      1 PHE        -0.2619
     19 CA        -17.5240   -4.6500   25.6750 C.3       1 PHE         0.1404
     20 C         -18.4590   -3.7250   24.9540 C.2       1 PHE         0.2060
     21 O         -19.6590   -3.9860   24.8860 O.2       1 PHE        -0.3942
     22 CB        -17.4650   -5.9520   24.8720 C.3       1 PHE         0.0214
     23 CG        -16.5460   -6.9350   25.5170 C.ar      1 PHE        -0.0386
     24 CD1       -17.0340   -7.8460   26.4510 C.ar      1 PHE        -0.0601
     25 CD2       -15.1770   -6.8330   25.2990 C.ar      1 PHE        -0.0601
     26 CE1       -16.1260   -8.7200   27.1460 C.ar      1 PHE        -0.0686
     27 CE2       -14.3070   -7.7160   25.9700 C.ar      1 PHE        -0.0686
     28 CZ        -14.8060   -8.6290   26.8730 C.ar      1 PHE        -0.0687
     29 N         -17.9030   -2.6580   24.4250 N.am      1 SEP        -0.2611
     30 CA        -18.7430   -1.8990   23.5080 C.3       1 SEP         0.1586
     31 CB        -18.7020   -0.4130   23.9300 C.3       1 SEP         0.1184
     32 OG        -17.3510    0.0200   23.6940 O.3       1 SEP        -0.2714
     33 C         -18.2990   -2.0760   22.0590 C.2       1 SEP         0.2065
     34 O         -17.3770   -2.8660   21.7280 O.2       1 SEP        -0.3943
     35 P         -17.0690    1.5640   24.1450 P.3       1 SEP         0.2010
     36 O1P       -17.3260    1.6980   25.6490 O.co2     1 SEP        -0.5537
     37 O2P       -17.8840    2.5150   23.2520 O.co2     1 SEP        -0.5537
     38 O3P       -15.5270    1.7080   23.8090 O.co2     1 SEP        -0.5537
     39 N         -18.9530   -1.3840   21.1390 N.am      1 GLU        -0.2635
     40 CA        -18.7110   -1.6590   19.7340 C.3       1 GLU         0.1327
     41 C         -17.2130   -1.3690   19.3530 C.2       1 GLU         0.2065
     42 O         -16.6460   -0.3280   19.6770 O.2       1 GLU        -0.3942
     43 CB        -19.6540   -0.7440   18.9360 C.3       1 GLU        -0.0008
     44 CG        -19.4920   -0.8110   17.4720 C.3       1 GLU         0.0044
     45 CD        -20.1760    0.4110   16.8180 C.2       1 GLU         0.0350
     46 OE1       -19.7160    1.5840   17.0120 O.co2     1 GLU        -0.5690
     47 OE2       -21.1420    0.1620   16.0840 O.co2     1 GLU        -0.5690
     48 N         -16.5700   -2.3220   18.6840 N.am      1 PRO        -0.2498
     49 CA        -15.1330   -2.1450   18.4660 C.3       1 PRO         0.1338
     50 C         -14.8400   -1.2200   17.2610 C.2       1 PRO         0.2042
     51 O         -15.7560   -0.8080   16.5690 O.2       1 PRO        -0.3944
     52 CB        -14.5940   -3.6020   18.3670 C.3       1 PRO        -0.0104
     53 CG        -15.7850   -4.4020   17.8800 C.3       1 PRO        -0.0281
     54 CD        -17.0770   -3.6760   18.3410 C.3       1 PRO         0.0369
     55 N         -13.5730   -0.8430   17.0560 N.am      1 PHE        -0.2619
     56 CA        -13.2270    0.0530   15.9590 C.3       1 PHE         0.1404
     57 C         -11.8610   -0.3430   15.4430 C.2       1 PHE         0.2052
     58 O         -11.1250   -1.0510   16.1560 O.2       1 PHE        -0.3942
     59 CB        -13.1820    1.4870   16.4160 C.3       1 PHE         0.0214
     60 CG        -12.2830    1.7510   17.6300 C.ar      1 PHE        -0.0386
     61 CD1       -12.8080    1.6080   18.9380 C.ar      1 PHE        -0.0601
     62 CD2       -10.9630    2.2390   17.4720 C.ar      1 PHE        -0.0601
     63 CE1       -12.0220    1.9090   20.0880 C.ar      1 PHE        -0.0686
     64 CE2       -10.1480    2.5310   18.6000 C.ar      1 PHE        -0.0686
     65 CZ        -10.6710    2.4190   19.9040 C.ar      1 PHE        -0.0687
     66 N         -11.5120    0.2150   14.2830 N.am      1 GLY        -0.2720
     67 CA        -10.5780   -0.4000   13.3430 C.3       1 GLY         0.0833
     68 C         -11.4710   -0.6080   12.1140 C.2       1 GLY         0.0570
     69 O         -11.1450   -0.1580   10.9860 O.co2     1 GLY        -0.5669
     70 OXT       -12.5580   -1.2350   12.1950 O.co2     1 GLY        -0.5669
     71 H1        -14.5290   -2.0864   32.3832 H         1 ARG         0.2015
     72 H2        -16.1477   -2.3312   32.2121 H         1 ARG         0.2015
     73 H3        -15.2213   -2.0005   30.8923 H         1 ARG         0.2015
     74 H4        -14.0301   -4.0456   31.0761 H         1 ARG         0.1098
     75 H5        -15.9015   -4.9905   33.2147 H         1 ARG         0.0347
     76 H6        -14.4663   -4.0022   33.6505 H         1 ARG         0.0347
     77 H7        -12.9712   -5.6716   32.6081 H         1 ARG         0.0302
     78 H8        -14.3897   -6.6451   32.0916 H         1 ARG         0.0302
     79 H9        -15.0630   -6.9870   34.4251 H         1 ARG         0.0689
     80 H10       -13.7543   -5.8975   34.9967 H         1 ARG         0.0689
     81 H11       -12.5167   -8.0056   33.5503 H         1 ARG         0.2642
     82 H12       -13.7702   -8.9432   37.3233 H         1 ARG         0.2615
     83 H13       -14.4989   -7.5504   36.4795 H         1 ARG         0.2615
     84 H14       -11.5951   -9.7830   34.6386 H         1 ARG         0.2615
     85 H15       -12.1446  -10.2029   36.2831 H         1 ARG         0.2615
     86 H16       -17.3897   -3.1040   30.9505 H         1 SER         0.1885
     87 H17       -18.2688   -5.4961   29.5424 H         1 SER         0.0823
     88 H18       -20.0785   -4.0235   28.6874 H         1 SER         0.0606
     89 H19       -19.2031   -2.5840   29.3102 H         1 SER         0.0606
     90 H20       -19.3760   -3.5359   31.4011 H         1 SER         0.2097
     91 H21       -18.7789   -5.5156   27.1547 H         1 PHE         0.1885
     92 H22       -16.5190   -4.2072   25.7378 H         1 PHE         0.0823
     93 H23       -17.1026   -5.7328   23.8568 H         1 PHE         0.0474
     94 H24       -18.4741   -6.3861   24.8153 H         1 PHE         0.0474
     95 H25       -18.0976   -7.8966   26.6543 H         1 PHE         0.0557
     96 H26       -14.7834   -6.0839   24.6215 H         1 PHE         0.0557
     97 H27       -16.4932   -9.4357   27.8726 H         1 PHE         0.0599
     98 H28       -13.2414   -7.6765   25.7748 H         1 PHE         0.0599
     99 H29       -14.1178   -9.2953   27.3804 H         1 PHE         0.0559
    100 H30       -16.9648   -2.3850   24.6380 H         1 SEP         0.1884
    101 H31       -19.7774   -2.2628   23.5949 H         1 SEP         0.0827
    102 H32       -18.9578   -0.3092   24.9948 H         1 SEP         0.0662
    103 H33       -19.4055    0.1774   23.3246 H         1 SEP         0.0662
    104 H34       -19.6078   -0.6782   21.4094 H         1 GLU         0.1883
    105 H35       -18.9392   -2.7128   19.5163 H         1 GLU         0.0801
    106 H36       -19.4723    0.2936   19.2527 H         1 GLU         0.0330
    107 H37       -20.6894   -1.0255   19.1784 H         1 GLU         0.0330
    108 H38       -19.9545   -1.7349   17.0944 H         1 GLU         0.0433
    109 H39       -18.4209   -0.8083   17.2217 H         1 GLU         0.0433
    110 H40       -14.6859   -1.6680   19.3506 H         1 PRO         0.0802
    111 H41       -14.2572   -3.9618   19.3504 H         1 PRO         0.0313
    112 H42       -13.7624   -3.6632   17.6496 H         1 PRO         0.0313
    113 H43       -15.7538   -5.4147   18.3083 H         1 PRO         0.0287
    114 H44       -15.7661   -4.4674   16.7821 H         1 PRO         0.0287
    115 H45       -17.8197   -3.6305   17.5309 H         1 PRO         0.0524
    116 H46       -17.5208   -4.1699   19.2180 H         1 PRO         0.0524
    117 H47       -12.8536   -1.1802   17.6632 H         1 PHE         0.1885
    118 H48       -13.9728   -0.0474   15.1567 H         1 PHE         0.0823
    119 H49       -14.2056    1.7950   16.6757 H         1 PHE         0.0474
    120 H50       -12.8155    2.1006   15.5798 H         1 PHE         0.0474
    121 H51       -13.8275    1.2629   19.0666 H         1 PHE         0.0557
    122 H52       -10.5673    2.3925   16.4745 H         1 PHE         0.0557
    123 H53       -12.4237    1.7606   21.0838 H         1 PHE         0.0599
    124 H54        -9.1193    2.8413   18.4563 H         1 PHE         0.0599
    125 H55       -10.0737    2.7095   20.7607 H         1 PHE         0.0559
    126 H56       -11.9105    1.1006   14.0442 H         1 GLY         0.1873
    127 H57       -10.1937   -1.3566   13.7266 H         1 GLY         0.0689
    128 H58        -9.7351    0.2700   13.1181 H         1 GLY         0.0689
@<TRIPOS>BOND
     1    1    2 1  
     2    2    3 1  
     3    2    5 1  
     4    3    4 2  
     5    3   12 am 
     6    5    6 1  
     7    6    7 1  
     8    7    8 1  
     9    8    9 ar 
    10    9   10 ar 
    11    9   11 ar 
    12   12   13 1  
    13   13   14 1  
    14   13   16 1  
    15   14   15 2  
    16   14   18 am 
    17   16   17 1  
    18   18   19 1  
    19   19   20 1  
    20   19   22 1  
    21   20   21 2  
    22   20   29 am 
    23   22   23 1  
    24   23   24 ar 
    25   23   25 ar 
    26   24   26 ar 
    27   25   27 ar 
    28   26   28 ar 
    29   27   28 ar 
    30   29   30 1  
    31   30   31 1  
    32   30   33 1  
    33   31   32 1  
    34   32   35 1  
    35   33   34 2  
    36   33   39 am 
    37   35   36 ar 
    38   35   37 ar 
    39   35   38 ar 
    40   39   40 1  
    41   40   41 1  
    42   40   43 1  
    43   41   42 2  
    44   41   48 am 
    45   43   44 1  
    46   44   45 1  
    47   45   46 ar 
    48   45   47 ar 
    49   48   49 1  
    50   48   54 1  
    51   49   50 1  
    52   49   52 1  
    53   50   51 2  
    54   50   55 am 
    55   52   53 1  
    56   53   54 1  
    57   55   56 1  
    58   56   57 1  
    59   56   59 1  
    60   57   58 2  
    61   57   66 am 
    62   59   60 1  
    63   60   61 ar 
    64   60   62 ar 
    65   61   63 ar 
    66   62   64 ar 
    67   63   65 ar 
    68   64   65 ar 
    69   66   67 1  
    70   67   68 1  
    71   68   69 ar 
    72   68   70 ar 
    73    1   71 1  
    74    1   72 1  
    75    1   73 1  
    76    2   74 1  
    77    5   75 1  
    78    5   76 1  
    79    6   77 1  
    80    6   78 1  
    81    7   79 1  
    82    7   80 1  
    83    8   81 1  
    84   10   82 1  
    85   10   83 1  
    86   11   84 1  
    87   11   85 1  
    88   12   86 1  
    89   13   87 1  
    90   16   88 1  
    91   16   89 1  
    92   17   90 1  
    93   18   91 1  
    94   19   92 1  
    95   22   93 1  
    96   22   94 1  
    97   24   95 1  
    98   25   96 1  
    99   26   97 1  
   100   27   98 1  
   101   28   99 1  
   102   29  100 1  
   103   30  101 1  
   104   31  102 1  
   105   31  103 1  
   106   39  104 1  
   107   40  105 1  
   108   43  106 1  
   109   43  107 1  
   110   44  108 1  
   111   44  109 1  
   112   49  110 1  
   113   52  111 1  
   114   52  112 1  
   115   53  113 1  
   116   53  114 1  
   117   54  115 1  
   118   54  116 1  
   119   55  117 1  
   120   56  118 1  
   121   59  119 1  
   122   59  120 1  
   123   61  121 1  
   124   62  122 1  
   125   63  123 1  
   126   64  124 1  
   127   65  125 1  
   128   66  126 1  
   129   67  127 1  
   130   67  128 1  
@<TRIPOS>SUBSTRUCTURE
     1 ARG         1

