3ual_ligand
  -I-interpret- 

131133  0  0  0  0  0  0  0  0999 V2000
  -15.2450   -2.4680   31.7850 N   0  3  0  0  0
  -15.0000   -3.9490   31.5860 C   0  0  0  0  0
  -16.0520   -4.6060   30.6830 C   0  0  0  0  0
  -15.8510   -5.7200   30.2000 O   0  0  0  0  0
  -14.8900   -4.6900   32.9040 C   0  0  0  0  0
  -14.0050   -5.9540   32.8560 C   0  0  0  0  0
  -14.0370   -6.6390   34.2350 C   0  0  0  0  0
  -13.1290   -7.7900   34.3500 N   0  0  0  0  0
  -13.0510   -8.5720   35.4290 C   0  0  0  0  0
  -13.8340   -8.3370   36.4930 N   0  0  0  0  0
  -12.1990   -9.5970   35.4520 N   0  0  0  0  0
  -17.1730   -3.9330   30.4350 N   0  0  0  0  0
  -18.0870   -4.4210   29.3970 C   0  0  0  0  0
  -17.4990   -4.1750   28.0250 C   0  0  0  0  0
  -16.6260   -3.2930   27.8710 O   0  0  0  0  0
  -19.3940   -3.6560   29.4660 C   0  0  0  0  0
  -19.9700   -3.8530   30.7310 O   0  0  0  0  0
  -18.0360   -4.8650   26.9970 N   0  0  0  0  0
  -17.5240   -4.6500   25.6750 C   0  0  0  0  0
  -18.4590   -3.7250   24.9540 C   0  0  0  0  0
  -19.6590   -3.9860   24.8860 O   0  0  0  0  0
  -17.4650   -5.9520   24.8720 C   0  0  0  0  0
  -16.5460   -6.9350   25.5170 C   0  0  0  0  0
  -17.0340   -7.8460   26.4510 C   0  0  0  0  0
  -15.1770   -6.8330   25.2990 C   0  0  0  0  0
  -16.1260   -8.7200   27.1460 C   0  0  0  0  0
  -14.3070   -7.7160   25.9700 C   0  0  0  0  0
  -14.8060   -8.6290   26.8730 C   0  0  0  0  0
  -17.9030   -2.6580   24.4250 N   0  0  0  0  0
  -18.7430   -1.8990   23.5080 C   0  0  0  0  0
  -18.7020   -0.4130   23.9300 C   0  0  0  0  0
  -17.3510    0.0200   23.6940 O   0  0  0  0  0
  -18.2990   -2.0760   22.0590 C   0  0  0  0  0
  -17.3770   -2.8660   21.7280 O   0  0  0  0  0
  -17.0690    1.5640   24.1450 P   0  0  0  0  0
  -17.3260    1.6980   25.6490 O   0  0  0  0  0
  -17.8840    2.5150   23.2520 O   0  0  0  0  0
  -15.5270    1.7080   23.8090 O   0  0  0  0  0
  -18.9530   -1.3840   21.1390 N   0  0  0  0  0
  -18.7110   -1.6590   19.7340 C   0  0  0  0  0
  -17.2130   -1.3690   19.3530 C   0  0  0  0  0
  -16.6460   -0.3280   19.6770 O   0  0  0  0  0
  -19.6540   -0.7440   18.9360 C   0  0  0  0  0
  -19.4920   -0.8110   17.4720 C   0  0  0  0  0
  -20.1760    0.4110   16.8180 C   0  0  0  0  0
  -19.7160    1.5840   17.0120 O   0  0  0  0  0
  -21.1420    0.1620   16.0840 O   0  0  0  0  0
  -16.5700   -2.3220   18.6840 N   0  0  0  0  0
  -15.1330   -2.1450   18.4660 C   0  0  0  0  0
  -14.8400   -1.2200   17.2610 C   0  0  0  0  0
  -15.7560   -0.8080   16.5690 O   0  0  0  0  0
  -14.5940   -3.6020   18.3670 C   0  0  0  0  0
  -15.7850   -4.4020   17.8800 C   0  0  0  0  0
  -17.0770   -3.6760   18.3410 C   0  0  0  0  0
  -13.5730   -0.8430   17.0560 N   0  0  0  0  0
  -13.2270    0.0530   15.9590 C   0  0  0  0  0
  -11.8610   -0.3430   15.4430 C   0  0  0  0  0
  -11.1250   -1.0510   16.1560 O   0  0  0  0  0
  -13.1820    1.4870   16.4160 C   0  0  0  0  0
  -12.2830    1.7510   17.6300 C   0  0  0  0  0
  -12.8080    1.6080   18.9380 C   0  0  0  0  0
  -10.9630    2.2390   17.4720 C   0  0  0  0  0
  -12.0220    1.9090   20.0880 C   0  0  0  0  0
  -10.1480    2.5310   18.6000 C   0  0  0  0  0
  -10.6710    2.4190   19.9040 C   0  0  0  0  0
  -11.5120    0.2150   14.2830 N   0  0  0  0  0
  -10.5780   -0.4000   13.3430 C   0  0  0  0  0
  -11.4710   -0.6080   12.1140 C   0  0  0  0  0
  -11.1450   -0.1580   10.9860 O   0  0  0  0  0
  -12.5580   -1.2350   12.1950 O   0  0  0  0  0
  -15.3121   -2.0105   30.8758 H   0  0  0  0  0
  -16.1158   -2.3347   32.2991 H   0  0  0  0  0
  -14.4715   -2.0647   32.3137 H   0  0  0  0  0
  -14.0400   -4.0246   31.0753 H   0  0  0  0  0
  -15.8954   -5.0146   33.1723 H   0  0  0  0  0
  -14.4304   -4.0057   33.6172 H   0  0  0  0  0
  -12.9808   -5.6771   32.6061 H   0  0  0  0  0
  -14.3817   -6.6386   32.0960 H   0  0  0  0  0
  -15.0505   -7.0090   34.3896 H   0  0  0  0  0
  -13.7191   -5.9006   34.9711 H   0  0  0  0  0
  -12.5227   -8.0035   33.5581 H   0  0  0  0  0
  -13.7751   -8.9409   37.3129 H   0  0  0  0  0
  -14.4881   -7.5544   36.4820 H   0  0  0  0  0
  -11.6052   -9.7849   34.6442 H   0  0  0  0  0
  -17.3940   -3.0874   30.9608 H   0  0  0  0  0
  -18.2466   -5.4867   29.5608 H   0  0  0  0  0
  -20.0725   -4.0152   28.6922 H   0  0  0  0  0
  -19.2080   -2.5938   29.3072 H   0  0  0  0  0
  -20.7988   -3.3713   30.7825 H   0  0  0  0  0
  -18.7937   -5.5286   27.1578 H   0  0  0  0  0
  -16.5179   -4.2401   25.7640 H   0  0  0  0  0
  -17.0940   -5.7299   23.8714 H   0  0  0  0  0
  -18.4652   -6.3831   24.8297 H   0  0  0  0  0
  -18.1034   -7.8969   26.6555 H   0  0  0  0  0
  -14.7812   -6.0797   24.6178 H   0  0  0  0  0
  -16.4952   -9.4396   27.8767 H   0  0  0  0  0
  -13.2356   -7.6763   25.7737 H   0  0  0  0  0
  -14.1140   -9.2990   27.3832 H   0  0  0  0  0
  -16.9461   -2.3796   24.6422 H   0  0  0  0  0
  -19.7663   -2.2706   23.5620 H   0  0  0  0  0
  -18.9830   -0.2883   24.9757 H   0  0  0  0  0
  -19.4160    0.1823   23.3608 H   0  0  0  0  0
  -17.6583    2.3601   22.3318 H   0  0  0  0  0
  -15.3974    1.6198   22.8619 H   0  0  0  0  0
  -19.6209   -0.6641   21.4148 H   0  0  0  0  0
  -18.8979   -2.7093   19.5104 H   0  0  0  0  0
  -19.4257    0.2798   19.2322 H   0  0  0  0  0
  -20.6707   -1.0695   19.1562 H   0  0  0  0  0
  -19.9514   -1.7261   17.0984 H   0  0  0  0  0
  -18.4305   -0.8072   17.2246 H   0  0  0  0  0
  -18.9697    1.5383   17.6142 H   0  0  0  0  0
  -14.6181   -1.6148   19.2672 H   0  0  0  0  0
  -14.2136   -3.9672   19.3209 H   0  0  0  0  0
  -13.7402   -3.6815   17.6941 H   0  0  0  0  0
  -15.7537   -5.4102   18.2930 H   0  0  0  0  0
  -15.7657   -4.4791   16.7929 H   0  0  0  0  0
  -17.8578   -3.6630   17.5805 H   0  0  0  0  0
  -17.5755   -4.1723   19.1736 H   0  0  0  0  0
  -12.8392   -1.1869   17.6754 H   0  0  0  0  0
  -13.9849   -0.0299   15.1800 H   0  0  0  0  0
  -14.1964    1.7559   16.7106 H   0  0  0  0  0
  -12.7740    2.0686   15.5893 H   0  0  0  0  0
  -13.8332    1.2610   19.0673 H   0  0  0  0  0
  -10.5651    2.3933   16.4690 H   0  0  0  0  0
  -12.4259    1.7597   21.0893 H   0  0  0  0  0
   -9.1137    2.8430   18.4555 H   0  0  0  0  0
  -10.0704    2.7111   20.7654 H   0  0  0  0  0
  -11.9184    1.1183   14.0395 H   0  0  0  0  0
  -10.1278   -1.3202   13.7152 H   0  0  0  0  0
   -9.6965    0.2092   13.1431 H   0  0  0  0  0
  -12.6922   -1.5249   13.1003 H   0  0  0  0  0
  1  2  1  0  0  0
  2  3  1  0  0  0
  2  5  1  0  0  0
  3  4  2  0  0  0
  3 12  1  0  0  0
  5  6  1  0  0  0
  6  7  1  0  0  0
  7  8  1  0  0  0
  8  9  1  0  0  0
  9 10  1  0  0  0
  9 11  2  0  0  0
 12 13  1  0  0  0
 13 14  1  0  0  0
 13 16  1  0  0  0
 14 15  2  0  0  0
 14 18  1  0  0  0
 16 17  1  0  0  0
 18 19  1  0  0  0
 19 20  1  0  0  0
 19 22  1  0  0  0
 20 21  2  0  0  0
 20 29  1  0  0  0
 22 23  1  0  0  0
 23 24  4  0  0  0
 23 25  4  0  0  0
 24 26  4  0  0  0
 25 27  4  0  0  0
 26 28  4  0  0  0
 27 28  4  0  0  0
 29 30  1  0  0  0
 30 31  1  0  0  0
 30 33  1  0  0  0
 31 32  1  0  0  0
 32 35  1  0  0  0
 33 34  2  0  0  0
 33 39  1  0  0  0
 35 36  2  0  0  0
 35 37  1  0  0  0
 35 38  1  0  0  0
 39 40  1  0  0  0
 40 41  1  0  0  0
 40 43  1  0  0  0
 41 42  2  0  0  0
 41 48  1  0  0  0
 43 44  1  0  0  0
 44 45  1  0  0  0
 45 46  1  0  0  0
 45 47  2  0  0  0
 48 49  1  0  0  0
 48 54  1  0  0  0
 49 50  1  0  0  0
 49 52  1  0  0  0
 50 51  2  0  0  0
 50 55  1  0  0  0
 52 53  1  0  0  0
 53 54  1  0  0  0
 55 56  1  0  0  0
 56 57  1  0  0  0
 56 59  1  0  0  0
 57 58  2  0  0  0
 57 66  1  0  0  0
 59 60  1  0  0  0
 60 61  4  0  0  0
 60 62  4  0  0  0
 61 63  4  0  0  0
 62 64  4  0  0  0
 63 65  4  0  0  0
 64 65  4  0  0  0
 66 67  1  0  0  0
 67 68  1  0  0  0
 68 69  2  0  0  0
 68 70  1  0  0  0
  1 71  1  0  0  0
  1 72  1  0  0  0
  1 73  1  0  0  0
  2 74  1  0  0  0
  5 75  1  0  0  0
  5 76  1  0  0  0
  6 77  1  0  0  0
  6 78  1  0  0  0
  7 79  1  0  0  0
  7 80  1  0  0  0
  8 81  1  0  0  0
 10 82  1  0  0  0
 10 83  1  0  0  0
 11 84  1  0  0  0
 12 85  1  0  0  0
 13 86  1  0  0  0
 16 87  1  0  0  0
 16 88  1  0  0  0
 17 89  1  0  0  0
 18 90  1  0  0  0
 19 91  1  0  0  0
 22 92  1  0  0  0
 22 93  1  0  0  0
 24 94  1  0  0  0
 25 95  1  0  0  0
 26 96  1  0  0  0
 27 97  1  0  0  0
 28 98  1  0  0  0
 29 99  1  0  0  0
 30100  1  0  0  0
 31101  1  0  0  0
 31102  1  0  0  0
 37103  1  0  0  0
 38104  1  0  0  0
 39105  1  0  0  0
 40106  1  0  0  0
 43107  1  0  0  0
 43108  1  0  0  0
 44109  1  0  0  0
 44110  1  0  0  0
 46111  1  0  0  0
 49112  1  0  0  0
 52113  1  0  0  0
 52114  1  0  0  0
 53115  1  0  0  0
 53116  1  0  0  0
 54117  1  0  0  0
 54118  1  0  0  0
 55119  1  0  0  0
 56120  1  0  0  0
 59121  1  0  0  0
 59122  1  0  0  0
 61123  1  0  0  0
 62124  1  0  0  0
 63125  1  0  0  0
 64126  1  0  0  0
 65127  1  0  0  0
 66128  1  0  0  0
 67129  1  0  0  0
 67130  1  0  0  0
 70131  1  0  0  0
M  END
$$$$
