### 
### Created by X-TOOL on Mon Sep 10 21:13:06 2018
### 

@<TRIPOS>MOLECULE
3sie_ligand
   57    59     1     0     0
SMALL
GAST_HUCK


@<TRIPOS>ATOM
      1 CAA       -24.1770   -6.4040   -1.7950 C.3       1 5BO        -0.0628
      2 CAB       -17.7680   -3.6950    1.3950 C.3       1 5BO        -0.0508
      3 CAC       -15.6730   -4.6030  -11.2370 C.3       1 5BO        -0.1255
      4 OAD       -20.5590   -8.1180   -0.2310 O.2       1 5BO        -0.4209
      5 OAE       -16.4180   -4.4920   -6.3050 O.2       1 5BO        -0.1513
      6 OAF       -17.2450   -2.1430   -6.4630 O.2       1 5BO        -0.1513
      7 BRAG      -18.5340   -7.2490    1.8980 Br        1 5BO        -0.0822
      8 CAH       -20.1860   -3.7180   -5.9400 C.ar      1 5BO        -0.0360
      9 CAI       -21.2620   -4.0490   -5.1230 C.ar      1 5BO        -0.0205
     10 CAJ       -18.6590   -4.5760   -4.3030 C.ar      1 5BO        -0.0191
     11 CAK       -24.3410   -5.0420   -2.4870 C.3       1 5BO        -0.0274
     12 CAL       -17.1160   -4.7610    0.4960 C.3       1 5BO        -0.0067
     13 CAM       -23.3480   -4.8610   -3.6510 C.3       1 5BO         0.0734
     14 CAN       -16.7930   -5.4300   -9.1300 C.3       1 5BO        -0.0959
     15 CAO       -16.7660   -2.9340   -9.6470 C.3       1 5BO        -0.0959
     16 CAP       -18.2500   -5.2300   -8.7190 C.3       1 5BO         0.0109
     17 CAQ       -18.2250   -2.9250   -9.2000 C.3       1 5BO         0.0109
     18 NAR       -18.5050   -4.9780   -1.5310 N.2       1 5BO        -0.2843
     19 NAS       -20.2180   -6.5650   -1.8170 N.am      1 5BO        -0.2045
     20 OAT       -22.0460   -4.9560   -3.0720 O.3       1 5BO        -0.3086
     21 CAU       -18.8920   -4.0450   -5.5570 C.ar      1 5BO         0.1065
     22 CAV       -21.0240   -4.7050   -3.9140 C.ar      1 5BO         0.1191
     23 CAW       -18.2150   -5.4580   -0.3080 C.2       1 5BO         0.0107
     24 CAX       -18.9250   -6.5530    0.1720 C.2       1 5BO         0.0673
     25 CAY       -19.7210   -5.0350   -3.5510 C.ar      1 5BO         0.0835
     26 CAZ       -19.3950   -5.5880   -2.3230 C.2       1 5BO         0.1685
     27 CBA       -19.9090   -7.1500   -0.6130 C.2       1 5BO         0.1978
     28 NBB       -16.5760   -4.3380  -10.1030 N.4       1 5BO         0.4029
     29 NBC       -18.4830   -3.8960   -8.1010 N.am      1 5BO        -0.2389
     30 SBD       -17.5970   -3.6050   -6.6180 S.o2      1 5BO         0.0675
     31 H         -24.3512   -7.2008   -2.5181 H         1 5BO         0.0231
     32 H         -23.1661   -6.4881   -1.3962 H         1 5BO         0.0231
     33 H         -24.8978   -6.4859   -0.9815 H         1 5BO         0.0231
     34 H         -18.2921   -2.9687    0.7737 H         1 5BO         0.0259
     35 H         -18.4759   -4.1750    2.0707 H         1 5BO         0.0259
     36 H         -16.9961   -3.1891    1.9749 H         1 5BO         0.0259
     37 H         -14.6815   -4.8532  -10.8595 H         1 5BO        -0.0019
     38 H         -16.0615   -5.4366  -11.8220 H         1 5BO        -0.0019
     39 H         -15.6104   -3.7145  -11.8653 H         1 5BO        -0.0019
     40 H         -20.3591   -3.2005   -6.8836 H         1 5BO         0.0672
     41 H         -22.2795   -3.7990   -5.4234 H         1 5BO         0.0565
     42 H         -17.6436   -4.6319   -3.9105 H         1 5BO         0.0687
     43 H         -24.1488   -4.2611   -1.7512 H         1 5BO         0.0289
     44 H         -25.3521   -4.9847   -2.8902 H         1 5BO         0.0289
     45 H         -16.5850   -5.4895    1.1087 H         1 5BO         0.0490
     46 H         -16.4023   -4.2907   -0.1804 H         1 5BO         0.0490
     47 H         -23.4912   -3.9016   -4.1481 H         1 5BO         0.0620
     48 H         -23.4960   -5.6199   -4.4193 H         1 5BO         0.0620
     49 H         -16.6017   -6.4175   -9.5500 H         1 5BO         0.0033
     50 H         -16.1042   -5.3903   -8.2861 H         1 5BO         0.0033
     51 H         -16.0753   -2.6457   -8.8546 H         1 5BO         0.0033
     52 H         -16.5537   -2.2005  -10.4248 H         1 5BO         0.0033
     53 H         -18.5020   -5.9931   -7.9827 H         1 5BO         0.0458
     54 H         -18.8674   -5.3009   -9.6145 H         1 5BO         0.0458
     55 H         -18.8426   -3.2064  -10.0529 H         1 5BO         0.0458
     56 H         -18.4607   -1.9263   -8.8323 H         1 5BO         0.0458
     57 H         -21.0508   -6.8533   -2.3306 H         1 5BO         0.2539
@<TRIPOS>BOND
     1   11    1 1  
     2   12    2 1  
     3   28    3 1  
     4   27    4 2  
     5   30    5 2  
     6   30    6 2  
     7   24    7 1  
     8    8    9 ar 
     9   21    8 ar 
    10    9   22 ar 
    11   21   10 ar 
    12   10   25 ar 
    13   13   11 1  
    14   23   12 1  
    15   20   13 1  
    16   16   14 1  
    17   14   28 1  
    18   17   15 1  
    19   15   28 1  
    20   29   16 1  
    21   29   17 1  
    22   18   23 1  
    23   26   18 2  
    24   26   19 1  
    25   19   27 am 
    26   22   20 1  
    27   30   21 1  
    28   25   22 ar 
    29   23   24 2  
    30   27   24 1  
    31   25   26 1  
    32   29   30 am 
    33    1   31 1  
    34    1   32 1  
    35    1   33 1  
    36    2   34 1  
    37    2   35 1  
    38    2   36 1  
    39    3   37 1  
    40    3   38 1  
    41    3   39 1  
    42    8   40 1  
    43    9   41 1  
    44   10   42 1  
    45   11   43 1  
    46   11   44 1  
    47   12   45 1  
    48   12   46 1  
    49   13   47 1  
    50   13   48 1  
    51   14   49 1  
    52   14   50 1  
    53   15   51 1  
    54   15   52 1  
    55   16   53 1  
    56   16   54 1  
    57   17   55 1  
    58   17   56 1  
    59   19   57 1  
@<TRIPOS>SUBSTRUCTURE
     1 5BO         1

