3sie_ligand
  -I-interpret- 

 58 60  0  0  0  0  0  0  0  0999 V2000
  -24.1770   -6.4040   -1.7950 C   0  0  0  0  0
  -17.7680   -3.6950    1.3950 C   0  0  0  0  0
  -15.6730   -4.6030  -11.2370 C   0  0  0  0  0
  -20.5590   -8.1180   -0.2310 O   0  0  0  0  0
  -16.4180   -4.4920   -6.3050 O   0  0  0  0  0
  -17.2450   -2.1430   -6.4630 O   0  0  0  0  0
  -18.5340   -7.2490    1.8980 Br  0  0  0  0  0
  -20.1860   -3.7180   -5.9400 C   0  0  0  0  0
  -21.2620   -4.0490   -5.1230 C   0  0  0  0  0
  -18.6590   -4.5760   -4.3030 C   0  0  0  0  0
  -24.3410   -5.0420   -2.4870 C   0  0  0  0  0
  -17.1160   -4.7610    0.4960 C   0  0  0  0  0
  -23.3480   -4.8610   -3.6510 C   0  0  0  0  0
  -16.7930   -5.4300   -9.1300 C   0  0  0  0  0
  -16.7660   -2.9340   -9.6470 C   0  0  0  0  0
  -18.2500   -5.2300   -8.7190 C   0  0  0  0  0
  -18.2250   -2.9250   -9.2000 C   0  0  0  0  0
  -18.5050   -4.9780   -1.5310 N   0  0  0  0  0
  -20.2180   -6.5650   -1.8170 N   0  0  0  0  0
  -22.0460   -4.9560   -3.0720 O   0  0  0  0  0
  -18.8920   -4.0450   -5.5570 C   0  0  0  0  0
  -21.0240   -4.7050   -3.9140 C   0  0  0  0  0
  -18.2150   -5.4580   -0.3080 C   0  0  0  0  0
  -18.9250   -6.5530    0.1720 C   0  0  0  0  0
  -19.7210   -5.0350   -3.5510 C   0  0  0  0  0
  -19.3950   -5.5880   -2.3230 C   0  0  0  0  0
  -19.9090   -7.1500   -0.6130 C   0  0  0  0  0
  -16.5760   -4.3380  -10.1030 N   0  3  0  0  0
  -18.4830   -3.8960   -8.1010 N   0  0  0  0  0
  -17.5970   -3.6050   -6.6180 S   0  0  0  0  0
  -24.3512   -7.2008   -2.5181 H   0  0  0  0  0
  -23.1661   -6.4881   -1.3962 H   0  0  0  0  0
  -24.8978   -6.4859   -0.9815 H   0  0  0  0  0
  -18.2921   -2.9687    0.7737 H   0  0  0  0  0
  -18.4759   -4.1750    2.0707 H   0  0  0  0  0
  -16.9961   -3.1891    1.9749 H   0  0  0  0  0
  -14.6815   -4.8532  -10.8595 H   0  0  0  0  0
  -16.0615   -5.4366  -11.8220 H   0  0  0  0  0
  -15.6104   -3.7145  -11.8653 H   0  0  0  0  0
  -20.3591   -3.2005   -6.8836 H   0  0  0  0  0
  -22.2795   -3.7990   -5.4234 H   0  0  0  0  0
  -17.6436   -4.6319   -3.9105 H   0  0  0  0  0
  -24.1488   -4.2611   -1.7512 H   0  0  0  0  0
  -25.3521   -4.9847   -2.8902 H   0  0  0  0  0
  -16.5850   -5.4895    1.1087 H   0  0  0  0  0
  -16.4023   -4.2907   -0.1804 H   0  0  0  0  0
  -23.4912   -3.9016   -4.1481 H   0  0  0  0  0
  -23.4960   -5.6199   -4.4193 H   0  0  0  0  0
  -16.6017   -6.4175   -9.5500 H   0  0  0  0  0
  -16.1042   -5.3903   -8.2861 H   0  0  0  0  0
  -16.0753   -2.6457   -8.8546 H   0  0  0  0  0
  -16.5537   -2.2005  -10.4248 H   0  0  0  0  0
  -18.5020   -5.9931   -7.9827 H   0  0  0  0  0
  -18.8674   -5.3009   -9.6145 H   0  0  0  0  0
  -18.8426   -3.2064  -10.0529 H   0  0  0  0  0
  -18.4607   -1.9263   -8.8323 H   0  0  0  0  0
  -21.0508   -6.8533   -2.3306 H   0  0  0  0  0
  -17.4581   -4.4030  -10.6111 H   0  0  0  0  0
 11  1  1  0  0  0
 12  2  1  0  0  0
 28  3  1  0  0  0
 27  4  2  0  0  0
 30  5  2  0  0  0
 30  6  2  0  0  0
 24  7  1  0  0  0
  8  9  4  0  0  0
 21  8  4  0  0  0
  9 22  4  0  0  0
 21 10  4  0  0  0
 10 25  4  0  0  0
 13 11  1  0  0  0
 23 12  1  0  0  0
 20 13  1  0  0  0
 16 14  1  0  0  0
 14 28  1  0  0  0
 17 15  1  0  0  0
 15 28  1  0  0  0
 29 16  1  0  0  0
 29 17  1  0  0  0
 18 23  1  0  0  0
 26 18  2  0  0  0
 26 19  1  0  0  0
 19 27  1  0  0  0
 22 20  1  0  0  0
 30 21  1  0  0  0
 25 22  4  0  0  0
 23 24  2  0  0  0
 27 24  1  0  0  0
 25 26  1  0  0  0
 29 30  1  0  0  0
  1 31  1  0  0  0
  1 32  1  0  0  0
  1 33  1  0  0  0
  2 34  1  0  0  0
  2 35  1  0  0  0
  2 36  1  0  0  0
  3 37  1  0  0  0
  3 38  1  0  0  0
  3 39  1  0  0  0
  8 40  1  0  0  0
  9 41  1  0  0  0
 10 42  1  0  0  0
 11 43  1  0  0  0
 11 44  1  0  0  0
 12 45  1  0  0  0
 12 46  1  0  0  0
 13 47  1  0  0  0
 13 48  1  0  0  0
 14 49  1  0  0  0
 14 50  1  0  0  0
 15 51  1  0  0  0
 15 52  1  0  0  0
 16 53  1  0  0  0
 16 54  1  0  0  0
 17 55  1  0  0  0
 17 56  1  0  0  0
 19 57  1  0  0  0
 28 58  1  0  0  0
M  END
$$$$
