6oxq_ligand
  -I-interpret- 

 83 86  0  0  0  0  0  0  0  0999 V2000
   65.1720   51.2710   12.8400 C   0  0  0  0  0
   65.7250   51.2780   11.5570 O   0  0  0  0  0
   66.1050   52.1340   13.6930 C   0  0  0  0  0
   67.2760   51.4630   14.4270 C   0  0  0  0  0
   68.2230   52.3220   15.2710 C   0  0  0  0  0
   67.9750   53.8290   15.3470 C   0  0  0  0  0
   66.8220   54.5120   14.6080 C   0  0  0  0  0
   65.8730   53.6500   13.7670 C   0  0  0  0  0
   73.5780   62.7030   19.7150 O   0  0  0  0  0
   69.1180   54.8400   16.3430 S   0  0  0  0  0
   68.4070   55.9150   17.0240 O   0  0  0  0  0
   69.7320   54.0090   17.3880 O   0  0  0  0  0
   70.3090   55.4600   15.2330 N   0  0  0  0  0
   70.9620   54.4050   14.3910 C   0  0  0  0  0
   72.5310   54.4970   14.5210 C   0  0  0  0  0
   73.1950   53.4450   13.5970 C   0  0  0  0  0
   72.9210   54.3060   16.0070 C   0  0  0  0  0
   69.9480   56.7480   14.5820 C   0  0  0  0  0
   70.8900   57.8450   15.1210 C   0  0  0  0  0
   74.4340   54.4020   16.1820 C   0  0  0  0  0
   70.7900   58.9800   14.3440 O   0  0  0  0  0
   70.5330   58.1830   16.5830 C   0  0  0  0  0
   72.8550   51.9960   14.0120 C   0  0  0  0  0
   71.5330   59.0990   17.0660 N   0  0  0  0  0
   72.5180   58.7070   18.0840 C   0  0  0  0  0
   72.5090   57.6450   18.6250 O   0  0  0  0  0
   73.4820   59.7070   18.3790 O   0  0  0  0  0
   74.2520   59.5560   19.5790 C   0  0  0  0  0
   75.7020   60.0910   19.2000 C   0  0  0  0  0
   75.4100   61.6560   19.1240 O   0  0  0  0  0
   74.5290   61.9030   20.1210 C   0  0  0  0  0
   72.1980   61.8530   19.7320 C   0  0  0  0  0
   72.5100   60.6200   20.6270 C   0  0  0  0  0
   73.8500   60.4170   20.5520 C   0  0  0  0  0
   69.1960   58.9140   16.6860 C   0  0  0  0  0
   68.6390   58.2880   19.2180 C   0  0  0  0  0
   68.4340   58.6930   20.6850 C   0  0  0  0  0
   68.5900   60.1600   21.1010 C   0  0  0  0  0
   68.9480   61.2200   20.0560 C   0  0  0  0  0
   69.1500   60.8180   18.5960 C   0  0  0  0  0
   68.9920   59.3430   18.1750 C   0  0  0  0  0
   65.0929   50.2582   13.2350 H   0  0  0  0  0
   64.1552   51.6638   12.8385 H   0  0  0  0  0
   65.1788   50.7485   10.9715 H   0  0  0  0  0
   67.4314   50.3870   14.3481 H   0  0  0  0  0
   69.0568   51.8681   15.8066 H   0  0  0  0  0
   66.6782   55.5902   14.6781 H   0  0  0  0  0
   65.0436   54.1079   13.2281 H   0  0  0  0  0
   70.6812   54.5564   13.3487 H   0  0  0  0  0
   70.6331   53.4231   14.7313 H   0  0  0  0  0
   72.8887   55.4757   14.2012 H   0  0  0  0  0
   74.2756   53.5703   13.6662 H   0  0  0  0  0
   72.8213   53.6019   12.5851 H   0  0  0  0  0
   72.5893   53.3210   16.3353 H   0  0  0  0  0
   72.4466   55.0880   16.5999 H   0  0  0  0  0
   68.9119   57.0022   14.8057 H   0  0  0  0  0
   70.0542   56.6627   13.5005 H   0  0  0  0  0
   71.9142   57.4740   15.0816 H   0  0  0  0  0
   74.9172   53.6269   15.5871 H   0  0  0  0  0
   74.7754   55.3825   15.8499 H   0  0  0  0  0
   74.6863   54.2649   17.2335 H   0  0  0  0  0
   71.3796   59.6550   14.6881 H   0  0  0  0  0
   70.4804   57.2528   17.1488 H   0  0  0  0  0
   73.2046   51.8192   15.0291 H   0  0  0  0  0
   71.7757   51.8503   13.9669 H   0  0  0  0  0
   73.3456   51.2999   13.3316 H   0  0  0  0  0
   71.5587   60.0472   16.6910 H   0  0  0  0  0
   74.1766   58.5248   19.9241 H   0  0  0  0  0
   76.1137   59.6652   18.2849 H   0  0  0  0  0
   76.4832   59.8130   19.9074 H   0  0  0  0  0
   75.0356   62.3797   20.9602 H   0  0  0  0  0
   71.8860   61.5611   18.7292 H   0  0  0  0  0
   71.3633   62.4375   20.1189 H   0  0  0  0  0
   71.9629   59.7415   20.2848 H   0  0  0  0  0
   72.1997   60.7973   21.6567 H   0  0  0  0  0
   74.1541   60.0014   21.5127 H   0  0  0  0  0
   68.3841   58.2596   16.3685 H   0  0  0  0  0
   69.1959   59.7909   16.0386 H   0  0  0  0  0
   68.5320   57.2445   18.9217 H   0  0  0  0  0
   68.1780   57.9387   21.4291 H   0  0  0  0  0
   68.4459   60.4489   22.1421 H   0  0  0  0  0
   69.0589   62.2626   20.3540 H   0  0  0  0  0
   69.4056   61.5731   17.8526 H   0  0  0  0  0
  1  2  1  0  0  0
  3  1  1  0  0  0
  4  3  4  0  0  0
  8  3  4  0  0  0
  5  4  4  0  0  0
  6  5  4  0  0  0
  6  7  4  0  0  0
 10  6  1  0  0  0
  7  8  4  0  0  0
 31  9  1  0  0  0
 32  9  1  0  0  0
 10 11  2  0  0  0
 10 12  2  0  0  0
 13 10  1  0  0  0
 13 14  1  0  0  0
 18 13  1  0  0  0
 14 15  1  0  0  0
 15 16  1  0  0  0
 15 17  1  0  0  0
 16 23  1  0  0  0
 17 20  1  0  0  0
 19 18  1  0  0  0
 19 21  1  0  0  0
 22 19  1  0  0  0
 22 24  1  0  0  0
 35 22  1  0  0  0
 24 25  1  0  0  0
 25 26  2  0  0  0
 25 27  1  0  0  0
 27 28  1  0  0  0
 28 29  1  0  0  0
 28 34  1  0  0  0
 29 30  1  0  0  0
 31 30  1  0  0  0
 34 31  1  0  0  0
 33 32  1  0  0  0
 34 33  1  0  0  0
 41 35  1  0  0  0
 36 37  4  0  0  0
 36 41  4  0  0  0
 37 38  4  0  0  0
 38 39  4  0  0  0
 39 40  4  0  0  0
 40 41  4  0  0  0
  1 42  1  0  0  0
  1 43  1  0  0  0
  2 44  1  0  0  0
  4 45  1  0  0  0
  5 46  1  0  0  0
  7 47  1  0  0  0
  8 48  1  0  0  0
 14 49  1  0  0  0
 14 50  1  0  0  0
 15 51  1  0  0  0
 16 52  1  0  0  0
 16 53  1  0  0  0
 17 54  1  0  0  0
 17 55  1  0  0  0
 18 56  1  0  0  0
 18 57  1  0  0  0
 19 58  1  0  0  0
 20 59  1  0  0  0
 20 60  1  0  0  0
 20 61  1  0  0  0
 21 62  1  0  0  0
 22 63  1  0  0  0
 23 64  1  0  0  0
 23 65  1  0  0  0
 23 66  1  0  0  0
 24 67  1  0  0  0
 28 68  1  0  0  0
 29 69  1  0  0  0
 29 70  1  0  0  0
 31 71  1  0  0  0
 32 72  1  0  0  0
 32 73  1  0  0  0
 33 74  1  0  0  0
 33 75  1  0  0  0
 34 76  1  0  0  0
 35 77  1  0  0  0
 35 78  1  0  0  0
 36 79  1  0  0  0
 37 80  1  0  0  0
 38 81  1  0  0  0
 39 82  1  0  0  0
 40 83  1  0  0  0
M  END
$$$$
