### 
### Created by X-TOOL on Sun Sep  9 21:50:07 2018
### 

@<TRIPOS>MOLECULE
1t7f_ligand
  136   137     1     0     0
SMALL
GAST_HUCK


@<TRIPOS>ATOM
      1 N          14.0790    5.5970   54.7410 N.4       1 NON         0.2357
      2 CA         13.8940    5.6560   53.2620 C.3       1 NON         0.0545
      3 C          13.5840    7.0530   52.7560 C.2       1 NON         0.2236
      4 O          13.3820    7.9770   53.5460 O.2       1 NON        -0.3910
      5 N          13.5480    7.2090   51.4350 N.am      1 NON        -0.2613
      6 CA         13.2570    8.5010   50.8250 C.3       1 NON         0.1313
      7 C          11.8450    8.9480   51.1820 C.2       1 NON         0.2039
      8 O          11.5580   10.1450   51.2310 O.2       1 NON        -0.3944
      9 CB         13.3950    8.4190   49.3020 C.3       1 NON        -0.0101
     10 CG         14.7760    8.0940   48.7270 C.3       1 NON        -0.0425
     11 CD1        14.6840    8.0270   47.2100 C.3       1 NON        -0.0625
     12 CD2        15.7870    9.1500   49.1560 C.3       1 NON        -0.0625
     13 N          10.9650    7.9800   51.4240 N.am      1 NON        -0.2637
     14 CA          9.5850    8.2790   51.7850 C.3       1 NON         0.1312
     15 C           9.5700    8.8910   53.1800 C.2       1 NON         0.2040
     16 O           8.9130    9.9030   53.4200 O.2       1 NON        -0.3944
     17 CB          8.7400    7.0020   51.7750 C.3       1 NON        -0.0101
     18 CG          7.2460    7.1770   52.0700 C.3       1 NON        -0.0425
     19 CD1         6.6130    8.0190   50.9760 C.3       1 NON        -0.0625
     20 CD2         6.5650    5.8200   52.1540 C.3       1 NON        -0.0625
     21 N          10.3050    8.2660   54.0960 N.am      1 NON        -0.2627
     22 CA         10.3930    8.7480   55.4680 C.3       1 NON         0.1352
     23 C          10.9540   10.1650   55.4980 C.2       1 NON         0.2052
     24 O          10.4670   11.0180   56.2400 O.2       1 NON        -0.3942
     25 CB         11.2770    7.8120   56.2980 C.3       1 NON         0.0042
     26 CG         11.5900    8.3290   57.6690 C.2       1 NON        -0.0418
     27 CD1        12.6580    9.0970   58.0330 C.2       1 NON         0.0167
     28 CD2        10.8090    8.1410   58.8540 C.ar      1 NON        -0.0214
     29 NE1        12.5920    9.3990   59.3710 N.pl3     1 NON        -0.2890
     30 CE2        11.4640    8.8260   59.9010 C.ar      1 NON         0.0603
     31 CE3         9.6140    7.4620   59.1340 C.ar      1 NON        -0.0747
     32 CZ2        10.9690    8.8510   61.2090 C.ar      1 NON        -0.0443
     33 CZ3         9.1200    7.4860   60.4360 C.ar      1 NON        -0.0792
     34 CH2         9.7990    8.1780   61.4560 C.ar      1 NON        -0.0768
     35 N          11.9800   10.4090   54.6880 N.am      1 NON        -0.2621
     36 CA         12.5960   11.7280   54.6090 C.3       1 NON         0.1423
     37 C          11.5850   12.7270   54.0610 C.2       1 NON         0.2056
     38 O          11.5110   13.8710   54.5100 O.2       1 NON        -0.3943
     39 CB         13.8210   11.6860   53.6930 C.3       1 NON         0.0406
     40 CG         14.9820   10.9300   54.3070 C.2       1 NON         0.0393
     41 OD1        14.7820    9.7790   54.7500 O.co2     1 NON        -0.5688
     42 OD2        16.1000   11.4880   54.3410 O.co2     1 NON        -0.5688
     43 N          10.8110   12.2760   53.0810 N.am      1 NON        -0.2636
     44 CA          9.7960   13.1030   52.4450 C.3       1 NON         0.1312
     45 C           8.7310   13.4680   53.4750 C.2       1 NON         0.2039
     46 O           8.3060   14.6200   53.5710 O.2       1 NON        -0.3944
     47 CB          9.1610   12.3260   51.2890 C.3       1 NON        -0.0101
     48 CG          8.6330   13.0770   50.0640 C.3       1 NON        -0.0425
     49 CD1         8.0980   12.0580   49.0670 C.3       1 NON        -0.0625
     50 CD2         7.5490   14.0680   50.4610 C.3       1 NON        -0.0625
     51 N           8.3140   12.4720   54.2500 N.am      1 NON        -0.2637
     52 CA          7.2950   12.6490   55.2790 C.3       1 NON         0.1312
     53 C           7.7540   13.5670   56.4090 C.2       1 NON         0.2034
     54 O           6.9760   14.3780   56.9170 O.2       1 NON        -0.3944
     55 CB          6.9000   11.2820   55.8510 C.3       1 NON        -0.0101
     56 CG          5.8480   11.2450   56.9630 C.3       1 NON        -0.0425
     57 CD1         4.5620   11.9060   56.4800 C.3       1 NON        -0.0625
     58 CD2         5.5930    9.8000   57.3670 C.3       1 NON        -0.0625
     59 N           9.0180   13.4400   56.7990 N.am      1 NON        -0.2670
     60 CA          9.5660   14.2600   57.8740 C.3       1 NON         0.1198
     61 C          10.2090   15.5340   57.3320 C.2       1 NON         0.0626
     62 O          10.9480   16.1870   58.0940 O.co2     1 NON        -0.5665
     63 CB         10.6260   13.4780   58.6760 C.3       1 NON         0.0869
     64 OG1        11.6960   13.0850   57.8050 O.3       1 NON        -0.3880
     65 CG2        10.0050   12.2350   59.2980 C.3       1 NON        -0.0352
     66 O1          9.9988   15.9141   56.1492 O.co2     1 NON        -0.5665
     67 H1         14.2814    4.6488   55.0167 H         1 NON         0.2012
     68 H2         13.2356    5.9069   55.1978 H         1 NON         0.2012
     69 H3         14.8450    6.1953   55.0080 H         1 NON         0.2012
     70 H4         13.0620    4.9913   52.9864 H         1 NON         0.1061
     71 H5         14.8184    5.3060   52.7793 H         1 NON         0.1061
     72 H6         13.7249    6.4205   50.8459 H         1 NON         0.1884
     73 H7         13.9738    9.2420   51.2084 H         1 NON         0.0800
     74 H8         13.0899    9.3930   48.8920 H         1 NON         0.0315
     75 H9         12.7020    7.6401   48.9512 H         1 NON         0.0315
     76 H10        15.1026    7.1155   49.1090 H         1 NON         0.0298
     77 H11        15.6746    7.7936   46.7926 H         1 NON         0.0232
     78 H12        14.3411    8.9968   46.8202 H         1 NON         0.0232
     79 H13        13.9699    7.2421   46.9202 H         1 NON         0.0232
     80 H14        15.8389    9.1831   50.2543 H         1 NON         0.0232
     81 H15        15.4748   10.1331   48.7740 H         1 NON         0.0232
     82 H16        16.7772    8.8962   48.7496 H         1 NON         0.0232
     83 H17        11.2569    7.0259   51.3567 H         1 NON         0.1883
     84 H18         9.1657    8.9958   51.0636 H         1 NON         0.0800
     85 H19         9.1539    6.3197   52.5320 H         1 NON         0.0315
     86 H20         8.8341    6.5450   50.7789 H         1 NON         0.0315
     87 H21         7.1283    7.6939   53.0338 H         1 NON         0.0298
     88 H22         5.5406    8.1461   51.1854 H         1 NON         0.0232
     89 H23         6.7401    7.5158   50.0061 H         1 NON         0.0232
     90 H24         7.0997    9.0049   50.9442 H         1 NON         0.0232
     91 H25         7.0342    5.2230   52.9498 H         1 NON         0.0232
     92 H26         6.6706    5.2966   51.1923 H         1 NON         0.0232
     93 H27         5.4976    5.9588   52.3807 H         1 NON         0.0232
     94 H28        10.8106    7.4434   53.8358 H         1 NON         0.1884
     95 H29         9.3830    8.7594   55.9037 H         1 NON         0.0815
     96 H30        12.2245    7.6628   55.7596 H         1 NON         0.0397
     97 H31        10.7584    6.8475   56.4018 H         1 NON         0.0397
     98 H32        13.4488    9.4234   57.3592 H         1 NON         0.0795
     99 H33        13.2779    9.9639   59.8919 H         1 NON         0.2216
    100 H34         9.0852    6.9289   58.3522 H         1 NON         0.0540
    101 H35        11.4899    9.3819   61.9976 H         1 NON         0.0541
    102 H36         8.1986    6.9638   60.6671 H         1 NON         0.0510
    103 H37         9.3886    8.1794   62.4593 H         1 NON         0.0530
    104 H38        12.3381    9.6690   54.1186 H         1 NON         0.1884
    105 H39        12.9086   12.0418   55.6159 H         1 NON         0.0819
    106 H40        14.1421   12.7176   53.4866 H         1 NON         0.0478
    107 H41        13.5394   11.1940   52.7503 H         1 NON         0.0478
    108 H42        10.9297   11.3336   52.7684 H         1 NON         0.1883
    109 H43        10.2596   14.0218   52.0566 H         1 NON         0.0800
    110 H44         8.3121   11.7672   51.7097 H         1 NON         0.0315
    111 H45         9.9213   11.6191   50.9253 H         1 NON         0.0315
    112 H46         9.4612   13.6322   49.5995 H         1 NON         0.0298
    113 H47         7.7138   12.5809   48.1788 H         1 NON         0.0232
    114 H48         7.2856   11.4809   49.5327 H         1 NON         0.0232
    115 H49         8.9081   11.3761   48.7691 H         1 NON         0.0232
    116 H50         7.9597   14.7919   51.1802 H         1 NON         0.0232
    117 H51         6.7097   13.5277   50.9233 H         1 NON         0.0232
    118 H52         7.1939   14.6009   49.5666 H         1 NON         0.0232
    119 H53         8.7149   11.5647   54.1227 H         1 NON         0.1883
    120 H54         6.4102   13.1031   54.8090 H         1 NON         0.0800
    121 H55         7.8140   10.8178   56.2499 H         1 NON         0.0315
    122 H56         6.5155   10.6770   55.0167 H         1 NON         0.0315
    123 H57         6.2259   11.7983   57.8354 H         1 NON         0.0298
    124 H58         3.8106   11.8763   57.2828 H         1 NON         0.0232
    125 H59         4.1804   11.3667   55.6005 H         1 NON         0.0232
    126 H60         4.7670   12.9520   56.2082 H         1 NON         0.0232
    127 H61         6.5330    9.3442   57.7114 H         1 NON         0.0232
    128 H62         5.2093    9.2396   56.5018 H         1 NON         0.0232
    129 H63         4.8525    9.7717   58.1799 H         1 NON         0.0232
    130 H64         9.6053   12.7689   56.3465 H         1 NON         0.1876
    131 H65         8.7435   14.5388   58.5491 H         1 NON         0.0752
    132 H66        11.0232   14.1228   59.4738 H         1 NON         0.0632
    133 H67        11.3548   12.5216   57.1204 H         1 NON         0.2100
    134 H68        10.7713   11.6875   59.8663 H         1 NON         0.0256
    135 H69         9.6057   11.5877   58.5033 H         1 NON         0.0256
    136 H70         9.1894   12.5316   59.9739 H         1 NON         0.0256
@<TRIPOS>BOND
     1    2    1 1  
     2    3    2 1  
     3    3    4 2  
     4    6    5 1  
     5    6    9 1  
     6    7    6 1  
     7    7    8 2  
     8    9   10 1  
     9   10   11 1  
    10   10   12 1  
    11    5    3 am 
    12   14   13 1  
    13   14   17 1  
    14   15   14 1  
    15   15   16 2  
    16   17   18 1  
    17   18   19 1  
    18   18   20 1  
    19   13    7 am 
    20   22   21 1  
    21   22   25 1  
    22   23   22 1  
    23   23   24 2  
    24   25   26 1  
    25   26   27 2  
    26   26   28 1  
    27   28   31 ar 
    28   28   30 ar 
    29   30   32 ar 
    30   30   29 1  
    31   27   29 1  
    32   32   34 ar 
    33   33   34 ar 
    34   31   33 ar 
    35   21   15 am 
    36   36   35 1  
    37   36   39 1  
    38   37   36 1  
    39   37   38 2  
    40   39   40 1  
    41   40   42 ar 
    42   40   41 ar 
    43   35   23 am 
    44   44   43 1  
    45   44   47 1  
    46   45   44 1  
    47   45   46 2  
    48   47   48 1  
    49   48   49 1  
    50   48   50 1  
    51   43   37 am 
    52   52   51 1  
    53   52   55 1  
    54   53   52 1  
    55   53   54 2  
    56   55   56 1  
    57   56   57 1  
    58   56   58 1  
    59   51   45 am 
    60   59   60 1  
    61   60   63 1  
    62   60   61 1  
    63   61   62 ar 
    64   63   65 1  
    65   63   64 1  
    66   53   59 am 
    67   61   66 ar 
    68    1   67 1  
    69    1   68 1  
    70    1   69 1  
    71    2   70 1  
    72    2   71 1  
    73    5   72 1  
    74    6   73 1  
    75    9   74 1  
    76    9   75 1  
    77   10   76 1  
    78   11   77 1  
    79   11   78 1  
    80   11   79 1  
    81   12   80 1  
    82   12   81 1  
    83   12   82 1  
    84   13   83 1  
    85   14   84 1  
    86   17   85 1  
    87   17   86 1  
    88   18   87 1  
    89   19   88 1  
    90   19   89 1  
    91   19   90 1  
    92   20   91 1  
    93   20   92 1  
    94   20   93 1  
    95   21   94 1  
    96   22   95 1  
    97   25   96 1  
    98   25   97 1  
    99   27   98 1  
   100   29   99 1  
   101   31  100 1  
   102   32  101 1  
   103   33  102 1  
   104   34  103 1  
   105   35  104 1  
   106   36  105 1  
   107   39  106 1  
   108   39  107 1  
   109   43  108 1  
   110   44  109 1  
   111   47  110 1  
   112   47  111 1  
   113   48  112 1  
   114   49  113 1  
   115   49  114 1  
   116   49  115 1  
   117   50  116 1  
   118   50  117 1  
   119   50  118 1  
   120   51  119 1  
   121   52  120 1  
   122   55  121 1  
   123   55  122 1  
   124   56  123 1  
   125   57  124 1  
   126   57  125 1  
   127   57  126 1  
   128   58  127 1  
   129   58  128 1  
   130   58  129 1  
   131   59  130 1  
   132   60  131 1  
   133   63  132 1  
   134   64  133 1  
   135   65  134 1  
   136   65  135 1  
   137   65  136 1  
@<TRIPOS>SUBSTRUCTURE
     1 NON         1

