1t7f_ligand
  -I-interpret- 

137138  0  0  0  0  0  0  0  0999 V2000
   14.0790    5.5970   54.7410 N   0  3  0  0  0
   13.8940    5.6560   53.2620 C   0  0  0  0  0
   13.5840    7.0530   52.7560 C   0  0  0  0  0
   13.3820    7.9770   53.5460 O   0  0  0  0  0
   13.5480    7.2090   51.4350 N   0  0  0  0  0
   13.2570    8.5010   50.8250 C   0  0  0  0  0
   11.8450    8.9480   51.1820 C   0  0  0  0  0
   11.5580   10.1450   51.2310 O   0  0  0  0  0
   13.3950    8.4190   49.3020 C   0  0  0  0  0
   14.7760    8.0940   48.7270 C   0  0  0  0  0
   14.6840    8.0270   47.2100 C   0  0  0  0  0
   15.7870    9.1500   49.1560 C   0  0  0  0  0
   10.9650    7.9800   51.4240 N   0  0  0  0  0
    9.5850    8.2790   51.7850 C   0  0  0  0  0
    9.5700    8.8910   53.1800 C   0  0  0  0  0
    8.9130    9.9030   53.4200 O   0  0  0  0  0
    8.7400    7.0020   51.7750 C   0  0  0  0  0
    7.2460    7.1770   52.0700 C   0  0  0  0  0
    6.6130    8.0190   50.9760 C   0  0  0  0  0
    6.5650    5.8200   52.1540 C   0  0  0  0  0
   10.3050    8.2660   54.0960 N   0  0  0  0  0
   10.3930    8.7480   55.4680 C   0  0  0  0  0
   10.9540   10.1650   55.4980 C   0  0  0  0  0
   10.4670   11.0180   56.2400 O   0  0  0  0  0
   11.2770    7.8120   56.2980 C   0  0  0  0  0
   11.5900    8.3290   57.6690 C   0  0  0  0  0
   12.6580    9.0970   58.0330 C   0  0  0  0  0
   10.8090    8.1410   58.8540 C   0  0  0  0  0
   12.5920    9.3990   59.3710 N   0  0  0  0  0
   11.4640    8.8260   59.9010 C   0  0  0  0  0
    9.6140    7.4620   59.1340 C   0  0  0  0  0
   10.9690    8.8510   61.2090 C   0  0  0  0  0
    9.1200    7.4860   60.4360 C   0  0  0  0  0
    9.7990    8.1780   61.4560 C   0  0  0  0  0
   11.9800   10.4090   54.6880 N   0  0  0  0  0
   12.5960   11.7280   54.6090 C   0  0  0  0  0
   11.5850   12.7270   54.0610 C   0  0  0  0  0
   11.5110   13.8710   54.5100 O   0  0  0  0  0
   13.8210   11.6860   53.6930 C   0  0  0  0  0
   14.9820   10.9300   54.3070 C   0  0  0  0  0
   14.7820    9.7790   54.7500 O   0  0  0  0  0
   16.1000   11.4880   54.3410 O   0  0  0  0  0
   10.8110   12.2760   53.0810 N   0  0  0  0  0
    9.7960   13.1030   52.4450 C   0  0  0  0  0
    8.7310   13.4680   53.4750 C   0  0  0  0  0
    8.3060   14.6200   53.5710 O   0  0  0  0  0
    9.1610   12.3260   51.2890 C   0  0  0  0  0
    8.6330   13.0770   50.0640 C   0  0  0  0  0
    8.0980   12.0580   49.0670 C   0  0  0  0  0
    7.5490   14.0680   50.4610 C   0  0  0  0  0
    8.3140   12.4720   54.2500 N   0  0  0  0  0
    7.2950   12.6490   55.2790 C   0  0  0  0  0
    7.7540   13.5670   56.4090 C   0  0  0  0  0
    6.9760   14.3780   56.9170 O   0  0  0  0  0
    6.9000   11.2820   55.8510 C   0  0  0  0  0
    5.8480   11.2450   56.9630 C   0  0  0  0  0
    4.5620   11.9060   56.4800 C   0  0  0  0  0
    5.5930    9.8000   57.3670 C   0  0  0  0  0
    9.0180   13.4400   56.7990 N   0  0  0  0  0
    9.5660   14.2600   57.8740 C   0  0  0  0  0
   10.2090   15.5340   57.3320 C   0  0  0  0  0
   10.9480   16.1870   58.0940 O   0  0  0  0  0
   10.6260   13.4780   58.6760 C   0  0  0  0  0
   11.6960   13.0850   57.8050 O   0  0  0  0  0
   10.0050   12.2350   59.2980 C   0  0  0  0  0
    9.9988   15.9141   56.1492 O   0  0  0  0  0
   14.2838    4.6372   55.0188 H   0  0  0  0  0
   14.8543    6.2028   55.0099 H   0  0  0  0  0
   13.2250    5.9108   55.2021 H   0  0  0  0  0
   13.0485    5.0166   53.0082 H   0  0  0  0  0
   14.8269    5.3353   52.7985 H   0  0  0  0  0
   13.7285    6.4047   50.8342 H   0  0  0  0  0
   13.9732    9.2274   51.2092 H   0  0  0  0  0
   13.1540    9.4163   48.9339 H   0  0  0  0  0
   12.7509    7.5948   48.9955 H   0  0  0  0  0
   15.1110    7.1292   49.1078 H   0  0  0  0  0
   13.9761    7.2490   46.9242 H   0  0  0  0  0
   14.3441    8.9885   46.8251 H   0  0  0  0  0
   15.6661    7.7957   46.7976 H   0  0  0  0  0
   15.4684   10.1261   48.7901 H   0  0  0  0  0
   15.8490    9.1710   50.2440 H   0  0  0  0  0
   16.7643    8.9058   48.7397 H   0  0  0  0  0
   11.2628    7.0069   51.3554 H   0  0  0  0  0
    9.1635    8.9765   51.0611 H   0  0  0  0  0
    9.1352    6.3692   52.5697 H   0  0  0  0  0
    8.8057    6.6014   50.7634 H   0  0  0  0  0
    7.1231    7.6821   53.0280 H   0  0  0  0  0
    7.0962    8.9956   50.9455 H   0  0  0  0  0
    6.7396    7.5194   50.0156 H   0  0  0  0  0
    5.5505    8.1442   51.1846 H   0  0  0  0  0
    6.6831    5.2963   51.2054 H   0  0  0  0  0
    7.0209    5.2349   52.9527 H   0  0  0  0  0
    5.5045    5.9595   52.3639 H   0  0  0  0  0
   10.8207    7.4269   53.8306 H   0  0  0  0  0
    9.3916    8.7619   55.8983 H   0  0  0  0  0
   12.2235    7.7056   55.7679 H   0  0  0  0  0
   10.7318    6.8762   56.4213 H   0  0  0  0  0
   13.4495    9.4237   57.3586 H   0  0  0  0  0
    9.0823    6.9260   58.3479 H   0  0  0  0  0
   11.4928    9.3848   62.0020 H   0  0  0  0  0
    8.1935    6.9609   60.6684 H   0  0  0  0  0
    9.3863    8.1794   62.4648 H   0  0  0  0  0
   12.3453    9.6542   54.1072 H   0  0  0  0  0
   12.9113   12.0330   55.6068 H   0  0  0  0  0
   14.1441   12.7121   53.5176 H   0  0  0  0  0
   13.5355   11.1737   52.7742 H   0  0  0  0  0
   16.0319   12.3625   53.9508 H   0  0  0  0  0
   10.9321   11.3147   52.7621 H   0  0  0  0  0
   10.2489   14.0150   52.0560 H   0  0  0  0  0
    8.2777   11.8598   51.7255 H   0  0  0  0  0
    9.9681   11.7042   50.9016 H   0  0  0  0  0
    9.4410   13.6484   49.6072 H   0  0  0  0  0
    8.9016   11.3830   48.7727 H   0  0  0  0  0
    7.2931   11.4868   49.5297 H   0  0  0  0  0
    7.7176   12.5773   48.1874 H   0  0  0  0  0
    6.7223   13.5326   50.9279 H   0  0  0  0  0
    7.9598   14.7908   51.1659 H   0  0  0  0  0
    7.1910   14.5882   49.5725 H   0  0  0  0  0
    8.7229   11.5466   54.1201 H   0  0  0  0  0
    6.4360   13.1255   54.8065 H   0  0  0  0  0
    7.8094   10.8826   56.2999 H   0  0  0  0  0
    6.4587   10.7362   55.0171 H   0  0  0  0  0
    6.2102   11.7944   57.8319 H   0  0  0  0  0
    4.7665   12.9423   56.2110 H   0  0  0  0  0
    4.1850   11.3707   55.6086 H   0  0  0  0  0
    3.8183   11.8759   57.2763 H   0  0  0  0  0
    5.2319    9.2410   56.5037 H   0  0  0  0  0
    6.5209    9.3556   57.7270 H   0  0  0  0  0
    4.8442    9.7721   58.1586 H   0  0  0  0  0
    9.6171   12.7555   56.3375 H   0  0  0  0  0
    8.7328   14.5267   58.5242 H   0  0  0  0  0
   11.0109   14.1207   59.4677 H   0  0  0  0  0
   12.3538   12.5986   58.3073 H   0  0  0  0  0
    9.1970   12.5302   59.9674 H   0  0  0  0  0
    9.6097   11.5945   58.5096 H   0  0  0  0  0
   10.7653   11.6934   59.8608 H   0  0  0  0  0
    9.4100   15.2928   55.7145 H   0  0  0  0  0
  2  1  1  0  0  0
  3  2  1  0  0  0
  3  4  2  0  0  0
  6  5  1  0  0  0
  6  9  1  0  0  0
  7  6  1  0  0  0
  7  8  2  0  0  0
  9 10  1  0  0  0
 10 11  1  0  0  0
 10 12  1  0  0  0
  5  3  1  0  0  0
 14 13  1  0  0  0
 14 17  1  0  0  0
 15 14  1  0  0  0
 15 16  2  0  0  0
 17 18  1  0  0  0
 18 19  1  0  0  0
 18 20  1  0  0  0
 13  7  1  0  0  0
 22 21  1  0  0  0
 22 25  1  0  0  0
 23 22  1  0  0  0
 23 24  2  0  0  0
 25 26  1  0  0  0
 26 27  4  0  0  0
 26 28  4  0  0  0
 28 31  4  0  0  0
 28 30  4  0  0  0
 30 32  4  0  0  0
 30 29  4  0  0  0
 27 29  4  0  0  0
 32 34  4  0  0  0
 33 34  4  0  0  0
 31 33  4  0  0  0
 21 15  1  0  0  0
 36 35  1  0  0  0
 36 39  1  0  0  0
 37 36  1  0  0  0
 37 38  2  0  0  0
 39 40  1  0  0  0
 40 42  1  0  0  0
 40 41  2  0  0  0
 35 23  1  0  0  0
 44 43  1  0  0  0
 44 47  1  0  0  0
 45 44  1  0  0  0
 45 46  2  0  0  0
 47 48  1  0  0  0
 48 49  1  0  0  0
 48 50  1  0  0  0
 43 37  1  0  0  0
 52 51  1  0  0  0
 52 55  1  0  0  0
 53 52  1  0  0  0
 53 54  2  0  0  0
 55 56  1  0  0  0
 56 57  1  0  0  0
 56 58  1  0  0  0
 51 45  1  0  0  0
 59 60  1  0  0  0
 60 63  1  0  0  0
 60 61  1  0  0  0
 61 62  2  0  0  0
 63 65  1  0  0  0
 63 64  1  0  0  0
 53 59  1  0  0  0
 61 66  1  0  0  0
  1 67  1  0  0  0
  1 68  1  0  0  0
  1 69  1  0  0  0
  2 70  1  0  0  0
  2 71  1  0  0  0
  5 72  1  0  0  0
  6 73  1  0  0  0
  9 74  1  0  0  0
  9 75  1  0  0  0
 10 76  1  0  0  0
 11 77  1  0  0  0
 11 78  1  0  0  0
 11 79  1  0  0  0
 12 80  1  0  0  0
 12 81  1  0  0  0
 12 82  1  0  0  0
 13 83  1  0  0  0
 14 84  1  0  0  0
 17 85  1  0  0  0
 17 86  1  0  0  0
 18 87  1  0  0  0
 19 88  1  0  0  0
 19 89  1  0  0  0
 19 90  1  0  0  0
 20 91  1  0  0  0
 20 92  1  0  0  0
 20 93  1  0  0  0
 21 94  1  0  0  0
 22 95  1  0  0  0
 25 96  1  0  0  0
 25 97  1  0  0  0
 27 98  1  0  0  0
 31 99  1  0  0  0
 32100  1  0  0  0
 33101  1  0  0  0
 34102  1  0  0  0
 35103  1  0  0  0
 36104  1  0  0  0
 39105  1  0  0  0
 39106  1  0  0  0
 42107  1  0  0  0
 43108  1  0  0  0
 44109  1  0  0  0
 47110  1  0  0  0
 47111  1  0  0  0
 48112  1  0  0  0
 49113  1  0  0  0
 49114  1  0  0  0
 49115  1  0  0  0
 50116  1  0  0  0
 50117  1  0  0  0
 50118  1  0  0  0
 51119  1  0  0  0
 52120  1  0  0  0
 55121  1  0  0  0
 55122  1  0  0  0
 56123  1  0  0  0
 57124  1  0  0  0
 57125  1  0  0  0
 57126  1  0  0  0
 58127  1  0  0  0
 58128  1  0  0  0
 58129  1  0  0  0
 59130  1  0  0  0
 60131  1  0  0  0
 63132  1  0  0  0
 64133  1  0  0  0
 65134  1  0  0  0
 65135  1  0  0  0
 65136  1  0  0  0
 66137  1  0  0  0
M  END
$$$$
