3k37_ligand
  -I-interpret- 

 51 51  0  0  0  0  0  0  0  0999 V2000
  -14.0380  -27.0410   11.9390 C   0  0  0  0  0
  -13.3540  -26.4240   13.0940 N   0  0  0  0  0
  -12.0020  -26.0370   13.0860 C   0  0  0  0  0
  -11.2820  -25.8830   11.9320 N   0  0  0  0  0
  -11.2960  -25.7790   14.2490 N   0  0  0  0  0
  -14.9510  -28.2260   12.2410 C   0  0  0  0  0
  -14.2210  -29.5470   12.5420 C   0  0  0  0  0
  -15.1400  -30.7300   12.8280 C   0  0  0  0  0
  -15.9060  -30.5490   14.1310 C   0  0  0  0  0
  -17.3050  -31.0910   13.9850 C   0  0  0  0  0
  -14.3500  -32.0320   12.8270 C   0  0  0  0  0
  -13.8930  -32.4140   11.4200 C   0  0  0  0  0
  -13.2250  -29.4690   13.5860 N   0  0  0  0  0
  -11.8700  -29.4200   13.3160 C   0  0  0  0  0
  -11.0740  -29.1140   14.5440 C   0  0  0  0  0
  -11.3270  -29.6100   12.2360 O   0  0  0  0  0
  -15.8330  -28.2950   11.0000 C   0  0  0  0  0
  -15.2320  -29.2020   10.0550 O   0  0  0  0  0
  -15.8280  -26.9350   10.3100 C   0  0  0  0  0
  -17.2640  -26.3890   10.4000 C   0  0  0  0  0
  -17.3950  -25.1450   10.2050 O   0  0  0  0  0
  -18.1910  -27.2160   10.6380 O   0  0  0  0  0
  -14.9610  -26.0620   11.2090 C   0  0  0  0  0
  -13.1786  -27.3678   11.3536 H   0  0  0  0  0
  -13.8932  -26.2699   13.9460 H   0  0  0  0  0
  -10.3034  -25.5985   11.9755 H   0  0  0  0  0
  -10.3165  -25.4986   14.1995 H   0  0  0  0  0
  -11.7554  -25.8693   15.1552 H   0  0  0  0  0
  -15.5102  -28.0821   13.1655 H   0  0  0  0  0
  -13.7084  -29.7277   11.5972 H   0  0  0  0  0
  -15.8797  -30.7775   12.0289 H   0  0  0  0  0
  -15.9558  -29.4875   14.3737 H   0  0  0  0  0
  -15.3931  -31.0890   14.9269 H   0  0  0  0  0
  -17.8197  -30.5547   13.1878 H   0  0  0  0  0
  -17.2585  -32.1520   13.7396 H   0  0  0  0  0
  -17.8449  -30.9569   14.9223 H   0  0  0  0  0
  -14.9943  -32.8252   13.2062 H   0  0  0  0  0
  -13.4663  -31.8982   13.4508 H   0  0  0  0  0
  -14.7648  -32.5402   10.7780 H   0  0  0  0  0
  -13.2563  -31.6251   11.0195 H   0  0  0  0  0
  -13.3331  -33.3482   11.4624 H   0  0  0  0  0
  -13.5331  -29.4494   14.5582 H   0  0  0  0  0
  -10.3919  -29.9393   14.7483 H   0  0  0  0  0
  -10.5026  -28.1992   14.3865 H   0  0  0  0  0
  -11.7492  -28.9812   15.3894 H   0  0  0  0  0
  -16.8358  -28.6039   11.2950 H   0  0  0  0  0
  -15.2051  -30.0842   10.4326 H   0  0  0  0  0
  -15.4831  -26.9687    9.2766 H   0  0  0  0  0
  -16.5324  -24.7544   10.0472 H   0  0  0  0  0
  -14.3975  -25.3257   10.6360 H   0  0  0  0  0
  -15.5616  -25.4767   11.9053 H   0  0  0  0  0
  1  2  1  0  0  0
  1  6  1  0  0  0
  1 23  1  0  0  0
  2  3  1  0  0  0
  3  4  2  0  0  0
  3  5  1  0  0  0
  6  7  1  0  0  0
  6 17  1  0  0  0
  7  8  1  0  0  0
  7 13  1  0  0  0
  8  9  1  0  0  0
  8 11  1  0  0  0
  9 10  1  0  0  0
 11 12  1  0  0  0
 13 14  1  0  0  0
 14 15  1  0  0  0
 14 16  2  0  0  0
 17 18  1  0  0  0
 17 19  1  0  0  0
 19 20  1  0  0  0
 19 23  1  0  0  0
 20 21  1  0  0  0
 20 22  2  0  0  0
  1 24  1  0  0  0
  2 25  1  0  0  0
  4 26  1  0  0  0
  5 27  1  0  0  0
  5 28  1  0  0  0
  6 29  1  0  0  0
  7 30  1  0  0  0
  8 31  1  0  0  0
  9 32  1  0  0  0
  9 33  1  0  0  0
 10 34  1  0  0  0
 10 35  1  0  0  0
 10 36  1  0  0  0
 11 37  1  0  0  0
 11 38  1  0  0  0
 12 39  1  0  0  0
 12 40  1  0  0  0
 12 41  1  0  0  0
 13 42  1  0  0  0
 15 43  1  0  0  0
 15 44  1  0  0  0
 15 45  1  0  0  0
 17 46  1  0  0  0
 18 47  1  0  0  0
 19 48  1  0  0  0
 21 49  1  0  0  0
 23 50  1  0  0  0
 23 51  1  0  0  0
M  END
$$$$
