5nap_ligand
  -I-interpret- 

 56 59  0  0  0  0  0  0  0  0999 V2000
  167.2470   26.8000  183.8860 O   0  0  0  0  0
  167.1890   28.0300  184.0320 C   0  0  0  0  0
  166.1980   28.7380  184.6740 C   0  0  0  0  0
  165.1080   28.2450  185.2680 C   0  0  0  0  0
  164.1810   29.0810  185.8780 C   0  0  0  0  0
  163.0100   28.7200  186.5230 O   0  0  0  0  0
  162.5790   27.3420  186.3880 C   0  0  0  0  0
  164.4660   30.4120  185.8730 C   0  0  0  0  0
  163.4770   31.0830  186.4780 O   0  0  0  0  0
  163.6510   32.5040  186.5190 C   0  0  0  0  0
  165.6400   30.9100  185.2170 C   0  0  0  0  0
  166.4990   30.0710  184.5980 C   0  0  0  0  0
  167.7090   30.1910  183.9360 C   0  0  0  0  0
  168.1240   28.8920  183.5930 C   0  0  0  0  0
  169.2800   28.5480  182.9430 C   0  0  0  0  0
  170.4850   29.3000  182.3290 C   0  0  0  0  0
  170.5700   28.8190  180.8560 C   0  0  0  0  0
  171.8650   29.2160  180.2700 C   0  0  0  0  0
  170.4940   30.7760  182.4070 C   0  0  0  0  0
  171.8230   31.1850  181.7310 C   0  0  0  0  0
  171.9240   30.7020  180.3100 N   0  3  0  0  0
  173.1110   31.2850  179.5820 C   0  0  0  0  0
  173.1090   30.9590  178.1690 C   0  0  0  0  0
  172.2730   31.7050  177.3020 C   0  0  0  0  0
  172.1920   31.4350  175.9260 C   0  0  0  0  0
  172.9510   30.3760  175.4230 C   0  0  0  0  0
  173.8060   29.6560  176.2800 C   0  0  0  0  0
  173.8900   29.9310  177.6460 C   0  0  0  0  0
  164.9428   27.1676  185.2743 H   0  0  0  0  0
  162.4145   27.1156  185.3345 H   0  0  0  0  0
  163.3485   26.6812  186.7871 H   0  0  0  0  0
  161.6511   27.1970  186.9413 H   0  0  0  0  0
  164.5678   32.7411  187.0588 H   0  0  0  0  0
  163.7165   32.8902  185.5018 H   0  0  0  0  0
  162.8006   32.9584  187.0275 H   0  0  0  0  0
  165.8422   31.9811  185.2179 H   0  0  0  0  0
  168.2402   31.1182  183.7211 H   0  0  0  0  0
  168.8317   28.1971  182.0135 H   0  0  0  0  0
  169.7992   28.0955  183.7879 H   0  0  0  0  0
  171.3566   29.0539  182.9356 H   0  0  0  0  0
  169.7622   29.2739  180.2828 H   0  0  0  0  0
  170.4811   27.7330  180.8274 H   0  0  0  0  0
  171.9515   28.8543  179.2454 H   0  0  0  0  0
  172.6917   28.7822  180.8325 H   0  0  0  0  0
  170.4289   31.1334  183.4347 H   0  0  0  0  0
  169.6288   31.2187  181.9134 H   0  0  0  0  0
  172.6387   30.7345  182.2965 H   0  0  0  0  0
  171.8710   32.2739  181.7187 H   0  0  0  0  0
  171.1163   31.0485  179.7923 H   0  0  0  0  0
  174.0155   30.8662  180.0230 H   0  0  0  0  0
  173.0650   32.3698  179.6774 H   0  0  0  0  0
  171.6729   32.5151  177.7164 H   0  0  0  0  0
  171.5572   32.0327  175.2718 H   0  0  0  0  0
  172.8818   30.1071  174.3689 H   0  0  0  0  0
  174.4216   28.8588  175.8634 H   0  0  0  0  0
  174.5530   29.3533  178.2900 H   0  0  0  0  0
  1  2  2  0  0  0
  2  3  1  0  0  0
  2 14  1  0  0  0
  3  4  4  0  0  0
  3 12  4  0  0  0
  4  5  4  0  0  0
  5  6  1  0  0  0
  5  8  4  0  0  0
  6  7  1  0  0  0
  8  9  1  0  0  0
  8 11  4  0  0  0
  9 10  1  0  0  0
 11 12  4  0  0  0
 12 13  1  0  0  0
 13 14  2  0  0  0
 14 15  1  0  0  0
 15 16  1  0  0  0
 16 17  1  0  0  0
 16 19  1  0  0  0
 17 18  1  0  0  0
 18 21  1  0  0  0
 19 20  1  0  0  0
 20 21  1  0  0  0
 21 22  1  0  0  0
 22 23  1  0  0  0
 23 24  4  0  0  0
 23 28  4  0  0  0
 24 25  4  0  0  0
 25 26  4  0  0  0
 26 27  4  0  0  0
 27 28  4  0  0  0
  4 29  1  0  0  0
  7 30  1  0  0  0
  7 31  1  0  0  0
  7 32  1  0  0  0
 10 33  1  0  0  0
 10 34  1  0  0  0
 10 35  1  0  0  0
 11 36  1  0  0  0
 13 37  1  0  0  0
 15 38  1  0  0  0
 15 39  1  0  0  0
 16 40  1  0  0  0
 17 41  1  0  0  0
 17 42  1  0  0  0
 18 43  1  0  0  0
 18 44  1  0  0  0
 19 45  1  0  0  0
 19 46  1  0  0  0
 20 47  1  0  0  0
 20 48  1  0  0  0
 21 49  1  0  0  0
 22 50  1  0  0  0
 22 51  1  0  0  0
 24 52  1  0  0  0
 25 53  1  0  0  0
 26 54  1  0  0  0
 27 55  1  0  0  0
 28 56  1  0  0  0
M  END
$$$$
