5h6v_ligand
  -I-interpret- 

 52 51  0  0  0  0  0  0  0  0999 V2000
   -6.4370    3.3350  -12.9570 N   0  0  0  0  0
   -7.8210    3.8080  -12.8870 C   0  0  0  0  0
   -4.6400    1.8170  -13.3560 C   0  0  0  0  0
   -6.1440    2.1320  -13.4330 C   0  0  0  0  0
   -9.9400    5.1730  -15.6950 C   0  0  0  0  0
  -11.2280    5.8150  -15.1360 C   0  0  0  0  0
  -10.1750    4.3310  -16.9670 C   0  0  0  0  0
   -8.8380    4.0760  -17.6490 C   0  0  0  0  0
   -8.1080    5.3850  -17.9160 C   0  0  0  0  0
   -5.9180    5.0400  -19.0720 C   0  0  0  0  0
   -8.1870    4.6340  -14.1040 C   0  0  0  0  0
   -7.4110    5.4390  -14.6150 O   0  0  0  0  0
   -9.4040    4.4020  -14.5640 N   0  0  0  0  0
   -6.6590    5.1280  -17.9520 N   0  0  0  0  0
   -6.4910    5.1880  -20.2870 N   0  0  0  0  0
   -4.5960    4.8140  -18.9670 N   0  0  0  0  0
   -6.9910    1.3500  -13.8820 O   0  0  0  0  0
  -11.1110    6.6040  -14.1950 O   0  0  0  0  0
   -7.9600    4.6710  -11.6220 C   0  0  0  0  0
   -8.9390    3.9760  -10.6750 C   0  0  0  0  0
   -8.2090    2.9280   -9.8450 C   0  0  0  0  0
   -9.2340    2.1280   -9.0510 C   0  0  0  0  0
   -8.7610    1.9150   -7.6800 N   0  3  0  0  0
   -5.6839    3.9421  -12.6336 H   0  0  0  0  0
   -8.4928    2.9502  -12.8563 H   0  0  0  0  0
   -4.4860    0.9366  -12.7320 H   0  0  0  0  0
   -4.2586    1.6244  -14.3588 H   0  0  0  0  0
   -4.1137    2.6675  -12.9228 H   0  0  0  0  0
   -9.2291    5.9208  -16.0463 H   0  0  0  0  0
  -12.2053    5.5796  -15.5575 H   0  0  0  0  0
  -10.8365    4.8690  -17.6460 H   0  0  0  0  0
  -10.6367    3.3810  -16.6980 H   0  0  0  0  0
   -9.0188    3.5745  -18.5997 H   0  0  0  0  0
   -8.2227    3.4577  -16.9954 H   0  0  0  0  0
   -8.3346    6.0998  -17.1250 H   0  0  0  0  0
   -8.4316    5.7977  -18.8715 H   0  0  0  0  0
   -9.9780    3.6796  -14.1292 H   0  0  0  0  0
   -6.1798    5.0074  -17.0597 H   0  0  0  0  0
   -5.9206    5.1285  -21.1305 H   0  0  0  0  0
   -7.4938    5.3592  -20.3605 H   0  0  0  0  0
   -4.1676    4.7117  -18.0470 H   0  0  0  0  0
   -8.3309    5.6621  -11.8833 H   0  0  0  0  0
   -6.9898    4.7871  -11.1390 H   0  0  0  0  0
   -9.7188    3.4892  -11.2606 H   0  0  0  0  0
   -9.3794    4.7174  -10.0083 H   0  0  0  0  0
   -7.5133    3.4165   -9.1628 H   0  0  0  0  0
   -7.6490    2.2619  -10.5013 H   0  0  0  0  0
   -9.3804    1.1606   -9.5315 H   0  0  0  0  0
  -10.1726    2.6814   -9.0219 H   0  0  0  0  0
   -9.4565    1.3788   -7.1611 H   0  0  0  0  0
   -7.8803    1.4009   -7.7015 H   0  0  0  0  0
   -8.6183    2.8176   -7.2268 H   0  0  0  0  0
  2  1  1  0  0  0
  1  4  1  0  0  0
 11  2  1  0  0  0
  2 19  1  0  0  0
  4  3  1  0  0  0
  4 17  2  0  0  0
  5  6  1  0  0  0
  5  7  1  0  0  0
 13  5  1  0  0  0
  6 18  2  0  0  0
  7  8  1  0  0  0
  8  9  1  0  0  0
  9 14  1  0  0  0
 14 10  1  0  0  0
 10 15  1  0  0  0
 10 16  2  0  0  0
 11 12  2  0  0  0
 11 13  1  0  0  0
 19 20  1  0  0  0
 20 21  1  0  0  0
 21 22  1  0  0  0
 22 23  1  0  0  0
  1 24  1  0  0  0
  2 25  1  0  0  0
  3 26  1  0  0  0
  3 27  1  0  0  0
  3 28  1  0  0  0
  5 29  1  0  0  0
  6 30  1  0  0  0
  7 31  1  0  0  0
  7 32  1  0  0  0
  8 33  1  0  0  0
  8 34  1  0  0  0
  9 35  1  0  0  0
  9 36  1  0  0  0
 13 37  1  0  0  0
 14 38  1  0  0  0
 15 39  1  0  0  0
 15 40  1  0  0  0
 16 41  1  0  0  0
 19 42  1  0  0  0
 19 43  1  0  0  0
 20 44  1  0  0  0
 20 45  1  0  0  0
 21 46  1  0  0  0
 21 47  1  0  0  0
 22 48  1  0  0  0
 22 49  1  0  0  0
 23 50  1  0  0  0
 23 51  1  0  0  0
 23 52  1  0  0  0
M  END
$$$$
