6hmx_ligand
  -I-interpret- 

 50 52  0  0  0  0  0  0  0  0999 V2000
  -41.0660   39.8980   -6.9020 C   0  0  0  0  0
  -40.4120   40.2230   -5.6670 O   0  0  0  0  0
  -40.3390   39.2750   -4.6690 C   0  0  0  0  0
  -40.8880   38.0230   -4.7800 C   0  0  0  0  0
  -40.7680   37.0590   -3.7450 C   0  0  0  0  0
  -41.3510   35.8270   -3.9540 N   0  0  0  0  0
  -41.2590   34.9720   -2.9300 C   0  0  0  0  0
  -40.6380   35.2310   -1.7280 C   0  0  0  0  0
  -40.0250   36.4570   -1.4990 C   0  0  0  0  0
  -39.3670   36.7790   -0.2880 N   0  0  0  0  0
  -39.2130   35.9680    0.8060 C   0  0  0  0  0
  -39.6970   36.3450    1.9850 N   0  0  0  0  0
  -39.3700   35.3150    2.7920 N   0  0  0  0  0
  -38.6880   34.3100    2.1970 C   0  0  0  0  0
  -38.2640   33.0970    2.9760 C   0  0  0  0  0
  -38.5360   34.6880    0.8770 C   0  0  0  0  0
  -37.8540   34.0040   -0.2480 C   0  0  0  0  0
  -40.0760   37.4260   -2.5490 C   0  0  0  0  0
  -39.5260   38.7290   -2.4500 C   0  0  0  0  0
  -39.6590   39.6150   -3.4960 C   0  0  0  0  0
  -38.8710   41.2050   -3.2560 S   0  0  0  0  0
  -37.8680   40.9900   -2.2520 O   0  0  0  0  0
  -38.4630   41.7480   -4.5240 O   0  0  0  0  0
  -40.0870   42.3660   -2.5440 C   0  0  0  0  0
  -40.5690   41.8550   -1.1990 C   0  0  0  0  0
  -39.3520   43.6890   -2.3720 C   0  0  0  0  0
  -41.2960   42.5580   -3.4530 C   0  0  0  0  0
  -40.5591   39.0535   -7.3688 H   0  0  0  0  0
  -42.1050   39.6351   -6.7032 H   0  0  0  0  0
  -41.0290   40.7594   -7.5689 H   0  0  0  0  0
  -41.4314   37.7611   -5.6879 H   0  0  0  0  0
  -41.7128   33.9891   -3.0569 H   0  0  0  0  0
  -40.6273   34.4678   -0.9498 H   0  0  0  0  0
  -38.9647   37.7140   -0.2225 H   0  0  0  0  0
  -37.6086   33.4016    3.7920 H   0  0  0  0  0
  -39.1456   32.6012    3.3822 H   0  0  0  0  0
  -37.7313   32.4115    2.3170 H   0  0  0  0  0
  -38.5731   33.8119   -1.0443 H   0  0  0  0  0
  -37.0528   34.6392   -0.6257 H   0  0  0  0  0
  -37.4366   33.0599    0.1019 H   0  0  0  0  0
  -38.9975   39.0298   -1.5454 H   0  0  0  0  0
  -41.0379   40.8797   -1.3291 H   0  0  0  0  0
  -39.7204   41.7640   -0.5210 H   0  0  0  0  0
  -41.2937   42.5555   -0.7841 H   0  0  0  0  0
  -38.5031   43.5473   -1.7032 H   0  0  0  0  0
  -38.9974   44.0351   -3.3429 H   0  0  0  0  0
  -40.0314   44.4281   -1.9473 H   0  0  0  0  0
  -40.9675   42.9557   -4.4132 H   0  0  0  0  0
  -41.7903   41.5986   -3.6055 H   0  0  0  0  0
  -41.9915   43.2565   -2.9878 H   0  0  0  0  0
  1  2  1  0  0  0
  2  3  1  0  0  0
  3  4  4  0  0  0
  3 20  4  0  0  0
  4  5  4  0  0  0
  5  6  4  0  0  0
  5 18  4  0  0  0
  6  7  4  0  0  0
  7  8  4  0  0  0
  8  9  4  0  0  0
  9 10  1  0  0  0
  9 18  4  0  0  0
 10 11  1  0  0  0
 11 12  4  0  0  0
 11 16  4  0  0  0
 12 13  4  0  0  0
 13 14  4  0  0  0
 14 15  1  0  0  0
 14 16  4  0  0  0
 16 17  1  0  0  0
 18 19  4  0  0  0
 19 20  4  0  0  0
 20 21  1  0  0  0
 21 22  2  0  0  0
 21 23  2  0  0  0
 21 24  1  0  0  0
 24 25  1  0  0  0
 24 26  1  0  0  0
 24 27  1  0  0  0
  1 28  1  0  0  0
  1 29  1  0  0  0
  1 30  1  0  0  0
  4 31  1  0  0  0
  7 32  1  0  0  0
  8 33  1  0  0  0
 10 34  1  0  0  0
 15 35  1  0  0  0
 15 36  1  0  0  0
 15 37  1  0  0  0
 17 38  1  0  0  0
 17 39  1  0  0  0
 17 40  1  0  0  0
 19 41  1  0  0  0
 25 42  1  0  0  0
 25 43  1  0  0  0
 25 44  1  0  0  0
 26 45  1  0  0  0
 26 46  1  0  0  0
 26 47  1  0  0  0
 27 48  1  0  0  0
 27 49  1  0  0  0
 27 50  1  0  0  0
M  END
$$$$
