1usi_ligand
  -I-interpret- 

 24 24  0  0  0  0  0  0  0  0999 V2000
   31.1900    8.7170   48.4030 N   0  3  0  0  0
   30.3350    9.8780   48.0900 C   0  0  0  0  0
   30.9490   11.1880   48.6260 C   0  0  0  0  0
   30.3430   12.2340   48.3490 O   0  0  0  0  0
   28.9380    9.7620   48.7130 C   0  0  0  0  0
   28.2390    8.4860   48.3920 C   0  0  0  0  0
   27.5540    7.7950   49.3660 C   0  0  0  0  0
   28.2360    8.0170   47.0700 C   0  0  0  0  0
   26.8950    6.6170   49.1150 C   0  0  0  0  0
   27.5620    6.7740   46.7640 C   0  0  0  0  0
   26.8850    6.0860   47.7970 C   0  0  0  0  0
   31.9690   11.1070   49.2640 O   0  0  0  0  0
   32.1039    8.8421   47.9677 H   0  0  0  0  0
   31.3012    8.6409   49.4141 H   0  0  0  0  0
   30.7539    7.8682   48.0429 H   0  0  0  0  0
   30.2598    9.8931   47.0027 H   0  0  0  0  0
   29.5619   12.0227   47.8325 H   0  0  0  0  0
   28.3337   10.5738   48.3082 H   0  0  0  0  0
   29.0610    9.8013   49.7953 H   0  0  0  0  0
   27.5340    8.1997   50.3779 H   0  0  0  0  0
   28.7353    8.5821   46.2830 H   0  0  0  0  0
   26.3828    6.0924   49.9216 H   0  0  0  0  0
   27.5760    6.3732   45.7504 H   0  0  0  0  0
   26.3593    5.1552   47.5840 H   0  0  0  0  0
  1  2  1  0  0  0
  2  3  1  0  0  0
  2  5  1  0  0  0
  3  4  1  0  0  0
  3 12  2  0  0  0
  5  6  1  0  0  0
  6  7  4  0  0  0
  6  8  4  0  0  0
  7  9  4  0  0  0
  8 10  4  0  0  0
  9 11  4  0  0  0
 10 11  4  0  0  0
  1 13  1  0  0  0
  1 14  1  0  0  0
  1 15  1  0  0  0
  2 16  1  0  0  0
  4 17  1  0  0  0
  5 18  1  0  0  0
  5 19  1  0  0  0
  7 20  1  0  0  0
  8 21  1  0  0  0
  9 22  1  0  0  0
 10 23  1  0  0  0
 11 24  1  0  0  0
M  END
$$$$
