5h5q_ligand
  -I-interpret- 

239241  0  0  0  0  0  0  0  0999 V2000
  -13.0970   32.0800  -28.2400 C   0  0  0  0  0
  -12.9190   31.8430  -29.4340 O   0  0  0  0  0
  -14.4790   32.2900  -27.6480 C   0  0  0  0  0
  -12.0800   32.2080  -27.3950 N   0  0  0  0  0
  -10.6900   31.9220  -27.8710 C   0  0  0  0  0
  -10.2880   30.4850  -27.5580 C   0  0  0  0  0
  -10.6470   29.9170  -26.5200 O   0  0  0  0  0
   -9.6760   32.9000  -27.2800 C   0  0  0  0  0
  -10.0170   34.6300  -27.5880 S   0  0  0  0  0
   -9.5350   29.8960  -28.4810 N   0  0  0  0  0
   -9.0680   28.5160  -28.3990 C   0  0  0  0  0
   -7.5770   28.4810  -28.6350 C   0  0  0  0  0
   -7.0930   29.1240  -29.5720 O   0  0  0  0  0
   -9.7020   27.6710  -29.5200 C   0  0  0  0  0
  -11.1960   27.7780  -29.7030 C   0  0  0  0  0
  -11.8840   27.2660  -28.4740 C   0  0  0  0  0
  -11.2630   26.0170  -28.0540 N   0  0  0  0  0
  -11.1990   25.5480  -26.8130 C   0  0  0  0  0
  -10.5500   24.4110  -26.6010 N   0  0  0  0  0
  -11.7700   26.1860  -25.7910 N   0  0  0  0  0
   -6.8690   27.6840  -27.8360 N   0  0  0  0  0
   -5.4610   27.3950  -28.0650 C   0  0  0  0  0
   -5.3810   25.9480  -28.5150 C   0  0  0  0  0
   -5.8780   25.0480  -27.8450 O   0  0  0  0  0
   -4.6180   27.6080  -26.7880 C   0  0  0  0  0
   -3.1660   27.2220  -27.0470 C   0  0  0  0  0
   -4.7080   29.0630  -26.3280 C   0  0  0  0  0
   -4.7560   25.7170  -29.6610 N   0  0  0  0  0
   -4.6640   24.3600  -30.2010 C   0  0  0  0  0
   -3.5440   23.5890  -29.5260 C   0  0  0  0  0
   -2.8380   24.0890  -28.6540 O   0  0  0  0  0
   -4.5630   24.3680  -31.7410 C   0  0  0  0  0
   -3.2750   24.9790  -32.2760 C   0  0  0  0  0
   -2.2600   25.0720  -31.5730 O   0  0  0  0  0
   -3.2620   25.3540  -33.4910 O   0  0  0  0  0
   -3.3740   22.3410  -29.9400 N   0  0  0  0  0
   -2.3600   21.4950  -29.3420 C   0  0  0  0  0
   -0.9410   22.0070  -29.5060 C   0  0  0  0  0
   -0.0590   21.6950  -28.7100 O   0  0  0  0  0
   -2.4370   20.0900  -29.9250 C   0  0  0  0  0
   -2.9250   18.9610  -29.0720 C   0  0  0  0  0
   -2.6720   17.6530  -29.7890 C   0  0  0  0  0
   -2.2190   18.9430  -27.7340 C   0  0  0  0  0
   -0.7090   22.7800  -30.5690 N   0  0  0  0  0
    0.6020   23.3080  -30.8560 C   0  0  0  0  0
    0.8530   24.6560  -30.2140 C   0  0  0  0  0
    1.9480   25.1730  -30.3090 O   0  0  0  0  0
    0.8070   23.4010  -32.3710 C   0  0  0  0  0
    0.6590   22.0680  -33.1010 C   0  0  0  0  0
    1.5120   20.9780  -32.5040 C   0  0  0  0  0
    2.6590   21.2170  -32.1060 O   0  0  0  0  0
    0.9530   19.7810  -32.4060 N   0  0  0  0  0
   -0.1630   25.2350  -29.5690 N   0  0  0  0  0
   -0.0100   26.4760  -28.8240 C   0  0  0  0  0
   -0.4410   27.7380  -29.5500 C   0  0  0  0  0
   -0.2720   28.8180  -29.0140 O   0  0  0  0  0
   -0.9940   27.6160  -30.7570 N   0  0  0  0  0
   -1.5060   28.7880  -31.4900 C   0  0  0  0  0
   -2.9050   29.1280  -30.9980 C   0  0  0  0  0
   -3.6800   28.2220  -30.6840 O   0  0  0  0  0
   -1.5640   28.5060  -32.9970 C   0  0  0  0  0
   -0.2340   28.2020  -33.5850 C   0  0  0  0  0
    0.2850   26.9840  -33.8490 C   0  0  0  0  0
    0.7650   29.1480  -33.9430 C   0  0  0  0  0
    1.5490   27.1000  -34.3690 N   0  0  0  0  0
    1.8720   28.4200  -34.4330 C   0  0  0  0  0
    0.8440   30.5470  -33.8890 C   0  0  0  0  0
    3.0390   29.0400  -34.8790 C   0  0  0  0  0
    2.0120   31.1620  -34.3170 C   0  0  0  0  0
    3.0910   30.4060  -34.8220 C   0  0  0  0  0
   -3.2320   30.4200  -30.9680 N   0  0  0  0  0
   -4.4970   30.8950  -30.4100 C   0  0  0  0  0
   -5.3390   31.5640  -31.4790 C   0  0  0  0  0
   -4.8270   32.3330  -32.2840 O   0  0  0  0  0
   -4.2100   31.8730  -29.2810 C   0  0  0  0  0
   -5.4320   32.3390  -28.4980 C   0  0  0  0  0
   -4.9760   33.1160  -27.2790 C   0  0  0  0  0
   -6.0450   33.4620  -26.3470 N   0  0  0  0  0
   -6.6180   34.6540  -26.1900 C   0  0  0  0  0
   -6.2940   35.7000  -26.9520 N   0  0  0  0  0
   -7.5180   34.7990  -25.2320 N   0  0  0  0  0
   -6.6370   31.2650  -31.4920 N   0  0  0  0  0
   -7.5870   31.8980  -32.4080 C   0  0  0  0  0
   -8.8370   32.2940  -31.6400 C   0  0  0  0  0
   -9.3220   31.5580  -30.7800 O   0  0  0  0  0
   -7.9890   30.9390  -33.5200 C   0  0  0  0  0
   -6.9150   30.6290  -34.5640 C   0  0  0  0  0
   -7.1360   29.2320  -35.1250 C   0  0  0  0  0
   -7.1320   28.4510  -33.9230 N   0  0  0  0  0
   -6.1030   27.8200  -33.3830 C   0  0  0  0  0
   -4.9490   27.6110  -34.0320 N   0  0  0  0  0
   -6.3170   27.3030  -32.1920 N   0  0  0  0  0
   -9.3660   33.4680  -31.9710 N   0  0  0  0  0
  -10.5340   34.0340  -31.2960 C   0  0  0  0  0
  -11.6390   34.2760  -32.2990 C   0  0  0  0  0
  -11.4530   34.0680  -33.5100 O   0  0  0  0  0
  -10.1620   35.3390  -30.5950 C   0  0  0  0  0
   -8.9460   35.1680  -29.2820 S   0  0  0  0  0
  -12.7880   34.7350  -31.8040 N   0  0  0  0  0
  -13.9340   35.0610  -32.6550 C   0  0  0  0  0
  -13.5960   36.2470  -33.5520 C   0  0  0  0  0
  -12.9880   37.2200  -33.1030 O   0  0  0  0  0
  -15.1550   35.4060  -31.8040 C   0  0  0  0  0
  -15.6490   34.2700  -30.9300 C   0  0  0  0  0
  -16.7530   34.7200  -29.9840 C   0  0  0  0  0
  -18.0600   34.7600  -30.6380 N   0  0  0  0  0
  -19.2180   35.0340  -30.0290 C   0  0  0  0  0
  -19.2680   35.3270  -28.7290 N   0  0  0  0  0
  -20.3470   35.0230  -30.7360 N   0  0  0  0  0
  -13.9980   36.1470  -34.8220 N   0  0  0  0  0
  -13.7860   37.1790  -35.8390 C   0  0  0  0  0
  -15.0890   37.9400  -36.1240 C   0  0  0  0  0
  -16.1380   37.6310  -35.5280 O   0  0  0  0  0
  -13.2800   36.5300  -37.1320 C   0  0  0  0  0
  -11.8990   35.9030  -37.0350 C   0  0  0  0  0
  -11.4560   35.3540  -38.3840 C   0  0  0  0  0
  -12.3220   34.2580  -38.8430 N   0  0  0  0  0
  -13.2830   34.3330  -39.7720 C   0  0  0  0  0
  -13.5600   35.4660  -40.4210 N   0  0  0  0  0
  -13.9810   33.2380  -40.0680 N   0  0  0  0  0
  -15.0220   38.9750  -36.9660 N   0  0  0  0  0
  -14.9558   33.1409  -28.1346 H   0  0  0  0  0
  -15.0806   31.3950  -27.8066 H   0  0  0  0  0
  -14.3893   32.4843  -26.5792 H   0  0  0  0  0
  -12.2447   32.4984  -26.4312 H   0  0  0  0  0
  -10.6885   32.0543  -28.9529 H   0  0  0  0  0
   -8.7182   32.6810  -27.7519 H   0  0  0  0  0
   -9.7027   32.7634  -26.1989 H   0  0  0  0  0
   -9.2664   30.4433  -29.2987 H   0  0  0  0  0
   -9.3351   28.1254  -27.4171 H   0  0  0  0  0
   -9.5103   26.6320  -29.2520 H   0  0  0  0  0
   -9.2632   28.0347  -30.4491 H   0  0  0  0  0
  -11.5011   27.1854  -30.5654 H   0  0  0  0  0
  -11.4696   28.8203  -29.8667 H   0  0  0  0  0
  -12.9374   27.0920  -28.6934 H   0  0  0  0  0
  -11.7956   28.0022  -27.6750 H   0  0  0  0  0
  -10.8357   25.4471  -28.7841 H   0  0  0  0  0
  -10.1151   23.9189  -27.3814 H   0  0  0  0  0
  -11.7070   25.7995  -24.8492 H   0  0  0  0  0
  -12.2698   27.0606  -25.9509 H   0  0  0  0  0
   -7.3318   27.2597  -27.0322 H   0  0  0  0  0
   -5.0567   28.0712  -28.8182 H   0  0  0  0  0
   -5.0135   26.9705  -25.9973 H   0  0  0  0  0
   -3.1166   26.1726  -27.3376 H   0  0  0  0  0
   -2.7641   27.8416  -27.8487 H   0  0  0  0  0
   -2.5828   27.3768  -26.1393 H   0  0  0  0  0
   -4.3320   29.7157  -27.1158 H   0  0  0  0  0
   -5.7475   29.3114  -26.1139 H   0  0  0  0  0
   -4.1085   29.1957  -25.4274 H   0  0  0  0  0
   -4.3349   26.4931  -30.1716 H   0  0  0  0  0
   -5.5883   23.8299  -29.9711 H   0  0  0  0  0
   -5.3876   24.9746  -32.1152 H   0  0  0  0  0
   -4.5891   23.3296  -32.0714 H   0  0  0  0  0
   -4.1284   25.2097  -33.8785 H   0  0  0  0  0
   -3.9627   21.9723  -30.6869 H   0  0  0  0  0
   -2.5788   21.4967  -28.2742 H   0  0  0  0  0
   -1.4043   19.8319  -30.1596 H   0  0  0  0  0
   -3.1694   20.1648  -30.7288 H   0  0  0  0  0
   -3.9919   19.0968  -28.8948 H   0  0  0  0  0
   -3.2054   17.6521  -30.7396 H   0  0  0  0  0
   -1.6031   17.5405  -29.9706 H   0  0  0  0  0
   -3.0258   16.8273  -29.1716 H   0  0  0  0  0
   -1.1472   18.8229  -27.8918 H   0  0  0  0  0
   -2.4079   19.8812  -27.2123 H   0  0  0  0  0
   -2.5951   18.1119  -27.1374 H   0  0  0  0  0
   -1.4813   23.0038  -31.1966 H   0  0  0  0  0
    1.3235   22.6154  -30.4226 H   0  0  0  0  0
    1.8260   23.7499  -32.5385 H   0  0  0  0  0
    0.0395   24.0698  -32.7606 H   0  0  0  0  0
    0.9785   22.2149  -34.1327 H   0  0  0  0  0
   -0.3829   21.7578  -33.0221 H   0  0  0  0  0
    1.4717   19.0086  -31.9881 H   0  0  0  0  0
    0.0039   19.6318  -32.7485 H   0  0  0  0  0
   -1.0807   24.7908  -29.5996 H   0  0  0  0  0
    1.0555   26.5851  -28.6219 H   0  0  0  0  0
   -0.6516   26.3903  -27.9470 H   0  0  0  0  0
   -1.0643   26.6916  -31.1825 H   0  0  0  0  0
   -0.8305   29.6245  -31.3110 H   0  0  0  0  0
   -1.9457   29.4017  -33.4870 H   0  0  0  0  0
   -2.1993   27.6330  -33.1462 H   0  0  0  0  0
   -0.2292   26.0391  -33.6733 H   0  0  0  0  0
    0.0064   31.1383  -33.5190 H   0  0  0  0  0
    3.8785   28.4578  -35.2589 H   0  0  0  0  0
    2.0973   32.2473  -34.2621 H   0  0  0  0  0
    3.9848   30.9211  -35.1741 H   0  0  0  0  0
   -2.5757   31.1020  -31.3482 H   0  0  0  0  0
   -5.0565   30.0431  -30.0236 H   0  0  0  0  0
   -3.7755   32.7611  -29.7398 H   0  0  0  0  0
   -3.5650   31.3525  -28.5730 H   0  0  0  0  0
   -6.0164   31.4744  -28.1833 H   0  0  0  0  0
   -6.0493   32.9781  -29.1294 H   0  0  0  0  0
   -4.5506   34.0529  -27.6386 H   0  0  0  0  0
   -4.2753   32.4795  -26.7387 H   0  0  0  0  0
   -6.3905   32.7094  -25.7516 H   0  0  0  0  0
   -6.7396   36.6038  -26.7937 H   0  0  0  0  0
   -5.6007   35.5960  -27.6929 H   0  0  0  0  0
   -7.7585   34.0082  -24.6343 H   0  0  0  0  0
   -6.9836   30.5652  -30.8358 H   0  0  0  0  0
   -7.1088   32.7741  -32.8460 H   0  0  0  0  0
   -8.8062   31.4205  -34.0571 H   0  0  0  0  0
   -8.2250   29.9918  -33.0350 H   0  0  0  0  0
   -5.9312   30.6803  -34.0975 H   0  0  0  0  0
   -6.9751   31.3575  -35.3726 H   0  0  0  0  0
   -6.3850   28.9251  -35.8529 H   0  0  0  0  0
   -8.0484   29.1320  -35.7130 H   0  0  0  0  0
   -8.0213   28.3734  -33.4296 H   0  0  0  0  0
   -4.2184   27.0428  -33.6032 H   0  0  0  0  0
   -4.8014   28.0201  -34.9546 H   0  0  0  0  0
   -7.2301   27.4041  -31.7487 H   0  0  0  0  0
   -8.9380   33.9981  -32.7301 H   0  0  0  0  0
  -10.8848   33.3262  -30.5450 H   0  0  0  0  0
  -11.0729   35.7225  -30.1353 H   0  0  0  0  0
   -9.7229   35.9905  -31.3506 H   0  0  0  0  0
  -12.8722   34.8639  -30.7957 H   0  0  0  0  0
  -14.1629   34.1897  -33.2687 H   0  0  0  0  0
  -15.9635   35.6567  -32.4907 H   0  0  0  0  0
  -14.8624   36.2182  -31.1385 H   0  0  0  0  0
  -14.8119   33.9104  -30.3316 H   0  0  0  0  0
  -16.0506   33.4905  -31.5775 H   0  0  0  0  0
  -16.5152   35.7267  -29.6405 H   0  0  0  0  0
  -16.8071   34.0057  -29.1624 H   0  0  0  0  0
  -18.0907   34.5632  -31.6384 H   0  0  0  0  0
  -20.1630   35.5390  -28.2881 H   0  0  0  0  0
  -18.4113   35.3391  -28.1756 H   0  0  0  0  0
  -20.3226   34.8069  -31.7325 H   0  0  0  0  0
  -14.4848   35.2955  -35.1018 H   0  0  0  0  0
  -13.0452   37.8857  -35.4651 H   0  0  0  0  0
  -13.2154   37.3218  -37.8783 H   0  0  0  0  0
  -13.9752   35.7263  -37.3748 H   0  0  0  0  0
  -11.9358   35.0831  -36.3177 H   0  0  0  0  0
  -11.1889   36.6663  -36.7168 H   0  0  0  0  0
  -10.4426   34.9667  -38.2786 H   0  0  0  0  0
  -11.5102   36.1607  -39.1151 H   0  0  0  0  0
  -12.1755   33.3467  -38.4089 H   0  0  0  0  0
  -14.2945   35.4819  -41.1286 H   0  0  0  0  0
  -13.0372   36.3159  -40.2094 H   0  0  0  0  0
  -13.7798   32.3600  -39.5894 H   0  0  0  0  0
  -15.8497   39.5451  -37.1402 H   0  0  0  0  0
  -14.1432   39.1951  -37.4346 H   0  0  0  0  0
  1  2  2  0  0  0
  1  3  1  0  0  0
  1  4  1  0  0  0
  4  5  1  0  0  0
  5  6  1  0  0  0
  5  8  1  0  0  0
  6  7  2  0  0  0
  6 10  1  0  0  0
  8  9  1  0  0  0
  9 98  1  0  0  0
 10 11  1  0  0  0
 11 12  1  0  0  0
 11 14  1  0  0  0
 12 13  2  0  0  0
 12 21  1  0  0  0
 14 15  1  0  0  0
 15 16  1  0  0  0
 16 17  1  0  0  0
 17 18  1  0  0  0
 18 19  2  0  0  0
 18 20  1  0  0  0
 21 22  1  0  0  0
 22 23  1  0  0  0
 22 25  1  0  0  0
 23 24  2  0  0  0
 23 28  1  0  0  0
 25 26  1  0  0  0
 25 27  1  0  0  0
 28 29  1  0  0  0
 29 30  1  0  0  0
 29 32  1  0  0  0
 30 31  2  0  0  0
 30 36  1  0  0  0
 32 33  1  0  0  0
 33 34  2  0  0  0
 33 35  1  0  0  0
 36 37  1  0  0  0
 37 38  1  0  0  0
 37 40  1  0  0  0
 38 39  2  0  0  0
 38 44  1  0  0  0
 40 41  1  0  0  0
 41 42  1  0  0  0
 41 43  1  0  0  0
 44 45  1  0  0  0
 45 46  1  0  0  0
 45 48  1  0  0  0
 46 47  2  0  0  0
 46 53  1  0  0  0
 48 49  1  0  0  0
 49 50  1  0  0  0
 50 51  2  0  0  0
 50 52  1  0  0  0
 53 54  1  0  0  0
 54 55  1  0  0  0
 55 56  2  0  0  0
 55 57  1  0  0  0
 57 58  1  0  0  0
 58 59  1  0  0  0
 58 61  1  0  0  0
 59 60  2  0  0  0
 59 71  1  0  0  0
 61 62  1  0  0  0
 62 63  4  0  0  0
 62 64  4  0  0  0
 63 65  4  0  0  0
 64 66  4  0  0  0
 64 67  4  0  0  0
 65 66  4  0  0  0
 66 68  4  0  0  0
 67 69  4  0  0  0
 68 70  4  0  0  0
 69 70  4  0  0  0
 71 72  1  0  0  0
 72 73  1  0  0  0
 72 75  1  0  0  0
 73 74  2  0  0  0
 73 82  1  0  0  0
 75 76  1  0  0  0
 76 77  1  0  0  0
 77 78  1  0  0  0
 78 79  1  0  0  0
 79 80  1  0  0  0
 79 81  2  0  0  0
 82 83  1  0  0  0
 83 84  1  0  0  0
 83 86  1  0  0  0
 84 85  2  0  0  0
 84 93  1  0  0  0
 86 87  1  0  0  0
 87 88  1  0  0  0
 88 89  1  0  0  0
 89 90  1  0  0  0
 90 91  1  0  0  0
 90 92  2  0  0  0
 93 94  1  0  0  0
 94 95  1  0  0  0
 94 97  1  0  0  0
 95 96  2  0  0  0
 95 99  1  0  0  0
 97 98  1  0  0  0
 99100  1  0  0  0
100101  1  0  0  0
100103  1  0  0  0
101102  2  0  0  0
101110  1  0  0  0
103104  1  0  0  0
104105  1  0  0  0
105106  1  0  0  0
106107  1  0  0  0
107108  1  0  0  0
107109  2  0  0  0
110111  1  0  0  0
111112  1  0  0  0
111114  1  0  0  0
112113  2  0  0  0
112121  1  0  0  0
114115  1  0  0  0
115116  1  0  0  0
116117  1  0  0  0
117118  1  0  0  0
118119  1  0  0  0
118120  2  0  0  0
  3122  1  0  0  0
  3123  1  0  0  0
  3124  1  0  0  0
  4125  1  0  0  0
  5126  1  0  0  0
  8127  1  0  0  0
  8128  1  0  0  0
 10129  1  0  0  0
 11130  1  0  0  0
 14131  1  0  0  0
 14132  1  0  0  0
 15133  1  0  0  0
 15134  1  0  0  0
 16135  1  0  0  0
 16136  1  0  0  0
 17137  1  0  0  0
 19138  1  0  0  0
 20139  1  0  0  0
 20140  1  0  0  0
 21141  1  0  0  0
 22142  1  0  0  0
 25143  1  0  0  0
 26144  1  0  0  0
 26145  1  0  0  0
 26146  1  0  0  0
 27147  1  0  0  0
 27148  1  0  0  0
 27149  1  0  0  0
 28150  1  0  0  0
 29151  1  0  0  0
 32152  1  0  0  0
 32153  1  0  0  0
 35154  1  0  0  0
 36155  1  0  0  0
 37156  1  0  0  0
 40157  1  0  0  0
 40158  1  0  0  0
 41159  1  0  0  0
 42160  1  0  0  0
 42161  1  0  0  0
 42162  1  0  0  0
 43163  1  0  0  0
 43164  1  0  0  0
 43165  1  0  0  0
 44166  1  0  0  0
 45167  1  0  0  0
 48168  1  0  0  0
 48169  1  0  0  0
 49170  1  0  0  0
 49171  1  0  0  0
 52172  1  0  0  0
 52173  1  0  0  0
 53174  1  0  0  0
 54175  1  0  0  0
 54176  1  0  0  0
 57177  1  0  0  0
 58178  1  0  0  0
 61179  1  0  0  0
 61180  1  0  0  0
 63181  1  0  0  0
 67182  1  0  0  0
 68183  1  0  0  0
 69184  1  0  0  0
 70185  1  0  0  0
 71186  1  0  0  0
 72187  1  0  0  0
 75188  1  0  0  0
 75189  1  0  0  0
 76190  1  0  0  0
 76191  1  0  0  0
 77192  1  0  0  0
 77193  1  0  0  0
 78194  1  0  0  0
 80195  1  0  0  0
 80196  1  0  0  0
 81197  1  0  0  0
 82198  1  0  0  0
 83199  1  0  0  0
 86200  1  0  0  0
 86201  1  0  0  0
 87202  1  0  0  0
 87203  1  0  0  0
 88204  1  0  0  0
 88205  1  0  0  0
 89206  1  0  0  0
 91207  1  0  0  0
 91208  1  0  0  0
 92209  1  0  0  0
 93210  1  0  0  0
 94211  1  0  0  0
 97212  1  0  0  0
 97213  1  0  0  0
 99214  1  0  0  0
100215  1  0  0  0
103216  1  0  0  0
103217  1  0  0  0
104218  1  0  0  0
104219  1  0  0  0
105220  1  0  0  0
105221  1  0  0  0
106222  1  0  0  0
108223  1  0  0  0
108224  1  0  0  0
109225  1  0  0  0
110226  1  0  0  0
111227  1  0  0  0
114228  1  0  0  0
114229  1  0  0  0
115230  1  0  0  0
115231  1  0  0  0
116232  1  0  0  0
116233  1  0  0  0
117234  1  0  0  0
119235  1  0  0  0
119236  1  0  0  0
120237  1  0  0  0
121238  1  0  0  0
121239  1  0  0  0
M  END
$$$$
