### 
### Created by X-TOOL on Mon Sep 10 21:13:26 2018
### 

@<TRIPOS>MOLECULE
5h5q_ligand
  244   246     1     0     0
SMALL
GAST_HUCK


@<TRIPOS>ATOM
      1 C         -13.0970   32.0800  -28.2400 C.2       1 ACE         0.1752
      2 O         -12.9190   31.8430  -29.4340 O.2       1 ACE        -0.3972
      3 CH3       -14.4790   32.2900  -27.6480 C.3       1 ACE         0.0258
      4 N         -12.0800   32.2080  -27.3950 N.am      1 CYS        -0.2650
      5 CA        -10.6900   31.9220  -27.8710 C.3       1 CYS         0.1406
      6 C         -10.2880   30.4850  -27.5580 C.2       1 CYS         0.2047
      7 O         -10.6470   29.9170  -26.5200 O.2       1 CYS        -0.3944
      8 CB         -9.6760   32.9000  -27.2800 C.3       1 CYS         0.0443
      9 SG        -10.0170   34.6300  -27.5880 S.3       1 CYS        -0.0882
     10 N          -9.5350   29.8960  -28.4810 N.am      1 ARG        -0.2637
     11 CA         -9.0680   28.5160  -28.3990 C.3       1 ARG         0.1311
     12 C          -7.5770   28.4810  -28.6350 C.2       1 ARG         0.2039
     13 O          -7.0930   29.1240  -29.5720 O.2       1 ARG        -0.3944
     14 CB         -9.7020   27.6710  -29.5200 C.3       1 ARG        -0.0092
     15 CG        -11.1960   27.7780  -29.7030 C.3       1 ARG        -0.0156
     16 CD        -11.8840   27.2660  -28.4740 C.3       1 ARG         0.0627
     17 NE        -11.2630   26.0170  -28.0540 N.pl3     1 ARG        -0.2723
     18 CZ        -11.1990   25.5480  -26.8130 C.cat     1 ARG         0.2882
     19 NH1       -10.5500   24.4110  -26.6010 N.pl3     1 ARG        -0.2849
     20 NH2       -11.7700   26.1860  -25.7910 N.pl3     1 ARG        -0.2849
     21 N          -6.8690   27.6840  -27.8360 N.am      1 VAL        -0.2635
     22 CA         -5.4610   27.3950  -28.0650 C.3       1 VAL         0.1333
     23 C          -5.3810   25.9480  -28.5150 C.2       1 VAL         0.2042
     24 O          -5.8780   25.0480  -27.8450 O.2       1 VAL        -0.3944
     25 CB         -4.6180   27.6080  -26.7880 C.3       1 VAL        -0.0063
     26 CG1        -3.1660   27.2220  -27.0470 C.3       1 VAL        -0.0584
     27 CG2        -4.7080   29.0630  -26.3280 C.3       1 VAL        -0.0584
     28 N          -4.7560   25.7170  -29.6610 N.am      1 ASP        -0.2622
     29 CA         -4.6640   24.3600  -30.2010 C.3       1 ASP         0.1423
     30 C          -3.5440   23.5890  -29.5260 C.2       1 ASP         0.2056
     31 O          -2.8380   24.0890  -28.6540 O.2       1 ASP        -0.3943
     32 CB         -4.5630   24.3680  -31.7410 C.3       1 ASP         0.0406
     33 CG         -3.2750   24.9790  -32.2760 C.2       1 ASP         0.0393
     34 OD1        -2.2600   25.0720  -31.5730 O.co2     1 ASP        -0.5688
     35 OD2        -3.2620   25.3540  -33.4910 O.co2     1 ASP        -0.5688
     36 N          -3.3740   22.3410  -29.9400 N.am      1 LEU        -0.2636
     37 CA         -2.3600   21.4950  -29.3420 C.3       1 LEU         0.1312
     38 C          -0.9410   22.0070  -29.5060 C.2       1 LEU         0.2039
     39 O          -0.0590   21.6950  -28.7100 O.2       1 LEU        -0.3944
     40 CB         -2.4370   20.0900  -29.9250 C.3       1 LEU        -0.0101
     41 CG         -2.9250   18.9610  -29.0720 C.3       1 LEU        -0.0425
     42 CD1        -2.6720   17.6530  -29.7890 C.3       1 LEU        -0.0625
     43 CD2        -2.2190   18.9430  -27.7340 C.3       1 LEU        -0.0625
     44 N          -0.7090   22.7800  -30.5690 N.am      1 GLN        -0.2636
     45 CA          0.6020   23.3080  -30.8560 C.3       1 GLN         0.1330
     46 C           0.8530   24.6560  -30.2140 C.2       1 GLN         0.2038
     47 O           1.9480   25.1730  -30.3090 O.2       1 GLN        -0.3944
     48 CB          0.8070   23.4010  -32.3710 C.3       1 GLN         0.0045
     49 CG          0.6590   22.0680  -33.1010 C.3       1 GLN         0.0412
     50 CD          1.5120   20.9780  -32.5040 C.2       1 GLN         0.1737
     51 OE1         2.6590   21.2170  -32.1060 O.2       1 GLN        -0.3973
     52 NE2         0.9530   19.7810  -32.4060 N.am      1 GLN        -0.3009
     53 N          -0.1630   25.2350  -29.5690 N.am      1 GLY        -0.2664
     54 CA         -0.0100   26.4760  -28.8240 C.3       1 GLY         0.1201
     55 C          -0.4410   27.7380  -29.5500 C.2       1 GLY         0.2008
     56 O          -0.2720   28.8180  -29.0140 O.2       1 GLY        -0.3947
     57 N          -0.9940   27.6160  -30.7570 N.am      1 TRP        -0.2629
     58 CA         -1.5060   28.7880  -31.4900 C.3       1 TRP         0.1352
     59 C          -2.9050   29.1280  -30.9980 C.2       1 TRP         0.2052
     60 O          -3.6800   28.2220  -30.6840 O.2       1 TRP        -0.3942
     61 CB         -1.5640   28.5060  -32.9970 C.3       1 TRP         0.0042
     62 CG         -0.2340   28.2020  -33.5850 C.2       1 TRP        -0.0418
     63 CD1         0.2850   26.9840  -33.8490 C.2       1 TRP         0.0167
     64 CD2         0.7650   29.1480  -33.9430 C.ar      1 TRP        -0.0214
     65 NE1         1.5490   27.1000  -34.3690 N.pl3     1 TRP        -0.2890
     66 CE2         1.8720   28.4200  -34.4330 C.ar      1 TRP         0.0603
     67 CE3         0.8440   30.5470  -33.8890 C.ar      1 TRP        -0.0747
     68 CZ2         3.0390   29.0400  -34.8790 C.ar      1 TRP        -0.0443
     69 CZ3         2.0120   31.1620  -34.3170 C.ar      1 TRP        -0.0792
     70 CH2         3.0910   30.4060  -34.8220 C.ar      1 TRP        -0.0768
     71 N          -3.2320   30.4200  -30.9680 N.am      1 ARG        -0.2636
     72 CA         -4.4970   30.8950  -30.4100 C.3       1 ARG         0.1311
     73 C          -5.3390   31.5640  -31.4790 C.2       1 ARG         0.2039
     74 O          -4.8270   32.3330  -32.2840 O.2       1 ARG        -0.3944
     75 CB         -4.2100   31.8730  -29.2810 C.3       1 ARG        -0.0092
     76 CG         -5.4320   32.3390  -28.4980 C.3       1 ARG        -0.0156
     77 CD         -4.9760   33.1160  -27.2790 C.3       1 ARG         0.0627
     78 NE         -6.0450   33.4620  -26.3470 N.pl3     1 ARG        -0.2723
     79 CZ         -6.6180   34.6540  -26.1900 C.cat     1 ARG         0.2882
     80 NH1        -6.2940   35.7000  -26.9520 N.pl3     1 ARG        -0.2849
     81 NH2        -7.5180   34.7990  -25.2320 N.pl3     1 ARG        -0.2849
     82 N          -6.6370   31.2650  -31.4920 N.am      1 ARG        -0.2637
     83 CA         -7.5870   31.8980  -32.4080 C.3       1 ARG         0.1311
     84 C          -8.8370   32.2940  -31.6400 C.2       1 ARG         0.2039
     85 O          -9.3220   31.5580  -30.7800 O.2       1 ARG        -0.3944
     86 CB         -7.9890   30.9390  -33.5200 C.3       1 ARG        -0.0092
     87 CG         -6.9150   30.6290  -34.5640 C.3       1 ARG        -0.0156
     88 CD         -7.1360   29.2320  -35.1250 C.3       1 ARG         0.0627
     89 NE         -7.1320   28.4510  -33.9230 N.pl3     1 ARG        -0.2723
     90 CZ         -6.1030   27.8200  -33.3830 C.cat     1 ARG         0.2882
     91 NH1        -4.9490   27.6110  -34.0320 N.pl3     1 ARG        -0.2849
     92 NH2        -6.3170   27.3030  -32.1920 N.pl3     1 ARG        -0.2849
     93 N          -9.3660   33.4680  -31.9710 N.am      1 CYS        -0.2629
     94 CA        -10.5340   34.0340  -31.2960 C.3       1 CYS         0.1406
     95 C         -11.6390   34.2760  -32.2990 C.2       1 CYS         0.2047
     96 O         -11.4530   34.0680  -33.5100 O.2       1 CYS        -0.3944
     97 CB        -10.1620   35.3390  -30.5950 C.3       1 CYS         0.0443
     98 SG         -8.9460   35.1680  -29.2820 S.3       1 CYS        -0.0882
     99 N         -12.7880   34.7350  -31.8040 N.am      1 ARG        -0.2637
    100 CA        -13.9340   35.0610  -32.6550 C.3       1 ARG         0.1311
    101 C         -13.5960   36.2470  -33.5520 C.2       1 ARG         0.2039
    102 O         -12.9880   37.2200  -33.1030 O.2       1 ARG        -0.3944
    103 CB        -15.1550   35.4060  -31.8040 C.3       1 ARG        -0.0092
    104 CG        -15.6490   34.2700  -30.9300 C.3       1 ARG        -0.0156
    105 CD        -16.7530   34.7200  -29.9840 C.3       1 ARG         0.0627
    106 NE        -18.0600   34.7600  -30.6380 N.pl3     1 ARG        -0.2723
    107 CZ        -19.2180   35.0340  -30.0290 C.cat     1 ARG         0.2882
    108 NH1       -19.2680   35.3270  -28.7290 N.pl3     1 ARG        -0.2849
    109 NH2       -20.3470   35.0230  -30.7360 N.pl3     1 ARG        -0.2849
    110 N         -13.9980   36.1470  -34.8220 N.am      1 ARG        -0.2637
    111 CA        -13.7860   37.1790  -35.8390 C.3       1 ARG         0.1307
    112 C         -15.0890   37.9400  -36.1240 C.2       1 ARG         0.1992
    113 O         -16.1380   37.6310  -35.5280 O.2       1 ARG        -0.3947
    114 CB        -13.2800   36.5300  -37.1320 C.3       1 ARG        -0.0092
    115 CG        -11.8990   35.9030  -37.0350 C.3       1 ARG        -0.0156
    116 CD        -11.4560   35.3540  -38.3840 C.3       1 ARG         0.0627
    117 NE        -12.3220   34.2580  -38.8430 N.pl3     1 ARG        -0.2723
    118 CZ        -13.2830   34.3330  -39.7720 C.cat     1 ARG         0.2882
    119 NH1       -13.5600   35.4660  -40.4210 N.pl3     1 ARG        -0.2849
    120 NH2       -13.9810   33.2380  -40.0680 N.pl3     1 ARG        -0.2849
    121 N         -15.0220   38.9750  -36.9660 N.am      1 NH2        -0.2990
    122 H1        -14.3898   32.4862  -26.5693 H         1 ACE         0.0467
    123 H2        -15.0872   31.3874  -27.8074 H         1 ACE         0.0467
    124 H3        -14.9613   33.1485  -28.1382 H         1 ACE         0.0467
    125 H4        -12.2415   32.4927  -26.4501 H         1 CYS         0.1883
    126 H5        -10.6792   32.0463  -28.9639 H         1 CYS         0.0808
    127 H6         -8.6894   32.6665  -27.7066 H         1 CYS         0.0432
    128 H7         -9.6502   32.7469  -26.1910 H         1 CYS         0.0432
    129 H8         -9.2717   30.4326  -29.2827 H         1 ARG         0.1883
    130 H9         -9.3154   28.0952  -27.4133 H         1 ARG         0.0800
    131 H10        -9.4688   26.6164  -29.3117 H         1 ARG         0.0313
    132 H11        -9.2303   27.9706  -30.4674 H         1 ARG         0.0313
    133 H12       -11.5034   27.1787  -30.5727 H         1 ARG         0.0301
    134 H13       -11.4716   28.8302  -29.8668 H         1 ARG         0.0301
    135 H14       -12.9471   27.0905  -28.6952 H         1 ARG         0.0689
    136 H15       -11.7950   28.0089  -27.6677 H         1 ARG         0.0689
    137 H16       -10.8315   25.4415  -28.7912 H         1 ARG         0.2642
    138 H17       -10.4852   24.0249  -25.6483 H         1 ARG         0.2615
    139 H18       -10.1108   23.9140  -27.3891 H         1 ARG         0.2615
    140 H19       -12.2747   27.0692  -25.9525 H         1 ARG         0.2615
    141 H20       -11.7064   25.7957  -24.8399 H         1 ARG         0.2615
    142 H21        -7.3228   27.2680  -27.0480 H         1 VAL         0.1883
    143 H22        -5.0753   28.0531  -28.8575 H         1 VAL         0.0802
    144 H23        -5.0168   26.9628  -25.9914 H         1 VAL         0.0343
    145 H24        -2.5763   27.3778  -26.1316 H         1 VAL         0.0234
    146 H25        -2.7592   27.8467  -27.8559 H         1 VAL         0.0234
    147 H26        -3.1148   26.1631  -27.3403 H         1 VAL         0.0234
    148 H27        -5.7606   29.3254  -26.1456 H         1 VAL         0.0234
    149 H28        -4.2961   29.7203  -27.1079 H         1 VAL         0.0234
    150 H29        -4.1322   29.1903  -25.3994 H         1 VAL         0.0234
    151 H30        -4.3431   26.4779  -30.1616 H         1 ASP         0.1884
    152 H31        -5.6026   23.8448  -29.9490 H         1 ASP         0.0819
    153 H32        -5.4106   24.9446  -32.1399 H         1 ASP         0.0478
    154 H33        -4.6264   23.3291  -32.0968 H         1 ASP         0.0478
    155 H34        -3.9512   21.9796  -30.6723 H         1 LEU         0.1883
    156 H35        -2.5729   21.4387  -28.2643 H         1 LEU         0.0800
    157 H36        -1.4217   19.8251  -30.2552 H         1 LEU         0.0315
    158 H37        -3.1044   20.1425  -30.7978 H         1 LEU         0.0315
    159 H38        -4.0054   19.0811  -28.9037 H         1 LEU         0.0298
    160 H39        -3.0287   16.8189  -29.1669 H         1 LEU         0.0232
    161 H40        -1.5936   17.5382  -29.9728 H         1 LEU         0.0232
    162 H41        -3.2099   17.6508  -30.7485 H         1 LEU         0.0232
    163 H42        -2.4013   19.8931  -27.2104 H         1 LEU         0.0232
    164 H43        -1.1382   18.8127  -27.8914 H         1 LEU         0.0232
    165 H44        -2.6042   18.1103  -27.1273 H         1 LEU         0.0232
    166 H45        -1.4662   22.9994  -31.1843 H         1 GLN         0.1883
    167 H46         1.3422   22.6026  -30.4505 H         1 GLN         0.0801
    168 H47         1.8191   23.7882  -32.5599 H         1 GLN         0.0337
    169 H48         0.0640   24.1026  -32.7781 H         1 GLN         0.0337
    170 H49         0.9524   22.2081  -34.1518 H         1 GLN         0.0504
    171 H50        -0.3947   21.7559  -33.0529 H         1 GLN         0.0504
    172 H51         1.4700   19.0180  -32.0180 H         1 GLN         0.1814
    173 H52         0.0141   19.6404  -32.7201 H         1 GLN         0.1814
    174 H53        -1.0627   24.7996  -29.5990 H         1 GLY         0.1881
    175 H54         1.0528   26.5836  -28.5614 H         1 GLY         0.0763
    176 H55        -0.6084   26.3941  -27.9047 H         1 GLY         0.0763
    177 H56        -1.0629   26.7098  -31.1741 H         1 TRP         0.1884
    178 H57        -0.8380   29.6430  -31.3089 H         1 TRP         0.0815
    179 H58        -1.9763   29.3913  -33.5032 H         1 TRP         0.0397
    180 H59        -2.2268   27.6447  -33.1667 H         1 TRP         0.0397
    181 H60        -0.2288   26.0400  -33.6734 H         1 TRP         0.0795
    182 H61         2.1526   26.3185  -34.6620 H         1 TRP         0.2216
    183 H62         0.0110   31.1351  -33.5210 H         1 TRP         0.0540
    184 H63         3.8739   28.4610  -35.2568 H         1 TRP         0.0541
    185 H64         2.0969   32.2413  -34.2624 H         1 TRP         0.0510
    186 H65         3.9799   30.9182  -35.1722 H         1 TRP         0.0530
    187 H66        -2.5886   31.0886  -31.3408 H         1 ARG         0.1883
    188 H67        -5.0541   30.0361  -30.0077 H         1 ARG         0.0800
    189 H68        -3.7254   32.7602  -29.7146 H         1 ARG         0.0313
    190 H69        -3.5201   31.3859  -28.5762 H         1 ARG         0.0313
    191 H70        -6.0196   31.4656  -28.1789 H         1 ARG         0.0301
    192 H71        -6.0528   32.9857  -29.1354 H         1 ARG         0.0301
    193 H72        -4.5045   34.0486  -27.6225 H         1 ARG         0.0689
    194 H73        -4.2348   32.5070  -26.7408 H         1 ARG         0.0689
    195 H74        -6.3939   32.7020  -25.7457 H         1 ARG         0.2642
    196 H75        -6.7568   36.6081  -26.8038 H         1 ARG         0.2615
    197 H76        -5.5810   35.5994  -27.6885 H         1 ARG         0.2615
    198 H77        -7.7734   33.9961  -24.6395 H         1 ARG         0.2615
    199 H78        -7.9636   35.7148  -25.0783 H         1 ARG         0.2615
    200 H79        -6.9768   30.5790  -30.8486 H         1 ARG         0.1883
    201 H80        -7.1234   32.7931  -32.8482 H         1 ARG         0.0800
    202 H81        -8.8513   31.3759  -34.0449 H         1 ARG         0.0313
    203 H82        -8.2871   29.9889  -33.0527 H         1 ARG         0.0313
    204 H83        -5.9218   30.6818  -34.0942 H         1 ARG         0.0301
    205 H84        -6.9744   31.3645  -35.3797 H         1 ARG         0.0301
    206 H85        -6.3217   28.9351  -35.8023 H         1 ARG         0.0689
    207 H86        -8.0981   29.1561  -35.6528 H         1 ARG         0.0689
    208 H87        -8.0301   28.3726  -33.4248 H         1 ARG         0.2642
    209 H88        -4.1780   27.1132  -33.5644 H         1 ARG         0.2615
    210 H89        -4.8332   27.9482  -34.9983 H         1 ARG         0.2615
    211 H90        -7.2103   27.4748  -31.7089 H         1 ARG         0.2615
    212 H91        -5.5912   26.7265  -31.7428 H         1 ARG         0.2615
    213 H92        -8.9464   33.9877  -32.7152 H         1 CYS         0.1884
    214 H93       -10.8899   33.3168  -30.5417 H         1 CYS         0.0808
    215 H94       -11.0773   35.7672  -30.1603 H         1 CYS         0.0432
    216 H95        -9.7566   36.0294  -31.3493 H         1 CYS         0.0432
    217 H96       -12.8705   34.8614  -30.8154 H         1 ARG         0.1883
    218 H97       -14.1698   34.1894  -33.2832 H         1 ARG         0.0800
    219 H98       -15.9721   35.7019  -32.4783 H         1 ARG         0.0313
    220 H99       -14.8925   36.2525  -31.1524 H         1 ARG         0.0313
    221 H100      -14.8065   33.8861  -30.3361 H         1 ARG         0.0301
    222 H101      -16.0383   33.4685  -31.5750 H         1 ARG         0.0301
    223 H102      -16.5122   35.7269  -29.6124 H         1 ARG         0.0689
    224 H103      -16.8019   34.0188  -29.1379 H         1 ARG         0.0689
    225 H104      -18.0910   34.5613  -31.6482 H         1 ARG         0.2642
    226 H105      -20.1726   35.5346  -28.2823 H         1 ARG         0.2615
    227 H106      -18.4020   35.3457  -28.1716 H         1 ARG         0.2615
    228 H107      -20.3232   34.7984  -31.7409 H         1 ARG         0.2615
    229 H108      -21.2438   35.2391  -30.2777 H         1 ARG         0.2615
    230 H109      -14.4753   35.3122  -35.0963 H         1 ARG         0.1883
    231 H110      -13.0308   37.8900  -35.4727 H         1 ARG         0.0800
    232 H111      -13.2500   37.3034  -37.9136 H         1 ARG         0.0313
    233 H112      -13.9927   35.7437  -37.4214 H         1 ARG         0.0313
    234 H113      -11.9267   35.0819  -36.3035 H         1 ARG         0.0301
    235 H114      -11.1796   36.6659  -36.7028 H         1 ARG         0.0301
    236 H115      -10.4259   34.9789  -38.2940 H         1 ARG         0.0689
    237 H116      -11.4872   36.1658  -39.1256 H         1 ARG         0.0689
    238 H117      -12.1740   33.3378  -38.4046 H         1 ARG         0.2642
    239 H118      -14.3073   35.4841  -41.1296 H         1 ARG         0.2615
    240 H119      -13.0265   36.3222  -40.2132 H         1 ARG         0.2615
    241 H120      -13.7832   32.3533  -39.5790 H         1 ARG         0.2615
    242 H121      -14.7186   33.2758  -40.7860 H         1 ARG         0.2615
    243 H122      -15.8461   39.4992  -37.1805 H         1 NH2         0.1815
    244 H123      -14.1477   39.2255  -37.3818 H         1 NH2         0.1815
@<TRIPOS>BOND
     1    1    2 2  
     2    1    3 1  
     3    1    4 am 
     4    4    5 1  
     5    5    6 1  
     6    5    8 1  
     7    6    7 2  
     8    6   10 am 
     9    8    9 1  
    10    9   98 1  
    11   10   11 1  
    12   11   12 1  
    13   11   14 1  
    14   12   13 2  
    15   12   21 am 
    16   14   15 1  
    17   15   16 1  
    18   16   17 1  
    19   17   18 ar 
    20   18   19 ar 
    21   18   20 ar 
    22   21   22 1  
    23   22   23 1  
    24   22   25 1  
    25   23   24 2  
    26   23   28 am 
    27   25   26 1  
    28   25   27 1  
    29   28   29 1  
    30   29   30 1  
    31   29   32 1  
    32   30   31 2  
    33   30   36 am 
    34   32   33 1  
    35   33   34 ar 
    36   33   35 ar 
    37   36   37 1  
    38   37   38 1  
    39   37   40 1  
    40   38   39 2  
    41   38   44 am 
    42   40   41 1  
    43   41   42 1  
    44   41   43 1  
    45   44   45 1  
    46   45   46 1  
    47   45   48 1  
    48   46   47 2  
    49   46   53 am 
    50   48   49 1  
    51   49   50 1  
    52   50   51 2  
    53   50   52 am 
    54   53   54 1  
    55   54   55 1  
    56   55   56 2  
    57   55   57 am 
    58   57   58 1  
    59   58   59 1  
    60   58   61 1  
    61   59   60 2  
    62   59   71 am 
    63   61   62 1  
    64   62   63 2  
    65   62   64 1  
    66   63   65 1  
    67   64   66 ar 
    68   64   67 ar 
    69   65   66 1  
    70   66   68 ar 
    71   67   69 ar 
    72   68   70 ar 
    73   69   70 ar 
    74   71   72 1  
    75   72   73 1  
    76   72   75 1  
    77   73   74 2  
    78   73   82 am 
    79   75   76 1  
    80   76   77 1  
    81   77   78 1  
    82   78   79 ar 
    83   79   80 ar 
    84   79   81 ar 
    85   82   83 1  
    86   83   84 1  
    87   83   86 1  
    88   84   85 2  
    89   84   93 am 
    90   86   87 1  
    91   87   88 1  
    92   88   89 1  
    93   89   90 ar 
    94   90   91 ar 
    95   90   92 ar 
    96   93   94 1  
    97   94   95 1  
    98   94   97 1  
    99   95   96 2  
   100   95   99 am 
   101   97   98 1  
   102   99  100 1  
   103  100  101 1  
   104  100  103 1  
   105  101  102 2  
   106  101  110 am 
   107  103  104 1  
   108  104  105 1  
   109  105  106 1  
   110  106  107 ar 
   111  107  108 ar 
   112  107  109 ar 
   113  110  111 1  
   114  111  112 1  
   115  111  114 1  
   116  112  113 2  
   117  112  121 am 
   118  114  115 1  
   119  115  116 1  
   120  116  117 1  
   121  117  118 ar 
   122  118  119 ar 
   123  118  120 ar 
   124    3  122 1  
   125    3  123 1  
   126    3  124 1  
   127    4  125 1  
   128    5  126 1  
   129    8  127 1  
   130    8  128 1  
   131   10  129 1  
   132   11  130 1  
   133   14  131 1  
   134   14  132 1  
   135   15  133 1  
   136   15  134 1  
   137   16  135 1  
   138   16  136 1  
   139   17  137 1  
   140   19  138 1  
   141   19  139 1  
   142   20  140 1  
   143   20  141 1  
   144   21  142 1  
   145   22  143 1  
   146   25  144 1  
   147   26  145 1  
   148   26  146 1  
   149   26  147 1  
   150   27  148 1  
   151   27  149 1  
   152   27  150 1  
   153   28  151 1  
   154   29  152 1  
   155   32  153 1  
   156   32  154 1  
   157   36  155 1  
   158   37  156 1  
   159   40  157 1  
   160   40  158 1  
   161   41  159 1  
   162   42  160 1  
   163   42  161 1  
   164   42  162 1  
   165   43  163 1  
   166   43  164 1  
   167   43  165 1  
   168   44  166 1  
   169   45  167 1  
   170   48  168 1  
   171   48  169 1  
   172   49  170 1  
   173   49  171 1  
   174   52  172 1  
   175   52  173 1  
   176   53  174 1  
   177   54  175 1  
   178   54  176 1  
   179   57  177 1  
   180   58  178 1  
   181   61  179 1  
   182   61  180 1  
   183   63  181 1  
   184   65  182 1  
   185   67  183 1  
   186   68  184 1  
   187   69  185 1  
   188   70  186 1  
   189   71  187 1  
   190   72  188 1  
   191   75  189 1  
   192   75  190 1  
   193   76  191 1  
   194   76  192 1  
   195   77  193 1  
   196   77  194 1  
   197   78  195 1  
   198   80  196 1  
   199   80  197 1  
   200   81  198 1  
   201   81  199 1  
   202   82  200 1  
   203   83  201 1  
   204   86  202 1  
   205   86  203 1  
   206   87  204 1  
   207   87  205 1  
   208   88  206 1  
   209   88  207 1  
   210   89  208 1  
   211   91  209 1  
   212   91  210 1  
   213   92  211 1  
   214   92  212 1  
   215   93  213 1  
   216   94  214 1  
   217   97  215 1  
   218   97  216 1  
   219   99  217 1  
   220  100  218 1  
   221  103  219 1  
   222  103  220 1  
   223  104  221 1  
   224  104  222 1  
   225  105  223 1  
   226  105  224 1  
   227  106  225 1  
   228  108  226 1  
   229  108  227 1  
   230  109  228 1  
   231  109  229 1  
   232  110  230 1  
   233  111  231 1  
   234  114  232 1  
   235  114  233 1  
   236  115  234 1  
   237  115  235 1  
   238  116  236 1  
   239  116  237 1  
   240  117  238 1  
   241  119  239 1  
   242  119  240 1  
   243  120  241 1  
   244  120  242 1  
   245  121  243 1  
   246  121  244 1  
@<TRIPOS>SUBSTRUCTURE
     1 ACE         1

