6eo9_ligand
  -I-interpret- 

110114  0  0  0  0  0  0  0  0999 V2000
   15.2550   -6.5960   10.6420 Cl  0  0  0  0  0
   15.4890   -8.0980   11.6090 C   0  0  0  0  0
   14.5980   -8.4750   12.9280 S   0  0  0  0  0
   16.3690   -9.0960   11.3840 C   0  0  0  0  0
   16.2760  -10.0920   12.2910 C   0  0  0  0  0
   15.3510   -9.8530   13.2260 C   0  0  0  0  0
   15.0160  -10.6550   14.1870 C   0  0  0  0  0
   14.3870  -10.3460   15.1330 O   0  0  0  0  0
   14.1590  -11.3700   15.8760 N   0  0  0  0  0
   15.2410  -11.9630   14.1720 C   0  0  0  0  0
   14.7030  -12.4220   15.2780 C   0  0  0  0  0
   14.6970  -13.9120   15.7290 C   0  0  0  0  0
   13.5890  -14.6380   15.1240 O   0  0  0  0  0
   13.7560  -15.8930   14.5550 C   0  0  0  0  0
   14.6830  -16.8310   14.9710 C   0  0  0  0  0
   14.7800  -18.0680   14.3300 C   0  0  0  0  0
   13.9350  -18.4140   13.2750 C   0  0  0  0  0
   12.9370  -16.2570   13.4820 C   0  0  0  0  0
   12.0500  -15.4190   13.0280 N   0  0  0  0  0
   10.7860  -15.7660   13.0980 C   0  0  0  0  0
    9.8520  -14.7650   12.4050 C   0  0  0  0  0
    8.5560  -14.7840   13.0450 C   0  0  0  0  0
    7.7700  -13.7190   12.4210 C   0  0  0  0  0
    7.4740  -13.9950   11.0130 N   0  3  0  0  0
    6.8150  -12.7910   10.5070 C   0  0  0  0  0
    5.3240  -12.9560   10.5600 C   0  0  0  0  0
    7.1490  -12.4510    9.0910 C   0  0  0  0  0
    8.6950  -14.2380   10.2600 C   0  0  0  0  0
    9.6480  -15.1740   10.9840 C   0  0  0  0  0
   10.3690  -16.7630   13.6800 O   0  0  0  0  0
   13.0130  -17.4850   12.8180 C   0  0  0  0  0
   12.1080  -17.7330   11.7980 O   0  0  0  0  0
   12.4410  -18.2550   10.5320 C   0  0  0  0  0
   11.3430  -19.2080   10.0120 C   0  0  0  0  0
    9.9320  -18.8310   10.5000 C   0  0  0  0  0
    9.0050  -19.9070   10.2990 O   0  0  0  0  0
    7.9520  -19.7850    9.2680 C   0  0  0  0  0
    7.0160  -18.6160    9.2160 O   0  0  0  0  0
    7.1520  -21.0760    9.3280 C   0  0  0  0  0
    8.0460  -22.2440    9.3250 O   0  0  0  0  0
    8.0710  -22.7850   10.5690 C   0  0  0  0  0
    8.9060  -22.5050   11.4240 O   0  0  0  0  0
    6.9600  -23.8160   10.8670 C   0  0  0  0  0
    6.2380  -21.1650    8.1240 C   0  0  0  0  0
    5.5780  -22.4450    8.2100 O   0  0  0  0  0
    5.4200  -22.7960    6.9240 C   0  0  0  0  0
    6.6060  -23.5430    6.3230 C   0  0  0  0  0
    4.4430  -22.4850    6.2650 O   0  0  0  0  0
    5.2120  -20.0530    8.1670 C   0  0  0  0  0
    4.2310  -20.0660    7.0290 O   0  0  0  0  0
    2.9720  -19.6770    7.4050 C   0  0  0  0  0
    2.5150  -20.2190    8.7530 C   0  0  0  0  0
    2.2310  -18.9520    6.7400 O   0  0  0  0  0
    5.9260  -18.7270    8.1820 C   0  0  0  0  0
    4.7950  -17.6780    8.3100 C   0  0  0  0  0
    4.9180  -16.7330    7.2710 O   0  0  0  0  0
    3.6630  -16.2250    6.9420 C   0  0  0  0  0
    2.6220  -16.3690    7.5940 O   0  0  0  0  0
    3.6350  -15.4090    5.6550 C   0  0  0  0  0
   17.0797   -9.0979   10.5575 H   0  0  0  0  0
   16.8887  -10.9931   12.2637 H   0  0  0  0  0
   15.7620  -12.5348   13.4041 H   0  0  0  0  0
   14.5874  -13.9481   16.8129 H   0  0  0  0  0
   15.6317  -14.3758   15.4137 H   0  0  0  0  0
   15.3442  -16.6028   15.8070 H   0  0  0  0  0
   15.5346  -18.7809   14.6622 H   0  0  0  0  0
   13.9989  -19.4008   12.8166 H   0  0  0  0  0
   12.3283  -14.5217   12.6307 H   0  0  0  0  0
   10.3002  -13.7733   12.4658 H   0  0  0  0  0
    8.6483  -14.6233   14.1191 H   0  0  0  0  0
    8.0719  -15.7523   12.9183 H   0  0  0  0  0
    8.3514  -12.7983   12.4692 H   0  0  0  0  0
    6.8233  -13.6411   12.9556 H   0  0  0  0  0
    6.8919  -14.8271   10.9168 H   0  0  0  0  0
    7.1777  -11.9896   11.1506 H   0  0  0  0  0
    5.0320  -13.8083    9.9464 H   0  0  0  0  0
    5.0150  -13.1263   11.5913 H   0  0  0  0  0
    4.8461  -12.0528   10.1806 H   0  0  0  0  0
    8.2229  -12.2869    9.0017 H   0  0  0  0  0
    6.8506  -13.2736    8.4411 H   0  0  0  0  0
    6.6164  -11.5454    8.8008 H   0  0  0  0  0
    9.2013  -13.2826   10.1226 H   0  0  0  0  0
    8.4197  -14.7040    9.3139 H   0  0  0  0  0
    9.2188  -16.1759   10.9736 H   0  0  0  0  0
   10.6119  -15.1423   10.4761 H   0  0  0  0  0
   13.3723  -18.8143   10.6212 H   0  0  0  0  0
   12.5423  -17.4267    9.8307 H   0  0  0  0  0
   11.5668  -20.2063   10.3879 H   0  0  0  0  0
   11.3428  -19.1493    8.9236 H   0  0  0  0  0
    9.5882  -17.9667    9.9318 H   0  0  0  0  0
    9.9814  -18.6108   11.5664 H   0  0  0  0  0
    8.5204  -19.5885    8.3589 H   0  0  0  0  0
    6.5683  -21.0722   10.2485 H   0  0  0  0  0
    7.4135  -24.7766   11.1111 H   0  0  0  0  0
    6.3620  -23.4703   11.7102 H   0  0  0  0  0
    6.3232  -23.9260    9.9892 H   0  0  0  0  0
    6.7979  -21.0662    7.1940 H   0  0  0  0  0
    6.2679  -24.5008    5.9276 H   0  0  0  0  0
    7.0382  -22.9484    5.5182 H   0  0  0  0  0
    7.3566  -23.7118    7.0952 H   0  0  0  0  0
    4.6288  -20.2133    9.0738 H   0  0  0  0  0
    2.2966  -19.3871    9.4225 H   0  0  0  0  0
    1.6173  -20.8217    8.6154 H   0  0  0  0  0
    3.3053  -20.8348    9.1824 H   0  0  0  0  0
    6.5037  -18.5721    7.2707 H   0  0  0  0  0
    4.8715  -17.1739    9.2734 H   0  0  0  0  0
    3.8269  -18.1740    8.2400 H   0  0  0  0  0
    2.9379  -15.8652    4.9522 H   0  0  0  0  0
    3.3141  -14.3915    5.8783 H   0  0  0  0  0
    4.6331  -15.3888    5.2174 H   0  0  0  0  0
  1  2  1  0  0  0
  2  3  4  0  0  0
  2  4  4  0  0  0
  3  6  4  0  0  0
  4  5  4  0  0  0
  5  6  4  0  0  0
  6  7  1  0  0  0
  7  8  4  0  0  0
  7 10  4  0  0  0
  8  9  4  0  0  0
  9 11  4  0  0  0
 10 11  4  0  0  0
 11 12  1  0  0  0
 12 13  1  0  0  0
 13 14  1  0  0  0
 14 15  4  0  0  0
 14 18  4  0  0  0
 15 16  4  0  0  0
 16 17  4  0  0  0
 17 31  4  0  0  0
 18 19  1  0  0  0
 18 31  4  0  0  0
 19 20  1  0  0  0
 20 21  1  0  0  0
 20 30  2  0  0  0
 21 22  1  0  0  0
 21 29  1  0  0  0
 22 23  1  0  0  0
 23 24  1  0  0  0
 24 25  1  0  0  0
 24 28  1  0  0  0
 25 26  1  0  0  0
 25 27  1  0  0  0
 28 29  1  0  0  0
 31 32  1  0  0  0
 32 33  1  0  0  0
 33 34  1  0  0  0
 34 35  1  0  0  0
 35 36  1  0  0  0
 36 37  1  0  0  0
 37 38  1  0  0  0
 37 39  1  0  0  0
 38 54  1  0  0  0
 39 40  1  0  0  0
 39 44  1  0  0  0
 40 41  1  0  0  0
 41 42  2  0  0  0
 41 43  1  0  0  0
 44 45  1  0  0  0
 44 49  1  0  0  0
 45 46  1  0  0  0
 46 47  1  0  0  0
 46 48  2  0  0  0
 49 50  1  0  0  0
 49 54  1  0  0  0
 50 51  1  0  0  0
 51 52  1  0  0  0
 51 53  2  0  0  0
 54 55  1  0  0  0
 55 56  1  0  0  0
 56 57  1  0  0  0
 57 58  2  0  0  0
 57 59  1  0  0  0
  4 60  1  0  0  0
  5 61  1  0  0  0
 10 62  1  0  0  0
 12 63  1  0  0  0
 12 64  1  0  0  0
 15 65  1  0  0  0
 16 66  1  0  0  0
 17 67  1  0  0  0
 19 68  1  0  0  0
 21 69  1  0  0  0
 22 70  1  0  0  0
 22 71  1  0  0  0
 23 72  1  0  0  0
 23 73  1  0  0  0
 24 74  1  0  0  0
 25 75  1  0  0  0
 26 76  1  0  0  0
 26 77  1  0  0  0
 26 78  1  0  0  0
 27 79  1  0  0  0
 27 80  1  0  0  0
 27 81  1  0  0  0
 28 82  1  0  0  0
 28 83  1  0  0  0
 29 84  1  0  0  0
 29 85  1  0  0  0
 33 86  1  0  0  0
 33 87  1  0  0  0
 34 88  1  0  0  0
 34 89  1  0  0  0
 35 90  1  0  0  0
 35 91  1  0  0  0
 37 92  1  0  0  0
 39 93  1  0  0  0
 43 94  1  0  0  0
 43 95  1  0  0  0
 43 96  1  0  0  0
 44 97  1  0  0  0
 47 98  1  0  0  0
 47 99  1  0  0  0
 47100  1  0  0  0
 49101  1  0  0  0
 52102  1  0  0  0
 52103  1  0  0  0
 52104  1  0  0  0
 54105  1  0  0  0
 55106  1  0  0  0
 55107  1  0  0  0
 59108  1  0  0  0
 59109  1  0  0  0
 59110  1  0  0  0
M  END
$$$$
