3cj3_ligand
  -I-interpret- 

 41 43  0  0  0  0  0  0  0  0999 V2000
    9.9040   36.2100   78.0570 Cl  0  0  0  0  0
   10.8610   34.7590   78.2920 C   0  0  0  0  0
   12.1120   34.8730   78.9200 C   0  0  0  0  0
   12.9370   33.7640   79.1430 C   0  0  0  0  0
   12.5310   32.5000   78.7270 C   0  0  0  0  0
   11.2880   32.3570   78.1030 C   0  0  0  0  0
   10.4430   33.4700   77.8850 C   0  0  0  0  0
    9.1180   33.3040   77.1990 C   0  0  0  0  0
    9.1540   33.7130   75.7100 C   0  0  0  0  0
   10.1430   32.8830   74.8740 C   0  0  0  0  0
    9.3650   31.6530   74.3830 C   0  0  0  0  0
    7.9330   31.8920   74.8490 C   0  0  0  0  0
    7.8890   33.3220   75.1040 N   0  0  0  0  0
    6.7430   34.0900   74.9350 C   0  0  0  0  0
    5.7170   33.6240   74.4050 O   0  0  0  0  0
    6.7580   35.5130   75.3920 C   0  0  0  0  0
    5.9490   35.9490   76.4730 C   0  0  0  0  0
    5.0840   35.1030   77.1770 N   0  0  0  0  0
    7.5850   36.4380   74.7160 C   0  0  0  0  0
    7.6120   37.7910   75.1020 C   0  0  0  0  0
    8.7110   39.0790   74.2100 Br  0  0  0  0  0
    6.8070   38.2200   76.1650 C   0  0  0  0  0
    5.9860   37.3090   76.8440 C   0  0  0  0  0
   12.4516   35.8567   79.2443 H   0  0  0  0  0
   13.8974   33.8909   79.6426 H   0  0  0  0  0
   13.1729   31.6334   78.8853 H   0  0  0  0  0
   10.9638   31.3683   77.7782 H   0  0  0  0  0
    8.3996   33.9500   77.7036 H   0  0  0  0  0
    8.8490   32.2488   77.2471 H   0  0  0  0  0
    9.4005   34.7748   75.7057 H   0  0  0  0  0
   11.0082   32.5885   75.4680 H   0  0  0  0  0
   10.5308   33.4622   74.0360 H   0  0  0  0  0
    9.7743   30.7255   74.7834 H   0  0  0  0  0
    9.4273   31.5368   73.3010 H   0  0  0  0  0
    7.6786   31.3040   75.7308 H   0  0  0  0  0
    7.1967   31.5783   74.1090 H   0  0  0  0  0
    5.0126   34.1184   76.9202 H   0  0  0  0  0
    4.5251   35.4711   77.9468 H   0  0  0  0  0
    8.2079   36.1004   73.8877 H   0  0  0  0  0
    6.8190   39.2676   76.4658 H   0  0  0  0  0
    5.3670   37.6570   77.6710 H   0  0  0  0  0
  1  2  1  0  0  0
  2  3  4  0  0  0
  2  7  4  0  0  0
  3  4  4  0  0  0
  4  5  4  0  0  0
  5  6  4  0  0  0
  6  7  4  0  0  0
  7  8  1  0  0  0
  8  9  1  0  0  0
  9 10  1  0  0  0
  9 13  1  0  0  0
 10 11  1  0  0  0
 11 12  1  0  0  0
 12 13  1  0  0  0
 13 14  1  0  0  0
 14 15  2  0  0  0
 14 16  1  0  0  0
 16 17  4  0  0  0
 16 19  4  0  0  0
 17 18  1  0  0  0
 17 23  4  0  0  0
 19 20  4  0  0  0
 20 21  1  0  0  0
 20 22  4  0  0  0
 22 23  4  0  0  0
  3 24  1  0  0  0
  4 25  1  0  0  0
  5 26  1  0  0  0
  6 27  1  0  0  0
  8 28  1  0  0  0
  8 29  1  0  0  0
  9 30  1  0  0  0
 10 31  1  0  0  0
 10 32  1  0  0  0
 11 33  1  0  0  0
 11 34  1  0  0  0
 12 35  1  0  0  0
 12 36  1  0  0  0
 18 37  1  0  0  0
 18 38  1  0  0  0
 19 39  1  0  0  0
 22 40  1  0  0  0
 23 41  1  0  0  0
M  END
$$$$
