### 
### Created by X-TOOL on Mon Sep 10 21:13:15 2018
### 

@<TRIPOS>MOLECULE
4kvm_ligand
  131   133     1     0     0
SMALL
GAST_HUCK


@<TRIPOS>ATOM
      1 N         -47.9410   -9.5010  -81.6200 N.4       1 SER         0.2701
      2 CA        -46.5620   -9.3930  -81.1490 C.3       1 SER         0.0928
      3 C         -45.6270   -9.9400  -82.1830 C.2       1 SER         0.2291
      4 O         -45.9570  -10.8770  -82.8990 O.2       1 SER        -0.3906
      5 CB        -46.3570  -10.2420  -79.9020 C.3       1 SER         0.1043
      6 OG        -46.8280  -11.5270  -80.1740 O.3       1 SER        -0.3870
      7 N         -44.4330   -9.3900  -82.2390 N.am      1 ALA        -0.2612
      8 CA        -43.5510   -9.7350  -83.3270 C.3       1 ALA         0.1283
      9 C         -42.6090  -10.7570  -82.8080 C.2       1 ALA         0.2037
     10 O         -42.3280  -10.7910  -81.6070 O.2       1 ALA        -0.3944
     11 CB        -42.7840   -8.5230  -83.7970 C.3       1 ALA        -0.0244
     12 N         -42.0750  -11.5440  -83.7310 N.am      1 SER        -0.2616
     13 CA        -41.2140  -12.6450  -83.3830 C.3       1 SER         0.1539
     14 C         -39.7820  -12.4350  -83.8260 C.2       1 SER         0.2056
     15 O         -39.4260  -12.6680  -84.9960 O.2       1 SER        -0.3943
     16 CB        -41.7330  -13.9350  -84.0030 C.3       1 SER         0.0843
     17 OG        -40.7340  -14.9360  -83.9060 O.3       1 SER        -0.3903
     18 N         -38.9610  -12.0160  -82.8730 N.am      1 GLU        -0.2693
     19 CA        -37.5170  -12.0510  -83.0420 C.3       1 GLU         0.0959
     20 C         -36.9570  -13.2470  -82.2630 C.2       1 GLU         0.0602
     21 O         -37.6156  -13.7577  -81.3180 O.co2     1 GLU        -0.5666
     22 CB        -36.8860  -10.7350  -82.5720 C.3       1 GLU        -0.0064
     23 CG        -37.7510   -9.5060  -82.8330 C.3       1 GLU         0.0038
     24 CD        -37.8870   -9.1440  -84.3130 C.2       1 GLU         0.0350
     25 OE1       -37.2200   -9.7850  -85.1590 O.co2     1 GLU        -0.5690
     26 OE2       -38.6610   -8.2040  -84.6260 O.co2     1 GLU        -0.5690
     27 N1A       -63.8630  -12.7460  -75.2790 N.ar      1 1XE        -0.2675
     28 C2A       -64.4790  -11.6170  -74.9060 C.ar      1 1XE         0.0562
     29 N3A       -64.0050  -10.4000  -75.2390 N.ar      1 1XE        -0.2653
     30 C4A       -62.8690  -10.2760  -75.9790 C.ar      1 1XE         0.1847
     31 C5A       -62.2160  -11.4200  -76.3790 C.ar      1 1XE         0.1114
     32 C6A       -62.7430  -12.6870  -76.0080 C.ar      1 1XE         0.1319
     33 N6A       -62.0630  -13.8930  -76.4230 N.pl3     1 1XE        -0.3147
     34 N7A       -61.1380  -11.0270  -77.0870 N.2       1 1XE        -0.2894
     35 C8A       -61.0920   -9.6980  -77.1480 C.2       1 1XE         0.1346
     36 N9A       -62.1400   -9.2220  -76.4850 N.pl3     1 1XE        -0.1365
     37 C1B       -62.3920   -7.8570  -76.3460 C.2       1 1XE         0.3120
     38 C2B       -63.5350   -7.2410  -75.8390 C.2       1 1XE         0.1943
     39 O2B       -64.7440   -7.8330  -75.3360 O.3       1 1XE        -0.3426
     40 C3B       -63.2470   -5.8340  -75.9170 C.2       1 1XE         0.1898
     41 O3B       -64.0370   -4.7920  -75.5660 O.3       1 1XE        -0.2517
     42 P3B       -65.3040   -4.5500  -76.4350 P.3       1 1XE         0.1038
     43 O7A       -65.6730   -5.9140  -77.1680 O.co2     1 1XE        -0.6708
     44 O8A       -66.4410   -4.0870  -75.5730 O.co2     1 1XE        -0.6708
     45 O9A       -64.9900   -3.5440  -77.4550 O.co2     1 1XE        -0.6708
     46 C4B       -61.9830   -5.7330  -76.4650 C.2       1 1XE         0.1976
     47 O4B       -61.5160   -6.9350  -76.6990 O.3       1 1XE        -0.1930
     48 C5B       -61.2860   -4.4490  -76.7230 C.3       1 1XE         0.1606
     49 O5B       -59.9490   -4.2950  -76.1640 O.3       1 1XE        -0.2295
     50 P1A       -59.6240   -4.5890  -74.5990 P.3       1 1XE         0.3000
     51 O1A       -60.9090   -4.8350  -73.7830 O.co2     1 1XE        -0.6126
     52 O2A       -58.9240   -3.4360  -74.0700 O.co2     1 1XE        -0.6126
     53 O3A       -58.6970   -5.8620  -74.4850 O.3       1 1XE        -0.1317
     54 P2A       -58.0210   -6.2140  -73.1130 P.3       1 1XE         0.2971
     55 O4A       -58.9010   -7.2330  -72.2750 O.co2     1 1XE        -0.6127
     56 O5A       -57.7980   -4.9240  -72.2750 O.co2     1 1XE        -0.6127
     57 O6A       -56.6160   -6.8740  -73.4830 O.3       1 1XE        -0.2496
     58 CBP       -55.3910   -8.3860  -75.1230 C.3       1 1XE         0.0367
     59 CCP       -56.4590   -7.3210  -74.8600 C.3       1 1XE         0.0936
     60 CDP       -55.6890   -9.1650  -76.3310 C.3       1 1XE        -0.0528
     61 CEP       -54.0450   -7.7170  -75.2780 C.3       1 1XE        -0.0528
     62 CAP       -55.3170   -9.2880  -73.8640 C.3       1 1XE         0.1510
     63 OAP       -56.5240  -10.0230  -73.8480 O.3       1 1XE        -0.3708
     64 C9P       -54.1970  -10.2760  -73.8040 C.2       1 1XE         0.2057
     65 O9P       -54.4200  -11.4730  -74.1340 O.2       1 1XE        -0.3942
     66 N8P       -52.8390   -9.9110  -73.3600 N.am      1 1XE        -0.2826
     67 C7P       -51.9720  -11.1220  -73.4350 C.3       1 1XE         0.0477
     68 C6P       -51.6850  -11.9210  -74.6970 C.3       1 1XE         0.0574
     69 C5P       -51.9530  -11.4540  -76.1320 C.2       1 1XE         0.1779
     70 O5P       -52.5820  -12.2010  -76.9560 O.2       1 1XE        -0.3970
     71 N4P       -51.5060  -10.1440  -76.6580 N.am      1 1XE        -0.2861
     72 C3P       -51.8080   -9.7730  -78.0830 C.3       1 1XE         0.0399
     73 C2P       -50.7840  -10.1860  -79.0910 C.3       1 1XE         0.0142
     74 S1P       -51.1560  -10.0890  -80.7760 S.3       1 1XE        -0.1505
     75 C1        -50.4020   -8.6570  -81.4720 C.3       1 1XE         0.0629
     76 C2        -48.8890   -8.4760  -81.3090 C.3       1 1XE         0.0916
     77 O21       -48.4890   -8.0780  -80.0760 O.3       1 1XE        -0.3522
     78 O         -35.8311  -13.7221  -82.5698 O.co2     1 GLU        -0.5666
     79 H1        -48.3095  -10.3608  -81.2445 H         1 SER         0.2064
     80 H2        -47.9004   -9.5635  -82.6252 H         1 SER         0.2064
     81 H3        -46.3264   -8.3397  -80.9368 H         1 SER         0.1123
     82 H4        -46.9169   -9.8096  -79.0596 H         1 SER         0.0640
     83 H5        -45.2872  -10.2822  -79.6492 H         1 SER         0.0640
     84 H6        -46.3430  -11.8928  -80.9043 H         1 SER         0.2099
     85 H7        -44.1408   -8.7412  -81.5364 H         1 ALA         0.1884
     86 H8        -44.1320  -10.1465  -84.1655 H         1 ALA         0.0797
     87 H9        -42.1190   -8.8085  -84.6254 H         1 ALA         0.0277
     88 H10       -42.1839   -8.1238  -82.9660 H         1 ALA         0.0277
     89 H11       -43.4900   -7.7534  -84.1423 H         1 ALA         0.0277
     90 H12       -42.2752  -11.3687  -84.6949 H         1 SER         0.1884
     91 H13       -41.2237  -12.7498  -82.2881 H         1 SER         0.0823
     92 H14       -41.9779  -13.7616  -85.0613 H         1 SER         0.0606
     93 H15       -42.6355  -14.2634  -83.4668 H         1 SER         0.0606
     94 H16       -39.9553  -14.6506  -84.3692 H         1 SER         0.2097
     95 H17       -39.3439  -11.6675  -82.0174 H         1 GLU         0.1875
     96 H18       -37.2864  -12.1848  -84.1092 H         1 GLU         0.0727
     97 H19       -35.9290  -10.6027  -83.0979 H         1 GLU         0.0323
     98 H20       -36.7030  -10.8059  -81.4897 H         1 GLU         0.0323
     99 H21       -37.3032   -8.6498  -82.3072 H         1 GLU         0.0432
    100 H22       -38.7563   -9.6987  -82.4303 H         1 GLU         0.0432
    101 H23       -65.3872  -11.6839  -74.3179 H         1 1XE         0.1002
    102 H24       -61.2015  -13.8313  -76.9841 H         1 1XE         0.1822
    103 H25       -62.4399  -14.8141  -76.1576 H         1 1XE         0.1822
    104 H26       -60.3299   -9.1057  -77.6523 H         1 1XE         0.1368
    105 H27       -64.5378   -8.3902  -74.5947 H         1 1XE         0.2403
    106 H28       -61.9120   -3.6437  -76.3112 H         1 1XE         0.0875
    107 H29       -61.2049   -4.3293  -77.8134 H         1 1XE         0.0875
    108 H30       -56.2075   -6.4402  -75.4691 H         1 1XE         0.0628
    109 H31       -57.4254   -7.7306  -75.1891 H         1 1XE         0.0628
    110 H32       -54.9015   -9.9173  -76.4857 H         1 1XE         0.0238
    111 H33       -55.7293   -8.4924  -77.2004 H         1 1XE         0.0238
    112 H34       -56.6594   -9.6692  -76.2121 H         1 1XE         0.0238
    113 H35       -53.8197   -7.1326  -74.3737 H         1 1XE         0.0238
    114 H36       -54.0663   -7.0480  -76.1509 H         1 1XE         0.0238
    115 H37       -53.2691   -8.4833  -75.4221 H         1 1XE         0.0238
    116 H38       -55.2503   -8.6411  -72.9769 H         1 1XE         0.0844
    117 H39       -56.5883  -10.5414  -74.6415 H         1 1XE         0.2133
    118 H40       -52.5480   -9.0029  -73.0589 H         1 SER         0.1853
    119 H41       -52.4130  -11.8408  -72.7287 H         1 SER         0.0545
    120 H42       -50.9880  -10.7998  -73.0637 H         1 SER         0.0545
    121 H43       -52.2557  -12.8547  -74.5849 H         1 SER         0.0522
    122 H44       -50.6082  -12.1428  -74.6609 H         1 SER         0.0522
    123 H45       -51.0060   -9.5096  -76.0685 H         1 SER         0.1851
    124 H46       -51.9096   -8.6789  -78.1332 H         1 SER         0.0528
    125 H47       -52.7633  -10.2431  -78.3595 H         1 SER         0.0528
    126 H48       -50.5329  -11.2358  -78.8794 H         1 SER         0.0396
    127 H49       -49.8981   -9.5560  -78.9228 H         1 SER         0.0396
    128 H50       -50.8851   -7.7808  -81.0150 H         1 SER         0.0458
    129 H51       -50.6131   -8.6708  -82.5515 H         1 SER         0.0458
    130 H52       -48.6630   -7.6519  -82.0017 H         1 SER         0.1192
    131 H53       -49.0611   -7.3855  -79.7669 H         1 SER         0.2154
@<TRIPOS>BOND
     1    1    2 1  
     2   76    1 1  
     3    2    3 1  
     4    2    5 1  
     5    3    4 2  
     6    3    7 am 
     7    5    6 1  
     8    7    8 1  
     9    8    9 1  
    10    8   11 1  
    11    9   10 2  
    12    9   12 am 
    13   12   13 1  
    14   13   14 1  
    15   13   16 1  
    16   14   15 2  
    17   14   18 am 
    18   16   17 1  
    19   18   19 1  
    20   19   20 1  
    21   19   22 1  
    22   20   21 ar 
    23   22   23 1  
    24   23   24 1  
    25   24   25 ar 
    26   24   26 ar 
    27   28   27 ar 
    28   32   27 ar 
    29   29   28 ar 
    30   30   29 ar 
    31   30   31 ar 
    32   36   30 1  
    33   31   32 ar 
    34   34   31 1  
    35   32   33 1  
    36   35   34 2  
    37   36   35 1  
    38   37   36 1  
    39   37   38 2  
    40   47   37 1  
    41   38   39 1  
    42   40   38 1  
    43   40   41 1  
    44   46   40 2  
    45   41   42 1  
    46   42   43 ar 
    47   42   44 ar 
    48   42   45 ar 
    49   46   47 1  
    50   48   46 1  
    51   49   48 1  
    52   50   49 1  
    53   50   51 ar 
    54   50   52 ar 
    55   53   50 1  
    56   54   53 1  
    57   54   55 ar 
    58   54   56 ar 
    59   57   54 1  
    60   59   57 1  
    61   58   59 1  
    62   58   60 1  
    63   58   61 1  
    64   62   58 1  
    65   62   63 1  
    66   64   62 1  
    67   64   65 2  
    68   66   64 am 
    69   67   66 1  
    70   68   67 1  
    71   69   68 1  
    72   69   70 2  
    73   71   69 am 
    74   72   71 1  
    75   73   72 1  
    76   74   73 1  
    77   75   74 1  
    78   75   76 1  
    79   76   77 1  
    80   20   78 ar 
    81    1   79 1  
    82    1   80 1  
    83    2   81 1  
    84    5   82 1  
    85    5   83 1  
    86    6   84 1  
    87    7   85 1  
    88    8   86 1  
    89   11   87 1  
    90   11   88 1  
    91   11   89 1  
    92   12   90 1  
    93   13   91 1  
    94   16   92 1  
    95   16   93 1  
    96   17   94 1  
    97   18   95 1  
    98   19   96 1  
    99   22   97 1  
   100   22   98 1  
   101   23   99 1  
   102   23  100 1  
   103   28  101 1  
   104   33  102 1  
   105   33  103 1  
   106   35  104 1  
   107   39  105 1  
   108   48  106 1  
   109   48  107 1  
   110   59  108 1  
   111   59  109 1  
   112   60  110 1  
   113   60  111 1  
   114   60  112 1  
   115   61  113 1  
   116   61  114 1  
   117   61  115 1  
   118   62  116 1  
   119   63  117 1  
   120   66  118 1  
   121   67  119 1  
   122   67  120 1  
   123   68  121 1  
   124   68  122 1  
   125   71  123 1  
   126   72  124 1  
   127   72  125 1  
   128   73  126 1  
   129   73  127 1  
   130   75  128 1  
   131   75  129 1  
   132   76  130 1  
   133   77  131 1  
@<TRIPOS>SUBSTRUCTURE
     1 SER         1

