4kvm_ligand
  -I-interpret- 

137139  0  0  0  0  0  0  0  0999 V2000
  -47.9410   -9.5010  -81.6200 N   0  3  0  0  0
  -46.5620   -9.3930  -81.1490 C   0  0  0  0  0
  -45.6270   -9.9400  -82.1830 C   0  0  0  0  0
  -45.9570  -10.8770  -82.8990 O   0  0  0  0  0
  -46.3570  -10.2420  -79.9020 C   0  0  0  0  0
  -46.8280  -11.5270  -80.1740 O   0  0  0  0  0
  -44.4330   -9.3900  -82.2390 N   0  0  0  0  0
  -43.5510   -9.7350  -83.3270 C   0  0  0  0  0
  -42.6090  -10.7570  -82.8080 C   0  0  0  0  0
  -42.3280  -10.7910  -81.6070 O   0  0  0  0  0
  -42.7840   -8.5230  -83.7970 C   0  0  0  0  0
  -42.0750  -11.5440  -83.7310 N   0  0  0  0  0
  -41.2140  -12.6450  -83.3830 C   0  0  0  0  0
  -39.7820  -12.4350  -83.8260 C   0  0  0  0  0
  -39.4260  -12.6680  -84.9960 O   0  0  0  0  0
  -41.7330  -13.9350  -84.0030 C   0  0  0  0  0
  -40.7340  -14.9360  -83.9060 O   0  0  0  0  0
  -38.9610  -12.0160  -82.8730 N   0  0  0  0  0
  -37.5170  -12.0510  -83.0420 C   0  0  0  0  0
  -36.9570  -13.2470  -82.2630 C   0  0  0  0  0
  -37.6156  -13.7577  -81.3180 O   0  0  0  0  0
  -36.8860  -10.7350  -82.5720 C   0  0  0  0  0
  -37.7510   -9.5060  -82.8330 C   0  0  0  0  0
  -37.8870   -9.1440  -84.3130 C   0  0  0  0  0
  -37.2200   -9.7850  -85.1590 O   0  0  0  0  0
  -38.6610   -8.2040  -84.6260 O   0  0  0  0  0
  -63.8630  -12.7460  -75.2790 N   0  0  0  0  0
  -64.4790  -11.6170  -74.9060 C   0  0  0  0  0
  -64.0050  -10.4000  -75.2390 N   0  0  0  0  0
  -62.8690  -10.2760  -75.9790 C   0  0  0  0  0
  -62.2160  -11.4200  -76.3790 C   0  0  0  0  0
  -62.7430  -12.6870  -76.0080 C   0  0  0  0  0
  -62.0630  -13.8930  -76.4230 N   0  0  0  0  0
  -61.1380  -11.0270  -77.0870 N   0  0  0  0  0
  -61.0920   -9.6980  -77.1480 C   0  0  0  0  0
  -62.1400   -9.2220  -76.4850 N   0  0  0  0  0
  -62.3920   -7.8570  -76.3460 C   0  0  0  0  0
  -63.5350   -7.2410  -75.8390 C   0  0  0  0  0
  -64.7440   -7.8330  -75.3360 O   0  0  0  0  0
  -63.2470   -5.8340  -75.9170 C   0  0  0  0  0
  -64.0370   -4.7920  -75.5660 O   0  0  0  0  0
  -65.3040   -4.5500  -76.4350 P   0  0  0  0  0
  -65.6730   -5.9140  -77.1680 O   0  0  0  0  0
  -66.4410   -4.0870  -75.5730 O   0  0  0  0  0
  -64.9900   -3.5440  -77.4550 O   0  0  0  0  0
  -61.9830   -5.7330  -76.4650 C   0  0  0  0  0
  -61.5160   -6.9350  -76.6990 O   0  0  0  0  0
  -61.2860   -4.4490  -76.7230 C   0  0  0  0  0
  -59.9490   -4.2950  -76.1640 O   0  0  0  0  0
  -59.6240   -4.5890  -74.5990 P   0  0  0  0  0
  -60.9090   -4.8350  -73.7830 O   0  0  0  0  0
  -58.9240   -3.4360  -74.0700 O   0  0  0  0  0
  -58.6970   -5.8620  -74.4850 O   0  0  0  0  0
  -58.0210   -6.2140  -73.1130 P   0  0  0  0  0
  -58.9010   -7.2330  -72.2750 O   0  0  0  0  0
  -57.7980   -4.9240  -72.2750 O   0  0  0  0  0
  -56.6160   -6.8740  -73.4830 O   0  0  0  0  0
  -55.3910   -8.3860  -75.1230 C   0  0  0  0  0
  -56.4590   -7.3210  -74.8600 C   0  0  0  0  0
  -55.6890   -9.1650  -76.3310 C   0  0  0  0  0
  -54.0450   -7.7170  -75.2780 C   0  0  0  0  0
  -55.3170   -9.2880  -73.8640 C   0  0  0  0  0
  -56.5240  -10.0230  -73.8480 O   0  0  0  0  0
  -54.1970  -10.2760  -73.8040 C   0  0  0  0  0
  -54.4200  -11.4730  -74.1340 O   0  0  0  0  0
  -52.8390   -9.9110  -73.3600 N   0  0  0  0  0
  -51.9720  -11.1220  -73.4350 C   0  0  0  0  0
  -51.6850  -11.9210  -74.6970 C   0  0  0  0  0
  -51.9530  -11.4540  -76.1320 C   0  0  0  0  0
  -52.5820  -12.2010  -76.9560 O   0  0  0  0  0
  -51.5060  -10.1440  -76.6580 N   0  0  0  0  0
  -51.8080   -9.7730  -78.0830 C   0  0  0  0  0
  -50.7840  -10.1860  -79.0910 C   0  0  0  0  0
  -51.1560  -10.0890  -80.7760 S   0  0  0  0  0
  -50.4020   -8.6570  -81.4720 C   0  0  0  0  0
  -48.8890   -8.4760  -81.3090 C   0  0  0  0  0
  -48.4890   -8.0780  -80.0760 O   0  0  0  0  0
  -35.8311  -13.7221  -82.5698 O   0  0  0  0  0
  -48.3040  -10.3324  -81.1537 H   0  0  0  0  0
  -47.8646   -9.4759  -82.6368 H   0  0  0  0  0
  -46.3669   -8.3403  -80.9444 H   0  0  0  0  0
  -46.8995   -9.8121  -79.0600 H   0  0  0  0  0
  -45.2998  -10.2759  -79.6388 H   0  0  0  0  0
  -46.7084  -12.0811  -79.3992 H   0  0  0  0  0
  -44.1349   -8.7282  -81.5223 H   0  0  0  0  0
  -44.1204  -10.1134  -84.1760 H   0  0  0  0  0
  -43.4847   -7.7612  -84.1388 H   0  0  0  0  0
  -42.1899   -8.1284  -82.9727 H   0  0  0  0  0
  -42.1254   -8.8072  -84.6178 H   0  0  0  0  0
  -42.2792  -11.3652  -84.7142 H   0  0  0  0  0
  -41.2226  -12.7095  -82.2949 H   0  0  0  0  0
  -41.9774  -13.7636  -85.0513 H   0  0  0  0  0
  -42.6283  -14.2603  -83.4732 H   0  0  0  0  0
  -41.0596  -15.7503  -84.2965 H   0  0  0  0  0
  -39.3515  -11.6606  -82.0003 H   0  0  0  0  0
  -37.2718  -12.1671  -84.0977 H   0  0  0  0  0
  -38.4437  -13.2834  -81.2136 H   0  0  0  0  0
  -35.9589  -10.6029  -83.1298 H   0  0  0  0  0
  -36.7464  -10.8097  -81.4936 H   0  0  0  0  0
  -37.2721   -8.6621  -82.3364 H   0  0  0  0  0
  -38.7511   -9.7296  -82.4616 H   0  0  0  0  0
  -39.0712   -7.8512  -83.8330 H   0  0  0  0  0
  -65.3922  -11.6843  -74.3147 H   0  0  0  0  0
  -62.4363  -14.8051  -76.1602 H   0  0  0  0  0
  -61.2098  -13.8319  -76.9787 H   0  0  0  0  0
  -60.3292   -9.1052  -77.6528 H   0  0  0  0  0
  -65.3472   -7.1396  -75.0586 H   0  0  0  0  0
  -65.8811   -6.5827  -76.5114 H   0  0  0  0  0
  -66.6331   -4.7562  -74.9120 H   0  0  0  0  0
  -61.8960   -3.6799  -76.2491 H   0  0  0  0  0
  -61.1639   -4.3899  -77.8045 H   0  0  0  0  0
  -61.3698   -5.5994  -74.1365 H   0  0  0  0  0
  -59.0410   -8.0314  -72.7894 H   0  0  0  0  0
  -56.1509   -6.4422  -75.4265 H   0  0  0  0  0
  -57.4099   -7.7762  -75.1370 H   0  0  0  0  0
  -56.6507   -9.6640  -76.2119 H   0  0  0  0  0
  -55.7287   -8.4974  -77.1917 H   0  0  0  0  0
  -54.9081   -9.9100  -76.4832 H   0  0  0  0  0
  -54.0810   -7.0211  -76.1161 H   0  0  0  0  0
  -53.8028   -7.1748  -74.3640 H   0  0  0  0  0
  -53.2837   -8.4743  -75.4653 H   0  0  0  0  0
  -55.1475   -8.6215  -73.0183 H   0  0  0  0  0
  -56.5337  -10.6035  -73.0835 H   0  0  0  0  0
  -52.5422   -8.9847  -73.0528 H   0  0  0  0  0
  -52.5261  -11.8394  -72.8296 H   0  0  0  0  0
  -50.9899  -10.7172  -73.1908 H   0  0  0  0  0
  -52.3765  -12.7577  -74.5979 H   0  0  0  0  0
  -50.5973  -11.9890  -74.6800 H   0  0  0  0  0
  -50.9960   -9.4969  -76.0567 H   0  0  0  0  0
  -51.8522   -8.6844  -78.1160 H   0  0  0  0  0
  -52.7293  -10.2915  -78.3485 H   0  0  0  0  0
  -50.6264  -11.2483  -78.9043 H   0  0  0  0  0
  -49.9605   -9.4860  -78.9499 H   0  0  0  0  0
  -50.8486   -7.8143  -80.9442 H   0  0  0  0  0
  -50.5650   -8.7424  -82.5464 H   0  0  0  0  0
  -48.8486   -7.7367  -82.1089 H   0  0  0  0  0
  -47.5331   -7.9903  -80.0637 H   0  0  0  0  0
  1  2  1  0  0  0
 76  1  1  0  0  0
  2  3  1  0  0  0
  2  5  1  0  0  0
  3  4  2  0  0  0
  3  7  1  0  0  0
  5  6  1  0  0  0
  7  8  1  0  0  0
  8  9  1  0  0  0
  8 11  1  0  0  0
  9 10  2  0  0  0
  9 12  1  0  0  0
 12 13  1  0  0  0
 13 14  1  0  0  0
 13 16  1  0  0  0
 14 15  2  0  0  0
 14 18  1  0  0  0
 16 17  1  0  0  0
 18 19  1  0  0  0
 19 20  1  0  0  0
 19 22  1  0  0  0
 20 21  1  0  0  0
 22 23  1  0  0  0
 23 24  1  0  0  0
 24 25  2  0  0  0
 24 26  1  0  0  0
 28 27  4  0  0  0
 32 27  4  0  0  0
 29 28  4  0  0  0
 30 29  4  0  0  0
 30 31  4  0  0  0
 36 30  4  0  0  0
 31 32  4  0  0  0
 34 31  4  0  0  0
 32 33  1  0  0  0
 35 34  4  0  0  0
 36 35  4  0  0  0
 37 36  1  0  0  0
 37 38  4  0  0  0
 47 37  4  0  0  0
 38 39  1  0  0  0
 40 38  4  0  0  0
 40 41  1  0  0  0
 46 40  4  0  0  0
 41 42  1  0  0  0
 42 43  1  0  0  0
 42 44  1  0  0  0
 42 45  2  0  0  0
 46 47  4  0  0  0
 48 46  1  0  0  0
 49 48  1  0  0  0
 50 49  1  0  0  0
 50 51  1  0  0  0
 50 52  2  0  0  0
 53 50  1  0  0  0
 54 53  1  0  0  0
 54 55  1  0  0  0
 54 56  2  0  0  0
 57 54  1  0  0  0
 59 57  1  0  0  0
 58 59  1  0  0  0
 58 60  1  0  0  0
 58 61  1  0  0  0
 62 58  1  0  0  0
 62 63  1  0  0  0
 64 62  1  0  0  0
 64 65  2  0  0  0
 66 64  1  0  0  0
 67 66  1  0  0  0
 68 67  1  0  0  0
 69 68  1  0  0  0
 69 70  2  0  0  0
 71 69  1  0  0  0
 72 71  1  0  0  0
 73 72  1  0  0  0
 74 73  1  0  0  0
 75 74  1  0  0  0
 75 76  1  0  0  0
 76 77  1  0  0  0
 20 78  2  0  0  0
  1 79  1  0  0  0
  1 80  1  0  0  0
  2 81  1  0  0  0
  5 82  1  0  0  0
  5 83  1  0  0  0
  6 84  1  0  0  0
  7 85  1  0  0  0
  8 86  1  0  0  0
 11 87  1  0  0  0
 11 88  1  0  0  0
 11 89  1  0  0  0
 12 90  1  0  0  0
 13 91  1  0  0  0
 16 92  1  0  0  0
 16 93  1  0  0  0
 17 94  1  0  0  0
 18 95  1  0  0  0
 19 96  1  0  0  0
 21 97  1  0  0  0
 22 98  1  0  0  0
 22 99  1  0  0  0
 23100  1  0  0  0
 23101  1  0  0  0
 26102  1  0  0  0
 28103  1  0  0  0
 33104  1  0  0  0
 33105  1  0  0  0
 35106  1  0  0  0
 39107  1  0  0  0
 43108  1  0  0  0
 44109  1  0  0  0
 48110  1  0  0  0
 48111  1  0  0  0
 51112  1  0  0  0
 55113  1  0  0  0
 59114  1  0  0  0
 59115  1  0  0  0
 60116  1  0  0  0
 60117  1  0  0  0
 60118  1  0  0  0
 61119  1  0  0  0
 61120  1  0  0  0
 61121  1  0  0  0
 62122  1  0  0  0
 63123  1  0  0  0
 66124  1  0  0  0
 67125  1  0  0  0
 67126  1  0  0  0
 68127  1  0  0  0
 68128  1  0  0  0
 71129  1  0  0  0
 72130  1  0  0  0
 72131  1  0  0  0
 73132  1  0  0  0
 73133  1  0  0  0
 75134  1  0  0  0
 75135  1  0  0  0
 76136  1  0  0  0
 77137  1  0  0  0
M  END
$$$$
