6bqj_ligand
  -I-interpret- 

103107  0  0  0  0  0  0  0  0999 V2000
   23.5980   42.0210   39.1330 C   0  0  0  0  0
   24.2350   42.8850   38.0520 C   0  0  0  0  0
   24.3150   41.9420   36.9290 N   0  0  0  0  0
   23.3450   40.8400   37.0520 C   0  0  0  0  0
   22.6000   41.1770   38.3590 C   0  0  0  0  0
   22.3930   40.7950   35.8500 C   0  0  0  0  0
   21.9410   41.8380   35.3710 O   0  0  0  0  0
   22.0860   39.5850   35.3580 N   0  0  0  0  0
   21.2700   39.5080   34.1500 C   0  0  0  0  0
   22.0440   38.8290   33.0250 C   0  0  0  0  0
   23.0960   39.8210   32.4370 C   0  0  0  0  0
   22.4620   40.8730   31.8590 F   0  0  0  0  0
   23.7230   39.2240   31.4040 F   0  0  0  0  0
   19.8720   38.9190   34.3510 C   0  0  0  0  0
   19.3700   38.1320   33.5370 O   0  0  0  0  0
   19.1520   39.3180   35.5140 N   0  0  0  0  0
   18.2790   40.7230   35.5590 S   0  0  0  0  0
   18.7140   41.4740   36.6940 O   0  0  0  0  0
   18.3670   41.3130   34.2610 O   0  0  0  0  0
   16.6380   40.1950   35.8290 C   0  0  0  0  0
   16.2660   38.8180   35.4590 C   0  0  0  0  0
   15.7560   39.9540   34.6700 C   0  0  0  0  0
   25.1280   42.0060   35.8580 C   0  0  0  0  0
   26.0900   43.1940   35.7240 C   0  0  0  0  0
   27.4460   42.6800   35.6280 N   0  0  0  0  0
   28.1850   42.5230   36.7410 C   0  0  0  0  0
   29.3900   41.9970   36.4070 O   0  0  0  0  0
   30.4390   41.6900   37.4190 C   0  0  0  0  0
   30.8500   42.9480   38.1580 C   0  0  0  0  0
   29.9440   40.6070   38.3680 C   0  0  0  0  0
   31.5910   41.1810   36.5770 C   0  0  0  0  0
   27.8100   42.8160   37.8640 O   0  0  0  0  0
   25.7130   44.1690   34.5660 C   0  0  0  0  0
   24.2800   44.6790   34.7700 C   0  0  0  0  0
   25.7940   43.4620   33.2090 C   0  0  0  0  0
   26.6710   45.3680   34.5610 C   0  0  0  0  0
   25.1120   41.1400   34.9960 O   0  0  0  0  0
   24.6960   41.1970   39.6280 O   0  0  0  0  0
   24.6370   40.7320   40.9230 C   0  0  0  0  0
   25.7700   39.9820   41.3420 C   0  0  0  0  0
   26.8980   39.7100   40.5230 C   0  0  0  0  0
   27.9470   38.9780   40.9990 C   0  0  0  0  0
   27.9220   38.4880   42.3030 C   0  0  0  0  0
   26.8500   38.7240   43.1380 C   0  0  0  0  0
   25.7520   39.4790   42.6640 C   0  0  0  0  0
   24.6950   39.6940   43.5100 N   0  0  0  0  0
   23.6520   40.3950   43.0700 C   0  0  0  0  0
   23.5820   40.9430   41.7820 C   0  0  0  0  0
   22.5160   40.5410   44.0110 C   0  0  0  0  0
   22.2360   39.5330   44.9410 C   0  0  0  0  0
   21.1600   39.6490   45.8080 C   0  0  0  0  0
   20.3470   40.7670   45.7650 C   0  0  0  0  0
   20.6120   41.7760   44.8510 C   0  0  0  0  0
   21.6880   41.6650   43.9810 C   0  0  0  0  0
   29.0440   37.7800   42.6450 O   0  0  0  0  0
   29.1320   37.2290   43.9640 C   0  0  0  0  0
   23.1152   42.5411   39.9603 H   0  0  0  0  0
   25.2001   43.3016   38.3402 H   0  0  0  0  0
   23.6663   43.7864   37.8238 H   0  0  0  0  0
   23.8128   39.8557   37.0723 H   0  0  0  0  0
   21.6614   41.7016   38.1800 H   0  0  0  0  0
   22.2957   40.2851   38.9067 H   0  0  0  0  0
   22.4159   38.7367   35.8184 H   0  0  0  0  0
   21.0673   40.5381   33.8569 H   0  0  0  0  0
   21.3508   38.5296   32.2389 H   0  0  0  0  0
   22.5558   37.9504   33.4176 H   0  0  0  0  0
   23.7646   40.1212   33.2438 H   0  0  0  0  0
   19.1753   38.7215   36.3411 H   0  0  0  0  0
   16.5692   40.7990   36.7337 H   0  0  0  0  0
   16.3249   37.7444   35.6379 H   0  0  0  0  0
   15.1625   40.3361   33.8394 H   0  0  0  0  0
   26.0103   43.8159   36.6156 H   0  0  0  0  0
   27.8370   42.4385   34.7174 H   0  0  0  0  0
   31.2455   43.6729   37.4466 H   0  0  0  0  0
   29.9821   43.3703   38.6644 H   0  0  0  0  0
   31.6169   42.7022   38.8925 H   0  0  0  0  0
   29.0445   40.9544   38.8763 H   0  0  0  0  0
   29.7166   39.7046   37.8005 H   0  0  0  0  0
   30.7178   40.3894   39.1042 H   0  0  0  0  0
   31.2723   40.2977   36.0236 H   0  0  0  0  0
   31.8992   41.9580   35.8775 H   0  0  0  0  0
   32.4274   40.9223   37.2263 H   0  0  0  0  0
   23.5917   43.8338   34.7718 H   0  0  0  0  0
   24.2149   45.2043   35.7228 H   0  0  0  0  0
   24.0192   45.3599   33.9597 H   0  0  0  0  0
   26.8102   43.1020   33.0484 H   0  0  0  0  0
   25.1027   42.6194   33.1979 H   0  0  0  0  0
   25.5265   44.1635   32.4187 H   0  0  0  0  0
   26.5980   45.8938   35.5130 H   0  0  0  0  0
   27.6921   45.0150   34.4169 H   0  0  0  0  0
   26.4009   46.0438   33.7496 H   0  0  0  0  0
   26.9263   40.0904   39.5019 H   0  0  0  0  0
   28.8054   38.7765   40.3582 H   0  0  0  0  0
   26.8490   38.3318   44.1550 H   0  0  0  0  0
   22.7136   41.5221   41.4680 H   0  0  0  0  0
   22.8704   38.6477   44.9841 H   0  0  0  0  0
   20.9541   38.8556   46.5265 H   0  0  0  0  0
   19.5012   40.8548   46.4469 H   0  0  0  0  0
   19.9735   42.6587   44.8157 H   0  0  0  0  0
   21.8887   42.4637   43.2669 H   0  0  0  0  0
   29.0772   38.0339   44.6970 H   0  0  0  0  0
   28.3066   36.5349   44.1223 H   0  0  0  0  0
   30.0789   36.7003   44.0731 H   0  0  0  0  0
  1  2  1  0  0  0
  1  5  1  0  0  0
  1 38  1  0  0  0
  2  3  1  0  0  0
  3  4  1  0  0  0
  3 23  1  0  0  0
  4  5  1  0  0  0
  4  6  1  0  0  0
  6  7  2  0  0  0
  6  8  1  0  0  0
  8  9  1  0  0  0
  9 10  1  0  0  0
  9 14  1  0  0  0
 10 11  1  0  0  0
 11 12  1  0  0  0
 11 13  1  0  0  0
 14 15  2  0  0  0
 14 16  1  0  0  0
 16 17  1  0  0  0
 17 18  2  0  0  0
 17 19  2  0  0  0
 17 20  1  0  0  0
 20 21  1  0  0  0
 20 22  1  0  0  0
 21 22  2  0  0  0
 23 24  1  0  0  0
 23 37  2  0  0  0
 24 25  1  0  0  0
 24 33  1  0  0  0
 25 26  1  0  0  0
 26 27  1  0  0  0
 26 32  2  0  0  0
 27 28  1  0  0  0
 28 29  1  0  0  0
 28 30  1  0  0  0
 28 31  1  0  0  0
 33 34  1  0  0  0
 33 35  1  0  0  0
 33 36  1  0  0  0
 38 39  1  0  0  0
 39 40  4  0  0  0
 39 48  4  0  0  0
 40 41  4  0  0  0
 40 45  4  0  0  0
 41 42  4  0  0  0
 42 43  4  0  0  0
 43 44  4  0  0  0
 43 55  1  0  0  0
 44 45  4  0  0  0
 45 46  4  0  0  0
 46 47  4  0  0  0
 47 48  4  0  0  0
 47 49  1  0  0  0
 49 50  4  0  0  0
 49 54  4  0  0  0
 50 51  4  0  0  0
 51 52  4  0  0  0
 52 53  4  0  0  0
 53 54  4  0  0  0
 55 56  1  0  0  0
  1 57  1  0  0  0
  2 58  1  0  0  0
  2 59  1  0  0  0
  4 60  1  0  0  0
  5 61  1  0  0  0
  5 62  1  0  0  0
  8 63  1  0  0  0
  9 64  1  0  0  0
 10 65  1  0  0  0
 10 66  1  0  0  0
 11 67  1  0  0  0
 16 68  1  0  0  0
 20 69  1  0  0  0
 21 70  1  0  0  0
 22 71  1  0  0  0
 24 72  1  0  0  0
 25 73  1  0  0  0
 29 74  1  0  0  0
 29 75  1  0  0  0
 29 76  1  0  0  0
 30 77  1  0  0  0
 30 78  1  0  0  0
 30 79  1  0  0  0
 31 80  1  0  0  0
 31 81  1  0  0  0
 31 82  1  0  0  0
 34 83  1  0  0  0
 34 84  1  0  0  0
 34 85  1  0  0  0
 35 86  1  0  0  0
 35 87  1  0  0  0
 35 88  1  0  0  0
 36 89  1  0  0  0
 36 90  1  0  0  0
 36 91  1  0  0  0
 41 92  1  0  0  0
 42 93  1  0  0  0
 44 94  1  0  0  0
 48 95  1  0  0  0
 50 96  1  0  0  0
 51 97  1  0  0  0
 52 98  1  0  0  0
 53 99  1  0  0  0
 54100  1  0  0  0
 56101  1  0  0  0
 56102  1  0  0  0
 56103  1  0  0  0
M  END
$$$$
