4e49_ligand
  -I-interpret- 

 14 14  0  0  0  0  0  0  0  0999 V2000
   15.1510    3.8930   16.0280 C   0  0  0  0  0
   15.4980    2.5520   16.2970 C   0  0  0  0  0
   15.3070    2.0830   17.6050 C   0  0  0  0  0
   14.8270    2.9310   18.6490 C   0  0  0  0  0
   14.5070    4.3060   18.3450 C   0  0  0  0  0
   14.6840    4.7020   17.0330 C   0  0  0  0  0
   15.3660    4.4100   14.7570 O   0  0  0  0  0
   15.6540    0.7910   17.9150 O   0  0  0  0  0
   15.8995    1.9047   15.5173 H   0  0  0  0  0
   14.7039    2.5458   19.6612 H   0  0  0  0  0
   14.1454    4.9942   19.1091 H   0  0  0  0  0
   14.4345    5.7319   16.7779 H   0  0  0  0  0
   15.0811    5.3264   14.7331 H   0  0  0  0  0
   15.4642    0.6233   18.8410 H   0  0  0  0  0
  1  2  4  0  0  0
  1  6  4  0  0  0
  1  7  1  0  0  0
  2  3  4  0  0  0
  3  4  4  0  0  0
  3  8  1  0  0  0
  4  5  4  0  0  0
  5  6  4  0  0  0
  2  9  1  0  0  0
  4 10  1  0  0  0
  5 11  1  0  0  0
  6 12  1  0  0  0
  7 13  1  0  0  0
  8 14  1  0  0  0
M  END
$$$$
