3ioe_ligand
  -I-interpret- 

 46 48  0  0  0  0  0  0  0  0999 V2000
   13.7440    9.5570   -5.3120 N   0  0  0  0  0
   12.7570    9.2080   -4.4750 C   0  0  0  0  0
   12.9440    9.2860   -3.1570 N   0  0  0  0  0
   14.1320    9.7200   -2.6430 C   0  0  0  0  0
   15.1750   10.0860   -3.4930 C   0  0  0  0  0
   14.9510    9.9910   -4.8640 C   0  0  0  0  0
   15.9250   10.3260   -5.7130 N   0  0  0  0  0
   16.2050   10.4750   -2.7440 N   0  0  0  0  0
   15.8430   10.3580   -1.4630 C   0  0  0  0  0
   14.5860    9.9030   -1.4000 N   0  0  0  0  0
   14.8640    9.8980    9.5210 O   0  0  0  0  0
   16.3630    7.8700    7.4210 O   0  0  0  0  0
   12.5240    8.1730    1.8270 O   0  0  0  0  0
   14.5120    7.2260   -0.0600 O   0  0  0  0  0
   14.6630    8.5060    9.1750 C   0  0  0  0  0
   14.7510    9.2620    5.3170 C   0  0  0  0  0
   14.4370    9.3940    6.8280 C   0  0  0  0  0
   15.2100   10.5420    2.7790 C   0  0  0  0  0
   13.8100   10.7210    0.7290 O   0  0  0  0  0
   14.9760   10.9260    4.5410 S   0  0  0  0  0
   14.9380    8.2060    7.6740 C   0  0  0  0  0
   13.8800    8.6100    1.9190 C   0  0  0  0  0
   14.5890    8.5240    0.5620 C   0  0  0  0  0
   13.8800   10.1340    2.0890 C   0  0  0  0  0
   13.8250    9.6210   -0.2060 C   0  0  0  0  0
   11.8027    8.8609   -4.8712 H   0  0  0  0  0
   15.7703   10.2585   -6.7189 H   0  0  0  0  0
   16.8240   10.6495   -5.3558 H   0  0  0  0  0
   16.4720   10.5956   -0.6051 H   0  0  0  0  0
   14.6808   10.0241   10.4549 H   0  0  0  0  0
   16.4876    7.6927    6.4858 H   0  0  0  0  0
   12.1086    8.2386    2.6900 H   0  0  0  0  0
   14.9750    7.2473   -0.9007 H   0  0  0  0  0
   13.6201    8.2614    9.3765 H   0  0  0  0  0
   15.3619    7.9133    9.7652 H   0  0  0  0  0
   13.9172    8.7576    4.8287 H   0  0  0  0  0
   15.6732    8.6930    5.1993 H   0  0  0  0  0
   13.3527    9.4330    6.9324 H   0  0  0  0  0
   14.9462   10.2876    7.1889 H   0  0  0  0  0
   15.9037    9.7047    2.7025 H   0  0  0  0  0
   15.5901   11.4355    2.2837 H   0  0  0  0  0
   14.3852    7.3150    7.3763 H   0  0  0  0  0
   14.3391    8.0152    2.7086 H   0  0  0  0  0
   15.6687    8.6659    0.6098 H   0  0  0  0  0
   13.0420   10.4812    2.6934 H   0  0  0  0  0
   12.8121    9.3752   -0.5249 H   0  0  0  0  0
  2  1  4  0  0  0
  6  1  4  0  0  0
  3  2  4  0  0  0
  4  3  4  0  0  0
  4  5  4  0  0  0
 10  4  4  0  0  0
  5  6  4  0  0  0
  8  5  4  0  0  0
  6  7  1  0  0  0
  9  8  4  0  0  0
 10  9  4  0  0  0
 25 10  1  0  0  0
 15 11  1  0  0  0
 21 12  1  0  0  0
 22 13  1  0  0  0
 23 14  1  0  0  0
 21 15  1  0  0  0
 16 17  1  0  0  0
 20 16  1  0  0  0
 17 21  1  0  0  0
 18 20  1  0  0  0
 24 18  1  0  0  0
 24 19  1  0  0  0
 19 25  1  0  0  0
 22 23  1  0  0  0
 22 24  1  0  0  0
 23 25  1  0  0  0
  2 26  1  0  0  0
  7 27  1  0  0  0
  7 28  1  0  0  0
  9 29  1  0  0  0
 11 30  1  0  0  0
 12 31  1  0  0  0
 13 32  1  0  0  0
 14 33  1  0  0  0
 15 34  1  0  0  0
 15 35  1  0  0  0
 16 36  1  0  0  0
 16 37  1  0  0  0
 17 38  1  0  0  0
 17 39  1  0  0  0
 18 40  1  0  0  0
 18 41  1  0  0  0
 21 42  1  0  0  0
 22 43  1  0  0  0
 23 44  1  0  0  0
 24 45  1  0  0  0
 25 46  1  0  0  0
M  END
$$$$
