### 
### Created by X-TOOL on Mon Sep 10 21:13:08 2018
### 

@<TRIPOS>MOLECULE
4e3m_ligand
   29    30     1     0     0
SMALL
GAST_HUCK


@<TRIPOS>ATOM
      1 B03        26.1440    5.0250   16.1850 B         1 0ND         1.0000
      2 O04        25.1090    4.0090   16.4270 O.3       1 0ND        -0.8710
      3 O05        26.3260    5.8480   17.3830 O.3       1 0ND        -0.8710
      4 C06        25.7540    5.9090   14.9390 C.3       1 0ND        -0.2500
      5 N07        24.6300    6.7810   15.1840 N.am      1 0ND        -0.3990
      6 S08        23.9930    7.6770   13.9960 S.o2      1 0ND         0.0424
      7 O09        25.0120    8.2740   13.1960 O.2       1 0ND        -0.1525
      8 O10        23.1930    8.7440   14.5620 O.2       1 0ND        -0.1525
      9 C11        22.9830    6.6840   12.9390 C.ar      1 0ND         0.1194
     10 C12        23.4010    6.4740   11.6290 C.ar      1 0ND        -0.0342
     11 C13        22.6250    5.7290   10.7460 C.ar      1 0ND        -0.0501
     12 C14        21.4080    5.1840   11.1880 C.ar      1 0ND         0.0101
     13 C15        20.5700    4.4290   10.3660 C.2       1 0ND         0.1488
     14 N16        19.4630    3.7710   10.7770 N.2       1 0ND        -0.1435
     15 N17        18.8840    3.1770    9.6940 N.pl3     1 0ND        -0.1036
     16 N18        19.6320    3.5080    8.6010 N.2       1 0ND        -0.0518
     17 N19        20.6590    4.2940    9.0290 N.2       1 0ND        -0.1754
     18 C20        21.0130    5.3880   12.4980 C.ar      1 0ND        -0.0362
     19 C21        21.7880    6.1140   13.3740 C.ar      1 0ND         0.0674
     20 CL2        21.2240    6.3130   15.0050 Cl        1 0ND        -0.0687
     21 H          24.9961    3.4745   15.6376 H         1 0ND        -0.1290
     22 H          27.0028    6.5081   17.2166 H         1 0ND        -0.1290
     23 H          25.4752    5.2329   14.1308 H         1 0ND        -0.1900
     24 H          26.6119    6.5378   14.7009 H         1 0ND        -0.1900
     25 H          24.2307    6.8334   16.1211 H         1 0ND         0.1257
     26 H          24.3466    6.8975   11.2904 H         1 0ND         0.0637
     27 H          22.9586    5.5698    9.7206 H         1 0ND         0.0626
     28 H          18.0473    2.5937    9.6998 H         1 0ND         0.2946
     29 H          20.0694    4.9655   12.8434 H         1 0ND         0.0630
@<TRIPOS>BOND
     1    1    2 1  
     2    1    3 1  
     3    1    4 1  
     4    4    5 1  
     5    5    6 am 
     6    6    7 2  
     7    6    8 2  
     8    6    9 1  
     9    9   10 ar 
    10    9   19 ar 
    11   10   11 ar 
    12   11   12 ar 
    13   12   13 1  
    14   12   18 ar 
    15   13   14 2  
    16   13   17 1  
    17   14   15 1  
    18   15   16 1  
    19   16   17 2  
    20   18   19 ar 
    21   19   20 1  
    22    2   21 1  
    23    3   22 1  
    24    4   23 1  
    25    4   24 1  
    26    5   25 1  
    27   10   26 1  
    28   11   27 1  
    29   15   28 1  
    30   18   29 1  
@<TRIPOS>SUBSTRUCTURE
     1 0ND         1

