4e3m_ligand
  -I-interpret- 

 28 29  0  0  0  0  0  0  0  0999 V2000
   26.1440    5.0250   16.1850 B   0  0  0  0  0
   25.1090    4.0090   16.4270 O   0  0  0  0  0
   26.3260    5.8480   17.3830 O   0  0  0  0  0
   25.7540    5.9090   14.9390 C   0  0  0  0  0
   24.6300    6.7810   15.1840 N   0  0  0  0  0
   23.9930    7.6770   13.9960 S   0  0  0  0  0
   25.0120    8.2740   13.1960 O   0  0  0  0  0
   23.1930    8.7440   14.5620 O   0  0  0  0  0
   22.9830    6.6840   12.9390 C   0  0  0  0  0
   23.4010    6.4740   11.6290 C   0  0  0  0  0
   22.6250    5.7290   10.7460 C   0  0  0  0  0
   21.4080    5.1840   11.1880 C   0  0  0  0  0
   20.5700    4.4290   10.3660 C   0  0  0  0  0
   19.4630    3.7710   10.7770 N   0  0  0  0  0
   18.8840    3.1770    9.6940 N   0  0  0  0  0
   19.6320    3.5080    8.6010 N   0  0  0  0  0
   20.6590    4.2940    9.0290 N   0  0  0  0  0
   21.0130    5.3880   12.4980 C   0  0  0  0  0
   21.7880    6.1140   13.3740 C   0  0  0  0  0
   21.2240    6.3130   15.0050 Cl  0  0  0  0  0
   25.3560    3.4769   17.1869 H   0  0  0  0  0
   26.5622    5.2850   18.1238 H   0  0  0  0  0
   25.4752    5.2329   14.1308 H   0  0  0  0  0
   26.6119    6.5378   14.7009 H   0  0  0  0  0
   24.2307    6.8334   16.1211 H   0  0  0  0  0
   24.3466    6.8975   11.2904 H   0  0  0  0  0
   22.9586    5.5698    9.7206 H   0  0  0  0  0
   20.0694    4.9655   12.8434 H   0  0  0  0  0
  1  2  1  0  0  0
  1  3  1  0  0  0
  1  4  1  0  0  0
  4  5  1  0  0  0
  5  6  1  0  0  0
  6  7  2  0  0  0
  6  8  2  0  0  0
  6  9  1  0  0  0
  9 10  4  0  0  0
  9 19  4  0  0  0
 10 11  4  0  0  0
 11 12  4  0  0  0
 12 13  1  0  0  0
 12 18  4  0  0  0
 13 14  4  0  0  0
 13 17  4  0  0  0
 14 15  4  0  0  0
 15 16  4  0  0  0
 16 17  4  0  0  0
 18 19  4  0  0  0
 19 20  1  0  0  0
  2 21  1  0  0  0
  3 22  1  0  0  0
  4 23  1  0  0  0
  4 24  1  0  0  0
  5 25  1  0  0  0
 10 26  1  0  0  0
 11 27  1  0  0  0
 18 28  1  0  0  0
M  END
$$$$
