4aj4_ligand
  -I-interpret- 

 35 36  0  0  0  0  0  0  0  0999 V2000
   21.7770   -5.4960    1.0500 C   0  0  0  0  0
   20.4890   -5.5500    1.5650 C   0  0  0  0  0
   19.7700   -6.8820   -0.3270 C   0  0  0  0  0
   22.0780   -6.1340   -0.1540 C   0  0  0  0  0
   19.4800   -6.2330    0.8880 C   0  0  0  0  0
   21.0620   -6.8230   -0.8200 C   0  0  0  0  0
   23.2510   -6.8320   -1.8730 C   0  0  0  0  0
   24.0660   -6.9220   -6.8160 C   0  0  0  0  0
   23.9170   -6.6530   -5.5830 C   0  0  0  0  0
   17.2360   -7.2470    1.3080 C   0  0  0  0  0
   13.7820   -7.9960    2.5650 C   0  0  0  0  0
   23.9500   -7.6870   -4.4920 C   0  0  0  0  0
   15.8260   -6.8180    1.5640 C   0  0  0  0  0
   15.2080   -7.5710    2.7440 C   0  0  0  0  0
   23.3210   -6.1620   -0.7800 N   0  0  0  0  0
   18.1690   -6.2600    1.4560 N   0  0  0  0  0
   17.5250   -8.4130    0.9830 O   0  0  0  0  0
   13.0470   -7.5680    1.6790 O   0  0  0  0  0
   13.3880   -8.8580    3.4650 O   0  0  0  0  0
   21.6920   -7.5170   -2.2810 S   0  0  0  0  0
   24.6380   -7.0820   -2.9020 S   0  0  0  0  0
   22.5551   -4.9539    1.5874 H   0  0  0  0  0
   20.2643   -5.0531    2.5088 H   0  0  0  0  0
   18.9924   -7.4204   -0.8689 H   0  0  0  0  0
   24.2289   -7.9520   -7.1333 H   0  0  0  0  0
   24.0310   -6.1227   -7.5563 H   0  0  0  0  0
   23.7560   -5.6128   -5.3000 H   0  0  0  0  0
   24.5958   -8.4954   -4.8348 H   0  0  0  0  0
   22.9195   -7.9875   -4.3027 H   0  0  0  0  0
   15.2355   -7.0330    0.6734 H   0  0  0  0  0
   15.8293   -5.7540    1.8006 H   0  0  0  0  0
   15.7901   -8.4842    2.8677 H   0  0  0  0  0
   15.2228   -6.8851    3.5910 H   0  0  0  0  0
   17.9025   -5.4606    2.0307 H   0  0  0  0  0
   14.1168   -9.0556    4.0578 H   0  0  0  0  0
  2  1  4  0  0  0
  1  4  4  0  0  0
  5  2  4  0  0  0
  5  3  4  0  0  0
  3  6  4  0  0  0
  6  4  4  0  0  0
  4 15  4  0  0  0
 16  5  1  0  0  0
  6 20  4  0  0  0
  7 15  4  0  0  0
 20  7  4  0  0  0
  7 21  1  0  0  0
  9  8  2  0  0  0
 12  9  1  0  0  0
 13 10  1  0  0  0
 10 16  1  0  0  0
 10 17  2  0  0  0
 14 11  1  0  0  0
 11 18  2  0  0  0
 11 19  1  0  0  0
 21 12  1  0  0  0
 13 14  1  0  0  0
  1 22  1  0  0  0
  2 23  1  0  0  0
  3 24  1  0  0  0
  8 25  1  0  0  0
  8 26  1  0  0  0
  9 27  1  0  0  0
 12 28  1  0  0  0
 12 29  1  0  0  0
 13 30  1  0  0  0
 13 31  1  0  0  0
 14 32  1  0  0  0
 14 33  1  0  0  0
 16 34  1  0  0  0
 19 35  1  0  0  0
M  END
$$$$
