### 
### Created by X-TOOL on Mon Sep 10 21:12:51 2018
### 

@<TRIPOS>MOLECULE
1r5v_ligand
  206   208     1     0     0
SMALL
GAST_HUCK


@<TRIPOS>ATOM
      1 N          51.6580   76.5870  107.1730 N.4       1 ALA         0.2377
      2 CA         52.3180   77.6720  106.3810 C.3       1 ALA         0.0621
      3 C          53.7290   78.0320  106.9410 C.2       1 ALA         0.2265
      4 O          53.8900   79.0050  107.6920 O.2       1 ALA        -0.3907
      5 CB         51.3840   78.9240  106.3260 C.3       1 ALA        -0.0040
      6 N          54.7350   77.2170  106.5850 N.am      1 ASP        -0.2595
      7 CA         56.1260   77.4410  107.0030 C.3       1 ASP         0.1424
      8 C          56.7600   78.4740  106.0370 C.2       1 ASP         0.2056
      9 O          56.3510   78.6170  104.8700 O.2       1 ASP        -0.3943
     10 CB         56.9150   76.1280  106.9670 C.3       1 ASP         0.0406
     11 CG         58.1390   76.1450  107.8780 C.2       1 ASP         0.0393
     12 OD1        59.0760   75.3270  107.6850 O.co2     1 ASP        -0.5688
     13 OD2        58.1690   76.9710  108.8070 O.co2     1 ASP        -0.5688
     14 N          57.7750   79.1720  106.5300 N.am      1 LEU        -0.2636
     15 CA         58.4340   80.2340  105.7890 C.3       1 LEU         0.1312
     16 C          59.4670   79.8020  104.7790 C.2       1 LEU         0.2039
     17 O          60.3960   79.0550  105.0960 O.2       1 LEU        -0.3944
     18 CB         59.0610   81.2100  106.7820 C.3       1 LEU        -0.0101
     19 CG         59.2280   82.6650  106.3310 C.3       1 LEU        -0.0425
     20 CD1        57.8630   83.3200  106.0680 C.3       1 LEU        -0.0625
     21 CD2        59.9870   83.4330  107.4220 C.3       1 LEU        -0.0625
     22 N          59.3120   80.2870  103.5480 N.am      1 ILE        -0.2635
     23 CA         60.2450   79.9400  102.4840 C.3       1 ILE         0.1335
     24 C          61.4760   80.7780  102.6310 C.2       1 ILE         0.2041
     25 O          61.3870   81.9710  102.8320 O.2       1 ILE        -0.3944
     26 CB         59.6330   80.1750  101.0690 C.3       1 ILE        -0.0037
     27 CG1        58.4650   79.2170  100.8430 C.3       1 ILE        -0.0491
     28 CG2        60.6850   79.9570   99.9840 C.3       1 ILE        -0.0582
     29 CD1        57.6230   79.5840   99.6680 C.3       1 ILE        -0.0648
     30 N          62.6340   80.1600  102.5600 N.am      1 ALA        -0.2640
     31 CA         63.8700   80.9170  102.6680 C.3       1 ALA         0.1282
     32 C          64.2250   81.3620  101.2640 C.2       1 ALA         0.2037
     33 O          63.7200   80.7860  100.3050 O.2       1 ALA        -0.3944
     34 CB         64.9850   80.0390  103.2390 C.3       1 ALA        -0.0244
     35 N          65.0780   82.3780  101.1390 N.am      1 TYR        -0.2621
     36 CA         65.4840   82.8470   99.8280 C.3       1 TYR         0.1392
     37 C          66.9900   83.1370   99.8400 C.2       1 TYR         0.2082
     38 O          67.5360   83.5380  100.8530 O.2       1 TYR        -0.3940
     39 CB         64.6560   84.0800   99.4340 C.3       1 TYR         0.0164
     40 CG         64.9850   85.3310  100.1940 C.ar      1 TYR        -0.0493
     41 CD1        66.0400   86.1340   99.7880 C.ar      1 TYR        -0.0685
     42 CD2        64.2890   85.6740  101.3600 C.ar      1 TYR        -0.0685
     43 CE1        66.4190   87.2400  100.5110 C.ar      1 TYR        -0.0398
     44 CE2        64.6500   86.7890  102.1160 C.ar      1 TYR        -0.0398
     45 CZ         65.7370   87.5790  101.6790 C.ar      1 TYR         0.0805
     46 OH         66.1760   88.7040  102.3720 O.3       1 TYR        -0.3376
     47 N          67.6960   82.8930   98.7270 N.am      1 PRO        -0.2497
     48 CA         69.1240   83.1960   98.8180 C.3       1 PRO         0.1338
     49 C          69.3340   84.7180   98.8300 C.2       1 PRO         0.2041
     50 O          68.6730   85.4240   98.0750 O.2       1 PRO        -0.3944
     51 CB         69.6850   82.5430   97.5600 C.3       1 PRO        -0.0104
     52 CG         68.5880   82.7700   96.5930 C.3       1 PRO        -0.0281
     53 CD         67.3500   82.4060   97.3840 C.3       1 PRO         0.0369
     54 N          70.2530   85.2070   99.6770 N.am      1 LYS        -0.2637
     55 CA         70.5490   86.6430   99.7780 C.3       1 LYS         0.1310
     56 C          71.3370   87.1390   98.5730 C.2       1 LYS         0.2039
     57 O          72.2390   86.4530   98.0920 O.2       1 LYS        -0.3944
     58 CB         71.3690   86.9570  101.0280 C.3       1 LYS        -0.0122
     59 CG         70.6720   86.6380  102.3020 C.3       1 LYS        -0.0440
     60 CD         69.3590   87.3940  102.4120 C.3       1 LYS        -0.0124
     61 CE         68.6330   86.9630  103.6910 C.3       1 LYS        -0.0354
     62 NZ         68.5070   85.4690  103.7730 N.4       1 LYS         0.2185
     63 N          71.0190   88.3450   98.1190 N.am      1 ALA        -0.2640
     64 CA         71.6880   88.9330   96.9710 C.3       1 ALA         0.1282
     65 C          72.9620   89.6250   97.4080 C.2       1 ALA         0.2036
     66 O          72.9920   90.3220   98.4200 O.2       1 ALA        -0.3944
     67 CB         70.7470   89.9370   96.2900 C.3       1 ALA        -0.0244
     68 N          74.0150   89.4770   96.6320 N.am      1 ALA        -0.2640
     69 CA         75.2650   90.1000   97.0040 C.3       1 ALA         0.1282
     70 C          75.4930   91.3510   96.2230 C.2       1 ALA         0.2037
     71 O          75.1070   91.4110   95.0590 O.2       1 ALA        -0.3944
     72 CB         76.4040   89.1460   96.7600 C.3       1 ALA        -0.0244
     73 N          76.1780   92.3130   96.8480 N.am      1 THR        -0.2613
     74 CA         76.4990   93.6000   96.2510 C.3       1 THR         0.1565
     75 C          77.8310   93.6430   95.4880 C.2       1 THR         0.2065
     76 O          78.8250   93.0860   95.9460 O.2       1 THR        -0.3943
     77 CB         76.5270   94.6860   97.3500 C.3       1 THR         0.0924
     78 OG1        75.1950   94.8980   97.8520 O.3       1 THR        -0.3874
     79 CG2        77.1190   95.9860   96.8200 C.3       1 THR        -0.0346
     80 N          77.8600   94.3440   94.3540 N.am      1 LYS        -0.2637
     81 CA         79.0690   94.4550   93.5390 C.3       1 LYS         0.1309
     82 C          79.7230   95.8530   93.5340 C.2       1 LYS         0.2035
     83 O          79.0960   96.8280   93.9620 O.2       1 LYS        -0.3944
     84 CB         78.7260   94.1110   92.0830 C.3       1 LYS        -0.0122
     85 CG         77.9610   92.8120   91.8730 C.3       1 LYS        -0.0440
     86 CD         77.6450   92.6190   90.3670 C.3       1 LYS        -0.0124
     87 CE         76.9150   91.2940   90.0160 C.3       1 LYS        -0.0354
     88 NZ         76.4810   91.2170   88.5780 N.4       1 LYS         0.2185
     89 N          80.9820   95.9510   93.0580 N.am      1 PHE        -0.2677
     90 CA         81.6840   97.2570   92.8900 C.3       1 PHE         0.1039
     91 C          82.2710   97.3010   91.4910 C.2       1 PHE         0.0621
     92 O          82.4560   96.2170   90.8800 O.co2     1 PHE        -0.5664
     93 CB         82.8910   97.4550   93.7880 C.3       1 PHE         0.0159
     94 CG         82.6630   97.0890   95.1940 C.ar      1 PHE        -0.0392
     95 CD1        83.5080   96.1140   95.8120 C.ar      1 PHE        -0.0602
     96 CD2        81.6070   97.6980   95.9330 C.ar      1 PHE        -0.0602
     97 CE1        83.3200   95.7020   97.2120 C.ar      1 PHE        -0.0686
     98 CE2        81.3650   97.3340   97.3480 C.ar      1 PHE        -0.0686
     99 CZ         82.2330   96.3190   97.9920 C.ar      1 PHE        -0.0687
    100 OXT        82.5990   98.4280   91.0490 O.co2     1 PHE        -0.5664
    101 H1         50.7524   76.3865  106.7785 H         1 ALA         0.2015
    102 H2         51.5489   76.8876  108.1289 H         1 ALA         0.2015
    103 H3         52.2281   75.7562  107.1450 H         1 ALA         0.2015
    104 H4         52.4542   77.3047  105.3531 H         1 ALA         0.1095
    105 H5         51.8714   79.7197  105.7435 H         1 ALA         0.0310
    106 H6         51.1915   79.2831  107.3478 H         1 ALA         0.0310
    107 H7         50.4318   78.6504  105.8480 H         1 ALA         0.0310
    108 H8         54.5290   76.4243  106.0113 H         1 ASP         0.1886
    109 H9         56.1405   77.8400  108.0280 H         1 ASP         0.0819
    110 H10        57.2486   75.9473  105.9345 H         1 ASP         0.0478
    111 H11        56.2513   75.3109  107.2863 H         1 ASP         0.0478
    112 H12        58.1004   78.9580  107.4510 H         1 LEU         0.1883
    113 H13        57.6505   80.7677  105.2311 H         1 LEU         0.0800
    114 H14        60.0603   80.8264  107.0354 H         1 LEU         0.0315
    115 H15        58.4304   81.2143  107.6833 H         1 LEU         0.0315
    116 H16        59.8142   82.6867  105.4005 H         1 LEU         0.0298
    117 H17        58.0119   84.3614  105.7464 H         1 LEU         0.0232
    118 H18        57.2644   83.3032  106.9907 H         1 LEU         0.0232
    119 H19        57.3357   82.7644  105.2786 H         1 LEU         0.0232
    120 H20        60.9607   82.9526  107.5986 H         1 LEU         0.0232
    121 H21        59.4000   83.4247  108.3522 H         1 LEU         0.0232
    122 H22        60.1444   84.4720  107.0970 H         1 LEU         0.0232
    123 H23        58.5448   80.8976  103.3515 H         1 ILE         0.1883
    124 H24        60.5131   78.8776  102.5805 H         1 ILE         0.0803
    125 H25        59.2664   81.2103  101.0079 H         1 ILE         0.0345
    126 H26        57.8311   79.2203  101.7420 H         1 ILE         0.0267
    127 H27        58.8680   78.2062  100.6822 H         1 ILE         0.0267
    128 H28        61.5268   80.6464  100.1457 H         1 ILE         0.0235
    129 H29        60.2388   80.1483   98.9969 H         1 ILE         0.0235
    130 H30        61.0474   78.9193  100.0278 H         1 ILE         0.0235
    131 H31        56.8041   78.8571   99.5624 H         1 ILE         0.0230
    132 H32        58.2403   79.5757   98.7576 H         1 ILE         0.0230
    133 H33        57.2034   80.5898   99.8174 H         1 ILE         0.0230
    134 H34        62.6645   79.1687  102.4316 H         1 ALA         0.1883
    135 H35        63.7234   81.7918  103.3186 H         1 ALA         0.0797
    136 H36        65.9120   80.6263  103.3141 H         1 ALA         0.0277
    137 H37        65.1496   79.1774  102.5752 H         1 ALA         0.0277
    138 H38        64.6952   79.6820  104.2383 H         1 ALA         0.0277
    139 H39        65.4421   82.8218  101.9578 H         1 TYR         0.1885
    140 H40        65.2902   82.0533   99.0915 H         1 TYR         0.0821
    141 H41        63.5943   83.8469   99.6029 H         1 TYR         0.0453
    142 H42        64.8228   84.2761   98.3646 H         1 TYR         0.0453
    143 H43        66.5777   85.8841   98.8805 H         1 TYR         0.0530
    144 H44        63.4542   85.0614  101.6808 H         1 TYR         0.0530
    145 H45        67.2492   87.8494  100.1727 H         1 TYR         0.0525
    146 H46        64.1082   87.0441  103.0196 H         1 TYR         0.0525
    147 H47        66.9132   89.0894  101.9133 H         1 TYR         0.2458
    148 H48        69.5716   82.7563   99.7215 H         1 PRO         0.0802
    149 H49        69.8695   81.4694   97.7130 H         1 PRO         0.0313
    150 H50        70.6149   83.0321   97.2343 H         1 PRO         0.0313
    151 H51        68.6981   82.1209   95.7118 H         1 PRO         0.0287
    152 H52        68.5561   83.8217   96.2721 H         1 PRO         0.0287
    153 H53        66.4589   82.9167   96.9902 H         1 PRO         0.0524
    154 H54        67.1800   81.3192   97.3837 H         1 PRO         0.0524
    155 H55        70.7555   84.5700  100.2616 H         1 LYS         0.1883
    156 H56        69.5948   87.1878   99.8298 H         1 LYS         0.0800
    157 H57        71.6091   88.0305  101.0241 H         1 LYS         0.0312
    158 H58        72.3002   86.3728  100.9871 H         1 LYS         0.0312
    159 H59        71.3196   86.9185  103.1457 H         1 LYS         0.0269
    160 H60        70.4685   85.5576  102.3393 H         1 LYS         0.0269
    161 H61        68.7301   87.1676  101.5383 H         1 LYS         0.0317
    162 H62        69.5592   88.4750  102.4495 H         1 LYS         0.0317
    163 H63        67.6270   87.4078  103.6986 H         1 LYS         0.0813
    164 H64        69.1996   87.3226  104.5626 H         1 LYS         0.0813
    165 H65        68.0265   85.2185  104.6230 H         1 LYS         0.1994
    166 H66        69.4255   85.0537  103.7714 H         1 LYS         0.1994
    167 H67        67.9844   85.1318  102.9798 H         1 LYS         0.1994
    168 H68        70.2988   88.8635   98.5800 H         1 ALA         0.1883
    169 H69        71.9418   88.1365   96.2560 H         1 ALA         0.0797
    170 H70        71.2531   90.3824   95.4208 H         1 ALA         0.0277
    171 H71        70.4780   90.7297   97.0036 H         1 ALA         0.0277
    172 H72        69.8358   89.4182   95.9576 H         1 ALA         0.0277
    173 H73        73.9506   88.9380   95.7921 H         1 ALA         0.1883
    174 H74        75.2297   90.3511   98.0744 H         1 ALA         0.0797
    175 H75        77.3518   89.6261   97.0450 H         1 ALA         0.0277
    176 H76        76.4352   88.8772   95.6938 H         1 ALA         0.0277
    177 H77        76.2572   88.2378   97.3630 H         1 ALA         0.0277
    178 H78        76.4886   92.1377   97.7822 H         1 THR         0.1884
    179 H79        75.6979   93.8414   95.5369 H         1 THR         0.0826
    180 H80        77.1602   94.3305   98.1763 H         1 THR         0.0639
    181 H81        74.8626   94.0865   98.2173 H         1 THR         0.2101
    182 H82        77.1265   96.7391   97.6217 H         1 THR         0.0257
    183 H83        76.5097   96.3508   95.9800 H         1 THR         0.0257
    184 H84        78.1483   95.8067   96.4758 H         1 THR         0.0257
    185 H85        77.0280   94.8088   94.0511 H         1 LYS         0.1883
    186 H86        79.8035   93.7318   93.9232 H         1 LYS         0.0800
    187 H87        79.6691   94.0421   91.5211 H         1 LYS         0.0312
    188 H88        78.1162   94.9314   91.6768 H         1 LYS         0.0312
    189 H89        77.0196   92.8479   92.4408 H         1 LYS         0.0269
    190 H90        78.5713   91.9685   92.2279 H         1 LYS         0.0269
    191 H91        78.5949   92.6427   89.8129 H         1 LYS         0.0317
    192 H92        77.0095   93.4557   90.0413 H         1 LYS         0.0317
    193 H93        76.0238   91.2065   90.6548 H         1 LYS         0.0813
    194 H94        77.5965   90.4551   90.2204 H         1 LYS         0.0813
    195 H95        76.0157   90.3379   88.4141 H         1 LYS         0.1994
    196 H96        77.2888   91.2864   87.9790 H         1 LYS         0.1994
    197 H97        75.8476   91.9749   88.3771 H         1 LYS         0.1994
    198 H98        81.4653   95.1123   92.8071 H         1 PHE         0.1877
    199 H99        80.9636   98.0733   93.0468 H         1 PHE         0.0749
    200 H100       83.1788   98.5160   93.7501 H         1 PHE         0.0467
    201 H101       83.7146   96.8376   93.4001 H         1 PHE         0.0467
    202 H102       84.3082   95.6668   95.2334 H         1 PHE         0.0557
    203 H103       80.9739   98.4360   95.4538 H         1 PHE         0.0557
    204 H104       83.9689   94.9587   97.6609 H         1 PHE         0.0599
    205 H105       80.5632   97.8038   97.9060 H         1 PHE         0.0599
    206 H106       82.0697   96.0341   99.0251 H         1 PHE         0.0559
@<TRIPOS>BOND
     1    1    2 1  
     2    2    3 1  
     3    2    5 1  
     4    3    4 2  
     5    3    6 am 
     6    6    7 1  
     7    7    8 1  
     8    7   10 1  
     9    8    9 2  
    10    8   14 am 
    11   10   11 1  
    12   11   12 ar 
    13   11   13 ar 
    14   14   15 1  
    15   15   16 1  
    16   15   18 1  
    17   16   17 2  
    18   16   22 am 
    19   18   19 1  
    20   19   20 1  
    21   19   21 1  
    22   22   23 1  
    23   23   24 1  
    24   23   26 1  
    25   24   25 2  
    26   24   30 am 
    27   26   27 1  
    28   26   28 1  
    29   27   29 1  
    30   30   31 1  
    31   31   32 1  
    32   31   34 1  
    33   32   33 2  
    34   32   35 am 
    35   35   36 1  
    36   36   37 1  
    37   36   39 1  
    38   37   38 2  
    39   37   47 am 
    40   39   40 1  
    41   40   41 ar 
    42   40   42 ar 
    43   41   43 ar 
    44   42   44 ar 
    45   43   45 ar 
    46   44   45 ar 
    47   45   46 1  
    48   47   48 1  
    49   47   53 1  
    50   48   49 1  
    51   48   51 1  
    52   49   50 2  
    53   49   54 am 
    54   51   52 1  
    55   52   53 1  
    56   54   55 1  
    57   55   56 1  
    58   55   58 1  
    59   56   57 2  
    60   56   63 am 
    61   58   59 1  
    62   59   60 1  
    63   60   61 1  
    64   61   62 1  
    65   63   64 1  
    66   64   65 1  
    67   64   67 1  
    68   65   66 2  
    69   65   68 am 
    70   68   69 1  
    71   69   70 1  
    72   69   72 1  
    73   70   71 2  
    74   70   73 am 
    75   73   74 1  
    76   74   75 1  
    77   74   77 1  
    78   75   76 2  
    79   75   80 am 
    80   77   78 1  
    81   77   79 1  
    82   80   81 1  
    83   81   82 1  
    84   81   84 1  
    85   82   83 2  
    86   82   89 am 
    87   84   85 1  
    88   85   86 1  
    89   86   87 1  
    90   87   88 1  
    91   89   90 1  
    92   90   91 1  
    93   90   93 1  
    94   91   92 ar 
    95   91  100 ar 
    96   93   94 1  
    97   94   95 ar 
    98   94   96 ar 
    99   95   97 ar 
   100   96   98 ar 
   101   97   99 ar 
   102   98   99 ar 
   103    1  101 1  
   104    1  102 1  
   105    1  103 1  
   106    2  104 1  
   107    5  105 1  
   108    5  106 1  
   109    5  107 1  
   110    6  108 1  
   111    7  109 1  
   112   10  110 1  
   113   10  111 1  
   114   14  112 1  
   115   15  113 1  
   116   18  114 1  
   117   18  115 1  
   118   19  116 1  
   119   20  117 1  
   120   20  118 1  
   121   20  119 1  
   122   21  120 1  
   123   21  121 1  
   124   21  122 1  
   125   22  123 1  
   126   23  124 1  
   127   26  125 1  
   128   27  126 1  
   129   27  127 1  
   130   28  128 1  
   131   28  129 1  
   132   28  130 1  
   133   29  131 1  
   134   29  132 1  
   135   29  133 1  
   136   30  134 1  
   137   31  135 1  
   138   34  136 1  
   139   34  137 1  
   140   34  138 1  
   141   35  139 1  
   142   36  140 1  
   143   39  141 1  
   144   39  142 1  
   145   41  143 1  
   146   42  144 1  
   147   43  145 1  
   148   44  146 1  
   149   46  147 1  
   150   48  148 1  
   151   51  149 1  
   152   51  150 1  
   153   52  151 1  
   154   52  152 1  
   155   53  153 1  
   156   53  154 1  
   157   54  155 1  
   158   55  156 1  
   159   58  157 1  
   160   58  158 1  
   161   59  159 1  
   162   59  160 1  
   163   60  161 1  
   164   60  162 1  
   165   61  163 1  
   166   61  164 1  
   167   62  165 1  
   168   62  166 1  
   169   62  167 1  
   170   63  168 1  
   171   64  169 1  
   172   67  170 1  
   173   67  171 1  
   174   67  172 1  
   175   68  173 1  
   176   69  174 1  
   177   72  175 1  
   178   72  176 1  
   179   72  177 1  
   180   73  178 1  
   181   74  179 1  
   182   77  180 1  
   183   78  181 1  
   184   79  182 1  
   185   79  183 1  
   186   79  184 1  
   187   80  185 1  
   188   81  186 1  
   189   84  187 1  
   190   84  188 1  
   191   85  189 1  
   192   85  190 1  
   193   86  191 1  
   194   86  192 1  
   195   87  193 1  
   196   87  194 1  
   197   88  195 1  
   198   88  196 1  
   199   88  197 1  
   200   89  198 1  
   201   90  199 1  
   202   93  200 1  
   203   93  201 1  
   204   95  202 1  
   205   96  203 1  
   206   97  204 1  
   207   98  205 1  
   208   99  206 1  
@<TRIPOS>SUBSTRUCTURE
     1 ALA         1

