1r5v_ligand
  -I-interpret- 

208210  0  0  0  0  0  0  0  0999 V2000
   51.6580   76.5870  107.1730 N   0  3  0  0  0
   52.3180   77.6720  106.3810 C   0  0  0  0  0
   53.7290   78.0320  106.9410 C   0  0  0  0  0
   53.8900   79.0050  107.6920 O   0  0  0  0  0
   51.3840   78.9240  106.3260 C   0  0  0  0  0
   54.7350   77.2170  106.5850 N   0  0  0  0  0
   56.1260   77.4410  107.0030 C   0  0  0  0  0
   56.7600   78.4740  106.0370 C   0  0  0  0  0
   56.3510   78.6170  104.8700 O   0  0  0  0  0
   56.9150   76.1280  106.9670 C   0  0  0  0  0
   58.1390   76.1450  107.8780 C   0  0  0  0  0
   59.0760   75.3270  107.6850 O   0  0  0  0  0
   58.1690   76.9710  108.8070 O   0  0  0  0  0
   57.7750   79.1720  106.5300 N   0  0  0  0  0
   58.4340   80.2340  105.7890 C   0  0  0  0  0
   59.4670   79.8020  104.7790 C   0  0  0  0  0
   60.3960   79.0550  105.0960 O   0  0  0  0  0
   59.0610   81.2100  106.7820 C   0  0  0  0  0
   59.2280   82.6650  106.3310 C   0  0  0  0  0
   57.8630   83.3200  106.0680 C   0  0  0  0  0
   59.9870   83.4330  107.4220 C   0  0  0  0  0
   59.3120   80.2870  103.5480 N   0  0  0  0  0
   60.2450   79.9400  102.4840 C   0  0  0  0  0
   61.4760   80.7780  102.6310 C   0  0  0  0  0
   61.3870   81.9710  102.8320 O   0  0  0  0  0
   59.6330   80.1750  101.0690 C   0  0  0  0  0
   58.4650   79.2170  100.8430 C   0  0  0  0  0
   60.6850   79.9570   99.9840 C   0  0  0  0  0
   57.6230   79.5840   99.6680 C   0  0  0  0  0
   62.6340   80.1600  102.5600 N   0  0  0  0  0
   63.8700   80.9170  102.6680 C   0  0  0  0  0
   64.2250   81.3620  101.2640 C   0  0  0  0  0
   63.7200   80.7860  100.3050 O   0  0  0  0  0
   64.9850   80.0390  103.2390 C   0  0  0  0  0
   65.0780   82.3780  101.1390 N   0  0  0  0  0
   65.4840   82.8470   99.8280 C   0  0  0  0  0
   66.9900   83.1370   99.8400 C   0  0  0  0  0
   67.5360   83.5380  100.8530 O   0  0  0  0  0
   64.6560   84.0800   99.4340 C   0  0  0  0  0
   64.9850   85.3310  100.1940 C   0  0  0  0  0
   66.0400   86.1340   99.7880 C   0  0  0  0  0
   64.2890   85.6740  101.3600 C   0  0  0  0  0
   66.4190   87.2400  100.5110 C   0  0  0  0  0
   64.6500   86.7890  102.1160 C   0  0  0  0  0
   65.7370   87.5790  101.6790 C   0  0  0  0  0
   66.1760   88.7040  102.3720 O   0  0  0  0  0
   67.6960   82.8930   98.7270 N   0  0  0  0  0
   69.1240   83.1960   98.8180 C   0  0  0  0  0
   69.3340   84.7180   98.8300 C   0  0  0  0  0
   68.6730   85.4240   98.0750 O   0  0  0  0  0
   69.6850   82.5430   97.5600 C   0  0  0  0  0
   68.5880   82.7700   96.5930 C   0  0  0  0  0
   67.3500   82.4060   97.3840 C   0  0  0  0  0
   70.2530   85.2070   99.6770 N   0  0  0  0  0
   70.5490   86.6430   99.7780 C   0  0  0  0  0
   71.3370   87.1390   98.5730 C   0  0  0  0  0
   72.2390   86.4530   98.0920 O   0  0  0  0  0
   71.3690   86.9570  101.0280 C   0  0  0  0  0
   70.6720   86.6380  102.3020 C   0  0  0  0  0
   69.3590   87.3940  102.4120 C   0  0  0  0  0
   68.6330   86.9630  103.6910 C   0  0  0  0  0
   68.5070   85.4690  103.7730 N   0  3  0  0  0
   71.0190   88.3450   98.1190 N   0  0  0  0  0
   71.6880   88.9330   96.9710 C   0  0  0  0  0
   72.9620   89.6250   97.4080 C   0  0  0  0  0
   72.9920   90.3220   98.4200 O   0  0  0  0  0
   70.7470   89.9370   96.2900 C   0  0  0  0  0
   74.0150   89.4770   96.6320 N   0  0  0  0  0
   75.2650   90.1000   97.0040 C   0  0  0  0  0
   75.4930   91.3510   96.2230 C   0  0  0  0  0
   75.1070   91.4110   95.0590 O   0  0  0  0  0
   76.4040   89.1460   96.7600 C   0  0  0  0  0
   76.1780   92.3130   96.8480 N   0  0  0  0  0
   76.4990   93.6000   96.2510 C   0  0  0  0  0
   77.8310   93.6430   95.4880 C   0  0  0  0  0
   78.8250   93.0860   95.9460 O   0  0  0  0  0
   76.5270   94.6860   97.3500 C   0  0  0  0  0
   75.1950   94.8980   97.8520 O   0  0  0  0  0
   77.1190   95.9860   96.8200 C   0  0  0  0  0
   77.8600   94.3440   94.3540 N   0  0  0  0  0
   79.0690   94.4550   93.5390 C   0  0  0  0  0
   79.7230   95.8530   93.5340 C   0  0  0  0  0
   79.0960   96.8280   93.9620 O   0  0  0  0  0
   78.7260   94.1110   92.0830 C   0  0  0  0  0
   77.9610   92.8120   91.8730 C   0  0  0  0  0
   77.6450   92.6190   90.3670 C   0  0  0  0  0
   76.9150   91.2940   90.0160 C   0  0  0  0  0
   76.4810   91.2170   88.5780 N   0  3  0  0  0
   80.9820   95.9510   93.0580 N   0  0  0  0  0
   81.6840   97.2570   92.8900 C   0  0  0  0  0
   82.2710   97.3010   91.4910 C   0  0  0  0  0
   82.4560   96.2170   90.8800 O   0  0  0  0  0
   82.8910   97.4550   93.7880 C   0  0  0  0  0
   82.6630   97.0890   95.1940 C   0  0  0  0  0
   83.5080   96.1140   95.8120 C   0  0  0  0  0
   81.6070   97.6980   95.9330 C   0  0  0  0  0
   83.3200   95.7020   97.2120 C   0  0  0  0  0
   81.3650   97.3340   97.3480 C   0  0  0  0  0
   82.2330   96.3190   97.9920 C   0  0  0  0  0
   82.5990   98.4280   91.0490 O   0  0  0  0  0
   52.2702   75.7719  107.2067 H   0  0  0  0  0
   51.4802   76.9196  108.1207 H   0  0  0  0  0
   50.7754   76.3327  106.7294 H   0  0  0  0  0
   52.4776   77.3070  105.3664 H   0  0  0  0  0
   51.2629   79.3298  107.3304 H   0  0  0  0  0
   51.8291   79.6796  105.6787 H   0  0  0  0  0
   50.4109   78.6327  105.9307 H   0  0  0  0  0
   54.5249   76.4084  105.9998 H   0  0  0  0  0
   56.1507   77.8175  108.0256 H   0  0  0  0  0
   57.2629   75.9768  105.9451 H   0  0  0  0  0
   56.2541   75.3331  107.3125 H   0  0  0  0  0
   58.8682   74.7775  106.9257 H   0  0  0  0  0
   58.1069   78.9537  107.4695 H   0  0  0  0  0
   57.6495   80.6961  105.1898 H   0  0  0  0  0
   60.0705   80.8398  106.9609 H   0  0  0  0  0
   58.3803   81.2420  107.6327 H   0  0  0  0  0
   59.7906   82.6906  105.3978 H   0  0  0  0  0
   57.3415   82.7685  105.2857 H   0  0  0  0  0
   57.2708   83.3027  106.9829 H   0  0  0  0  0
   58.0119   84.3517  105.7495 H   0  0  0  0  0
   59.4202   83.3954  108.3522 H   0  0  0  0  0
   60.9652   82.9763  107.5724 H   0  0  0  0  0
   60.1127   84.4708  107.1134 H   0  0  0  0  0
   58.5295   80.9098  103.3476 H   0  0  0  0  0
   60.4799   78.8793  102.5722 H   0  0  0  0  0
   59.2789   81.2044  101.0144 H   0  0  0  0  0
   57.8307   79.2548  101.7286 H   0  0  0  0  0
   58.8812   78.2273  100.6549 H   0  0  0  0  0
   61.5088   80.6551  100.1329 H   0  0  0  0  0
   61.0584   78.9346  100.0420 H   0  0  0  0  0
   60.2361   80.1262   99.0052 H   0  0  0  0  0
   57.2079   80.5808   99.8172 H   0  0  0  0  0
   58.2358   79.5754   98.7666 H   0  0  0  0  0
   56.8120   78.8631   99.5644 H   0  0  0  0  0
   62.6651   79.1489  102.4291 H   0  0  0  0  0
   63.7499   81.7697  103.3362 H   0  0  0  0  0
   64.6966   79.6859  104.2291 H   0  0  0  0  0
   65.1470   79.1857  102.5804 H   0  0  0  0  0
   65.9030   80.6220  103.3129 H   0  0  0  0  0
   65.4494   82.8307  101.9742 H   0  0  0  0  0
   65.2968   82.0804   99.0761 H   0  0  0  0  0
   63.6145   83.8433   99.6516 H   0  0  0  0  0
   64.8711   84.2824   98.3848 H   0  0  0  0  0
   66.5807   85.8827   98.8755 H   0  0  0  0  0
   63.4496   85.0580  101.6826 H   0  0  0  0  0
   67.2538   87.8528  100.1708 H   0  0  0  0  0
   64.1052   87.0456  103.0246 H   0  0  0  0  0
   65.6304   88.8313  103.1516 H   0  0  0  0  0
   69.6093   82.8307   99.7231 H   0  0  0  0  0
   69.9391   81.4912   97.6914 H   0  0  0  0  0
   70.6400   82.9607   97.2413 H   0  0  0  0  0
   68.6973   82.1760   95.6856 H   0  0  0  0  0
   68.5623   83.7933   96.2185 H   0  0  0  0  0
   66.4362   82.8469   96.9855 H   0  0  0  0  0
   67.1156   81.3419   97.3562 H   0  0  0  0  0
   70.7655   84.5573  100.2733 H   0  0  0  0  0
   69.5839   87.1475   99.8252 H   0  0  0  0  0
   71.5655   88.0291  101.0258 H   0  0  0  0  0
   72.2686   86.3428  100.9882 H   0  0  0  0  0
   71.3135   86.9309  103.1331 H   0  0  0  0  0
   70.4616   85.5688  102.3259 H   0  0  0  0  0
   68.7359   87.1716  101.5458 H   0  0  0  0  0
   69.5564   88.4654  102.4475 H   0  0  0  0  0
   67.6322   87.3947  103.6830 H   0  0  0  0  0
   69.2089   87.3093  104.5492 H   0  0  0  0  0
   68.0207   85.2167  104.6334 H   0  0  0  0  0
   67.9781   85.1290  102.9698 H   0  0  0  0  0
   69.4369   85.0500  103.7713 H   0  0  0  0  0
   70.2844   88.8738   98.5892 H   0  0  0  0  0
   71.9466   88.1457   96.2629 H   0  0  0  0  0
   69.8445   89.4218   95.9611 H   0  0  0  0  0
   70.4812   90.7219   96.9981 H   0  0  0  0  0
   71.2495   90.3776   95.4290 H   0  0  0  0  0
   73.9493   88.9273   95.7753 H   0  0  0  0  0
   75.2151   90.3542   98.0628 H   0  0  0  0  0
   76.2573   88.2465   97.3580 H   0  0  0  0  0
   76.4338   88.8805   95.7033 H   0  0  0  0  0
   77.3425   89.6228   97.0428 H   0  0  0  0  0
   76.4948   92.1342   97.8009 H   0  0  0  0  0
   75.7158   93.7814   95.5150 H   0  0  0  0  0
   77.1644   94.3441   98.1655 H   0  0  0  0  0
   75.2151   95.5729   98.5344 H   0  0  0  0  0
   78.1388   95.8070   96.4792 H   0  0  0  0  0
   76.5144   96.3463   95.9877 H   0  0  0  0  0
   77.1258   96.7314   97.6152 H   0  0  0  0  0
   77.0114   94.8181   94.0451 H   0  0  0  0  0
   79.7829   93.7648   93.9885 H   0  0  0  0  0
   79.6762   93.9969   91.5612 H   0  0  0  0  0
   78.0801   94.9110   91.7212 H   0  0  0  0  0
   77.0266   92.8519   92.4329 H   0  0  0  0  0
   78.5696   91.9775   92.2212 H   0  0  0  0  0
   78.6012   92.6003   89.8441 H   0  0  0  0  0
   76.9791   93.4320   90.0778 H   0  0  0  0  0
   76.0189   91.2378   90.6341 H   0  0  0  0  0
   77.6132   90.4761   90.1937 H   0  0  0  0  0
   76.0104   90.3272   88.4133 H   0  0  0  0  0
   75.8402   91.9844   88.3759 H   0  0  0  0  0
   77.2991   91.2874   87.9729 H   0  0  0  0  0
   81.4749   95.0955   92.8020 H   0  0  0  0  0
   80.9326   98.0126   93.1194 H   0  0  0  0  0
   82.1249   95.4902   91.4126 H   0  0  0  0  0
   83.1360   98.5169   93.7678 H   0  0  0  0  0
   83.6820   96.8066   93.4111 H   0  0  0  0  0
   84.3126   95.6643   95.2302 H   0  0  0  0  0
   80.9704   98.4400   95.4511 H   0  0  0  0  0
   83.9725   94.9546   97.6634 H   0  0  0  0  0
   80.5587   97.8064   97.9091 H   0  0  0  0  0
   82.0688   96.0325   99.0308 H   0  0  0  0  0
  1  2  1  0  0  0
  2  3  1  0  0  0
  2  5  1  0  0  0
  3  4  2  0  0  0
  3  6  1  0  0  0
  6  7  1  0  0  0
  7  8  1  0  0  0
  7 10  1  0  0  0
  8  9  2  0  0  0
  8 14  1  0  0  0
 10 11  1  0  0  0
 11 12  1  0  0  0
 11 13  2  0  0  0
 14 15  1  0  0  0
 15 16  1  0  0  0
 15 18  1  0  0  0
 16 17  2  0  0  0
 16 22  1  0  0  0
 18 19  1  0  0  0
 19 20  1  0  0  0
 19 21  1  0  0  0
 22 23  1  0  0  0
 23 24  1  0  0  0
 23 26  1  0  0  0
 24 25  2  0  0  0
 24 30  1  0  0  0
 26 27  1  0  0  0
 26 28  1  0  0  0
 27 29  1  0  0  0
 30 31  1  0  0  0
 31 32  1  0  0  0
 31 34  1  0  0  0
 32 33  2  0  0  0
 32 35  1  0  0  0
 35 36  1  0  0  0
 36 37  1  0  0  0
 36 39  1  0  0  0
 37 38  2  0  0  0
 37 47  1  0  0  0
 39 40  1  0  0  0
 40 41  4  0  0  0
 40 42  4  0  0  0
 41 43  4  0  0  0
 42 44  4  0  0  0
 43 45  4  0  0  0
 44 45  4  0  0  0
 45 46  1  0  0  0
 47 48  1  0  0  0
 47 53  1  0  0  0
 48 49  1  0  0  0
 48 51  1  0  0  0
 49 50  2  0  0  0
 49 54  1  0  0  0
 51 52  1  0  0  0
 52 53  1  0  0  0
 54 55  1  0  0  0
 55 56  1  0  0  0
 55 58  1  0  0  0
 56 57  2  0  0  0
 56 63  1  0  0  0
 58 59  1  0  0  0
 59 60  1  0  0  0
 60 61  1  0  0  0
 61 62  1  0  0  0
 63 64  1  0  0  0
 64 65  1  0  0  0
 64 67  1  0  0  0
 65 66  2  0  0  0
 65 68  1  0  0  0
 68 69  1  0  0  0
 69 70  1  0  0  0
 69 72  1  0  0  0
 70 71  2  0  0  0
 70 73  1  0  0  0
 73 74  1  0  0  0
 74 75  1  0  0  0
 74 77  1  0  0  0
 75 76  2  0  0  0
 75 80  1  0  0  0
 77 78  1  0  0  0
 77 79  1  0  0  0
 80 81  1  0  0  0
 81 82  1  0  0  0
 81 84  1  0  0  0
 82 83  2  0  0  0
 82 89  1  0  0  0
 84 85  1  0  0  0
 85 86  1  0  0  0
 86 87  1  0  0  0
 87 88  1  0  0  0
 89 90  1  0  0  0
 90 91  1  0  0  0
 90 93  1  0  0  0
 91 92  1  0  0  0
 91100  2  0  0  0
 93 94  1  0  0  0
 94 95  4  0  0  0
 94 96  4  0  0  0
 95 97  4  0  0  0
 96 98  4  0  0  0
 97 99  4  0  0  0
 98 99  4  0  0  0
  1101  1  0  0  0
  1102  1  0  0  0
  1103  1  0  0  0
  2104  1  0  0  0
  5105  1  0  0  0
  5106  1  0  0  0
  5107  1  0  0  0
  6108  1  0  0  0
  7109  1  0  0  0
 10110  1  0  0  0
 10111  1  0  0  0
 12112  1  0  0  0
 14113  1  0  0  0
 15114  1  0  0  0
 18115  1  0  0  0
 18116  1  0  0  0
 19117  1  0  0  0
 20118  1  0  0  0
 20119  1  0  0  0
 20120  1  0  0  0
 21121  1  0  0  0
 21122  1  0  0  0
 21123  1  0  0  0
 22124  1  0  0  0
 23125  1  0  0  0
 26126  1  0  0  0
 27127  1  0  0  0
 27128  1  0  0  0
 28129  1  0  0  0
 28130  1  0  0  0
 28131  1  0  0  0
 29132  1  0  0  0
 29133  1  0  0  0
 29134  1  0  0  0
 30135  1  0  0  0
 31136  1  0  0  0
 34137  1  0  0  0
 34138  1  0  0  0
 34139  1  0  0  0
 35140  1  0  0  0
 36141  1  0  0  0
 39142  1  0  0  0
 39143  1  0  0  0
 41144  1  0  0  0
 42145  1  0  0  0
 43146  1  0  0  0
 44147  1  0  0  0
 46148  1  0  0  0
 48149  1  0  0  0
 51150  1  0  0  0
 51151  1  0  0  0
 52152  1  0  0  0
 52153  1  0  0  0
 53154  1  0  0  0
 53155  1  0  0  0
 54156  1  0  0  0
 55157  1  0  0  0
 58158  1  0  0  0
 58159  1  0  0  0
 59160  1  0  0  0
 59161  1  0  0  0
 60162  1  0  0  0
 60163  1  0  0  0
 61164  1  0  0  0
 61165  1  0  0  0
 62166  1  0  0  0
 62167  1  0  0  0
 62168  1  0  0  0
 63169  1  0  0  0
 64170  1  0  0  0
 67171  1  0  0  0
 67172  1  0  0  0
 67173  1  0  0  0
 68174  1  0  0  0
 69175  1  0  0  0
 72176  1  0  0  0
 72177  1  0  0  0
 72178  1  0  0  0
 73179  1  0  0  0
 74180  1  0  0  0
 77181  1  0  0  0
 78182  1  0  0  0
 79183  1  0  0  0
 79184  1  0  0  0
 79185  1  0  0  0
 80186  1  0  0  0
 81187  1  0  0  0
 84188  1  0  0  0
 84189  1  0  0  0
 85190  1  0  0  0
 85191  1  0  0  0
 86192  1  0  0  0
 86193  1  0  0  0
 87194  1  0  0  0
 87195  1  0  0  0
 88196  1  0  0  0
 88197  1  0  0  0
 88198  1  0  0  0
 89199  1  0  0  0
 90200  1  0  0  0
 92201  1  0  0  0
 93202  1  0  0  0
 93203  1  0  0  0
 95204  1  0  0  0
 96205  1  0  0  0
 97206  1  0  0  0
 98207  1  0  0  0
 99208  1  0  0  0
M  END
$$$$
