3q92_ligand
  -I-interpret- 

 57 61  0  0  0  0  0  0  0  0999 V2000
   -2.4940   -1.2620   13.8960 C   0  0  0  0  0
   -1.7020   -0.7660   15.4560 S   0  0  0  0  0
   -2.5530    0.6420   16.1390 C   0  0  0  0  0
   -2.6350    1.8780   15.4880 C   0  0  0  0  0
   -3.3550    2.9310   16.0630 C   0  0  0  0  0
   -3.9840    2.7400   17.2910 C   0  0  0  0  0
   -3.9040    1.4930   17.9390 C   0  0  0  0  0
   -3.1960    0.3970   17.3820 C   0  0  0  0  0
   -3.0770   -0.9290   17.9860 N   0  0  0  0  0
   -4.0070   -1.4650   18.9240 C   0  0  0  0  0
   -5.0250   -0.6370   19.3860 N   0  0  0  0  0
   -5.9910   -1.1520   20.3210 C   0  0  0  0  0
   -5.9550   -2.4490   20.7840 N   0  0  0  0  0
   -4.9490   -3.2670   20.3290 C   0  0  0  0  0
   -4.8620   -4.7170   20.8050 C   0  0  0  0  0
   -3.8430   -5.4760   20.3270 N   0  0  0  0  0
   -2.9340   -4.9030   19.4220 C   0  0  0  0  0
   -2.9300   -3.6680   18.9510 N   0  0  0  0  0
   -3.9550   -2.8410   19.4140 C   0  0  0  0  0
   -5.8700   -5.0990   21.6990 N   0  0  0  0  0
   -5.9430   -6.4490   22.2750 C   0  0  0  0  0
   -6.0710   -7.7640   21.5430 C   0  0  0  0  0
   -7.2060   -8.0690   20.5550 C   0  0  0  0  0
   -7.2170   -8.7060   21.9160 C   0  0  0  0  0
   -7.0770   -0.3340   20.8260 N   0  0  0  0  0
   -7.2300    1.0830   20.3950 C   0  0  0  0  0
   -8.6850    1.6130   20.3350 C   0  0  0  0  0
   -9.4350    1.3120   21.5640 N   0  3  0  0  0
   -9.4990   -0.1300   21.8350 C   0  0  0  0  0
   -8.1120   -0.8360   21.7950 C   0  0  0  0  0
   -3.5347   -1.5247   14.0858 H   0  0  0  0  0
   -2.4502   -0.4340   13.1885 H   0  0  0  0  0
   -1.9701   -2.1235   13.4819 H   0  0  0  0  0
   -2.1362    2.0210   14.5295 H   0  0  0  0  0
   -3.4231    3.8926   15.5543 H   0  0  0  0  0
   -4.5391    3.5576   17.7510 H   0  0  0  0  0
   -4.4022    1.3653   18.9000 H   0  0  0  0  0
   -2.2793   -1.5062   17.7198 H   0  0  0  0  0
   -2.1365   -5.5550   19.0655 H   0  0  0  0  0
   -6.5799   -4.4147   21.9601 H   0  0  0  0  0
   -6.8996   -6.4041   22.7957 H   0  0  0  0  0
   -4.9482   -6.5463   22.7098 H   0  0  0  0  0
   -4.9839   -7.8075   21.4772 H   0  0  0  0  0
   -7.3194   -8.3715   19.5140 H   0  0  0  0  0
   -7.8904   -7.5210   19.9074 H   0  0  0  0  0
   -7.9165   -8.8450   22.7403 H   0  0  0  0  0
   -7.3421   -9.7003   22.3446 H   0  0  0  0  0
   -6.8379    1.1411   19.3796 H   0  0  0  0  0
   -6.7107    1.6894   21.1371 H   0  0  0  0  0
   -9.1900    1.1260   19.5008 H   0  0  0  0  0
   -8.6476    2.6959   20.2163 H   0  0  0  0  0
  -10.3882    1.6557   21.4466 H   0  0  0  0  0
   -8.9575    1.7611   22.3455 H   0  0  0  0  0
  -10.1168   -0.5807   21.0583 H   0  0  0  0  0
   -9.8998   -0.2553   22.8409 H   0  0  0  0  0
   -7.6806   -0.6715   22.7824 H   0  0  0  0  0
   -8.3224   -1.8586   21.4819 H   0  0  0  0  0
  1  2  1  0  0  0
  2  3  1  0  0  0
  3  4  4  0  0  0
  3  8  4  0  0  0
  4  5  4  0  0  0
  5  6  4  0  0  0
  6  7  4  0  0  0
  7  8  4  0  0  0
  8  9  1  0  0  0
  9 10  1  0  0  0
 10 11  4  0  0  0
 10 19  4  0  0  0
 11 12  4  0  0  0
 12 13  4  0  0  0
 12 25  1  0  0  0
 13 14  4  0  0  0
 14 15  4  0  0  0
 14 19  4  0  0  0
 15 16  4  0  0  0
 15 20  1  0  0  0
 16 17  4  0  0  0
 17 18  4  0  0  0
 18 19  4  0  0  0
 20 21  1  0  0  0
 21 22  1  0  0  0
 22 23  1  0  0  0
 22 24  1  0  0  0
 23 24  1  0  0  0
 25 26  1  0  0  0
 25 30  1  0  0  0
 26 27  1  0  0  0
 27 28  1  0  0  0
 28 29  1  0  0  0
 29 30  1  0  0  0
  1 31  1  0  0  0
  1 32  1  0  0  0
  1 33  1  0  0  0
  4 34  1  0  0  0
  5 35  1  0  0  0
  6 36  1  0  0  0
  7 37  1  0  0  0
  9 38  1  0  0  0
 17 39  1  0  0  0
 20 40  1  0  0  0
 21 41  1  0  0  0
 21 42  1  0  0  0
 22 43  1  0  0  0
 23 44  1  0  0  0
 23 45  1  0  0  0
 24 46  1  0  0  0
 24 47  1  0  0  0
 26 48  1  0  0  0
 26 49  1  0  0  0
 27 50  1  0  0  0
 27 51  1  0  0  0
 28 52  1  0  0  0
 28 53  1  0  0  0
 29 54  1  0  0  0
 29 55  1  0  0  0
 30 56  1  0  0  0
 30 57  1  0  0  0
M  END
$$$$
