2zdx_ligand
  -I-interpret- 

 37 39  0  0  0  0  0  0  0  0999 V2000
  -28.2480   13.0680   10.7890 N   0  0  0  0  0
  -28.5620   12.8970   12.1240 N   0  0  0  0  0
  -27.5950   12.1220   12.7590 C   0  0  0  0  0
  -26.5820   11.7830   11.7210 C   0  0  0  0  0
  -27.0560   12.4040   10.5110 C   0  0  0  0  0
  -27.6140   11.7220   14.2810 C   0  0  0  0  0
  -25.2900   10.9240   11.9650 C   0  0  0  0  0
  -26.4690   12.4260    9.0900 C   0  0  0  0  0
  -24.1780   11.4370   12.7470 C   0  0  0  0  0
  -23.0000   10.6490   12.9920 C   0  0  0  0  0
  -22.9010    9.2960   12.4490 C   0  0  0  0  0
  -23.9950    8.7570   11.6560 C   0  0  0  0  0
  -25.1730    9.5590   11.4190 C   0  0  0  0  0
  -28.0410   12.6770   15.3320 C   0  0  0  0  0
  -28.0230   12.2820   16.7160 C   0  0  0  0  0
  -27.5940   10.9550   17.0970 C   0  0  0  0  0
  -27.1930   10.0220   16.1170 C   0  0  0  0  0
  -27.1990   10.3890   14.7360 C   0  0  0  0  0
  -27.5650   10.5990   18.4120 O   0  0  0  0  0
  -28.4490   13.9340   15.0550 O   0  0  0  0  0
  -21.7490    8.5140   12.6940 O   0  0  0  0  0
  -21.8590    7.7960   13.9630 C   0  0  0  0  0
  -27.1831   11.9822    8.3964 H   0  0  0  0  0
  -26.2684   13.4566    8.7971 H   0  0  0  0  0
  -25.5408   11.8548    9.0728 H   0  0  0  0  0
  -24.2381   12.4446   13.1584 H   0  0  0  0  0
  -22.1815   11.0609   13.5824 H   0  0  0  0  0
  -23.9261    7.7511   11.2419 H   0  0  0  0  0
  -25.9900    9.1479   10.8260 H   0  0  0  0  0
  -28.3356   12.9898   17.4837 H   0  0  0  0  0
  -26.8787    9.0213   16.4136 H   0  0  0  0  0
  -26.8847    9.6542   13.9948 H   0  0  0  0  0
  -27.2590    9.6924   18.4903 H   0  0  0  0  0
  -28.6793   14.3819   15.8723 H   0  0  0  0  0
  -21.9733    8.5130   14.7760 H   0  0  0  0  0
  -22.7274    7.1379   13.9325 H   0  0  0  0  0
  -20.9581    7.2037   14.1232 H   0  0  0  0  0
  1  2  4  0  0  0
  1  5  4  0  0  0
  2  3  4  0  0  0
  3  4  4  0  0  0
  3  6  1  0  0  0
  4  5  4  0  0  0
  4  7  1  0  0  0
  5  8  1  0  0  0
  6 14  4  0  0  0
  6 18  4  0  0  0
  7  9  4  0  0  0
  7 13  4  0  0  0
  9 10  4  0  0  0
 10 11  4  0  0  0
 11 12  4  0  0  0
 11 21  1  0  0  0
 12 13  4  0  0  0
 14 15  4  0  0  0
 14 20  1  0  0  0
 15 16  4  0  0  0
 16 17  4  0  0  0
 16 19  1  0  0  0
 17 18  4  0  0  0
 21 22  1  0  0  0
  8 23  1  0  0  0
  8 24  1  0  0  0
  8 25  1  0  0  0
  9 26  1  0  0  0
 10 27  1  0  0  0
 12 28  1  0  0  0
 13 29  1  0  0  0
 15 30  1  0  0  0
 17 31  1  0  0  0
 18 32  1  0  0  0
 19 33  1  0  0  0
 20 34  1  0  0  0
 22 35  1  0  0  0
 22 36  1  0  0  0
 22 37  1  0  0  0
M  END
$$$$
