### 
### Created by X-TOOL on Mon Aug  2 16:16:48 2021
### 

@<TRIPOS>MOLECULE
6rpg_ligand
  128   133     1     0     0
SMALL
GAST_HUCK


@<TRIPOS>ATOM
      1 N1         -1.7520  -28.1000   -5.3090 N.4       1 KDW         0.2375
      2 N3          4.0090  -32.4150   -8.5050 N.1       1 KDW        -0.3237
      3 C4         -2.1700  -26.7080   -5.3710 C.3       1 KDW        -0.0077
      4 C5         -2.3950  -26.2270   -6.7780 C.ar      1 KDW         0.0135
      5 C6         -1.5280  -26.5930   -7.8000 C.ar      1 KDW         0.0855
      6 C7          0.6030  -27.4780   -8.3490 C.3       1 KDW         0.1087
      7 C8          1.7090  -28.2530   -7.7070 C.ar      1 KDW         0.0249
      8 C10         3.7620  -29.5710   -6.4810 C.ar      1 KDW         0.0390
      9 C13         3.6460  -31.4000   -8.1310 C.1       1 KDW         0.1083
     10 C15        -2.8200  -25.3620   -9.3720 C.ar      1 KDW         0.0798
     11 C1         -4.8170  -30.2230   -3.4770 C.2       1 KDW         0.1730
     12 C11         3.2070  -30.1260   -7.6230 C.ar      1 KDW         0.1167
     13 C12         2.1670  -29.4460   -8.2430 C.ar      1 KDW        -0.0039
     14 C14        -1.7420  -26.1710   -9.0920 C.ar      1 KDW        -0.0168
     15 C16        -2.2000  -25.0740  -11.6450 C.3       1 KDW         0.0984
     16 C2         -4.1270  -28.6490   -5.2040 C.3       1 KDW         0.0707
     17 C3         -2.7480  -28.9530   -4.6700 C.3       1 KDW        -0.0120
     18 C9          2.3300  -27.8030   -6.5580 C.ar      1 KDW         0.0233
     19 N2          3.3370  -28.4310   -5.9450 N.ar      1 KDW        -0.2921
     20 O1         -0.4660  -27.3560   -7.4200 O.3       1 KDW        -0.3146
     21 O2         -3.1430  -24.8870  -10.6050 O.3       1 KDW        -0.3176
     22 O3         -1.4880  -25.6910  -21.0270 O.3       1 KDW        -0.3176
     23 N          -5.1350  -29.3420   -4.4220 N.am      1 KDW        -0.2821
     24 C          -5.4890  -30.0400   -2.1520 C.3       1 KDW         0.0256
     25 O          -4.0120  -31.1240   -3.6780 O.2       1 KDW        -0.3974
     26 C17        -2.7510  -24.4820  -12.9100 C.ar      1 KDW        -0.0115
     27 C18        -3.3500  -23.2310  -12.8890 C.ar      1 KDW        -0.0649
     28 C19        -3.8270  -22.6600  -14.0470 C.ar      1 KDW        -0.0755
     29 C20        -3.7180  -23.3300  -15.2450 C.ar      1 KDW        -0.0689
     30 C21        -3.1260  -24.5870  -15.2860 C.ar      1 KDW        -0.0272
     31 C22        -2.6380  -25.1800  -14.1150 C.ar      1 KDW        -0.0344
     32 C23        -2.0050  -26.5450  -14.1420 C.3       1 KDW        -0.0328
     33 C24        -3.0230  -25.2920  -16.5950 C.ar      1 KDW        -0.0272
     34 C25        -4.0000  -26.2240  -16.9140 C.ar      1 KDW        -0.0689
     35 C26        -3.9590  -26.8790  -18.1240 C.ar      1 KDW        -0.0755
     36 C27        -2.9540  -26.6060  -19.0230 C.ar      1 KDW        -0.0649
     37 C28        -1.9680  -25.6770  -18.7260 C.ar      1 KDW        -0.0115
     38 C29        -1.9820  -25.0150  -17.4950 C.ar      1 KDW        -0.0344
     39 C30        -0.8780  -24.0550  -17.1400 C.3       1 KDW        -0.0328
     40 C31        -0.9200  -25.3800  -19.7590 C.3       1 KDW         0.0984
     41 C32        -0.8360  -25.2190  -22.1230 C.ar      1 KDW         0.0798
     42 C33         0.4860  -24.8510  -22.1110 C.ar      1 KDW        -0.0168
     43 C34         1.0750  -24.3830  -23.2600 C.ar      1 KDW         0.0855
     44 C35         0.3510  -24.2740  -24.4420 C.ar      1 KDW         0.0135
     45 C36         0.9950  -23.7450  -25.6970 C.3       1 KDW        -0.0077
     46 C37         0.1900  -21.4530  -25.5970 C.3       1 KDW        -0.0120
     47 C38        -0.5610  -21.5090  -26.9070 C.3       1 KDW         0.0707
     48 C39         0.9850  -19.8550  -27.8170 C.2       1 KDW         0.1730
     49 C40         0.7280  -18.7110  -28.7470 C.3       1 KDW         0.0256
     50 C41        -0.9800  -24.6570  -24.4250 C.ar      1 KDW        -0.0702
     51 C42        -1.5980  -25.1300  -23.2780 C.ar      1 KDW        -0.0336
     52 C43        -3.0460  -25.5250  -23.2880 C.3       1 KDW        -0.0397
     53 C44         2.7670  -22.9370  -22.4540 C.3       1 KDW         0.1087
     54 C45         4.2580  -22.9550  -22.3920 C.ar      1 KDW         0.0249
     55 C46         4.9890  -23.9840  -22.9560 C.ar      1 KDW         0.0233
     56 C47         6.9850  -23.0740  -22.3430 C.ar      1 KDW         0.0390
     57 C48         6.3570  -21.9880  -21.7480 C.ar      1 KDW         0.1167
     58 C49         4.9710  -21.9390  -21.7770 C.ar      1 KDW        -0.0039
     59 C50         7.1050  -20.9300  -21.1250 C.1       1 KDW         0.1083
     60 C51        -3.6970  -24.9610   -8.3820 C.ar      1 KDW        -0.0336
     61 C52        -3.4680  -25.4130   -7.0930 C.ar      1 KDW        -0.0702
     62 C53        -4.8470  -24.0480   -8.6890 C.3       1 KDW        -0.0397
     63 N4          1.3570  -22.3320  -25.6270 N.4       1 KDW         0.2375
     64 N5          0.2190  -20.9290  -27.9860 N.am      1 KDW        -0.2821
     65 N6          6.3220  -24.0610  -22.9430 N.ar      1 KDW        -0.2921
     66 N7          7.6700  -20.0770  -20.6210 N.1       1 KDW        -0.3237
     67 O4          1.8500  -19.8050  -26.9500 O.2       1 KDW        -0.3974
     68 O5          2.3750  -23.9920  -23.3240 O.3       1 KDW        -0.3146
     69 H1         -0.8931  -28.1568   -4.7845 H         1 KDW         0.2024
     70 H2         -1.5953  -28.4328   -6.2475 H         1 KDW         0.2024
     71 H3         -1.3896  -26.0862   -4.9080 H         1 KDW         0.0933
     72 H4         -3.1086  -26.5979   -4.8081 H         1 KDW         0.0933
     73 H5          0.2537  -28.0068   -9.2481 H         1 KDW         0.0790
     74 H6          0.9657  -26.4781   -8.6294 H         1 KDW         0.0790
     75 H7          4.5828  -30.0918   -6.0012 H         1 KDW         0.0868
     76 H8          1.7151  -29.8470   -9.1430 H         1 KDW         0.0775
     77 H9         -1.0664  -26.4735   -9.8839 H         1 KDW         0.0429
     78 H10        -2.0169  -26.1490  -11.7891 H         1 KDW         0.0757
     79 H11        -1.2564  -24.5732  -11.3829 H         1 KDW         0.0757
     80 H12        -4.1910  -28.9782   -6.2516 H         1 KDW         0.0573
     81 H13        -4.3067  -27.5652   -5.1485 H         1 KDW         0.0573
     82 H14        -2.7333  -28.7758   -3.5845 H         1 KDW         0.0834
     83 H15        -2.5057  -30.0066   -4.8729 H         1 KDW         0.0834
     84 H16         1.9753  -26.8754   -6.1235 H         1 KDW         0.0830
     85 H17        -6.1004  -29.1508   -4.5995 H         1 KDW         0.1853
     86 H18        -5.1491  -30.8223   -1.4574 H         1 KDW         0.0467
     87 H19        -6.5791  -30.1123   -2.2806 H         1 KDW         0.0467
     88 H20        -5.2326  -29.0510   -1.7443 H         1 KDW         0.0467
     89 H21        -3.4435  -22.6972  -11.9502 H         1 KDW         0.0533
     90 H22        -4.2897  -21.6802  -14.0158 H         1 KDW         0.0542
     91 H23        -4.0936  -22.8775  -16.1556 H         1 KDW         0.0539
     92 H24        -1.6915  -26.8239  -13.1252 H         1 KDW         0.0379
     93 H25        -1.1273  -26.5291  -14.8049 H         1 KDW         0.0379
     94 H26        -2.7334  -27.2797  -14.5156 H         1 KDW         0.0379
     95 H27        -4.7963  -26.4365  -16.2098 H         1 KDW         0.0539
     96 H28        -4.7199  -27.6112  -18.3690 H         1 KDW         0.0542
     97 H29        -2.9325  -27.1234  -19.9753 H         1 KDW         0.0533
     98 H30        -1.0630  -23.6374  -16.1393 H         1 KDW         0.0379
     99 H31        -0.8495  -23.2398  -17.8780 H         1 KDW         0.0379
    100 H32         0.0851  -24.5864  -17.1432 H         1 KDW         0.0379
    101 H33        -0.6414  -24.3166  -19.7200 H         1 KDW         0.0757
    102 H34        -0.0284  -25.9994  -19.5819 H         1 KDW         0.0757
    103 H35         1.0638  -24.9295  -21.1972 H         1 KDW         0.0429
    104 H36         0.2910  -23.8810  -26.5312 H         1 KDW         0.0933
    105 H37         1.9083  -24.3272  -25.8893 H         1 KDW         0.0933
    106 H38        -0.4795  -21.7709  -24.7842 H         1 KDW         0.0834
    107 H39         0.5218  -20.4200  -25.4159 H         1 KDW         0.0834
    108 H40        -1.5027  -20.9499  -26.8047 H         1 KDW         0.0573
    109 H41        -0.7824  -22.5590  -27.1489 H         1 KDW         0.0573
    110 H42         1.4171  -17.8862  -28.5129 H         1 KDW         0.0467
    111 H43        -0.3099  -18.3669  -28.6270 H         1 KDW         0.0467
    112 H44         0.8879  -19.0390  -29.7847 H         1 KDW         0.0467
    113 H45        -1.5577  -24.5844  -25.3394 H         1 KDW         0.0443
    114 H46        -3.3387  -25.8705  -22.2855 H         1 KDW         0.0347
    115 H47        -3.1998  -26.3363  -24.0148 H         1 KDW         0.0347
    116 H48        -3.6607  -24.6578  -23.5709 H         1 KDW         0.0347
    117 H49         2.4168  -21.9719  -22.8487 H         1 KDW         0.0790
    118 H50         2.3451  -23.0978  -21.4510 H         1 KDW         0.0790
    119 H51         4.4422  -24.7836  -23.4424 H         1 KDW         0.0830
    120 H52         8.0677  -23.1208  -22.3180 H         1 KDW         0.0868
    121 H53         4.4471  -21.1076  -21.3195 H         1 KDW         0.0775
    122 H54        -4.1521  -25.1192   -6.3052 H         1 KDW         0.0443
    123 H55        -4.8495  -23.8099   -9.7629 H         1 KDW         0.0347
    124 H56        -4.7436  -23.1198   -8.1079 H         1 KDW         0.0347
    125 H57        -5.7912  -24.5448   -8.4215 H         1 KDW         0.0347
    126 H58         1.9141  -22.1012  -26.4347 H         1 KDW         0.2024
    127 H59         1.8981  -22.1785  -24.7905 H         1 KDW         0.2024
    128 H60         0.1786  -21.3534  -28.8906 H         1 KDW         0.1853
@<TRIPOS>BOND
     1    3    1 1  
     2    1   17 1  
     3    9    2 3  
     4    4    3 1  
     5    5    4 ar 
     6    4   61 ar 
     7   14    5 ar 
     8    5   20 1  
     9    6    7 1  
    10   20    6 1  
    11    7   13 ar 
    12    7   18 ar 
    13   12    8 ar 
    14   19    8 ar 
    15   12    9 1  
    16   10   14 ar 
    17   21   10 1  
    18   10   60 ar 
    19   23   11 am 
    20   11   24 1  
    21   11   25 2  
    22   13   12 ar 
    23   15   21 1  
    24   26   15 1  
    25   17   16 1  
    26   16   23 1  
    27   18   19 ar 
    28   22   40 1  
    29   41   22 1  
    30   26   27 ar 
    31   31   26 ar 
    32   28   27 ar 
    33   29   28 ar 
    34   30   29 ar 
    35   30   31 ar 
    36   33   30 1  
    37   31   32 1  
    38   33   34 ar 
    39   38   33 ar 
    40   35   34 ar 
    41   36   35 ar 
    42   37   36 ar 
    43   37   38 ar 
    44   40   37 1  
    45   38   39 1  
    46   42   41 ar 
    47   41   51 ar 
    48   43   42 ar 
    49   43   44 ar 
    50   68   43 1  
    51   44   45 1  
    52   44   50 ar 
    53   45   63 1  
    54   46   47 1  
    55   63   46 1  
    56   47   64 1  
    57   48   49 1  
    58   64   48 am 
    59   48   67 2  
    60   50   51 ar 
    61   51   52 1  
    62   54   53 1  
    63   53   68 1  
    64   55   54 ar 
    65   54   58 ar 
    66   65   55 ar 
    67   56   57 ar 
    68   56   65 ar 
    69   57   58 ar 
    70   57   59 1  
    71   59   66 3  
    72   60   61 ar 
    73   60   62 1  
    74    1   69 1  
    75    1   70 1  
    76    3   71 1  
    77    3   72 1  
    78    6   73 1  
    79    6   74 1  
    80    8   75 1  
    81   13   76 1  
    82   14   77 1  
    83   15   78 1  
    84   15   79 1  
    85   16   80 1  
    86   16   81 1  
    87   17   82 1  
    88   17   83 1  
    89   18   84 1  
    90   23   85 1  
    91   24   86 1  
    92   24   87 1  
    93   24   88 1  
    94   27   89 1  
    95   28   90 1  
    96   29   91 1  
    97   32   92 1  
    98   32   93 1  
    99   32   94 1  
   100   34   95 1  
   101   35   96 1  
   102   36   97 1  
   103   39   98 1  
   104   39   99 1  
   105   39  100 1  
   106   40  101 1  
   107   40  102 1  
   108   42  103 1  
   109   45  104 1  
   110   45  105 1  
   111   46  106 1  
   112   46  107 1  
   113   47  108 1  
   114   47  109 1  
   115   49  110 1  
   116   49  111 1  
   117   49  112 1  
   118   50  113 1  
   119   52  114 1  
   120   52  115 1  
   121   52  116 1  
   122   53  117 1  
   123   53  118 1  
   124   55  119 1  
   125   56  120 1  
   126   58  121 1  
   127   61  122 1  
   128   62  123 1  
   129   62  124 1  
   130   62  125 1  
   131   63  126 1  
   132   63  127 1  
   133   64  128 1  
@<TRIPOS>SUBSTRUCTURE
     1 KDW         1

