6rpg_ligand
  -I-interpret- 

128133  0  0  0  0  0  0  0  0999 V2000
   -1.7520  -28.1000   -5.3090 N   0  3  0  0  0
    4.0090  -32.4150   -8.5050 N   0  0  0  0  0
   -2.1700  -26.7080   -5.3710 C   0  0  0  0  0
   -2.3950  -26.2270   -6.7780 C   0  0  0  0  0
   -1.5280  -26.5930   -7.8000 C   0  0  0  0  0
    0.6030  -27.4780   -8.3490 C   0  0  0  0  0
    1.7090  -28.2530   -7.7070 C   0  0  0  0  0
    3.7620  -29.5710   -6.4810 C   0  0  0  0  0
    3.6460  -31.4000   -8.1310 C   0  0  0  0  0
   -2.8200  -25.3620   -9.3720 C   0  0  0  0  0
   -4.8170  -30.2230   -3.4770 C   0  0  0  0  0
    3.2070  -30.1260   -7.6230 C   0  0  0  0  0
    2.1670  -29.4460   -8.2430 C   0  0  0  0  0
   -1.7420  -26.1710   -9.0920 C   0  0  0  0  0
   -2.2000  -25.0740  -11.6450 C   0  0  0  0  0
   -4.1270  -28.6490   -5.2040 C   0  0  0  0  0
   -2.7480  -28.9530   -4.6700 C   0  0  0  0  0
    2.3300  -27.8030   -6.5580 C   0  0  0  0  0
    3.3370  -28.4310   -5.9450 N   0  0  0  0  0
   -0.4660  -27.3560   -7.4200 O   0  0  0  0  0
   -3.1430  -24.8870  -10.6050 O   0  0  0  0  0
   -1.4880  -25.6910  -21.0270 O   0  0  0  0  0
   -5.1350  -29.3420   -4.4220 N   0  0  0  0  0
   -5.4890  -30.0400   -2.1520 C   0  0  0  0  0
   -4.0120  -31.1240   -3.6780 O   0  0  0  0  0
   -2.7510  -24.4820  -12.9100 C   0  0  0  0  0
   -3.3500  -23.2310  -12.8890 C   0  0  0  0  0
   -3.8270  -22.6600  -14.0470 C   0  0  0  0  0
   -3.7180  -23.3300  -15.2450 C   0  0  0  0  0
   -3.1260  -24.5870  -15.2860 C   0  0  0  0  0
   -2.6380  -25.1800  -14.1150 C   0  0  0  0  0
   -2.0050  -26.5450  -14.1420 C   0  0  0  0  0
   -3.0230  -25.2920  -16.5950 C   0  0  0  0  0
   -4.0000  -26.2240  -16.9140 C   0  0  0  0  0
   -3.9590  -26.8790  -18.1240 C   0  0  0  0  0
   -2.9540  -26.6060  -19.0230 C   0  0  0  0  0
   -1.9680  -25.6770  -18.7260 C   0  0  0  0  0
   -1.9820  -25.0150  -17.4950 C   0  0  0  0  0
   -0.8780  -24.0550  -17.1400 C   0  0  0  0  0
   -0.9200  -25.3800  -19.7590 C   0  0  0  0  0
   -0.8360  -25.2190  -22.1230 C   0  0  0  0  0
    0.4860  -24.8510  -22.1110 C   0  0  0  0  0
    1.0750  -24.3830  -23.2600 C   0  0  0  0  0
    0.3510  -24.2740  -24.4420 C   0  0  0  0  0
    0.9950  -23.7450  -25.6970 C   0  0  0  0  0
    0.1900  -21.4530  -25.5970 C   0  0  0  0  0
   -0.5610  -21.5090  -26.9070 C   0  0  0  0  0
    0.9850  -19.8550  -27.8170 C   0  0  0  0  0
    0.7280  -18.7110  -28.7470 C   0  0  0  0  0
   -0.9800  -24.6570  -24.4250 C   0  0  0  0  0
   -1.5980  -25.1300  -23.2780 C   0  0  0  0  0
   -3.0460  -25.5250  -23.2880 C   0  0  0  0  0
    2.7670  -22.9370  -22.4540 C   0  0  0  0  0
    4.2580  -22.9550  -22.3920 C   0  0  0  0  0
    4.9890  -23.9840  -22.9560 C   0  0  0  0  0
    6.9850  -23.0740  -22.3430 C   0  0  0  0  0
    6.3570  -21.9880  -21.7480 C   0  0  0  0  0
    4.9710  -21.9390  -21.7770 C   0  0  0  0  0
    7.1050  -20.9300  -21.1250 C   0  0  0  0  0
   -3.6970  -24.9610   -8.3820 C   0  0  0  0  0
   -3.4680  -25.4130   -7.0930 C   0  0  0  0  0
   -4.8470  -24.0480   -8.6890 C   0  0  0  0  0
    1.3570  -22.3320  -25.6270 N   0  3  0  0  0
    0.2190  -20.9290  -27.9860 N   0  0  0  0  0
    6.3220  -24.0610  -22.9430 N   0  0  0  0  0
    7.6700  -20.0770  -20.6210 N   0  0  0  0  0
    1.8500  -19.8050  -26.9500 O   0  0  0  0  0
    2.3750  -23.9920  -23.3240 O   0  0  0  0  0
   -0.8955  -28.1476   -4.7571 H   0  0  0  0  0
   -1.6189  -28.4320   -6.2642 H   0  0  0  0  0
   -1.3758  -26.1020   -4.9349 H   0  0  0  0  0
   -3.1143  -26.6196   -4.8338 H   0  0  0  0  0
    0.2587  -27.9959   -9.2441 H   0  0  0  0  0
    0.9608  -26.4887   -8.6342 H   0  0  0  0  0
    4.5873  -30.0947   -5.9986 H   0  0  0  0  0
    1.7126  -29.8492   -9.1480 H   0  0  0  0  0
   -1.0627  -26.4752   -9.8883 H   0  0  0  0  0
   -2.0123  -26.1384  -11.7865 H   0  0  0  0  0
   -1.2619  -24.5833  -11.3856 H   0  0  0  0  0
   -4.1888  -28.9829   -6.2398 H   0  0  0  0  0
   -4.3040  -27.5753   -5.1409 H   0  0  0  0  0
   -2.7358  -28.7676   -3.5960 H   0  0  0  0  0
   -2.5088  -29.9953   -4.8810 H   0  0  0  0  0
    1.9733  -26.8703   -6.1211 H   0  0  0  0  0
   -6.1197  -29.1470   -4.6031 H   0  0  0  0  0
   -6.0601  -30.9360   -1.9089 H   0  0  0  0  0
   -4.7347  -29.8689   -1.3840 H   0  0  0  0  0
   -6.1599  -29.1823   -2.2017 H   0  0  0  0  0
   -3.4440  -22.6942  -11.9450 H   0  0  0  0  0
   -4.2923  -21.6748  -14.0156 H   0  0  0  0  0
   -4.0957  -22.8750  -16.1606 H   0  0  0  0  0
   -0.9786  -26.4753  -13.7819 H   0  0  0  0  0
   -2.5716  -27.2196  -13.5001 H   0  0  0  0  0
   -2.0080  -26.9253  -15.1635 H   0  0  0  0  0
   -4.8007  -26.4377  -16.2059 H   0  0  0  0  0
   -4.7241  -27.6152  -18.3703 H   0  0  0  0  0
   -2.9324  -27.1263  -19.9806 H   0  0  0  0  0
   -1.3039  -23.0723  -16.9374 H   0  0  0  0  0
   -0.3556  -24.4157  -16.2539 H   0  0  0  0  0
   -0.1780  -23.9844  -17.9725 H   0  0  0  0  0
   -0.6210  -24.3327  -19.7160 H   0  0  0  0  0
   -0.0232  -25.9736  -19.5813 H   0  0  0  0  0
    1.0669  -24.9299  -21.1921 H   0  0  0  0  0
    0.2701  -23.8540  -26.5037 H   0  0  0  0  0
    1.9157  -24.3079  -25.8506 H   0  0  0  0  0
   -0.4748  -21.7802  -24.7976 H   0  0  0  0  0
    0.5261  -20.4298  -25.4291 H   0  0  0  0  0
   -1.4854  -20.9410  -26.8022 H   0  0  0  0  0
   -0.7638  -22.5527  -27.1469 H   0  0  0  0  0
    0.4442  -17.8314  -28.1692 H   0  0  0  0  0
    1.6325  -18.4970  -29.3163 H   0  0  0  0  0
   -0.0793  -18.9743  -29.4304 H   0  0  0  0  0
   -1.5609  -24.5840  -25.3444 H   0  0  0  0  0
   -3.1370  -26.5741  -23.0067 H   0  0  0  0  0
   -3.5946  -24.9078  -22.5765 H   0  0  0  0  0
   -3.4542  -25.3789  -24.2880 H   0  0  0  0  0
    2.4077  -21.9771  -22.8250 H   0  0  0  0  0
    2.3377  -23.0753  -21.4617 H   0  0  0  0  0
    4.4392  -24.7881  -23.4451 H   0  0  0  0  0
    8.0737  -23.1211  -22.3178 H   0  0  0  0  0
    4.4442  -21.1030  -21.3169 H   0  0  0  0  0
   -4.1559  -25.1176   -6.3008 H   0  0  0  0  0
   -4.4662  -23.1071   -9.0863 H   0  0  0  0  0
   -5.4964  -24.5192   -9.4269 H   0  0  0  0  0
   -5.4111  -23.8567   -7.7761 H   0  0  0  0  0
    1.8990  -22.1054  -26.4609 H   0  0  0  0  0
    1.8825  -22.1852  -24.7652 H   0  0  0  0  0
    0.1778  -21.3619  -28.9087 H   0  0  0  0  0
  3  1  1  0  0  0
  1 17  1  0  0  0
  9  2  3  0  0  0
  4  3  1  0  0  0
  5  4  4  0  0  0
  4 61  4  0  0  0
 14  5  4  0  0  0
  5 20  1  0  0  0
  6  7  1  0  0  0
 20  6  1  0  0  0
  7 13  4  0  0  0
  7 18  4  0  0  0
 12  8  4  0  0  0
 19  8  4  0  0  0
 12  9  1  0  0  0
 10 14  4  0  0  0
 21 10  1  0  0  0
 10 60  4  0  0  0
 23 11  1  0  0  0
 11 24  1  0  0  0
 11 25  2  0  0  0
 13 12  4  0  0  0
 15 21  1  0  0  0
 26 15  1  0  0  0
 17 16  1  0  0  0
 16 23  1  0  0  0
 18 19  4  0  0  0
 22 40  1  0  0  0
 41 22  1  0  0  0
 26 27  4  0  0  0
 31 26  4  0  0  0
 28 27  4  0  0  0
 29 28  4  0  0  0
 30 29  4  0  0  0
 30 31  4  0  0  0
 33 30  1  0  0  0
 31 32  1  0  0  0
 33 34  4  0  0  0
 38 33  4  0  0  0
 35 34  4  0  0  0
 36 35  4  0  0  0
 37 36  4  0  0  0
 37 38  4  0  0  0
 40 37  1  0  0  0
 38 39  1  0  0  0
 42 41  4  0  0  0
 41 51  4  0  0  0
 43 42  4  0  0  0
 43 44  4  0  0  0
 68 43  1  0  0  0
 44 45  1  0  0  0
 44 50  4  0  0  0
 45 63  1  0  0  0
 46 47  1  0  0  0
 63 46  1  0  0  0
 47 64  1  0  0  0
 48 49  1  0  0  0
 64 48  1  0  0  0
 48 67  2  0  0  0
 50 51  4  0  0  0
 51 52  1  0  0  0
 54 53  1  0  0  0
 53 68  1  0  0  0
 55 54  4  0  0  0
 54 58  4  0  0  0
 65 55  4  0  0  0
 56 57  4  0  0  0
 56 65  4  0  0  0
 57 58  4  0  0  0
 57 59  1  0  0  0
 59 66  3  0  0  0
 60 61  4  0  0  0
 60 62  1  0  0  0
  1 69  1  0  0  0
  1 70  1  0  0  0
  3 71  1  0  0  0
  3 72  1  0  0  0
  6 73  1  0  0  0
  6 74  1  0  0  0
  8 75  1  0  0  0
 13 76  1  0  0  0
 14 77  1  0  0  0
 15 78  1  0  0  0
 15 79  1  0  0  0
 16 80  1  0  0  0
 16 81  1  0  0  0
 17 82  1  0  0  0
 17 83  1  0  0  0
 18 84  1  0  0  0
 23 85  1  0  0  0
 24 86  1  0  0  0
 24 87  1  0  0  0
 24 88  1  0  0  0
 27 89  1  0  0  0
 28 90  1  0  0  0
 29 91  1  0  0  0
 32 92  1  0  0  0
 32 93  1  0  0  0
 32 94  1  0  0  0
 34 95  1  0  0  0
 35 96  1  0  0  0
 36 97  1  0  0  0
 39 98  1  0  0  0
 39 99  1  0  0  0
 39100  1  0  0  0
 40101  1  0  0  0
 40102  1  0  0  0
 42103  1  0  0  0
 45104  1  0  0  0
 45105  1  0  0  0
 46106  1  0  0  0
 46107  1  0  0  0
 47108  1  0  0  0
 47109  1  0  0  0
 49110  1  0  0  0
 49111  1  0  0  0
 49112  1  0  0  0
 50113  1  0  0  0
 52114  1  0  0  0
 52115  1  0  0  0
 52116  1  0  0  0
 53117  1  0  0  0
 53118  1  0  0  0
 55119  1  0  0  0
 56120  1  0  0  0
 58121  1  0  0  0
 61122  1  0  0  0
 62123  1  0  0  0
 62124  1  0  0  0
 62125  1  0  0  0
 63126  1  0  0  0
 63127  1  0  0  0
 64128  1  0  0  0
M  END
$$$$
