6dxx_ligand
  -I-interpret- 

 52 55  0  0  0  0  0  0  0  0999 V2000
   28.3790   -2.7630   30.9560 C   0  0  0  0  0
   29.5320   -1.8310   30.5640 C   0  0  0  0  0
   30.3020   -2.3920   29.0040 S   0  0  0  0  0
   31.0450   -1.3060   28.3940 O   0  0  0  0  0
   31.3540   -3.3780   29.2280 O   0  0  0  0  0
   29.0260   -3.1090   27.8500 C   0  0  0  0  0
   28.3060   -2.2740   27.0020 C   0  0  0  0  0
   27.3690   -2.7930   26.1510 C   0  0  0  0  0
   27.1650   -4.1750   26.1200 C   0  0  0  0  0
   27.8880   -5.0110   26.9470 C   0  0  0  0  0
   28.8210   -4.4880   27.8100 C   0  0  0  0  0
   28.5670   -0.7220   27.0870 C   0  0  0  0  0
   28.1590   -0.1490   28.0260 O   0  0  0  0  0
   29.3260    0.0070   26.0480 N   0  0  0  0  0
   29.8600   -0.6180   24.8890 C   0  0  0  0  0
   31.1020    0.0550   24.2440 C   0  0  0  0  0
   30.9720    1.5550   24.0420 N   0  0  0  0  0
   29.9180    2.1880   24.9210 C   0  0  0  0  0
   29.5260    1.4200   26.1930 C   0  0  0  0  0
   30.6130    1.6940   27.2540 C   0  0  0  0  0
   31.6830    2.3250   23.0480 C   0  0  0  0  0
   31.9370    3.7090   23.0900 N   0  0  0  0  0
   32.6450    4.1090   21.8890 C   0  0  0  0  0
   32.9120    3.0760   20.9840 C   0  0  0  0  0
   32.2970    1.6760   21.6440 S   0  0  0  0  0
   33.6070    3.3220   19.7640 C   0  0  0  0  0
   34.0450    4.6880   19.4680 C   0  0  0  0  0
   34.7380    4.9600   18.2590 F   0  0  0  0  0
   33.7800    5.7760   20.3880 C   0  0  0  0  0
   33.0780    5.4730   21.5960 C   0  0  0  0  0
   27.6270   -2.7602   30.1670 H   0  0  0  0  0
   28.7614   -3.7747   31.0917 H   0  0  0  0  0
   27.9320   -2.4142   31.8869 H   0  0  0  0  0
   30.2823   -1.8424   31.3546 H   0  0  0  0  0
   29.1421   -0.8227   30.4251 H   0  0  0  0  0
   26.7879   -2.1357   25.5042 H   0  0  0  0  0
   26.4282   -4.5968   25.4365 H   0  0  0  0  0
   27.7187   -6.0873   26.9155 H   0  0  0  0  0
   29.3973   -5.1470   28.4593 H   0  0  0  0  0
   29.0723   -0.5788   24.1366 H   0  0  0  0  0
   30.1855   -1.6091   25.2051 H   0  0  0  0  0
   31.2294   -0.3899   23.2571 H   0  0  0  0  0
   31.9397   -0.1040   24.9231 H   0  0  0  0  0
   29.0146    2.2429   24.3136 H   0  0  0  0  0
   30.3393    3.1344   25.2601 H   0  0  0  0  0
   28.5422    1.7893   26.4827 H   0  0  0  0  0
   30.2990    1.2759   28.2104 H   0  0  0  0  0
   31.5484    1.2292   26.9424 H   0  0  0  0  0
   30.7566    2.7697   27.3558 H   0  0  0  0  0
   33.8084    2.5099   19.0654 H   0  0  0  0  0
   34.1054    6.7924   20.1661 H   0  0  0  0  0
   32.8631    6.2702   22.3076 H   0  0  0  0  0
  1  2  1  0  0  0
  2  3  1  0  0  0
  3  4  2  0  0  0
  3  5  2  0  0  0
  3  6  1  0  0  0
  6  7  4  0  0  0
  6 11  4  0  0  0
  7  8  4  0  0  0
  7 12  1  0  0  0
  8  9  4  0  0  0
  9 10  4  0  0  0
 10 11  4  0  0  0
 12 13  2  0  0  0
 12 14  1  0  0  0
 14 15  1  0  0  0
 14 19  1  0  0  0
 15 16  1  0  0  0
 16 17  1  0  0  0
 17 18  1  0  0  0
 17 21  1  0  0  0
 18 19  1  0  0  0
 19 20  1  0  0  0
 21 22  4  0  0  0
 21 25  4  0  0  0
 22 23  4  0  0  0
 23 24  4  0  0  0
 23 30  4  0  0  0
 24 25  4  0  0  0
 24 26  4  0  0  0
 26 27  4  0  0  0
 27 28  1  0  0  0
 27 29  4  0  0  0
 29 30  4  0  0  0
  1 31  1  0  0  0
  1 32  1  0  0  0
  1 33  1  0  0  0
  2 34  1  0  0  0
  2 35  1  0  0  0
  8 36  1  0  0  0
  9 37  1  0  0  0
 10 38  1  0  0  0
 11 39  1  0  0  0
 15 40  1  0  0  0
 15 41  1  0  0  0
 16 42  1  0  0  0
 16 43  1  0  0  0
 18 44  1  0  0  0
 18 45  1  0  0  0
 19 46  1  0  0  0
 20 47  1  0  0  0
 20 48  1  0  0  0
 20 49  1  0  0  0
 26 50  1  0  0  0
 29 51  1  0  0  0
 30 52  1  0  0  0
M  END
$$$$
