5jxn_ligand
  -I-interpret- 

 63 63  0  0  0  0  0  0  0  0999 V2000
   16.2690   41.5360  -10.6620 C   0  0  0  0  0
   17.5310   41.1590  -11.1060 C   0  0  0  0  0
   17.7060   40.5370  -12.3610 C   0  0  0  0  0
   13.7110   41.7890  -11.0040 C   0  0  0  0  0
   12.7510   41.0420   -8.9200 C   0  0  0  0  0
   12.0670   40.3110   -6.7070 C   0  0  0  0  0
    9.4080   38.1850   -1.2390 C   0  0  0  0  0
    9.7280   38.5970    0.2310 C   0  0  0  0  0
    9.2500   36.6570   -1.3680 C   0  0  0  0  0
    8.9790   39.5320   -3.9440 C   0  0  0  0  0
    6.5470   43.5710   -3.6000 C   0  0  0  0  0
   12.6370   37.6500   -6.2420 O   0  0  0  0  0
   11.5760   38.6980   -6.0340 P   0  0  0  0  0
   15.1270   41.3320  -11.4450 C   0  0  0  0  0
   16.5590   40.3450  -13.1470 C   0  0  0  0  0
   15.2960   40.7510  -12.6980 C   0  0  0  0  0
   11.3960   39.1000   -4.3370 N   0  0  0  0  0
   10.1750   38.6650   -3.6470 C   0  0  0  0  0
   10.5110   38.7420   -2.1460 C   0  0  0  0  0
    7.8540   39.0330   -3.9380 O   0  0  0  0  0
    9.2110   40.8460   -4.1230 N   0  0  0  0  0
    8.0940   41.7450   -4.4200 C   0  0  0  0  0
    7.5220   42.4390   -3.1840 C   0  0  0  0  0
    8.5810   43.0160   -2.2060 C   0  0  0  0  0
    8.0600   44.2540   -1.4420 C   0  0  0  0  0
   10.2250   38.2960   -6.6120 O   0  0  0  0  0
   12.7680   40.0880   -7.9690 N   0  0  0  0  0
   12.0460   42.0380   -8.8210 O   0  0  0  0  0
   13.1340   40.7590  -10.1650 O   0  0  0  0  0
   16.1664   42.0012   -9.6816 H   0  0  0  0  0
   18.3996   41.3467  -10.4749 H   0  0  0  0  0
   18.6902   40.2192  -12.7052 H   0  0  0  0  0
   13.0829   41.9492  -11.8803 H   0  0  0  0  0
   13.7788   42.7249  -10.4494 H   0  0  0  0  0
   12.7201   40.8265   -6.0029 H   0  0  0  0  0
   11.1856   40.9303   -6.8735 H   0  0  0  0  0
    8.4524   38.6077   -1.5493 H   0  0  0  0  0
    8.9157   38.2746    0.8824 H   0  0  0  0  0
   10.6577   38.1229    0.5457 H   0  0  0  0  0
    9.8335   39.6804    0.2886 H   0  0  0  0  0
   10.1766   36.1702   -1.0637 H   0  0  0  0  0
    8.4346   36.3219   -0.7270 H   0  0  0  0  0
    9.0275   36.4022   -2.4042 H   0  0  0  0  0
    7.0807   44.3048   -4.2040 H   0  0  0  0  0
    5.7274   43.1477   -4.1806 H   0  0  0  0  0
    6.1500   44.0534   -2.7068 H   0  0  0  0  0
   16.6529   39.8715  -14.1243 H   0  0  0  0  0
   14.4286   40.6091  -13.3426 H   0  0  0  0  0
   12.1196   39.6218   -3.8425 H   0  0  0  0  0
    9.8974   37.6652   -3.9807 H   0  0  0  0  0
   11.4044   38.1399   -1.9805 H   0  0  0  0  0
   10.6397   39.7947   -1.8942 H   0  0  0  0  0
   10.1599   41.2134   -4.0521 H   0  0  0  0  0
    7.2965   41.1428   -4.8552 H   0  0  0  0  0
    8.4679   42.5216   -5.0873 H   0  0  0  0  0
    7.0016   41.6508   -2.6399 H   0  0  0  0  0
    9.4504   43.3195   -2.7893 H   0  0  0  0  0
    8.8226   42.2443   -1.4751 H   0  0  0  0  0
    7.7968   45.0352   -2.1551 H   0  0  0  0  0
    7.1792   43.9776   -0.8624 H   0  0  0  0  0
    8.8378   44.6194   -0.7715 H   0  0  0  0  0
    9.5886   38.9967   -6.4522 H   0  0  0  0  0
   13.2682   39.2137   -8.1295 H   0  0  0  0  0
  1  2  4  0  0  0
 14  1  4  0  0  0
  2  3  4  0  0  0
 15  3  4  0  0  0
  4 14  1  0  0  0
 29  4  1  0  0  0
 27  5  1  0  0  0
  5 28  2  0  0  0
  5 29  1  0  0  0
 13  6  1  0  0  0
  6 27  1  0  0  0
  7  8  1  0  0  0
  7  9  1  0  0  0
 19  7  1  0  0  0
 10 18  1  0  0  0
 10 20  2  0  0  0
 21 10  1  0  0  0
 23 11  1  0  0  0
 13 12  2  0  0  0
 17 13  1  0  0  0
 13 26  1  0  0  0
 14 16  4  0  0  0
 16 15  4  0  0  0
 18 17  1  0  0  0
 18 19  1  0  0  0
 22 21  1  0  0  0
 22 23  1  0  0  0
 23 24  1  0  0  0
 24 25  1  0  0  0
  1 30  1  0  0  0
  2 31  1  0  0  0
  3 32  1  0  0  0
  4 33  1  0  0  0
  4 34  1  0  0  0
  6 35  1  0  0  0
  6 36  1  0  0  0
  7 37  1  0  0  0
  8 38  1  0  0  0
  8 39  1  0  0  0
  8 40  1  0  0  0
  9 41  1  0  0  0
  9 42  1  0  0  0
  9 43  1  0  0  0
 11 44  1  0  0  0
 11 45  1  0  0  0
 11 46  1  0  0  0
 15 47  1  0  0  0
 16 48  1  0  0  0
 17 49  1  0  0  0
 18 50  1  0  0  0
 19 51  1  0  0  0
 19 52  1  0  0  0
 21 53  1  0  0  0
 22 54  1  0  0  0
 22 55  1  0  0  0
 23 56  1  0  0  0
 24 57  1  0  0  0
 24 58  1  0  0  0
 25 59  1  0  0  0
 25 60  1  0  0  0
 25 61  1  0  0  0
 26 62  1  0  0  0
 27 63  1  0  0  0
M  END
$$$$
