2uzv_ligand
  -I-interpret- 

 69 73  0  0  0  0  0  0  0  0999 V2000
   15.8390    7.8210    2.6620 C   0  0  0  0  0
   16.0990    6.5570    3.2560 C   0  0  0  0  0
   17.1640    6.4120    4.1710 C   0  0  0  0  0
   17.9860    7.5360    4.5020 C   0  0  0  0  0
   17.7320    8.8240    3.9050 C   0  0  0  0  0
   16.6610    8.9280    3.0000 C   0  0  0  0  0
   14.7300    8.0470    1.6700 C   0  0  0  0  0
   18.4530   10.0330    4.1220 O   0  0  0  0  0
   13.3670    8.3610    2.2770 C   0  0  0  0  0
   12.3820    8.6650    1.1510 C   0  0  0  0  0
   11.1130    9.0080    1.6850 O   0  0  0  0  0
   12.8660    7.2070    3.0130 N   0  3  0  0  0
   10.1090    9.3610    0.7670 C   0  0  0  0  0
   10.3140    9.6830   -0.6150 C   0  0  0  0  0
    9.2920   10.0160   -1.4290 N   0  0  0  0  0
    8.0170   10.0520   -0.9430 C   0  0  0  0  0
    7.7000    9.7550    0.4060 C   0  0  0  0  0
    8.7860    9.4100    1.2430 C   0  0  0  0  0
    5.1790    9.5660    0.0360 C   0  0  0  0  0
    3.8350    9.5690    0.4860 C   0  0  0  0  0
    3.5590    9.7880    1.8270 C   0  0  0  0  0
    4.6400   10.0180    2.7730 C   0  0  0  0  0
    5.9640   10.0140    2.3130 C   0  0  0  0  0
    6.2750    9.7850    0.9210 C   0  0  0  0  0
    2.4360    9.8550    2.5940 N   0  0  0  0  0
    2.7140   10.0970    3.8830 N   0  0  0  0  0
    4.0270   10.2120    4.0830 C   0  0  0  0  0
    4.6560   10.4840    5.4310 C   0  0  0  0  0
   19.5570   10.0170    5.0160 C   0  0  0  0  0
   20.2370   11.4000    5.1820 C   0  0  0  0  0
   21.5490   11.5040    4.3630 C   0  0  0  0  0
   22.2310   12.8840    4.5410 C   0  0  0  0  0
   21.2700   14.0560    4.2160 C   0  0  0  0  0
   19.9310   13.9550    4.9800 C   0  0  0  0  0
   19.2740   12.5690    4.8040 C   0  0  0  0  0
   15.4758    5.6987    3.0051 H   0  0  0  0  0
   17.3609    5.4416    4.6267 H   0  0  0  0  0
   18.8076    7.4180    5.2084 H   0  0  0  0  0
   16.4541    9.8947    2.5408 H   0  0  0  0  0
   14.6165    7.1178    1.1116 H   0  0  0  0  0
   15.0147    8.9154    1.0760 H   0  0  0  0  0
   13.4683    9.2127    2.9497 H   0  0  0  0  0
   12.2761    7.7806    0.5228 H   0  0  0  0  0
   12.7595    9.5030    0.5650 H   0  0  0  0  0
   11.9548    7.4301    3.4135 H   0  0  0  0  0
   12.7748    6.4138    2.3782 H   0  0  0  0  0
   13.5191    6.9723    3.7606 H   0  0  0  0  0
   11.3258    9.6579   -1.0195 H   0  0  0  0  0
    7.2076   10.3208   -1.6218 H   0  0  0  0  0
    8.5922    9.1747    2.2895 H   0  0  0  0  0
    5.3811    9.3906   -1.0206 H   0  0  0  0  0
    3.0215    9.3998   -0.2195 H   0  0  0  0  0
    6.7754   10.1872    3.0199 H   0  0  0  0  0
    5.3235    9.6626    5.6914 H   0  0  0  0  0
    5.2229   11.4139    5.3850 H   0  0  0  0  0
    3.8735   10.5709    6.1848 H   0  0  0  0  0
   20.3005    9.3330    4.6068 H   0  0  0  0  0
   19.1824    9.7162    5.9944 H   0  0  0  0  0
   20.4889   11.4918    6.2385 H   0  0  0  0  0
   21.3055   11.3758    3.3083 H   0  0  0  0  0
   22.2354   10.7346    4.7166 H   0  0  0  0  0
   23.0758   12.9367    3.8542 H   0  0  0  0  0
   22.5417   12.9778    5.5815 H   0  0  0  0  0
   21.0507   14.0241    3.1488 H   0  0  0  0  0
   21.7583   14.9833    4.5157 H   0  0  0  0  0
   19.2518   14.7092    4.5825 H   0  0  0  0  0
   20.1293   14.1081    6.0408 H   0  0  0  0  0
   18.4090   12.5200    5.4654 H   0  0  0  0  0
   19.0027   12.4558    3.7544 H   0  0  0  0  0
  1  2  4  0  0  0
  1  6  4  0  0  0
  7  1  1  0  0  0
  2  3  4  0  0  0
  3  4  4  0  0  0
  5  4  4  0  0  0
  6  5  4  0  0  0
  5  8  1  0  0  0
  9  7  1  0  0  0
  8 29  1  0  0  0
 10  9  1  0  0  0
  9 12  1  0  0  0
 11 10  1  0  0  0
 13 11  1  0  0  0
 13 14  4  0  0  0
 18 13  4  0  0  0
 15 14  4  0  0  0
 16 15  4  0  0  0
 17 16  4  0  0  0
 17 18  4  0  0  0
 24 17  1  0  0  0
 19 20  4  0  0  0
 19 24  4  0  0  0
 20 21  4  0  0  0
 21 22  4  0  0  0
 21 25  4  0  0  0
 22 23  4  0  0  0
 22 27  4  0  0  0
 23 24  4  0  0  0
 25 26  4  0  0  0
 26 27  4  0  0  0
 27 28  1  0  0  0
 29 30  1  0  0  0
 30 31  1  0  0  0
 30 35  1  0  0  0
 31 32  1  0  0  0
 32 33  1  0  0  0
 33 34  1  0  0  0
 34 35  1  0  0  0
  2 36  1  0  0  0
  3 37  1  0  0  0
  4 38  1  0  0  0
  6 39  1  0  0  0
  7 40  1  0  0  0
  7 41  1  0  0  0
  9 42  1  0  0  0
 10 43  1  0  0  0
 10 44  1  0  0  0
 12 45  1  0  0  0
 12 46  1  0  0  0
 12 47  1  0  0  0
 14 48  1  0  0  0
 16 49  1  0  0  0
 18 50  1  0  0  0
 19 51  1  0  0  0
 20 52  1  0  0  0
 23 53  1  0  0  0
 28 54  1  0  0  0
 28 55  1  0  0  0
 28 56  1  0  0  0
 29 57  1  0  0  0
 29 58  1  0  0  0
 30 59  1  0  0  0
 31 60  1  0  0  0
 31 61  1  0  0  0
 32 62  1  0  0  0
 32 63  1  0  0  0
 33 64  1  0  0  0
 33 65  1  0  0  0
 34 66  1  0  0  0
 34 67  1  0  0  0
 35 68  1  0  0  0
 35 69  1  0  0  0
M  END
$$$$
