2vtp_ligand
  -I-interpret- 

 36 38  0  0  0  0  0  0  0  0999 V2000
   33.2340   10.5830   65.7540 F   0  0  0  0  0
   32.4260    9.5130   65.6500 C   0  0  0  0  0
   32.0540    8.8440   66.8020 C   0  0  0  0  0
   31.2350    7.7410   66.7010 C   0  0  0  0  0
   30.7800    7.3100   65.4460 C   0  0  0  0  0
   29.9150    6.1840   65.3460 N   0  0  0  0  0
   28.6570    6.2390   64.8540 C   0  0  0  0  0
   28.1460    7.2840   64.4760 O   0  0  0  0  0
   27.9360    4.9630   64.7090 C   0  0  0  0  0
   28.2450    3.8760   65.3680 N   0  0  0  0  0
   27.3670    2.9370   64.9340 N   0  0  0  0  0
   26.5290    3.4120   64.0370 C   0  0  0  0  0
   26.8610    4.7170   63.8500 C   0  0  0  0  0
   26.3230    5.6650   62.9980 N   0  0  0  0  0
   25.3590    5.4440   62.0910 C   0  0  0  0  0
   24.8160    4.3350   61.9680 O   0  0  0  0  0
   24.9340    6.6420   61.2760 C   0  0  0  0  0
   23.6620    7.2140   61.4280 C   0  0  0  0  0
   22.8030    6.6410   62.2940 F   0  0  0  0  0
   23.2730    8.3500   60.7090 C   0  0  0  0  0
   24.1670    8.9450   59.8200 C   0  0  0  0  0
   25.4390    8.4030   59.6460 C   0  0  0  0  0
   25.8140    7.2760   60.3750 C   0  0  0  0  0
   27.0490    6.7750   60.2190 F   0  0  0  0  0
   31.1590    8.0160   64.2930 C   0  0  0  0  0
   31.9900    9.1160   64.3970 C   0  0  0  0  0
   32.4041    9.1849   67.7764 H   0  0  0  0  0
   30.9392    7.2007   67.6003 H   0  0  0  0  0
   30.2656    5.2808   65.6649 H   0  0  0  0  0
   25.7263    2.8661   63.5413 H   0  0  0  0  0
   26.6909    6.6140   63.0651 H   0  0  0  0  0
   22.2753    8.7678   60.8435 H   0  0  0  0  0
   23.8714    9.8332   59.2616 H   0  0  0  0  0
   26.1370    8.8582   58.9434 H   0  0  0  0  0
   30.7979    7.6966   63.3154 H   0  0  0  0  0
   32.2975    9.6628   63.5057 H   0  0  0  0  0
  1  2  1  0  0  0
  2  3  4  0  0  0
  2 26  4  0  0  0
  3  4  4  0  0  0
  4  5  4  0  0  0
  5  6  1  0  0  0
  5 25  4  0  0  0
  6  7  1  0  0  0
  7  8  2  0  0  0
  7  9  1  0  0  0
  9 10  4  0  0  0
  9 13  4  0  0  0
 10 11  4  0  0  0
 11 12  4  0  0  0
 12 13  4  0  0  0
 13 14  1  0  0  0
 14 15  1  0  0  0
 15 16  2  0  0  0
 15 17  1  0  0  0
 17 18  4  0  0  0
 17 23  4  0  0  0
 18 19  1  0  0  0
 18 20  4  0  0  0
 20 21  4  0  0  0
 21 22  4  0  0  0
 22 23  4  0  0  0
 23 24  1  0  0  0
 25 26  4  0  0  0
  3 27  1  0  0  0
  4 28  1  0  0  0
  6 29  1  0  0  0
 12 30  1  0  0  0
 14 31  1  0  0  0
 20 32  1  0  0  0
 21 33  1  0  0  0
 22 34  1  0  0  0
 25 35  1  0  0  0
 26 36  1  0  0  0
M  END
$$$$
