6rmf_ligand

Created by X-TOOL on Mon Aug  2 16:17:19 2021
 51 52  0  0  0  0  0  0  0  0999 V2000
   30.3590    1.3400   18.5230  C 0  0  0  2  0  3
   29.9550    0.9980   17.1960  C 0  0  0  2  0  3
   30.7640    3.5630   12.4440  C 0  0  0  3  0  4
   30.6530    4.5370   11.2500  C 0  0  0  2  0  4
   29.7590    5.7050   11.6870  C 0  0  0  3  0  4
   29.6870    6.7360   10.6250  C 0  0  0  3  0  4
   31.0200    7.4560   10.5340  C 0  0  0  3  0  4
   26.7590    3.4260   15.5060  B 0  0  0  1  0  3
   29.4960    2.9250   12.7940  C 0  0  0  1  0  3
   27.7070    2.4620   14.4970  C 0  0  0  3  0  5
   27.9060    2.2730   17.4290  C 0  0  0  1  0  3
   28.2730    2.6340   18.7590  C 0  0  0  1  0  3
   27.3580    3.5330   19.5610  C 0  5  0  1  0  3
   29.4830    2.1810   19.3030  C 0  0  0  2  0  3
   28.7040    1.4680   16.6550  C 0  0  0  1  0  3
   28.1650    1.1800   15.2560  C 0  0  0  3  0  4
   32.0630    6.4100    9.9800  C 0  0  0  3  0  4
   32.0760    5.0500   10.7560  C 0  0  0  3  0  4
   28.9270    3.0920   14.0780  N 0  0  0  2  0  3
   28.9300    2.2760   11.9130  O 0  0  0  1  0  1
   25.4190    3.6460   15.0650  O 0  0  0  3  0  3
   27.4100    4.6880   15.7170  O 0  0  0  3  0  3
   26.7060    2.7190   16.8670  O 0  0  0  2  0  2
   27.8200    4.3780   20.4350  O 0  0  0  1  0  1
   26.0680    3.5620   19.4030  O 0  0  0  1  0  1
   31.2956    0.9786   18.9319  H 0  0  0  1  0  1
   30.5994    0.3752   16.5861  H 0  0  0  1  0  1
   31.1250    4.1237   13.3188  H 0  0  0  1  0  1
   31.4899    2.7776   12.1867  H 0  0  0  1  0  1
   30.1709    4.0137   10.4111  H 0  0  0  1  0  1
   30.1748    6.1559   12.6002  H 0  0  0  1  0  1
   28.7465    5.3274   11.8927  H 0  0  0  1  0  1
   28.8946    7.4592   10.8680  H 0  0  0  1  0  1
   29.4622    6.2558    9.6612  H 0  0  0  1  0  1
   31.3290    7.8089   11.5289  H 0  0  0  1  0  1
   30.9421    8.3130    9.8488  H 0  0  0  1  0  1
   27.1371    3.1253   15.1643  H 0  0  0  1  0  1
   27.0882    2.1976   13.6269  H 0  0  0  1  0  1
   29.7614    2.4631   20.3120  H 0  0  0  1  0  1
   28.9575    0.6915   14.6701  H 0  0  0  1  0  1
   27.3042    0.5011   15.3462  H 0  0  0  1  0  1
   33.0669    6.8549   10.0454  H 0  0  0  1  0  1
   31.8207    6.2048    8.9268  H 0  0  0  1  0  1
   32.5021    4.2836   10.0919  H 0  0  0  1  0  1
   32.7203    5.1688   11.6396  H 0  0  0  1  0  1
   29.4014    3.6824   14.7310  H 0  0  0  1  0  1
   24.9910    2.8093   14.9263  H 0  0  0  1  0  1
   24.9911    2.8093   14.9263  H 0  0  0  1  0  1
   26.9367    5.1807   16.3772  H 0  0  0  1  0  1
   26.9368    5.1807   16.3771  H 0  0  0  1  0  1
   26.8927    3.2248   16.0848  H 0  0  0  1  0  1
  2  1  4  0  0  1
  1 14  4  0  0  1
 15  2  4  0  0  1
  3  4  1  0  0  2
  9  3  1  0  0  2
  4  5  1  0  0  1
  4 18  1  0  0  1
  5  6  1  0  0  1
  6  7  1  0  0  1
  7 17  1  0  0  1
 10  8  1  0  0  2
  8 21  1  0  0  2
  8 22  1  0  0  2
 19  9  1  0  0  2
  9 20  2  0  0  2
 16 10  1  0  0  2
 10 19  1  0  0  2
 11 12  4  0  0  1
 15 11  4  0  0  1
 11 23  1  0  0  2
 12 13  1  0  0  2
 12 14  4  0  0  1
 13 24  2  0  0  2
 13 25  2  0  0  2
 15 16  1  0  0  2
 17 18  1  0  0  1
  1 26  1  0  0  2
  2 27  1  0  0  2
  3 28  1  0  0  2
  3 29  1  0  0  2
  4 30  1  0  0  2
  5 31  1  0  0  2
  5 32  1  0  0  2
  6 33  1  0  0  2
  6 34  1  0  0  2
  7 35  1  0  0  2
  7 36  1  0  0  2
 10 37  1  0  0  2
 10 38  1  0  0  2
 14 39  1  0  0  2
 16 40  1  0  0  2
 16 41  1  0  0  2
 17 42  1  0  0  2
 17 43  1  0  0  2
 18 44  1  0  0  2
 18 45  1  0  0  2
 19 46  1  0  0  2
 21 47  1  0  0  2
 21 48  1  0  0  2
 22 49  1  0  0  2
 22 50  1  0  0  2
 23 51  1  0  0  2
M  END
> <MOLECULAR_FORMULA>
C17H26NO6B

> <MOLECULAR_WEIGHT>
351.0

> <NUM_HB_ATOMS>
7  

> <NUM_ROTOR>
6  

> <XLOGP2>
2.91 

$$$$
