#	Name:			6rmf_ligand
#	Creating user name:	wangrx
#	Creation time:		Thu Aug  5 18:07:39 2021

#	Modifying user name:	wangrx
#	Modification time:	Thu Aug  5 18:08:15 2021

@<TRIPOS>MOLECULE
6rmf_ligand
   49    51     1     0     0
SMALL
GAST_HUCK


@<TRIPOS>ATOM
      1 C15        30.3590    1.3400   18.5230 C.ar      1 K9B        -0.1672 
      2 C16        29.9550    0.9980   17.1960 C.ar      1 K9B        -0.1745 
      3 C19        30.7640    3.5630   12.4440 C.3       1 K9B         0.0376 
      4 C20        30.6530    4.5370   11.2500 C.3       1 K9B        -0.0242 
      5 C21        29.7590    5.7050   11.6870 C.3       1 K9B        -0.0481 
      6 C22        29.6870    6.7360   10.6250 C.3       1 K9B        -0.0527 
      7 C23        31.0200    7.4560   10.5340 C.3       1 K9B        -0.0530 
      8 B05        26.7590    3.4260   15.5060 B         1 K9B         3.0000 
      9 C02        29.4960    2.9250   12.7940 C.2       1 K9B         0.1481 
     10 C04        27.7070    2.4620   14.4970 C.3       1 K9B        -0.2225 
     11 C09        27.9060    2.2730   17.4290 C.ar      1 K9B         0.0514 
     12 C10        28.2730    2.6340   18.7590 C.ar      1 K9B        -0.0834 
     13 C11        27.3580    3.5330   19.5610 C.2       1 K9B        -0.0182 
     14 C14        29.4830    2.1810   19.3030 C.ar      1 K9B        -0.1625 
     15 C17        28.7040    1.4680   16.6550 C.ar      1 K9B        -0.1337 
     16 C18        28.1650    1.1800   15.2560 C.3       1 K9B        -0.1581 
     17 C28        32.0630    6.4100    9.9800 C.3       1 K9B        -0.0527 
     18 C29        32.0760    5.0500   10.7560 C.3       1 K9B        -0.0481 
     19 N03        28.9270    3.0920   14.0780 N.am      1 K9B        -0.4370 
     20 O01        28.9300    2.2760   11.9130 O.2       1 K9B        -0.3996 
     21 O06        25.4190    3.6460   15.0650 O.3       1 K9B        -0.4105 
     22 O07        27.4100    4.6880   15.7170 O.3       1 K9B        -0.4105 
     23 O08        26.7060    2.7190   16.8670 O.3       1 K9B        -0.1792 
     24 O12        27.8200    4.3780   20.4350 O.co2     1 K9B        -0.5976 
     25 O13        26.0680    3.5620   19.4030 O.co2     1 K9B        -0.5976 
     26 H1         31.2956    0.9786   18.9319 H         1 K9B         0.0254 
     27 H2         30.5994    0.3752   16.5861 H         1 K9B        -0.0243 
     28 H3         31.1250    4.1237   13.3188 H         1 K9B         0.0504 
     29 H4         31.4899    2.7776   12.1867 H         1 K9B         0.0504 
     30 H5         30.1709    4.0137   10.4111 H         1 K9B         0.0325 
     31 H6         30.1748    6.1559   12.6002 H         1 K9B         0.0269 
     32 H7         28.7465    5.3274   11.8927 H         1 K9B         0.0269 
     33 H8         28.8946    7.4592   10.8680 H         1 K9B         0.0265 
     34 H9         29.4622    6.2558    9.6612 H         1 K9B         0.0265 
     35 H10        31.3290    7.8089   11.5289 H         1 K9B         0.0265 
     36 H11        30.9421    8.3130    9.8488 H         1 K9B         0.0265 
     37 H13        27.0882    2.1976   13.6269 H         1 K9B        -0.1809 
     38 H14        29.7614    2.4631   20.3120 H         1 K9B         0.0065 
     39 H15        28.9575    0.6915   14.6701 H         1 K9B        -0.0002 
     40 H16        27.3042    0.5011   15.3462 H         1 K9B        -0.0002 
     41 H17        33.0669    6.8549   10.0454 H         1 K9B         0.0265 
     42 H18        31.8207    6.2048    8.9268 H         1 K9B         0.0265 
     43 H19        32.5021    4.2836   10.0919 H         1 K9B         0.0269 
     44 H20        32.7203    5.1688   11.6396 H         1 K9B         0.0269 
     45 H21        29.4014    3.6824   14.7310 H         1 K9B         0.1460 
     46 H22        24.9910    2.8093   14.9263 H         1 K9B         0.2052 
     47 H23        24.9911    2.8093   14.9263 H         1 K9B         0.2052 
     48 H24        26.9367    5.1807   16.3772 H         1 K9B         0.2052 
     49 H25        26.9368    5.1807   16.3771 H         1 K9B         0.2052 
@<TRIPOS>BOND
     1    2    1 ar   
     2    1   14 ar   
     3   15    2 ar   
     4    3    4 1    
     5    9    3 1    
     6    4    5 1    
     7    4   18 1    
     8    5    6 1    
     9    6    7 1    
    10    7   17 1    
    11   10    8 1    
    12    8   21 1    
    13    8   22 1    
    14   19    9 am   
    15    9   20 2    
    16   16   10 1    
    17   10   19 1    
    18   11   12 ar   
    19   15   11 ar   
    20   11   23 1    
    21   12   13 1    
    22   12   14 ar   
    23   13   24 ar   
    24   13   25 ar   
    25   15   16 1    
    26   17   18 1    
    27    1   26 1    
    28    2   27 1    
    29    3   28 1    
    30    3   29 1    
    31    4   30 1    
    32    5   31 1    
    33    5   32 1    
    34    6   33 1    
    35    6   34 1    
    36    7   35 1    
    37    7   36 1    
    38    8   23 1    
    39   10   37 1    
    40   14   38 1    
    41   16   39 1    
    42   16   40 1    
    43   17   41 1    
    44   17   42 1    
    45   18   43 1    
    46   18   44 1    
    47   19   45 1    
    48   21   46 1    
    49   21   47 1    
    50   22   48 1    
    51   22   49 1    
@<TRIPOS>SUBSTRUCTURE
     1 K9B         1 PERM              0 ****  ****    0 ROOT 
