### 
### Created by X-TOOL on Mon Sep 10 21:13:23 2018
### 

@<TRIPOS>MOLECULE
4x14_ligand
  129   133     1     0     0
SMALL
GAST_HUCK


@<TRIPOS>ATOM
      1 C1          4.1310    1.5440   17.9410 C.2       1 SIA         0.1041
      2 C2          2.8990    0.9350   18.5980 C.3       1 SIA         0.2208
      3 C3          2.9920   -0.5990   18.6660 C.3       1 SIA         0.0353
      4 C4          4.0040   -1.0620   19.7310 C.3       1 SIA         0.0850
      5 C5          3.7590   -0.3620   21.0780 C.3       1 SIA         0.0964
      6 C6          3.7590    1.1470   20.8590 C.3       1 SIA         0.1143
      7 C7          3.5340    1.9620   22.1230 C.3       1 SIA         0.1114
      8 C8          3.2990    3.4360   21.8070 C.3       1 SIA         0.1065
      9 C9          3.3260    4.2530   23.0970 C.3       1 SIA         0.0727
     10 C10         4.5240   -0.9400   23.3350 C.2       1 SIA         0.1733
     11 C11         5.7010   -1.3570   24.1720 C.3       1 SIA         0.0257
     12 N5          4.7830   -0.7430   22.0410 N.am      1 SIA        -0.2790
     13 O1A         4.8640    0.8440   17.1830 O.co2     1 SIA        -0.5426
     14 O1B         4.3640    2.7600   18.1690 O.co2     1 SIA        -0.5426
     15 O4          3.9440   -2.4830   19.8860 O.3       1 SIA        -0.3893
     16 O6          2.7430    1.4740   19.9180 O.3       1 SIA        -0.3384
     17 O7          2.4220    1.4830   22.8690 O.3       1 SIA        -0.3865
     18 O8          4.2830    3.9260   20.8610 O.3       1 SIA        -0.3869
     19 O9          3.6110    5.6210   22.7920 O.3       1 SIA        -0.3924
     20 O10         3.4050   -0.7910   23.8160 O.2       1 SIA        -0.3974
     21 C1         -1.7800    0.6720   17.1480 C.3       1 GAL         0.1884
     22 C2         -0.2710    0.6570   16.9480 C.3       1 GAL         0.1344
     23 C3          0.5080    1.1760   18.1660 C.3       1 GAL         0.1200
     24 C4         -0.0740    2.4980   18.6420 C.3       1 GAL         0.1186
     25 C5         -1.5710    2.3340   18.8630 C.3       1 GAL         0.1134
     26 C6         -2.1750    3.6590   19.3040 C.3       1 GAL         0.0730
     27 O2          0.1390   -0.6510   16.6010 O.3       1 GAL        -0.3841
     28 O3          1.8380    1.3720   17.7360 O.3       1 GAL        -0.3380
     29 O4          0.1100    3.4760   17.6420 O.3       1 GAL        -0.3404
     30 O5         -2.2240    1.9130   17.6760 O.3       1 GAL        -0.3405
     31 O6         -3.3950    3.3920   19.9460 O.3       1 GAL        -0.3924
     32 C1          1.0970    4.4270   17.9940 C.3       1 NGA         0.1854
     33 C2          1.7020    5.0580   16.7400 C.3       1 NGA         0.1213
     34 C3          2.7230    6.1210   17.1680 C.3       1 NGA         0.1176
     35 C4          2.0280    7.0920   18.1250 C.3       1 NGA         0.1120
     36 C5          1.5080    6.3200   19.3350 C.3       1 NGA         0.1130
     37 C6          0.9830    7.2830   20.4080 C.3       1 NGA         0.0730
     38 C7          1.7860    3.3710   14.9220 C.2       1 NGA         0.1733
     39 C8          2.6240    2.3230   14.2410 C.3       1 NGA         0.0257
     40 N2          2.3520    4.0170   15.9560 N.am      1 NGA        -0.2766
     41 O3          3.3630    6.8270   16.0710 O.3       1 NGA        -0.3403
     42 O4          0.9510    7.7720   17.4600 O.3       1 NGA        -0.3865
     43 O5          0.5240    5.3840   18.8700 O.3       1 NGA        -0.3408
     44 O6         -0.2120    6.7760   21.0100 O.3       1 NGA        -0.3924
     45 O7          0.6560    3.6010   14.5360 O.2       1 NGA        -0.3974
     46 C1          4.6050    7.4150   16.5210 C.3       1 GAL         0.1884
     47 C2          5.4370    7.9210   15.3570 C.3       1 GAL         0.1341
     48 C3          6.7120    8.5870   15.8590 C.3       1 GAL         0.1141
     49 C4          6.3980    9.6160   16.9420 C.3       1 GAL         0.1119
     50 C5          5.5100    9.0080   18.0310 C.3       1 GAL         0.1130
     51 C6          5.0690   10.0090   19.1110 C.3       1 GAL         0.0730
     52 O2          5.7690    6.8430   14.5180 O.3       1 GAL        -0.3841
     53 O3          7.3230    9.2400   14.7720 O.3       1 GAL        -0.3864
     54 O4          5.7470   10.7220   16.3400 O.3       1 GAL        -0.3865
     55 O5          4.3630    8.4950   17.3970 O.3       1 GAL        -0.3405
     56 O6          4.1250    9.4980   20.0310 O.3       1 GAL        -0.3924
     57 C2         -6.0210    1.0020   15.2350 C.3       1 BGC         0.1339
     58 C3         -4.5460    1.3510   15.3120 C.3       1 BGC         0.1144
     59 C4         -3.7700    0.1800   15.9130 C.3       1 BGC         0.1184
     60 C5         -4.0630   -1.1070   15.1440 C.3       1 BGC         0.1134
     61 C6         -3.3850   -2.3040   15.8010 C.3       1 BGC         0.0730
     62 C1         -6.2160   -0.3060   14.4820 C.3       1 BGC         0.1854
     63 O1         -7.6030   -0.6410   14.5340 O.3       1 BGC        -0.3649
     64 O2         -6.7270    2.0590   14.5800 O.3       1 BGC        -0.3841
     65 O3         -4.4120    2.5380   16.1000 O.3       1 BGC        -0.3864
     66 O4         -2.3520    0.4200   15.8510 O.3       1 BGC        -0.3401
     67 O5         -5.4690   -1.3510   15.1020 O.3       1 BGC        -0.3407
     68 O6         -3.7790   -2.3530   17.1780 O.3       1 BGC        -0.3924
     69 H1          3.3082   -0.9808   17.6841 H         1 SIA         0.0336
     70 H2          2.0008   -1.0055   18.9157 H         1 SIA         0.0336
     71 H3          5.0131   -0.7940   19.3848 H         1 SIA         0.0618
     72 H4          2.7768   -0.6671   21.4681 H         1 SIA         0.0608
     73 H5          4.7376    1.4290   20.4433 H         1 SIA         0.0646
     74 H6          4.4366    1.8763   22.7459 H         1 SIA         0.0647
     75 H7          2.3033    3.5394   21.3512 H         1 SIA         0.0643
     76 H8          4.1049    3.8569   23.7651 H         1 SIA         0.0584
     77 H9          2.3471    4.1850   23.5941 H         1 SIA         0.0584
     78 H10         5.3796   -1.4916   25.2154 H         1 SIA         0.0467
     79 H11         6.4780   -0.5798   24.1251 H         1 SIA         0.0467
     80 H12         6.1066   -2.3047   23.7881 H         1 SIA         0.0467
     81 H13         5.7219   -0.8623   21.7181 H         1 SIA         0.1856
     82 H14         3.0857   -2.7291   20.2105 H         1 SIA         0.2099
     83 H15         2.5520    0.5647   23.0747 H         1 SIA         0.2100
     84 H16         4.2469    3.4030   20.0687 H         1 SIA         0.2100
     85 H17         4.4566    5.6791   22.3629 H         1 SIA         0.2095
     86 H18        -2.0696   -0.1293   17.8437 H         1 SIA         0.0938
     87 H19        -0.0395    1.3230   16.1037 H         1 SIA         0.0671
     88 H20         0.4728    0.4404   18.9831 H         1 SIA         0.0650
     89 H21         0.4172    2.8107   19.5752 H         1 SIA         0.0651
     90 H22        -1.7329    1.5806   19.6480 H         1 SIA         0.0647
     91 H23        -2.3481    4.2998   18.4269 H         1 SIA         0.0584
     92 H24        -1.4912    4.1669   20.0000 H         1 SIA         0.0584
     93 H25        -0.3569   -0.9475   15.8469 H         1 SIA         0.2101
     94 H26        -3.7880    4.2092   20.2292 H         1 SIA         0.2095
     95 H27         1.9045    3.9105   18.5336 H         1 SIA         0.0935
     96 H28         0.9099    5.5293   16.1397 H         1 SIA         0.0633
     97 H29         3.5209    5.6063   17.7232 H         1 SIA         0.0649
     98 H30         2.7586    7.8401   18.4665 H         1 SIA         0.0647
     99 H31         2.3400    5.7517   19.7763 H         1 SIA         0.0647
    100 H32         0.7669    8.2564   19.9434 H         1 SIA         0.0584
    101 H33         1.7514    7.4099   21.1848 H         1 SIA         0.0584
    102 H34         2.0499    1.8723   13.4180 H         1 SIA         0.0467
    103 H35         2.8975    1.5433   14.9671 H         1 SIA         0.0467
    104 H36         3.5371    2.7872   13.8400 H         1 SIA         0.0467
    105 H37         3.2870    3.7645   16.2049 H         1 SIA         0.1857
    106 H38         0.3088    7.1358   17.1678 H         1 SIA         0.2100
    107 H39        -0.8800    6.6680   20.3432 H         1 SIA         0.2095
    108 H40         5.1777    6.6434   17.0564 H         1 SIA         0.0938
    109 H41         4.8488    8.6560   14.7879 H         1 SIA         0.0671
    110 H42         7.3902    7.8230   16.2668 H         1 SIA         0.0648
    111 H43         7.3388    9.9548   17.4003 H         1 SIA         0.0647
    112 H44         6.0615    8.1911   18.5194 H         1 SIA         0.0647
    113 H45         4.6238   10.8813   18.6102 H         1 SIA         0.0584
    114 H46         5.9608   10.3241   19.6726 H         1 SIA         0.0584
    115 H47         6.2721    7.1623   13.7781 H         1 SIA         0.2101
    116 H48         6.7322    9.8993   14.4273 H         1 SIA         0.2100
    117 H49         6.3074   11.0900   15.6669 H         1 SIA         0.2100
    118 H50         4.4972    8.7493   20.4820 H         1 SIA         0.2095
    119 H51        -6.4152    0.8865   16.2554 H         1 SIA         0.0671
    120 H52        -4.1621    1.5467   14.2999 H         1 SIA         0.0648
    121 H53        -4.0727    0.0552   16.9631 H         1 SIA         0.0651
    122 H54        -3.6838   -0.9982   14.1172 H         1 SIA         0.0647
    123 H55        -2.2926   -2.1954   15.7317 H         1 SIA         0.0584
    124 H56        -3.6944   -3.2298   15.2938 H         1 SIA         0.0584
    125 H57        -5.8926   -0.1880   13.4373 H         1 SIA         0.0935
    126 H58        -8.1100    0.0494   14.1232 H         1 SIA         0.2126
    127 H59        -6.5976    2.8691   15.0590 H         1 SIA         0.2101
    128 H60        -3.4951    2.7816   16.1502 H         1 SIA         0.2100
    129 H61        -4.7230   -2.4447   17.2331 H         1 SIA         0.2095
@<TRIPOS>BOND
     1    2    1 1  
     2    1   13 ar 
     3    1   14 ar 
     4    2    3 1  
     5    2   16 1  
     6   28    2 1  
     7    3    4 1  
     8    4    5 1  
     9    4   15 1  
    10    6    5 1  
    11    5   12 1  
    12    6    7 1  
    13   16    6 1  
    14    7    8 1  
    15    7   17 1  
    16    8    9 1  
    17    8   18 1  
    18    9   19 1  
    19   10   11 1  
    20   12   10 am 
    21   10   20 2  
    22   21   22 1  
    23   21   30 1  
    24   66   21 1  
    25   22   23 1  
    26   22   27 1  
    27   23   24 1  
    28   23   28 1  
    29   25   24 1  
    30   24   29 1  
    31   25   26 1  
    32   30   25 1  
    33   26   31 1  
    34   29   32 1  
    35   32   33 1  
    36   32   43 1  
    37   33   34 1  
    38   33   40 1  
    39   34   35 1  
    40   34   41 1  
    41   36   35 1  
    42   35   42 1  
    43   36   37 1  
    44   43   36 1  
    45   37   44 1  
    46   38   39 1  
    47   40   38 am 
    48   38   45 2  
    49   41   46 1  
    50   46   47 1  
    51   46   55 1  
    52   47   48 1  
    53   47   52 1  
    54   48   49 1  
    55   48   53 1  
    56   50   49 1  
    57   49   54 1  
    58   50   51 1  
    59   55   50 1  
    60   51   56 1  
    61   58   57 1  
    62   57   62 1  
    63   57   64 1  
    64   59   58 1  
    65   58   65 1  
    66   59   60 1  
    67   59   66 1  
    68   60   61 1  
    69   60   67 1  
    70   61   68 1  
    71   62   63 1  
    72   62   67 1  
    73    3   69 1  
    74    3   70 1  
    75    4   71 1  
    76    5   72 1  
    77    6   73 1  
    78    7   74 1  
    79    8   75 1  
    80    9   76 1  
    81    9   77 1  
    82   11   78 1  
    83   11   79 1  
    84   11   80 1  
    85   12   81 1  
    86   15   82 1  
    87   17   83 1  
    88   18   84 1  
    89   19   85 1  
    90   21   86 1  
    91   22   87 1  
    92   23   88 1  
    93   24   89 1  
    94   25   90 1  
    95   26   91 1  
    96   26   92 1  
    97   27   93 1  
    98   31   94 1  
    99   32   95 1  
   100   33   96 1  
   101   34   97 1  
   102   35   98 1  
   103   36   99 1  
   104   37  100 1  
   105   37  101 1  
   106   39  102 1  
   107   39  103 1  
   108   39  104 1  
   109   40  105 1  
   110   42  106 1  
   111   44  107 1  
   112   46  108 1  
   113   47  109 1  
   114   48  110 1  
   115   49  111 1  
   116   50  112 1  
   117   51  113 1  
   118   51  114 1  
   119   52  115 1  
   120   53  116 1  
   121   54  117 1  
   122   56  118 1  
   123   57  119 1  
   124   58  120 1  
   125   59  121 1  
   126   60  122 1  
   127   61  123 1  
   128   61  124 1  
   129   62  125 1  
   130   63  126 1  
   131   64  127 1  
   132   65  128 1  
   133   68  129 1  
@<TRIPOS>SUBSTRUCTURE
     1 SIA         1

