4x14_ligand
  -I-interpret- 

130134  0  0  0  0  0  0  0  0999 V2000
    4.1310    1.5440   17.9410 C   0  0  0  0  0
    2.8990    0.9350   18.5980 C   0  0  0  0  0
    2.9920   -0.5990   18.6660 C   0  0  0  0  0
    4.0040   -1.0620   19.7310 C   0  0  0  0  0
    3.7590   -0.3620   21.0780 C   0  0  0  0  0
    3.7590    1.1470   20.8590 C   0  0  0  0  0
    3.5340    1.9620   22.1230 C   0  0  0  0  0
    3.2990    3.4360   21.8070 C   0  0  0  0  0
    3.3260    4.2530   23.0970 C   0  0  0  0  0
    4.5240   -0.9400   23.3350 C   0  0  0  0  0
    5.7010   -1.3570   24.1720 C   0  0  0  0  0
    4.7830   -0.7430   22.0410 N   0  0  0  0  0
    4.8640    0.8440   17.1830 O   0  0  0  0  0
    4.3640    2.7600   18.1690 O   0  0  0  0  0
    3.9440   -2.4830   19.8860 O   0  0  0  0  0
    2.7430    1.4740   19.9180 O   0  0  0  0  0
    2.4220    1.4830   22.8690 O   0  0  0  0  0
    4.2830    3.9260   20.8610 O   0  0  0  0  0
    3.6110    5.6210   22.7920 O   0  0  0  0  0
    3.4050   -0.7910   23.8160 O   0  0  0  0  0
   -1.7800    0.6720   17.1480 C   0  0  0  0  0
   -0.2710    0.6570   16.9480 C   0  0  0  0  0
    0.5080    1.1760   18.1660 C   0  0  0  0  0
   -0.0740    2.4980   18.6420 C   0  0  0  0  0
   -1.5710    2.3340   18.8630 C   0  0  0  0  0
   -2.1750    3.6590   19.3040 C   0  0  0  0  0
    0.1390   -0.6510   16.6010 O   0  0  0  0  0
    1.8380    1.3720   17.7360 O   0  0  0  0  0
    0.1100    3.4760   17.6420 O   0  0  0  0  0
   -2.2240    1.9130   17.6760 O   0  0  0  0  0
   -3.3950    3.3920   19.9460 O   0  0  0  0  0
    1.0970    4.4270   17.9940 C   0  0  0  0  0
    1.7020    5.0580   16.7400 C   0  0  0  0  0
    2.7230    6.1210   17.1680 C   0  0  0  0  0
    2.0280    7.0920   18.1250 C   0  0  0  0  0
    1.5080    6.3200   19.3350 C   0  0  0  0  0
    0.9830    7.2830   20.4080 C   0  0  0  0  0
    1.7860    3.3710   14.9220 C   0  0  0  0  0
    2.6240    2.3230   14.2410 C   0  0  0  0  0
    2.3520    4.0170   15.9560 N   0  0  0  0  0
    3.3630    6.8270   16.0710 O   0  0  0  0  0
    0.9510    7.7720   17.4600 O   0  0  0  0  0
    0.5240    5.3840   18.8700 O   0  0  0  0  0
   -0.2120    6.7760   21.0100 O   0  0  0  0  0
    0.6560    3.6010   14.5360 O   0  0  0  0  0
    4.6050    7.4150   16.5210 C   0  0  0  0  0
    5.4370    7.9210   15.3570 C   0  0  0  0  0
    6.7120    8.5870   15.8590 C   0  0  0  0  0
    6.3980    9.6160   16.9420 C   0  0  0  0  0
    5.5100    9.0080   18.0310 C   0  0  0  0  0
    5.0690   10.0090   19.1110 C   0  0  0  0  0
    5.7690    6.8430   14.5180 O   0  0  0  0  0
    7.3230    9.2400   14.7720 O   0  0  0  0  0
    5.7470   10.7220   16.3400 O   0  0  0  0  0
    4.3630    8.4950   17.3970 O   0  0  0  0  0
    4.1250    9.4980   20.0310 O   0  0  0  0  0
   -6.0210    1.0020   15.2350 C   0  0  0  0  0
   -4.5460    1.3510   15.3120 C   0  0  0  0  0
   -3.7700    0.1800   15.9130 C   0  0  0  0  0
   -4.0630   -1.1070   15.1440 C   0  0  0  0  0
   -3.3850   -2.3040   15.8010 C   0  0  0  0  0
   -6.2160   -0.3060   14.4820 C   0  0  0  0  0
   -7.6030   -0.6410   14.5340 O   0  0  0  0  0
   -6.7270    2.0590   14.5800 O   0  0  0  0  0
   -4.4120    2.5380   16.1000 O   0  0  0  0  0
   -2.3520    0.4200   15.8510 O   0  0  0  0  0
   -5.4690   -1.3510   15.1020 O   0  0  0  0  0
   -3.7790   -2.3530   17.1780 O   0  0  0  0  0
    3.3235   -0.9663   17.6947 H   0  0  0  0  0
    2.0103   -0.9910   18.9318 H   0  0  0  0  0
    5.0019   -0.7859   19.3904 H   0  0  0  0  0
    2.7928   -0.6676   21.4795 H   0  0  0  0  0
    4.7541    1.4055   20.4971 H   0  0  0  0  0
    4.4426    1.8543   22.7154 H   0  0  0  0  0
    2.3173    3.5437   21.3457 H   0  0  0  0  0
    4.0985    3.8606   23.7583 H   0  0  0  0  0
    2.3556    4.1859   23.5888 H   0  0  0  0  0
    5.8682   -0.6178   24.9554 H   0  0  0  0  0
    5.4980   -2.3279   24.6240 H   0  0  0  0  0
    6.5873   -1.4266   23.5413 H   0  0  0  0  0
    5.7407   -0.8646   21.7116 H   0  0  0  0  0
    4.5177   -0.0504   17.1417 H   0  0  0  0  0
    4.0989   -2.9032   19.0369 H   0  0  0  0  0
    2.5534    0.5550   23.0769 H   0  0  0  0  0
    4.1152    4.8533   20.6780 H   0  0  0  0  0
    3.6274    6.1321   23.6045 H   0  0  0  0  0
   -2.0881   -0.0829   17.8714 H   0  0  0  0  0
   -0.0389    1.3469   16.1367 H   0  0  0  0  0
    0.4526    0.4689   18.9937 H   0  0  0  0  0
    0.4216    2.7970   19.5656 H   0  0  0  0  0
   -1.7115    1.5754   19.6330 H   0  0  0  0  0
   -2.3390    4.3026   18.4397 H   0  0  0  0  0
   -1.4967    4.1719   19.9859 H   0  0  0  0  0
    1.0905   -0.6638   16.4741 H   0  0  0  0  0
   -3.7922    4.2178   20.2321 H   0  0  0  0  0
    1.9196    3.9427   18.5202 H   0  0  0  0  0
    0.9280    5.5284   16.1335 H   0  0  0  0  0
    3.5449    5.6032   17.6624 H   0  0  0  0  0
    2.7443    7.8432   18.4579 H   0  0  0  0  0
    2.3073    5.7601   19.8204 H   0  0  0  0  0
    0.7595    8.2413   19.9392 H   0  0  0  0  0
    1.7439    7.3950   21.1804 H   0  0  0  0  0
    2.1233    1.3573   14.3109 H   0  0  0  0  0
    2.7562    2.5901   13.1925 H   0  0  0  0  0
    3.5974    2.2650   14.7280 H   0  0  0  0  0
    3.3057    3.7595   16.2099 H   0  0  0  0  0
    0.5274    8.3758   18.0745 H   0  0  0  0  0
   -0.5205    7.3944   21.6763 H   0  0  0  0  0
    5.1528    6.6290   17.0408 H   0  0  0  0  0
    4.8546    8.6569   14.8025 H   0  0  0  0  0
    7.3702    7.8289   16.2834 H   0  0  0  0  0
    7.3261    9.9400   17.4128 H   0  0  0  0  0
    6.0934    8.2436   18.5443 H   0  0  0  0  0
    4.5945   10.8451   18.5973 H   0  0  0  0  0
    5.9586   10.2767   19.6812 H   0  0  0  0  0
    6.2953    7.1625   13.7815 H   0  0  0  0  0
    8.1300    9.6667   15.0691 H   0  0  0  0  0
    5.5440   11.3770   17.0119 H   0  0  0  0  0
    3.9013   10.1789   20.6697 H   0  0  0  0  0
   -6.4128    0.8793   16.2447 H   0  0  0  0  0
   -4.1346    1.5364   14.3198 H   0  0  0  0  0
   -4.0854    0.0799   16.9516 H   0  0  0  0  0
   -3.6741   -0.9802   14.1337 H   0  0  0  0  0
   -2.3021   -2.2036   15.7280 H   0  0  0  0  0
   -3.6835   -3.2229   15.2964 H   0  0  0  0  0
   -5.8756   -0.1912   13.4529 H   0  0  0  0  0
   -7.7498   -1.4651   14.0640 H   0  0  0  0  0
   -7.6598    1.8374   14.5317 H   0  0  0  0  0
   -3.4842    2.7769   16.1615 H   0  0  0  0  0
   -3.3581   -3.1036   17.6036 H   0  0  0  0  0
  2  1  1  0  0  0
  1 13  1  0  0  0
  1 14  2  0  0  0
  2  3  1  0  0  0
  2 16  1  0  0  0
 28  2  1  0  0  0
  3  4  1  0  0  0
  4  5  1  0  0  0
  4 15  1  0  0  0
  6  5  1  0  0  0
  5 12  1  0  0  0
  6  7  1  0  0  0
 16  6  1  0  0  0
  7  8  1  0  0  0
  7 17  1  0  0  0
  8  9  1  0  0  0
  8 18  1  0  0  0
  9 19  1  0  0  0
 10 11  1  0  0  0
 12 10  1  0  0  0
 10 20  2  0  0  0
 21 22  1  0  0  0
 21 30  1  0  0  0
 66 21  1  0  0  0
 22 23  1  0  0  0
 22 27  1  0  0  0
 23 24  1  0  0  0
 23 28  1  0  0  0
 25 24  1  0  0  0
 24 29  1  0  0  0
 25 26  1  0  0  0
 30 25  1  0  0  0
 26 31  1  0  0  0
 29 32  1  0  0  0
 32 33  1  0  0  0
 32 43  1  0  0  0
 33 34  1  0  0  0
 33 40  1  0  0  0
 34 35  1  0  0  0
 34 41  1  0  0  0
 36 35  1  0  0  0
 35 42  1  0  0  0
 36 37  1  0  0  0
 43 36  1  0  0  0
 37 44  1  0  0  0
 38 39  1  0  0  0
 40 38  1  0  0  0
 38 45  2  0  0  0
 41 46  1  0  0  0
 46 47  1  0  0  0
 46 55  1  0  0  0
 47 48  1  0  0  0
 47 52  1  0  0  0
 48 49  1  0  0  0
 48 53  1  0  0  0
 50 49  1  0  0  0
 49 54  1  0  0  0
 50 51  1  0  0  0
 55 50  1  0  0  0
 51 56  1  0  0  0
 58 57  1  0  0  0
 57 62  1  0  0  0
 57 64  1  0  0  0
 59 58  1  0  0  0
 58 65  1  0  0  0
 59 60  1  0  0  0
 59 66  1  0  0  0
 60 61  1  0  0  0
 60 67  1  0  0  0
 61 68  1  0  0  0
 62 63  1  0  0  0
 62 67  1  0  0  0
  3 69  1  0  0  0
  3 70  1  0  0  0
  4 71  1  0  0  0
  5 72  1  0  0  0
  6 73  1  0  0  0
  7 74  1  0  0  0
  8 75  1  0  0  0
  9 76  1  0  0  0
  9 77  1  0  0  0
 11 78  1  0  0  0
 11 79  1  0  0  0
 11 80  1  0  0  0
 12 81  1  0  0  0
 13 82  1  0  0  0
 15 83  1  0  0  0
 17 84  1  0  0  0
 18 85  1  0  0  0
 19 86  1  0  0  0
 21 87  1  0  0  0
 22 88  1  0  0  0
 23 89  1  0  0  0
 24 90  1  0  0  0
 25 91  1  0  0  0
 26 92  1  0  0  0
 26 93  1  0  0  0
 27 94  1  0  0  0
 31 95  1  0  0  0
 32 96  1  0  0  0
 33 97  1  0  0  0
 34 98  1  0  0  0
 35 99  1  0  0  0
 36100  1  0  0  0
 37101  1  0  0  0
 37102  1  0  0  0
 39103  1  0  0  0
 39104  1  0  0  0
 39105  1  0  0  0
 40106  1  0  0  0
 42107  1  0  0  0
 44108  1  0  0  0
 46109  1  0  0  0
 47110  1  0  0  0
 48111  1  0  0  0
 49112  1  0  0  0
 50113  1  0  0  0
 51114  1  0  0  0
 51115  1  0  0  0
 52116  1  0  0  0
 53117  1  0  0  0
 54118  1  0  0  0
 56119  1  0  0  0
 57120  1  0  0  0
 58121  1  0  0  0
 59122  1  0  0  0
 60123  1  0  0  0
 61124  1  0  0  0
 61125  1  0  0  0
 62126  1  0  0  0
 63127  1  0  0  0
 64128  1  0  0  0
 65129  1  0  0  0
 68130  1  0  0  0
M  END
$$$$
