### 
### Created by X-TOOL on Mon Aug  2 16:17:07 2021
### 

@<TRIPOS>MOLECULE
6qsz_ligand
  127   129     1     0     0
SMALL
GAST_HUCK


@<TRIPOS>ATOM
      1 N          18.0640    4.5110    5.0630 N.4       1 THR         0.2398
      2 CA         17.5950    3.1660    5.4100 C.3       1 THR         0.0910
      3 C          16.0630    3.1840    5.6040 C.2       1 THR         0.2293
      4 O          15.4170    2.1370    5.4770 O.2       1 THR        -0.3906
      5 CB         18.4050    2.5400    6.6090 C.3       1 THR         0.1120
      6 OG1        19.7870    2.9290    6.5780 O.3       1 THR        -0.3840
      7 CG2        18.3110    1.0080    6.6630 C.3       1 THR        -0.0314
      8 N          15.4840    4.3860    5.8840 N.am      1 THR        -0.2594
      9 CA         14.0340    4.5750    6.0560 C.3       1 THR         0.1424
     10 C          13.4470    5.5570    5.0030 C.2       1 THR         0.2056
     11 O          12.8980    6.6190    5.3230 O.2       1 THR        -0.3943
     12 CB         13.6570    4.9370    7.5070 C.3       1 THR         0.0406
     13 CG         14.1670    3.9170    8.5190 C.2       1 THR         0.0393
     14 OD1        13.7750    2.7300    8.4210 O.co2     1 THR        -0.5688
     15 OD2        14.9890    4.2950    9.3800 O.co2     1 THR        -0.5688
     16 N          13.5810    5.1430    3.7260 N.am      1 THR        -0.2636
     17 CA         13.0340    5.7780    2.5300 C.3       1 THR         0.1314
     18 C          11.6450    5.1540    2.2720 C.2       1 THR         0.2064
     19 O          11.4260    4.0500    2.7510 O.2       1 THR        -0.3942
     20 CB         13.9930    5.6030    1.3260 C.3       1 THR        -0.0101
     21 CG         14.0080    4.3020    0.5280 C.3       1 THR        -0.0425
     22 CD1        14.5450    4.5360   -0.8480 C.3       1 THR        -0.0625
     23 CD2        14.8680    3.2600    1.1840 C.3       1 THR        -0.0625
     24 N          10.6810    5.7950    1.5700 N.am      1 THR        -0.2498
     25 CA          9.3430    5.1840    1.4280 C.3       1 THR         0.1338
     26 C           9.2850    3.8490    0.7140 C.2       1 THR         0.2042
     27 O          10.0270    3.6360   -0.2440 O.2       1 THR        -0.3944
     28 CB          8.5460    6.2420    0.6640 C.3       1 THR        -0.0104
     29 CG          9.5820    7.0450   -0.0560 C.3       1 THR        -0.0281
     30 CD         10.7130    7.1230    0.9320 C.3       1 THR         0.0369
     31 N           8.3740    2.9670    1.1870 N.am      1 THR        -0.2613
     32 CA          8.0870    1.6270    0.6580 C.3       1 THR         0.1586
     33 CB          7.0230    0.9570    1.5130 C.3       1 THR         0.1184
     34 OG          7.3050    1.0070    2.9050 O.3       1 THR        -0.2714
     35 C           7.3630    1.7630   -0.6670 C.2       1 THR         0.2066
     36 O           7.4310    0.8540   -1.5000 O.2       1 THR        -0.3943
     37 P           6.3810    1.9020    3.7640 P.3       1 THR         0.2010
     38 O1P         4.9340    1.9510    3.3560 O.co2     1 THR        -0.5537
     39 O2P         6.4830    1.2630    5.1370 O.co2     1 THR        -0.5537
     40 O3P         6.8920    3.3580    3.7010 O.co2     1 THR        -0.5537
     41 N           6.6630    2.9060   -0.8530 N.am      1 THR        -0.2621
     42 CA          5.9060    3.2320   -2.0540 C.3       1 THR         0.1425
     43 C           6.7620    4.0640   -3.0170 C.2       1 THR         0.2081
     44 O           7.4710    4.9750   -2.5620 O.2       1 THR        -0.3941
     45 CB          4.6080    3.9720   -1.6900 C.3       1 THR         0.0406
     46 CG          3.6650    3.1530   -0.8320 C.2       1 THR         0.0393
     47 OD1         3.1520    2.1210   -1.3270 O.co2     1 THR        -0.5688
     48 OD2         3.4570    3.5280    0.3420 O.co2     1 THR        -0.5688
     49 N           6.7110    3.7650   -4.3470 N.am      1 THR        -0.2497
     50 CA          7.5170    4.5320   -5.3210 C.3       1 THR         0.1340
     51 C           7.1790    6.0150   -5.3480 C.2       1 THR         0.2066
     52 O           6.0560    6.3710   -4.9770 O.2       1 THR        -0.3942
     53 CB          7.1540    3.8960   -6.6600 C.3       1 THR        -0.0104
     54 CG          6.6330    2.5760   -6.3260 C.3       1 THR        -0.0281
     55 CD          5.9390    2.7090   -5.0230 C.3       1 THR         0.0369
     56 N           8.1170    6.8940   -5.7840 N.am      1 THR        -0.2498
     57 CA          7.8070    8.3440   -5.8350 C.3       1 THR         0.1337
     58 C           6.6500    8.6910   -6.7880 C.2       1 THR         0.2036
     59 O           6.5250    8.0820   -7.8710 O.2       1 THR        -0.3944
     60 CB          9.1310    8.9730   -6.2770 C.3       1 THR        -0.0104
     61 CG          9.8570    7.8750   -6.9880 C.3       1 THR        -0.0281
     62 CD          9.4850    6.6190   -6.2780 C.3       1 THR         0.0369
     63 N           5.7800    9.6280   -6.3390 N.am      1 THR        -0.2672
     64 CA          4.5820   10.1080   -7.0410 C.3       1 THR         0.1173
     65 C           4.8660   11.3390   -7.9000 C.2       1 THR         0.0623
     66 O           4.3030   11.4750   -8.9860 O.co2     1 THR        -0.5665
     67 CB          3.4620   10.3990   -6.0440 C.3       1 THR         0.0789
     68 OG          3.9440   10.9690   -4.8360 O.3       1 THR        -0.3910
     69 OXT         5.6580   12.1950   -7.5060 O.co2     1 THR        -0.5665
     70 H1         17.5188    4.8691    4.2945 H         1 THR         0.2016
     71 H2         19.0350    4.4697    4.7955 H         1 THR         0.2016
     72 H3         17.9607    5.1190    5.8603 H         1 THR         0.2016
     73 H4         17.7930    2.5217    4.5407 H         1 THR         0.1125
     74 H5         17.9647    2.9330    7.5373 H         1 THR         0.0674
     75 H6         20.2424    2.5346    7.3126 H         1 THR         0.2102
     76 H7         18.8946    0.6348    7.5175 H         1 THR         0.0258
     77 H8         18.7124    0.5829    5.7312 H         1 THR         0.0258
     78 H9         17.2588    0.7090    6.7791 H         1 THR         0.0258
     79 H10        16.0780    5.1850    5.9779 H         1 THR         0.1886
     80 H11        13.5690    3.5984    5.8557 H         1 THR         0.0819
     81 H12        12.5609    4.9905    7.5830 H         1 THR         0.0478
     82 H13        14.0897    5.9190    7.7486 H         1 THR         0.0478
     83 H14        14.1138    4.3090    3.5825 H         1 THR         0.1883
     84 H15        12.9108    6.8550    2.7168 H         1 THR         0.0800
     85 H16        15.0128    5.7470    1.7123 H         1 THR         0.0315
     86 H17        13.7538    6.4064    0.6137 H         1 THR         0.0315
     87 H18        12.9774    3.9242    0.4564 H         1 THR         0.0298
     88 H19        14.5478    3.5883   -1.4065 H         1 THR         0.0232
     89 H20        15.5719    4.9244   -0.7797 H         1 THR         0.0232
     90 H21        13.9103    5.2672   -1.3699 H         1 THR         0.0232
     91 H22        14.4969    3.0655    2.2011 H         1 THR         0.0232
     92 H23        15.9060    3.6204    1.2352 H         1 THR         0.0232
     93 H24        14.8309    2.3309    0.5963 H         1 THR         0.0232
     94 H25         8.9116    5.0402    2.4296 H         1 THR         0.0802
     95 H26         7.9763    6.8764    1.3589 H         1 THR         0.0313
     96 H27         7.8560    5.7685   -0.0499 H         1 THR         0.0313
     97 H28         9.2028    8.0484   -0.2998 H         1 THR         0.0287
     98 H29         9.9005    6.5390   -0.9793 H         1 THR         0.0287
     99 H30        11.6728    7.2950    0.4228 H         1 THR         0.0524
    100 H31        10.5408    7.9211    1.6692 H         1 THR         0.0524
    101 H32         7.8397    3.2583    1.9805 H         1 THR         0.1884
    102 H33         9.0060    1.0275    0.5803 H         1 THR         0.0827
    103 H34         6.9454   -0.0977    1.2105 H         1 THR         0.0662
    104 H35         6.0623    1.4616    1.3334 H         1 THR         0.0662
    105 H36         6.6656    3.5765   -0.1111 H         1 THR         0.1884
    106 H37         5.6359    2.2924   -2.5581 H         1 THR         0.0819
    107 H38         4.0873    4.2400   -2.6211 H         1 THR         0.0478
    108 H39         4.8717    4.8878   -1.1407 H         1 THR         0.0478
    109 H40         8.5891    4.4126   -5.1058 H         1 THR         0.0802
    110 H41         8.0444    3.8088   -7.2999 H         1 THR         0.0313
    111 H42         6.3884    4.4937   -7.1763 H         1 THR         0.0313
    112 H43         7.4576    1.8526   -6.2441 H         1 THR         0.0287
    113 H44         5.9263    2.2406   -7.0993 H         1 THR         0.0287
    114 H45         4.8907    3.0120   -5.1618 H         1 THR         0.0524
    115 H46         5.9764    1.7668   -4.4565 H         1 THR         0.0524
    116 H47         7.5382    8.7016   -4.8301 H         1 THR         0.0802
    117 H48         9.7067    9.3171   -5.4051 H         1 THR         0.0313
    118 H49         8.9503    9.8203   -6.9547 H         1 THR         0.0313
    119 H50        10.9437    8.0374   -6.9359 H         1 THR         0.0287
    120 H51         9.5434    7.8273   -8.0413 H         1 THR         0.0287
    121 H52         9.4893    5.7617   -6.9672 H         1 THR         0.0524
    122 H53        10.1725    6.4213   -5.4424 H         1 THR         0.0524
    123 H54         5.9718   10.0313   -5.4442 H         1 THR         0.1876
    124 H55         4.2423    9.3043   -7.7108 H         1 THR         0.0749
    125 H56         2.9460    9.4566   -5.8081 H         1 THR         0.0599
    126 H57         2.7517   11.1003   -6.5061 H         1 THR         0.0599
    127 H58         3.2139   11.1314   -4.2504 H         1 THR         0.2096
@<TRIPOS>BOND
     1    1    2 1  
     2    2    3 1  
     3    2    5 1  
     4    3    4 2  
     5    3    8 am 
     6    5    6 1  
     7    5    7 1  
     8    8    9 1  
     9    9   10 1  
    10    9   12 1  
    11   10   11 2  
    12   10   16 am 
    13   12   13 1  
    14   13   14 ar 
    15   13   15 ar 
    16   16   17 1  
    17   17   18 1  
    18   17   20 1  
    19   18   19 2  
    20   18   24 am 
    21   20   21 1  
    22   21   22 1  
    23   21   23 1  
    24   24   25 1  
    25   24   30 1  
    26   25   26 1  
    27   25   28 1  
    28   26   27 2  
    29   26   31 am 
    30   28   29 1  
    31   29   30 1  
    32   31   32 1  
    33   32   33 1  
    34   32   35 1  
    35   33   34 1  
    36   34   37 1  
    37   35   36 2  
    38   35   41 am 
    39   37   38 ar 
    40   37   39 ar 
    41   37   40 ar 
    42   41   42 1  
    43   42   43 1  
    44   42   45 1  
    45   43   44 2  
    46   43   49 am 
    47   45   46 1  
    48   46   47 ar 
    49   46   48 ar 
    50   49   50 1  
    51   49   55 1  
    52   50   51 1  
    53   50   53 1  
    54   51   52 2  
    55   51   56 am 
    56   53   54 1  
    57   54   55 1  
    58   56   57 1  
    59   56   62 1  
    60   57   58 1  
    61   57   60 1  
    62   58   59 2  
    63   58   63 am 
    64   60   61 1  
    65   61   62 1  
    66   63   64 1  
    67   64   65 1  
    68   64   67 1  
    69   65   66 ar 
    70   65   69 ar 
    71   67   68 1  
    72    1   70 1  
    73    1   71 1  
    74    1   72 1  
    75    2   73 1  
    76    5   74 1  
    77    6   75 1  
    78    7   76 1  
    79    7   77 1  
    80    7   78 1  
    81    8   79 1  
    82    9   80 1  
    83   12   81 1  
    84   12   82 1  
    85   16   83 1  
    86   17   84 1  
    87   20   85 1  
    88   20   86 1  
    89   21   87 1  
    90   22   88 1  
    91   22   89 1  
    92   22   90 1  
    93   23   91 1  
    94   23   92 1  
    95   23   93 1  
    96   25   94 1  
    97   28   95 1  
    98   28   96 1  
    99   29   97 1  
   100   29   98 1  
   101   30   99 1  
   102   30  100 1  
   103   31  101 1  
   104   32  102 1  
   105   33  103 1  
   106   33  104 1  
   107   41  105 1  
   108   42  106 1  
   109   45  107 1  
   110   45  108 1  
   111   50  109 1  
   112   53  110 1  
   113   53  111 1  
   114   54  112 1  
   115   54  113 1  
   116   55  114 1  
   117   55  115 1  
   118   57  116 1  
   119   60  117 1  
   120   60  118 1  
   121   61  119 1  
   122   61  120 1  
   123   62  121 1  
   124   62  122 1  
   125   63  123 1  
   126   64  124 1  
   127   67  125 1  
   128   67  126 1  
   129   68  127 1  
@<TRIPOS>SUBSTRUCTURE
     1 THR         1

