6qsz_ligand
  -I-interpret- 

132134  0  0  0  0  0  0  0  0999 V2000
   18.0640    4.5110    5.0630 N   0  3  0  0  0
   17.5950    3.1660    5.4100 C   0  0  0  0  0
   16.0630    3.1840    5.6040 C   0  0  0  0  0
   15.4170    2.1370    5.4770 O   0  0  0  0  0
   18.4050    2.5400    6.6090 C   0  0  0  0  0
   19.7870    2.9290    6.5780 O   0  0  0  0  0
   18.3110    1.0080    6.6630 C   0  0  0  0  0
   15.4840    4.3860    5.8840 N   0  0  0  0  0
   14.0340    4.5750    6.0560 C   0  0  0  0  0
   13.4470    5.5570    5.0030 C   0  0  0  0  0
   12.8980    6.6190    5.3230 O   0  0  0  0  0
   13.6570    4.9370    7.5070 C   0  0  0  0  0
   14.1670    3.9170    8.5190 C   0  0  0  0  0
   13.7750    2.7300    8.4210 O   0  0  0  0  0
   14.9890    4.2950    9.3800 O   0  0  0  0  0
   13.5810    5.1430    3.7260 N   0  0  0  0  0
   13.0340    5.7780    2.5300 C   0  0  0  0  0
   11.6450    5.1540    2.2720 C   0  0  0  0  0
   11.4260    4.0500    2.7510 O   0  0  0  0  0
   13.9930    5.6030    1.3260 C   0  0  0  0  0
   14.0080    4.3020    0.5280 C   0  0  0  0  0
   14.5450    4.5360   -0.8480 C   0  0  0  0  0
   14.8680    3.2600    1.1840 C   0  0  0  0  0
   10.6810    5.7950    1.5700 N   0  0  0  0  0
    9.3430    5.1840    1.4280 C   0  0  0  0  0
    9.2850    3.8490    0.7140 C   0  0  0  0  0
   10.0270    3.6360   -0.2440 O   0  0  0  0  0
    8.5460    6.2420    0.6640 C   0  0  0  0  0
    9.5820    7.0450   -0.0560 C   0  0  0  0  0
   10.7130    7.1230    0.9320 C   0  0  0  0  0
    8.3740    2.9670    1.1870 N   0  0  0  0  0
    8.0870    1.6270    0.6580 C   0  0  0  0  0
    7.0230    0.9570    1.5130 C   0  0  0  0  0
    7.3050    1.0070    2.9050 O   0  0  0  0  0
    7.3630    1.7630   -0.6670 C   0  0  0  0  0
    7.4310    0.8540   -1.5000 O   0  0  0  0  0
    6.3810    1.9020    3.7640 P   0  0  0  0  0
    4.9340    1.9510    3.3560 O   0  0  0  0  0
    6.4830    1.2630    5.1370 O   0  0  0  0  0
    6.8920    3.3580    3.7010 O   0  0  0  0  0
    6.6630    2.9060   -0.8530 N   0  0  0  0  0
    5.9060    3.2320   -2.0540 C   0  0  0  0  0
    6.7620    4.0640   -3.0170 C   0  0  0  0  0
    7.4710    4.9750   -2.5620 O   0  0  0  0  0
    4.6080    3.9720   -1.6900 C   0  0  0  0  0
    3.6650    3.1530   -0.8320 C   0  0  0  0  0
    3.1520    2.1210   -1.3270 O   0  0  0  0  0
    3.4570    3.5280    0.3420 O   0  0  0  0  0
    6.7110    3.7650   -4.3470 N   0  0  0  0  0
    7.5170    4.5320   -5.3210 C   0  0  0  0  0
    7.1790    6.0150   -5.3480 C   0  0  0  0  0
    6.0560    6.3710   -4.9770 O   0  0  0  0  0
    7.1540    3.8960   -6.6600 C   0  0  0  0  0
    6.6330    2.5760   -6.3260 C   0  0  0  0  0
    5.9390    2.7090   -5.0230 C   0  0  0  0  0
    8.1170    6.8940   -5.7840 N   0  0  0  0  0
    7.8070    8.3440   -5.8350 C   0  0  0  0  0
    6.6500    8.6910   -6.7880 C   0  0  0  0  0
    6.5250    8.0820   -7.8710 O   0  0  0  0  0
    9.1310    8.9730   -6.2770 C   0  0  0  0  0
    9.8570    7.8750   -6.9880 C   0  0  0  0  0
    9.4850    6.6190   -6.2780 C   0  0  0  0  0
    5.7800    9.6280   -6.3390 N   0  0  0  0  0
    4.5820   10.1080   -7.0410 C   0  0  0  0  0
    4.8660   11.3390   -7.9000 C   0  0  0  0  0
    4.3030   11.4750   -8.9860 O   0  0  0  0  0
    3.4620   10.3990   -6.0440 C   0  0  0  0  0
    3.9440   10.9690   -4.8360 O   0  0  0  0  0
    5.6580   12.1950   -7.5060 O   0  0  0  0  0
   17.5116    4.8723    4.2853 H   0  0  0  0  0
   17.9590    5.1253    5.8705 H   0  0  0  0  0
   19.0466    4.4679    4.7926 H   0  0  0  0  0
   17.7970    2.4872    4.5814 H   0  0  0  0  0
   17.9377    2.9375    7.5100 H   0  0  0  0  0
   19.8481    3.8865    6.5442 H   0  0  0  0  0
   18.7906    0.5845    5.7805 H   0  0  0  0  0
   18.8132    0.6458    7.5601 H   0  0  0  0  0
   17.2627    0.7102    6.6866 H   0  0  0  0  0
   16.0899    5.2009    5.9798 H   0  0  0  0  0
   13.5605    3.6121    5.8645 H   0  0  0  0  0
   12.5693    4.9605    7.5744 H   0  0  0  0  0
   14.1136    5.8985    7.7416 H   0  0  0  0  0
   13.1484    2.6598    7.6970 H   0  0  0  0  0
   14.1245    4.2924    3.5796 H   0  0  0  0  0
   12.9275    6.8535    2.6716 H   0  0  0  0  0
   14.9885    5.6585    1.7664 H   0  0  0  0  0
   13.6615    6.3535    0.6084 H   0  0  0  0  0
   12.9774    3.9498    0.4838 H   0  0  0  0  0
   13.9153    5.2607   -1.3640 H   0  0  0  0  0
   15.5625    4.9209   -0.7790 H   0  0  0  0  0
   14.5473    3.5963   -1.4004 H   0  0  0  0  0
   15.8907    3.6296    1.2593 H   0  0  0  0  0
   14.4826    3.0479    2.1813 H   0  0  0  0  0
   14.8527    2.3489    0.5858 H   0  0  0  0  0
    8.9531    4.9313    2.4140 H   0  0  0  0  0
    7.9421    6.8582    1.3302 H   0  0  0  0  0
    7.8267    5.7947   -0.0220 H   0  0  0  0  0
    9.2173    8.0284   -0.3528 H   0  0  0  0  0
    9.8820    6.5904   -1.0001 H   0  0  0  0  0
   11.6715    7.3455    0.4631 H   0  0  0  0  0
   10.5980    7.9393    1.6451 H   0  0  0  0  0
    7.8291    3.2641    1.9964 H   0  0  0  0  0
    9.0324    1.0866    0.6114 H   0  0  0  0  0
    6.9813   -0.0930    1.2233 H   0  0  0  0  0
    6.0857    1.4883    1.3480 H   0  0  0  0  0
    7.4042    1.2280    5.4048 H   0  0  0  0  0
    7.8177    3.3823    3.9542 H   0  0  0  0  0
    6.6656    3.5899   -0.0962 H   0  0  0  0  0
    5.6347    2.3038   -2.5569 H   0  0  0  0  0
    4.0890    4.2001   -2.6210 H   0  0  0  0  0
    4.8853    4.8576   -1.1182 H   0  0  0  0  0
    3.4455    2.0235   -2.2358 H   0  0  0  0  0
    8.5773    4.4904   -5.0716 H   0  0  0  0  0
    8.0171    3.8323   -7.3226 H   0  0  0  0  0
    6.4211    4.4924   -7.2034 H   0  0  0  0  0
    7.4389    1.8447   -6.2639 H   0  0  0  0  0
    5.9479    2.2225   -7.0966 H   0  0  0  0  0
    4.8830    2.9578   -5.1287 H   0  0  0  0  0
    5.9131    1.7763   -4.4595 H   0  0  0  0  0
    7.4533    8.7188   -4.8745 H   0  0  0  0  0
    9.7015    9.3549   -5.4304 H   0  0  0  0  0
    8.9742    9.8388   -6.9203 H   0  0  0  0  0
   10.9349    8.0361   -6.9720 H   0  0  0  0  0
    9.5802    7.8328   -8.0414 H   0  0  0  0  0
    9.5271    5.7441   -6.9267 H   0  0  0  0  0
   10.1781    6.3726   -5.4737 H   0  0  0  0  0
    5.9756   10.0394   -5.4264 H   0  0  0  0  0
    4.2638    9.3132   -7.7156 H   0  0  0  0  0
    2.9754    9.4547   -5.7997 H   0  0  0  0  0
    2.7793   11.1134   -6.5041 H   0  0  0  0  0
    3.2062   11.1331   -4.2442 H   0  0  0  0  0
    6.0051   11.9378   -6.6487 H   0  0  0  0  0
  1  2  1  0  0  0
  2  3  1  0  0  0
  2  5  1  0  0  0
  3  4  2  0  0  0
  3  8  1  0  0  0
  5  6  1  0  0  0
  5  7  1  0  0  0
  8  9  1  0  0  0
  9 10  1  0  0  0
  9 12  1  0  0  0
 10 11  2  0  0  0
 10 16  1  0  0  0
 12 13  1  0  0  0
 13 14  1  0  0  0
 13 15  2  0  0  0
 16 17  1  0  0  0
 17 18  1  0  0  0
 17 20  1  0  0  0
 18 19  2  0  0  0
 18 24  1  0  0  0
 20 21  1  0  0  0
 21 22  1  0  0  0
 21 23  1  0  0  0
 24 25  1  0  0  0
 24 30  1  0  0  0
 25 26  1  0  0  0
 25 28  1  0  0  0
 26 27  2  0  0  0
 26 31  1  0  0  0
 28 29  1  0  0  0
 29 30  1  0  0  0
 31 32  1  0  0  0
 32 33  1  0  0  0
 32 35  1  0  0  0
 33 34  1  0  0  0
 34 37  1  0  0  0
 35 36  2  0  0  0
 35 41  1  0  0  0
 37 38  2  0  0  0
 37 39  1  0  0  0
 37 40  1  0  0  0
 41 42  1  0  0  0
 42 43  1  0  0  0
 42 45  1  0  0  0
 43 44  2  0  0  0
 43 49  1  0  0  0
 45 46  1  0  0  0
 46 47  1  0  0  0
 46 48  2  0  0  0
 49 50  1  0  0  0
 49 55  1  0  0  0
 50 51  1  0  0  0
 50 53  1  0  0  0
 51 52  2  0  0  0
 51 56  1  0  0  0
 53 54  1  0  0  0
 54 55  1  0  0  0
 56 57  1  0  0  0
 56 62  1  0  0  0
 57 58  1  0  0  0
 57 60  1  0  0  0
 58 59  2  0  0  0
 58 63  1  0  0  0
 60 61  1  0  0  0
 61 62  1  0  0  0
 63 64  1  0  0  0
 64 65  1  0  0  0
 64 67  1  0  0  0
 65 66  2  0  0  0
 65 69  1  0  0  0
 67 68  1  0  0  0
  1 70  1  0  0  0
  1 71  1  0  0  0
  1 72  1  0  0  0
  2 73  1  0  0  0
  5 74  1  0  0  0
  6 75  1  0  0  0
  7 76  1  0  0  0
  7 77  1  0  0  0
  7 78  1  0  0  0
  8 79  1  0  0  0
  9 80  1  0  0  0
 12 81  1  0  0  0
 12 82  1  0  0  0
 14 83  1  0  0  0
 16 84  1  0  0  0
 17 85  1  0  0  0
 20 86  1  0  0  0
 20 87  1  0  0  0
 21 88  1  0  0  0
 22 89  1  0  0  0
 22 90  1  0  0  0
 22 91  1  0  0  0
 23 92  1  0  0  0
 23 93  1  0  0  0
 23 94  1  0  0  0
 25 95  1  0  0  0
 28 96  1  0  0  0
 28 97  1  0  0  0
 29 98  1  0  0  0
 29 99  1  0  0  0
 30100  1  0  0  0
 30101  1  0  0  0
 31102  1  0  0  0
 32103  1  0  0  0
 33104  1  0  0  0
 33105  1  0  0  0
 39106  1  0  0  0
 40107  1  0  0  0
 41108  1  0  0  0
 42109  1  0  0  0
 45110  1  0  0  0
 45111  1  0  0  0
 47112  1  0  0  0
 50113  1  0  0  0
 53114  1  0  0  0
 53115  1  0  0  0
 54116  1  0  0  0
 54117  1  0  0  0
 55118  1  0  0  0
 55119  1  0  0  0
 57120  1  0  0  0
 60121  1  0  0  0
 60122  1  0  0  0
 61123  1  0  0  0
 61124  1  0  0  0
 62125  1  0  0  0
 62126  1  0  0  0
 63127  1  0  0  0
 64128  1  0  0  0
 67129  1  0  0  0
 67130  1  0  0  0
 68131  1  0  0  0
 69132  1  0  0  0
M  END
$$$$
