6afd_ligand
  -I-interpret- 

 21 22  0  0  0  0  0  0  0  0999 V2000
   33.8290  -25.1150  -26.4690 C   0  0  0  0  0
   32.7250  -26.1040  -26.2980 C   0  0  0  0  0
   32.5570  -27.0700  -27.2570 C   0  0  0  0  0
   31.5340  -28.0130  -27.1900 C   0  0  0  0  0
   30.6750  -27.9900  -26.0960 C   0  0  0  0  0
   30.8630  -27.0280  -25.1590 C   0  0  0  0  0
   31.8530  -26.0990  -25.2540 C   0  0  0  0  0
   31.7690  -25.2280  -24.2020 N   0  0  0  0  0
   30.7310  -25.5140  -23.4630 C   0  0  0  0  0
   30.3450  -24.9230  -22.4660 O   0  0  0  0  0
   30.1340  -26.7150  -23.9590 C   0  0  0  0  0
   28.7380  -26.6580  -24.0750 O   0  0  0  0  0
   34.7833  -25.6404  -26.5058 H   0  0  0  0  0
   33.6804  -24.5635  -27.3974 H   0  0  0  0  0
   33.8269  -24.4211  -25.6284 H   0  0  0  0  0
   33.2473  -27.1008  -28.1000 H   0  0  0  0  0
   31.4090  -28.7543  -27.9792 H   0  0  0  0  0
   29.8748  -28.7233  -25.9950 H   0  0  0  0  0
   32.4224  -24.4659  -24.0212 H   0  0  0  0  0
   30.2228  -27.5387  -23.2507 H   0  0  0  0  0
   28.4116  -27.4955  -24.4121 H   0  0  0  0  0
  1  2  1  0  0  0
  2  3  4  0  0  0
  2  7  4  0  0  0
  3  4  4  0  0  0
  4  5  4  0  0  0
  5  6  4  0  0  0
  6  7  4  0  0  0
  6 11  1  0  0  0
  7  8  1  0  0  0
  8  9  1  0  0  0
  9 10  2  0  0  0
  9 11  1  0  0  0
 11 12  1  0  0  0
  1 13  1  0  0  0
  1 14  1  0  0  0
  1 15  1  0  0  0
  3 16  1  0  0  0
  4 17  1  0  0  0
  5 18  1  0  0  0
  8 19  1  0  0  0
 11 20  1  0  0  0
 12 21  1  0  0  0
M  END
$$$$
