5f91_ligand
  -I-interpret- 

 59 62  0  0  0  0  0  0  0  0999 V2000
  164.5430  -14.3710   30.6950 C   0  0  0  0  0
  165.5130  -11.2890   30.0130 C   0  0  0  0  0
  169.8580  -10.0160   32.0630 C   0  0  0  0  0
  170.1440   -8.6750   31.6950 C   0  0  0  0  0
  171.7640   -6.9480   31.4300 C   0  0  0  0  0
  169.0890   -7.7770   31.5020 C   0  0  0  0  0
  167.7710   -8.1920   31.6780 C   0  0  0  0  0
  167.4380   -9.4970   32.0440 C   0  0  0  0  0
  172.5320  -18.0980   30.2310 O   0  0  0  0  0
  172.4870  -16.9410   30.6010 C   0  0  0  0  0
  172.1000  -16.6970   31.9350 N   0  0  0  0  0
  172.0050  -15.5000   32.5200 N   0  0  0  0  0
  172.8160  -15.7360   29.8110 C   0  0  0  0  0
  172.7350  -14.4690   30.4170 C   0  0  0  0  0
  173.0580  -13.3240   29.6700 C   0  0  0  0  0
  173.4380  -13.4550   28.3320 C   0  0  0  0  0
  173.5050  -14.7200   27.7380 C   0  0  0  0  0
  173.2010  -15.8670   28.4670 C   0  0  0  0  0
  172.2960  -14.4240   31.8160 C   0  0  0  0  0
  172.0950  -13.1090   32.4920 C   0  0  0  0  0
  170.8950  -12.2830   32.0450 C   0  0  0  0  0
  169.9970  -12.8200   31.3910 O   0  0  0  0  0
  170.8820  -10.9390   32.3750 N   0  0  0  0  0
  168.5070  -10.4120   32.2110 C   0  0  0  0  0
  171.4510   -8.3400   31.5550 O   0  0  0  0  0
  165.8460   -9.9520   32.3760 S   0  0  0  0  0
  164.9560   -8.9330   31.9450 O   0  0  0  0  0
  165.7650  -10.3420   33.7580 O   0  0  0  0  0
  165.6250  -11.3320   31.4930 N   0  0  0  0  0
  165.6010  -12.6350   32.1870 C   0  0  0  0  0
  164.3450  -13.4650   31.9080 C   0  0  0  0  0
  164.5810  -13.5720   29.3920 C   0  0  0  0  0
  165.7750  -12.6200   29.2940 C   0  0  0  0  0
  163.7058  -15.0673   30.6464 H   0  0  0  0  0
  165.4944  -14.8910   30.8066 H   0  0  0  0  0
  166.2739  -10.5913   29.6634 H   0  0  0  0  0
  164.4838  -11.0102   29.7867 H   0  0  0  0  0
  171.2646   -6.5422   30.5502 H   0  0  0  0  0
  171.4225   -6.4188   32.3196 H   0  0  0  0  0
  172.8422   -6.8273   31.3254 H   0  0  0  0  0
  169.2993   -6.7474   31.2125 H   0  0  0  0  0
  166.9691   -7.4700   31.5240 H   0  0  0  0  0
  173.0124  -12.3379   30.1322 H   0  0  0  0  0
  173.6834  -12.5678   27.7483 H   0  0  0  0  0
  173.7987  -14.8088   26.6921 H   0  0  0  0  0
  173.2610  -16.8508   28.0017 H   0  0  0  0  0
  173.1252  -14.9321   31.3237 H   0  0  0  0  0
  172.9751  -12.5120   32.2529 H   0  0  0  0  0
  171.9265  -13.3363   33.5446 H   0  0  0  0  0
  171.6858  -10.5814   32.8912 H   0  0  0  0  0
  168.2829  -11.4492   32.4603 H   0  0  0  0  0
  165.6236  -12.4319   33.2577 H   0  0  0  0  0
  166.4549  -13.2091   31.8273 H   0  0  0  0  0
  164.1380  -14.0877   32.7783 H   0  0  0  0  0
  163.5165  -12.7864   31.7050 H   0  0  0  0  0
  163.6754  -12.9667   29.3525 H   0  0  0  0  0
  164.6632  -14.2858   28.5724 H   0  0  0  0  0
  166.6318  -13.0993   29.7676 H   0  0  0  0  0
  165.9548  -12.4075   28.2401 H   0  0  0  0  0
 31  1  1  0  0  0
  1 32  1  0  0  0
 29  2  1  0  0  0
  2 33  1  0  0  0
  3  4  4  0  0  0
  3 23  1  0  0  0
 24  3  4  0  0  0
  6  4  4  0  0  0
  4 25  1  0  0  0
 25  5  1  0  0  0
  7  6  4  0  0  0
  8  7  4  0  0  0
  8 24  4  0  0  0
 26  8  1  0  0  0
 10  9  2  0  0  0
 11 10  1  0  0  0
 13 10  1  0  0  0
 12 11  2  0  0  0
 19 12  1  0  0  0
 14 13  4  0  0  0
 13 18  4  0  0  0
 14 15  4  0  0  0
 19 14  1  0  0  0
 15 16  4  0  0  0
 16 17  4  0  0  0
 18 17  4  0  0  0
 20 19  1  0  0  0
 21 20  1  0  0  0
 21 22  2  0  0  0
 23 21  1  0  0  0
 26 27  2  0  0  0
 26 28  2  0  0  0
 29 26  1  0  0  0
 30 29  1  0  0  0
 30 31  1  0  0  0
 32 33  1  0  0  0
  1 34  1  0  0  0
  1 35  1  0  0  0
  2 36  1  0  0  0
  2 37  1  0  0  0
  5 38  1  0  0  0
  5 39  1  0  0  0
  5 40  1  0  0  0
  6 41  1  0  0  0
  7 42  1  0  0  0
 15 43  1  0  0  0
 16 44  1  0  0  0
 17 45  1  0  0  0
 18 46  1  0  0  0
 19 47  1  0  0  0
 20 48  1  0  0  0
 20 49  1  0  0  0
 23 50  1  0  0  0
 24 51  1  0  0  0
 30 52  1  0  0  0
 30 53  1  0  0  0
 31 54  1  0  0  0
 31 55  1  0  0  0
 32 56  1  0  0  0
 32 57  1  0  0  0
 33 58  1  0  0  0
 33 59  1  0  0  0
M  END
$$$$
