5ttv_ligand
  -I-interpret- 

 33 35  0  0  0  0  0  0  0  0999 V2000
    3.1700   14.0330   -3.1230 N   0  0  0  0  0
   -0.9750   18.4280   -5.2930 C   0  0  0  0  0
    1.7690   12.0880   -3.5160 N   0  0  0  0  0
   -1.5300   16.0510   -3.9700 C   0  0  0  0  0
   -2.5670   16.8650   -4.3920 C   0  0  0  0  0
    0.0640   17.5880   -4.9010 C   0  0  0  0  0
    0.4800   11.8720   -3.9300 C   0  0  0  0  0
   -0.2030   16.3950   -4.2240 C   0  0  0  0  0
    0.7290   21.7370   -7.2960 C   0  0  0  0  0
   -0.7820   21.6840   -7.1920 C   0  0  0  0  0
   -1.2820   20.2900   -6.9000 C   0  0  0  0  0
   -2.1490   19.7520   -7.5940 O   0  0  0  0  0
   -0.6940   19.7020   -5.8330 N   0  0  0  0  0
   -2.2950   18.0530   -5.0530 C   0  0  0  0  0
    0.9070   15.4980   -3.8060 C   0  0  0  0  0
    0.8180   14.0820   -3.8520 C   0  0  0  0  0
   -0.1430   13.0530   -4.1530 C   0  0  0  0  0
    2.0200   13.4310   -3.4730 C   0  0  0  0  0
    3.0780   15.3640   -3.1080 C   0  0  0  0  0
    2.0310   16.1270   -3.4230 N   0  0  0  0  0
   -1.7537   15.1296   -3.4324 H   0  0  0  0  0
   -3.5998   16.5713   -4.2042 H   0  0  0  0  0
    1.0948   17.8634   -5.1242 H   0  0  0  0  0
    0.0229   10.8912   -4.0607 H   0  0  0  0  0
    1.1685   21.4081   -6.3543 H   0  0  0  0  0
    1.0597   21.0812   -8.1014 H   0  0  0  0  0
    1.0418   22.7597   -7.5068 H   0  0  0  0  0
   -1.2001   22.0023   -8.1470 H   0  0  0  0  0
   -1.0896   22.3342   -6.3731 H   0  0  0  0  0
    0.0354   20.2402   -5.3653 H   0  0  0  0  0
   -3.1129   18.6927   -5.3844 H   0  0  0  0  0
   -1.1686   13.1964   -4.4930 H   0  0  0  0  0
    3.9765   15.8974   -2.7976 H   0  0  0  0  0
 18  1  4  0  0  0
  1 19  4  0  0  0
  6  2  4  0  0  0
  2 13  1  0  0  0
  2 14  4  0  0  0
  7  3  4  0  0  0
  3 18  4  0  0  0
  4  5  4  0  0  0
  8  4  4  0  0  0
  5 14  4  0  0  0
  8  6  4  0  0  0
 17  7  4  0  0  0
 15  8  1  0  0  0
 10  9  1  0  0  0
 11 10  1  0  0  0
 11 12  2  0  0  0
 13 11  1  0  0  0
 16 15  4  0  0  0
 15 20  4  0  0  0
 16 17  4  0  0  0
 16 18  4  0  0  0
 19 20  4  0  0  0
  4 21  1  0  0  0
  5 22  1  0  0  0
  6 23  1  0  0  0
  7 24  1  0  0  0
  9 25  1  0  0  0
  9 26  1  0  0  0
  9 27  1  0  0  0
 10 28  1  0  0  0
 10 29  1  0  0  0
 13 30  1  0  0  0
 14 31  1  0  0  0
 17 32  1  0  0  0
 19 33  1  0  0  0
M  END
$$$$
