3sjo_ligand
  -I-interpret- 

 87 89  0  0  0  0  0  0  0  0999 V2000
   10.2960   -8.1980    4.1650 C   0  0  0  0  0
    8.9020   -7.6250    3.9430 C   0  0  0  0  0
   10.4740   -9.3950    4.1050 O   0  0  0  0  0
    7.9230   -8.5150    3.1950 C   0  0  0  0  0
    6.6460   -7.8040    2.7850 C   0  0  0  0  0
    5.9610   -7.0570    3.9000 C   0  0  0  0  0
    5.3060   -7.8180    4.9860 C   0  0  0  0  0
    4.6370   -7.0880    6.0900 C   0  0  0  0  0
    4.6480   -5.6890    6.1070 C   0  0  0  0  0
    5.3190   -4.9190    5.0090 C   0  0  0  0  0
    5.9760   -5.6440    3.9160 C   0  0  0  0  0
    8.2670  -10.7400    1.9500 N   0  0  0  0  0
    8.6030  -11.4730    0.7240 C   0  0  0  0  0
    9.7270  -12.4700    0.9600 C   0  0  0  0  0
   11.0400  -11.7810    1.3310 C   0  0  0  0  0
   12.1670  -12.6480    1.9070 C   0  0  0  0  0
   13.4730  -12.1950    1.2880 N   0  3  0  0  0
   11.9640  -13.9770    2.1310 O   0  0  0  0  0
    7.3760  -12.0510    0.0560 C   0  0  0  0  0
    6.4450  -10.9940   -0.5070 C   0  0  0  0  0
    7.0760  -10.1940   -1.6410 C   0  0  0  0  0
    7.1080   -8.9040   -1.5840 O   0  0  0  0  0
    7.8530  -10.7830   -2.4300 O   0  0  0  0  0
    8.5630   -9.3130    2.0540 C   0  0  0  0  0
    9.1700   -8.7450    1.1660 O   0  0  0  0  0
    7.7990   -8.2130   -2.5890 C   0  0  0  0  0
    8.2060   -6.7870   -2.2910 C   0  0  0  0  0
   11.4090   -7.2950    4.7210 C   0  0  0  0  0
   12.3650   -8.0180    5.5500 N   0  0  0  0  0
   12.4690   -7.7530    6.9690 C   0  0  0  0  0
   11.8860   -6.7960    7.4590 O   0  0  0  0  0
   12.1070   -6.4060    3.7090 C   0  0  0  0  0
   13.0860   -5.4930    4.3870 C   0  0  0  0  0
    4.0290   -5.0390    7.0910 F   0  0  0  0  0
   12.7240   -7.1740    2.5840 C   0  0  0  0  0
   13.1760  -10.8560    0.6680 C   0  0  0  0  0
   11.6780  -10.8360    0.3400 C   0  0  0  0  0
   13.4190   -8.5970    7.8020 C   0  0  0  0  0
   13.7900   -8.4180    9.2970 C   0  0  0  0  0
   14.7450   -9.4560    9.6350 C   0  0  0  0  0
   14.9830  -10.2480    8.4650 O   0  0  0  0  0
   14.1200   -9.6770    7.3310 N   0  0  0  0  0
   15.3860   -9.6700   10.9780 C   0  0  0  0  0
    9.0331   -6.7334    3.3298 H   0  0  0  0  0
    8.4756   -7.4683    4.9338 H   0  0  0  0  0
    7.6142   -9.2616    3.9267 H   0  0  0  0  0
    5.9512   -8.5698    2.4402 H   0  0  0  0  0
    6.9194   -7.0680    2.0289 H   0  0  0  0  0
    5.3149   -8.9079    4.9750 H   0  0  0  0  0
    4.1379   -7.6401    6.8864 H   0  0  0  0  0
    5.3186   -3.8291    5.0229 H   0  0  0  0  0
    6.4747   -5.0940    3.1179 H   0  0  0  0  0
    7.8264  -11.2272    2.7303 H   0  0  0  0  0
    9.0010  -10.7624   -0.0004 H   0  0  0  0  0
    9.8853  -13.0279    0.0371 H   0  0  0  0  0
    9.4379  -13.1179    1.7875 H   0  0  0  0  0
   10.5875  -11.1881    2.1258 H   0  0  0  0  0
   12.2038  -12.4562    2.9794 H   0  0  0  0  0
   13.8113  -12.8626    0.5950 H   0  0  0  0  0
   14.2155  -12.1297    1.9843 H   0  0  0  0  0
   12.7649  -14.3658    2.4902 H   0  0  0  0  0
    6.8223  -12.6093    0.8108 H   0  0  0  0  0
    7.7141  -12.6689   -0.7758 H   0  0  0  0  0
    6.2036  -10.2992    0.2974 H   0  0  0  0  0
    5.5662  -11.5012   -0.9052 H   0  0  0  0  0
    7.1131   -8.1550   -3.4342 H   0  0  0  0  0
    8.7289   -8.7613   -2.7400 H   0  0  0  0  0
    7.3162   -6.1919   -2.0859 H   0  0  0  0  0
    8.8630   -6.7722   -1.4214 H   0  0  0  0  0
    8.7311   -6.3730   -3.1518 H   0  0  0  0  0
   10.8631   -6.6022    5.3614 H   0  0  0  0  0
   12.9693   -8.7207    5.1241 H   0  0  0  0  0
   11.3413   -5.7843    3.2450 H   0  0  0  0  0
   12.5579   -4.8635    5.1032 H   0  0  0  0  0
   13.8355   -6.0886    4.9082 H   0  0  0  0  0
   13.5733   -4.8660    3.6403 H   0  0  0  0  0
   13.4643   -7.8678    2.9824 H   0  0  0  0  0
   11.9487   -7.7307    2.0576 H   0  0  0  0  0
   13.2072   -6.4813    1.8949 H   0  0  0  0  0
   13.7702  -10.7083   -0.2338 H   0  0  0  0  0
   13.4314  -10.0483    1.3539 H   0  0  0  0  0
   11.2633   -9.8311    0.4198 H   0  0  0  0  0
   11.4883  -11.1448   -0.6880 H   0  0  0  0  0
   13.4040   -7.6526    9.9702 H   0  0  0  0  0
   15.9502   -8.7797   11.2559 H   0  0  0  0  0
   14.6125   -9.8586   11.7225 H   0  0  0  0  0
   16.0584  -10.5263   10.9259 H   0  0  0  0  0
  2  1  1  0  0  0
  1  3  2  0  0  0
  1 28  1  0  0  0
  4  2  1  0  0  0
  4  5  1  0  0  0
 24  4  1  0  0  0
  5  6  1  0  0  0
  6  7  4  0  0  0
  6 11  4  0  0  0
  7  8  4  0  0  0
  8  9  4  0  0  0
 10  9  4  0  0  0
  9 34  1  0  0  0
 11 10  4  0  0  0
 12 13  1  0  0  0
 12 24  1  0  0  0
 13 14  1  0  0  0
 13 19  1  0  0  0
 14 15  1  0  0  0
 15 16  1  0  0  0
 15 37  1  0  0  0
 16 17  1  0  0  0
 16 18  1  0  0  0
 17 36  1  0  0  0
 19 20  1  0  0  0
 20 21  1  0  0  0
 21 22  1  0  0  0
 21 23  2  0  0  0
 22 26  1  0  0  0
 24 25  2  0  0  0
 26 27  1  0  0  0
 28 29  1  0  0  0
 28 32  1  0  0  0
 29 30  1  0  0  0
 30 31  2  0  0  0
 30 38  1  0  0  0
 32 33  1  0  0  0
 32 35  1  0  0  0
 36 37  1  0  0  0
 38 39  4  0  0  0
 38 42  4  0  0  0
 39 40  4  0  0  0
 40 41  4  0  0  0
 40 43  1  0  0  0
 41 42  4  0  0  0
  2 44  1  0  0  0
  2 45  1  0  0  0
  4 46  1  0  0  0
  5 47  1  0  0  0
  5 48  1  0  0  0
  7 49  1  0  0  0
  8 50  1  0  0  0
 10 51  1  0  0  0
 11 52  1  0  0  0
 12 53  1  0  0  0
 13 54  1  0  0  0
 14 55  1  0  0  0
 14 56  1  0  0  0
 15 57  1  0  0  0
 16 58  1  0  0  0
 17 59  1  0  0  0
 17 60  1  0  0  0
 18 61  1  0  0  0
 19 62  1  0  0  0
 19 63  1  0  0  0
 20 64  1  0  0  0
 20 65  1  0  0  0
 26 66  1  0  0  0
 26 67  1  0  0  0
 27 68  1  0  0  0
 27 69  1  0  0  0
 27 70  1  0  0  0
 28 71  1  0  0  0
 29 72  1  0  0  0
 32 73  1  0  0  0
 33 74  1  0  0  0
 33 75  1  0  0  0
 33 76  1  0  0  0
 35 77  1  0  0  0
 35 78  1  0  0  0
 35 79  1  0  0  0
 36 80  1  0  0  0
 36 81  1  0  0  0
 37 82  1  0  0  0
 37 83  1  0  0  0
 39 84  1  0  0  0
 43 85  1  0  0  0
 43 86  1  0  0  0
 43 87  1  0  0  0
M  END
$$$$
