4ufi_ligand
  -I-interpret- 

 24 24  0  0  0  0  0  0  0  0999 V2000
   78.7550   88.0510   20.4930 O   0  0  0  0  0
   79.0740   89.3880   20.1560 C   0  0  0  0  0
   77.8830   90.2730   20.4850 C   0  0  0  0  0
   77.5330   90.1400   21.8600 O   0  0  0  0  0
   76.6990   89.8930   19.6150 C   0  0  0  0  0
   77.1600   90.1390   18.2260 N   0  3  0  0  0
   79.4170   89.4670   18.6720 C   0  0  0  0  0
   80.3380   88.3390   18.2920 C   0  0  0  0  0
   81.1250   88.6920   17.1750 O   0  0  0  0  0
   78.1950   89.2320   17.8900 N   0  3  0  0  0
   78.5390   88.0004   21.4270 H   0  0  0  0  0
   79.9373   89.7300   20.7268 H   0  0  0  0  0
   78.1543   91.3103   20.2888 H   0  0  0  0  0
   78.2853   90.3815   22.4053 H   0  0  0  0  0
   75.8108   90.4760   19.8586 H   0  0  0  0  0
   76.3982   88.8564   19.7667 H   0  0  0  0  0
   77.5140   91.0929   18.1543 H   0  0  0  0  0
   76.3777   90.0072   17.5849 H   0  0  0  0  0
   79.8673   90.4411   18.4810 H   0  0  0  0  0
   79.7383   87.4648   18.0383 H   0  0  0  0  0
   80.9969   88.1236   19.1332 H   0  0  0  0  0
   81.7043   87.9606   16.9491 H   0  0  0  0  0
   78.4206   89.3602   16.9036 H   0  0  0  0  0
   77.8665   88.2877   18.0918 H   0  0  0  0  0
  1  2  1  0  0  0
  2  3  1  0  0  0
  2  7  1  0  0  0
  3  4  1  0  0  0
  3  5  1  0  0  0
  5  6  1  0  0  0
  6 10  1  0  0  0
  7  8  1  0  0  0
  7 10  1  0  0  0
  8  9  1  0  0  0
  1 11  1  0  0  0
  2 12  1  0  0  0
  3 13  1  0  0  0
  4 14  1  0  0  0
  5 15  1  0  0  0
  5 16  1  0  0  0
  6 17  1  0  0  0
  6 18  1  0  0  0
  7 19  1  0  0  0
  8 20  1  0  0  0
  8 21  1  0  0  0
  9 22  1  0  0  0
 10 23  1  0  0  0
 10 24  1  0  0  0
M  END
$$$$
