4fri_ligand
  -I-interpret- 

 45 48  0  0  0  0  0  0  0  0999 V2000
   66.4290   54.9810   11.2800 C   0  0  0  0  0
   67.1120   53.8390   11.8750 O   0  0  0  0  0
   67.5090   52.8280   11.0230 C   0  0  0  0  0
   67.9440   51.6140   11.5530 C   0  0  0  0  0
   68.3550   50.5760   10.7030 C   0  0  0  0  0
   67.5190   52.9820    9.6340 C   0  0  0  0  0
   67.9340   51.9320    8.7940 C   0  0  0  0  0
   68.3550   50.7130    9.3100 C   0  0  0  0  0
   68.8060   49.5580    8.3550 C   0  0  0  0  0
   68.4250   48.1810    8.8840 C   0  0  0  0  0
   67.3460   47.7230    8.0390 O   0  0  0  0  0
   67.2460   48.6000    6.9970 C   0  0  0  0  0
   68.0400   49.6500    7.0980 N   0  0  0  0  0
   66.3950   48.4340    6.0010 N   0  0  0  0  0
   70.2930   49.5210    8.0550 C   0  0  0  0  0
   70.7660   48.7290    7.0160 C   0  0  0  0  0
   71.1870   50.2570    8.8190 C   0  0  0  0  0
   72.5480   50.1870    8.5260 C   0  0  0  0  0
   73.0120   49.3890    7.4970 C   0  0  0  0  0
   72.1240   48.6630    6.7170 C   0  0  0  0  0
   72.5800   47.8260    5.6780 C   0  0  0  0  0
   73.5870   46.8970    5.9340 C   0  0  0  0  0
   74.0070   46.0300    4.9290 C   0  0  0  0  0
   73.4250   46.0980    3.6720 C   0  0  0  0  0
   72.4710   46.9840    3.4590 N   0  0  0  0  0
   72.0300   47.8340    4.3970 C   0  0  0  0  0
   71.0440   48.7050    4.0780 F   0  0  0  0  0
   67.0850   55.4551   10.5500 H   0  0  0  0  0
   65.5188   54.6413   10.7858 H   0  0  0  0  0
   66.1743   55.6976   12.0608 H   0  0  0  0  0
   67.9649   51.4705   12.6333 H   0  0  0  0  0
   68.6845   49.6338   11.1410 H   0  0  0  0  0
   67.2011   53.9279    9.1955 H   0  0  0  0  0
   67.9249   52.0786    7.7139 H   0  0  0  0  0
   68.1195   48.2270    9.9293 H   0  0  0  0  0
   69.2718   47.4953    8.8546 H   0  0  0  0  0
   68.1122   50.4046    6.4155 H   0  0  0  0  0
   65.7762   47.6233    5.9887 H   0  0  0  0  0
   70.0597   48.1478    6.4232 H   0  0  0  0  0
   70.8299   50.8818    9.6376 H   0  0  0  0  0
   73.2558   50.7692    9.1161 H   0  0  0  0  0
   74.0819   49.3299    7.2974 H   0  0  0  0  0
   74.0459   46.8493    6.9215 H   0  0  0  0  0
   74.7910   45.2998    5.1295 H   0  0  0  0  0
   73.7502   45.4308    2.8737 H   0  0  0  0  0
  1  2  1  0  0  0
  2  3  1  0  0  0
  3  4  4  0  0  0
  3  6  4  0  0  0
  4  5  4  0  0  0
  5  8  4  0  0  0
  6  7  4  0  0  0
  7  8  4  0  0  0
  8  9  1  0  0  0
  9 10  1  0  0  0
  9 13  1  0  0  0
  9 15  1  0  0  0
 10 11  1  0  0  0
 11 12  1  0  0  0
 12 13  1  0  0  0
 12 14  2  0  0  0
 15 16  4  0  0  0
 15 17  4  0  0  0
 16 20  4  0  0  0
 17 18  4  0  0  0
 18 19  4  0  0  0
 19 20  4  0  0  0
 20 21  1  0  0  0
 21 22  4  0  0  0
 21 26  4  0  0  0
 22 23  4  0  0  0
 23 24  4  0  0  0
 24 25  4  0  0  0
 25 26  4  0  0  0
 26 27  1  0  0  0
  1 28  1  0  0  0
  1 29  1  0  0  0
  1 30  1  0  0  0
  4 31  1  0  0  0
  5 32  1  0  0  0
  6 33  1  0  0  0
  7 34  1  0  0  0
 10 35  1  0  0  0
 10 36  1  0  0  0
 13 37  1  0  0  0
 14 38  1  0  0  0
 16 39  1  0  0  0
 17 40  1  0  0  0
 18 41  1  0  0  0
 19 42  1  0  0  0
 22 43  1  0  0  0
 23 44  1  0  0  0
 24 45  1  0  0  0
M  END
$$$$
