5e3d_ligand
  -I-interpret- 

 15 16  0  0  0  0  0  0  0  0999 V2000
    7.2230  -10.3220    4.6210 C   0  0  0  0  0
    7.1730  -10.7320    3.3410 C   0  0  0  0  0
    7.8600  -11.8210    2.9390 C   0  0  0  0  0
    5.9530   -8.9670    3.5740 C   0  0  0  0  0
    8.6390  -12.5490    3.8420 N   0  0  0  0  0
    7.9840  -11.0130    5.5680 N   0  0  0  0  0
    7.8320  -12.2280    1.7760 O   0  0  0  0  0
    6.3710   -9.8760    2.6880 N   0  0  0  0  0
    4.8670   -7.5920    3.2540 S   0  0  0  0  0
    6.4710   -9.2310    4.7650 N   0  0  0  0  0
    8.7030  -12.1410    5.1760 C   0  0  0  0  0
    9.6560  -13.0130    6.3320 S   0  0  0  0  0
    9.1561  -13.3709    3.5297 H   0  0  0  0  0
    8.0130  -10.6949    6.5367 H   0  0  0  0  0
    4.6774   -6.9077    4.3786 H   0  0  0  0  0
  1  2  4  0  0  0
  1  6  1  0  0  0
  1 10  4  0  0  0
  2  3  1  0  0  0
  2  8  4  0  0  0
  3  5  1  0  0  0
  3  7  2  0  0  0
  8  4  4  0  0  0
  4  9  1  0  0  0
  4 10  4  0  0  0
  5 11  1  0  0  0
  6 11  1  0  0  0
 11 12  2  0  0  0
  5 13  1  0  0  0
  6 14  1  0  0  0
  9 15  1  0  0  0
M  END
$$$$
