### 
### Created by X-TOOL on Mon Sep 10 21:13:20 2018
### 

@<TRIPOS>MOLECULE
2mg5_ligand
  249   249     1     0     0
SMALL
GAST_HUCK


@<TRIPOS>ATOM
      1 N           8.9900    2.4810   -1.2490 N.4       1 TPO         0.2398
      2 CA          9.2990    3.5390   -0.2510 C.3       1 TPO         0.0911
      3 CB          8.7440    4.9150   -0.6880 C.3       1 TPO         0.1120
      4 CG2         9.7830    5.7080   -1.4630 C.3       1 TPO        -0.0314
      5 OG1         7.5720    4.7490   -1.4940 O.3       1 TPO        -0.3840
      6 C           8.7180    3.1860    1.1100 C.2       1 TPO         0.2294
      7 O           7.5740    2.7660    1.2060 O.2       1 TPO        -0.3906
      8 N           9.5170    3.3390    2.1640 N.am      1 PHE        -0.2591
      9 CA          9.0630    3.0410    3.5250 C.3       1 PHE         0.1406
     10 C           8.1560    4.1440    4.0900 C.2       1 PHE         0.2060
     11 O           7.2220    3.8420    4.8280 O.2       1 PHE        -0.3942
     12 CB         10.2580    2.7370    4.4330 C.3       1 PHE         0.0214
     13 CG         10.2490    1.2800    4.8020 C.ar      1 PHE        -0.0386
     14 CD1        10.7390    0.3160    3.9290 C.ar      1 PHE        -0.0601
     15 CD2         9.6790    0.8710    5.9900 C.ar      1 PHE        -0.0601
     16 CE1        10.6570   -1.0260    4.2430 C.ar      1 PHE        -0.0686
     17 CE2         9.6030   -0.4700    6.3130 C.ar      1 PHE        -0.0686
     18 CZ         10.0880   -1.4190    5.4360 C.ar      1 PHE        -0.0687
     19 N           8.4270    5.4110    3.7230 N.am      1 LYS        -0.2636
     20 CA          7.6480    6.5700    4.2160 C.3       1 LYS         0.1310
     21 C           6.2430    6.7720    3.5890 C.2       1 LYS         0.2039
     22 O           5.2480    6.8040    4.3170 O.2       1 LYS        -0.3944
     23 CB          8.4770    7.8430    4.0260 C.3       1 LYS        -0.0122
     24 CG          9.7630    7.8300    4.8260 C.3       1 LYS        -0.0440
     25 CD         10.7530    8.8600    4.3120 C.3       1 LYS        -0.0124
     26 CE         11.9740    8.9590    5.2120 C.3       1 LYS        -0.0354
     27 NZ         12.9580    9.9550    4.7060 N.4       1 LYS         0.2185
     28 N           6.1700    6.9080    2.2480 N.am      1 GLU        -0.2636
     29 CA          4.8880    7.1610    1.5350 C.3       1 GLU         0.1325
     30 C           4.0100    5.9180    1.3290 C.2       1 GLU         0.2040
     31 O           2.7840    5.9930    1.4470 O.2       1 GLU        -0.3944
     32 CB          5.1150    7.8790    0.1850 C.3       1 GLU        -0.0008
     33 CG          6.2990    7.3780   -0.6390 C.3       1 GLU         0.0044
     34 CD          7.5980    8.0720   -0.2750 C.2       1 GLU         0.0350
     35 OE1         8.2980    7.5850    0.6370 O.co2     1 GLU        -0.5690
     36 OE2         7.9150    9.1040   -0.9030 O.co2     1 GLU        -0.5690
     37 N           4.6530    4.7880    1.0190 N.am      1 VAL        -0.2635
     38 CA          3.9840    3.4950    0.7480 C.3       1 VAL         0.1332
     39 C           2.9690    3.0660    1.8360 C.2       1 VAL         0.2041
     40 O           2.0400    2.3100    1.5390 O.2       1 VAL        -0.3944
     41 CB          5.0370    2.3830    0.4670 C.3       1 VAL        -0.0063
     42 CG1         4.4800    0.9720    0.6340 C.3       1 VAL        -0.0584
     43 CG2         5.5840    2.5370   -0.9460 C.3       1 VAL        -0.0584
     44 N           3.1530    3.5390    3.0790 N.am      1 ALA        -0.2640
     45 CA          2.2720    3.1790    4.2120 C.3       1 ALA         0.1282
     46 C           0.7830    3.3390    3.8900 C.2       1 ALA         0.2037
     47 O          -0.0270    2.4930    4.2730 O.2       1 ALA        -0.3944
     48 CB          2.6010    4.0520    5.4030 C.3       1 ALA        -0.0244
     49 N           0.4390    4.4210    3.1850 N.am      1 ASN        -0.2616
     50 CA         -0.9450    4.6930    2.7860 C.3       1 ASN         0.1476
     51 C          -1.3950    3.7270    1.6680 C.2       1 ASN         0.2062
     52 O          -2.5940    3.4920    1.4880 O.2       1 ASN        -0.3942
     53 CB         -1.0660    6.1610    2.3520 C.3       1 ASN         0.0773
     54 CG         -2.5070    6.6330    2.2140 C.2       1 ASN         0.1780
     55 OD1        -3.1010    7.1410    3.1640 O.2       1 ASN        -0.3970
     56 ND2        -3.0720    6.4640    1.0240 N.am      1 ASN        -0.3007
     57 N          -0.4120    3.1800    0.9290 N.am      1 ALA        -0.2639
     58 CA         -0.6610    2.2270   -0.1630 C.3       1 ALA         0.1282
     59 C          -0.9750    0.8180    0.3640 C.2       1 ALA         0.2036
     60 O          -1.9460    0.1980   -0.0690 O.2       1 ALA        -0.3944
     61 CB          0.5280    2.1920   -1.1150 C.3       1 ALA        -0.0244
     62 N          -0.1350    0.3110    1.2880 N.am      1 VAL        -0.2635
     63 CA         -0.3320   -1.0260    1.8880 C.3       1 VAL         0.1332
     64 C          -1.5290   -1.0320    2.8770 C.2       1 VAL         0.2041
     65 O          -2.1710   -2.0680    3.0720 O.2       1 VAL        -0.3944
     66 CB          0.9800   -1.5730    2.5750 C.3       1 VAL        -0.0063
     67 CG1         1.4850   -0.6490    3.6840 C.3       1 VAL        -0.0584
     68 CG2         0.7790   -2.9920    3.1120 C.3       1 VAL        -0.0584
     69 N          -1.8080    0.1350    3.4870 N.am      1 LYS        -0.2637
     70 CA         -2.9020    0.2860    4.4650 C.3       1 LYS         0.1310
     71 C          -4.2990    0.2440    3.8170 C.2       1 LYS         0.2039
     72 O          -5.2950    0.0450    4.5190 O.2       1 LYS        -0.3944
     73 CB         -2.7320    1.5990    5.2400 C.3       1 LYS        -0.0122
     74 CG         -3.2860    1.5600    6.6590 C.3       1 LYS        -0.0440
     75 CD         -3.1370    2.9070    7.3530 C.3       1 LYS        -0.0124
     76 CE         -3.7740    2.9020    8.7360 C.3       1 LYS        -0.0354
     77 NZ         -2.9720    2.1240    9.7230 N.4       1 LYS         0.2185
     78 N          -4.3710    0.4300    2.4850 N.am      1 ILE        -0.2635
     79 CA         -5.6580    0.4070    1.7600 C.3       1 ILE         0.1335
     80 C          -6.2090   -1.0380    1.6000 C.2       1 ILE         0.2042
     81 O          -7.2410   -1.2480    0.9560 O.2       1 ILE        -0.3944
     82 CB         -5.5380    1.1450    0.3800 C.3       1 ILE        -0.0037
     83 CG1        -6.9140    1.5950   -0.1410 C.3       1 ILE        -0.0491
     84 CG2        -4.8270    0.2930   -0.6740 C.3       1 ILE        -0.0582
     85 CD1        -6.9310    3.0280   -0.6380 C.3       1 ILE        -0.0648
     86 N          -5.5030   -2.0060    2.1960 N.am      1 SER        -0.2616
     87 CA         -5.8950   -3.4170    2.1500 C.3       1 SER         0.1539
     88 C          -6.6270   -3.8240    3.4390 C.2       1 SER         0.2062
     89 O          -6.9110   -5.0080    3.6600 O.2       1 SER        -0.3943
     90 CB         -4.6510   -4.2920    1.9550 C.3       1 SER         0.0843
     91 OG         -3.8750   -3.8440    0.8570 O.3       1 SER        -0.3903
     92 N          -6.9470   -2.8240    4.2740 N.am      1 ALA        -0.2639
     93 CA         -7.6280   -3.0450    5.5540 C.3       1 ALA         0.1282
     94 C          -9.1570   -3.1120    5.4150 C.2       1 ALA         0.2037
     95 O          -9.8530   -3.4450    6.3800 O.2       1 ALA        -0.3944
     96 CB         -7.2370   -1.9500    6.5350 C.3       1 ALA        -0.0244
     97 N          -9.6720   -2.8050    4.2140 N.am      1 SER        -0.2616
     98 CA        -11.1150   -2.8320    3.9570 C.3       1 SER         0.1539
     99 C         -11.5820   -4.2300    3.5400 C.2       1 SER         0.2062
    100 O         -12.5030   -4.7830    4.1470 O.2       1 SER        -0.3943
    101 CB        -11.4920   -1.7950    2.8920 C.3       1 SER         0.0843
    102 OG        -11.6410   -0.5090    3.4660 O.3       1 SER        -0.3903
    103 N         -10.9290   -4.8040    2.5190 N.am      1 LEU        -0.2637
    104 CA        -11.2810   -6.1440    2.0280 C.3       1 LEU         0.1312
    105 C         -10.5550   -7.2470    2.8100 C.2       1 LEU         0.2033
    106 O         -10.9310   -8.4200    2.7260 O.2       1 LEU        -0.3944
    107 CB        -10.9750   -6.2680    0.5280 C.3       1 LEU        -0.0101
    108 CG        -12.0150   -5.6400   -0.4160 C.3       1 LEU        -0.0425
    109 CD1       -11.3800   -5.2890   -1.7530 C.3       1 LEU        -0.0625
    110 CD2       -13.1960   -6.5820   -0.6310 C.3       1 LEU        -0.0625
    111 N          -9.5170   -6.8590    3.5660 N.am      1 MET        -0.2695
    112 CA         -8.7410   -7.7990    4.3760 C.3       1 MET         0.0951
    113 C          -8.5230   -7.2320    5.7830 C.2       1 MET         0.0601
    114 O          -9.0010   -7.8600    6.7520 O.co2     1 MET        -0.5666
    115 CB         -7.3930   -8.1130    3.7000 C.3       1 MET        -0.0089
    116 CG         -6.7690   -9.4370    4.1380 C.3       1 MET        -0.0030
    117 SD         -7.8050  -10.8610    3.7450 S.3       1 MET        -0.1639
    118 CE         -7.1730  -12.0700    4.9060 C.3       1 MET        -0.0181
    119 OXT        -7.8850   -6.1630    5.9030 O.co2     1 MET        -0.5666
    120 H           9.3838    2.7355   -2.1413 H         1 TPO         0.2016
    121 H           7.9906    2.3846   -1.3380 H         1 TPO         0.2016
    122 H           9.3862    1.6056   -0.9443 H         1 TPO         0.2016
    123 H          10.3925    3.6153   -0.1593 H         1 TPO         0.1125
    124 H           8.4736    5.4818    0.2151 H         1 TPO         0.0674
    125 H           9.3580    6.6786   -1.7584 H         1 TPO         0.0258
    126 H          10.0763    5.1471   -2.3627 H         1 TPO         0.0258
    127 H          10.6667    5.8724   -0.8290 H         1 TPO         0.0258
    128 H           6.9230    4.2532   -1.0088 H         1 TPO         0.2102
    129 H          10.4515    3.6659    2.0231 H         1 PHE         0.1886
    130 H           8.4550    2.1258    3.4724 H         1 PHE         0.0823
    131 H          10.1894    3.3468    5.3459 H         1 PHE         0.0474
    132 H          11.1917    2.9750    3.9023 H         1 PHE         0.0474
    133 H          11.1903    0.6209    2.9918 H         1 PHE         0.0557
    134 H           9.2861    1.6107    6.6781 H         1 PHE         0.0557
    135 H          11.0393   -1.7694    3.5529 H         1 PHE         0.0599
    136 H           9.1626   -0.7768    7.2548 H         1 PHE         0.0599
    137 H          10.0217   -2.4720    5.6847 H         1 PHE         0.0559
    138 H           9.1850    5.5759    3.0920 H         1 LYS         0.1883
    139 H           7.4952    6.4162    5.2944 H         1 LYS         0.0800
    140 H           7.8738    8.7061    4.3441 H         1 LYS         0.0312
    141 H           8.7274    7.9436    2.9596 H         1 LYS         0.0312
    142 H          10.2179    6.8311    4.7539 H         1 LYS         0.0269
    143 H           9.5310    8.0523    5.8780 H         1 LYS         0.0269
    144 H          10.2585    9.8417    4.2718 H         1 LYS         0.0317
    145 H          11.0769    8.5709    3.3013 H         1 LYS         0.0317
    146 H          12.4597    7.9733    5.2621 H         1 LYS         0.0813
    147 H          11.6498    9.2596    6.2192 H         1 LYS         0.0813
    148 H          13.7502    9.9907    5.3283 H         1 LYS         0.1994
    149 H          12.5240   10.8637    4.6621 H         1 LYS         0.1994
    150 H          13.2661    9.6850    3.7850 H         1 LYS         0.1994
    151 H           7.0111    6.8359    1.7119 H         1 GLU         0.1883
    152 H           4.3127    7.8475    2.1736 H         1 GLU         0.0801
    153 H           5.2754    8.9472    0.3928 H         1 GLU         0.0330
    154 H           4.2051    7.7559   -0.4208 H         1 GLU         0.0330
    155 H           6.0892    7.5589   -1.7035 H         1 GLU         0.0433
    156 H           6.4163    6.2979   -0.4668 H         1 GLU         0.0433
    157 H           5.6512    4.8177    0.9666 H         1 VAL         0.1883
    158 H           3.4050    3.6303   -0.1774 H         1 VAL         0.0802
    159 H           5.8632    2.5105    1.1819 H         1 VAL         0.0343
    160 H           5.2713    0.2380    0.4219 H         1 VAL         0.0234
    161 H           3.6443    0.8225   -0.0654 H         1 VAL         0.0234
    162 H           4.1230    0.8384    1.6658 H         1 VAL         0.0234
    163 H           5.9876    3.5522   -1.0743 H         1 VAL         0.0234
    164 H           4.7753    2.3694   -1.6726 H         1 VAL         0.0234
    165 H           6.3842    1.8007   -1.1117 H         1 VAL         0.0234
    166 H           3.9179    4.1610    3.2462 H         1 ALA         0.1883
    167 H           2.4599    2.1271    4.4730 H         1 ALA         0.0797
    168 H           1.9463    3.7847    6.2455 H         1 ALA         0.0277
    169 H           2.4447    5.1081    5.1379 H         1 ALA         0.0277
    170 H           3.6512    3.8980    5.6916 H         1 ALA         0.0277
    171 H           1.1526    5.0694    2.9197 H         1 ASN         0.1885
    172 H          -1.5979    4.5341    3.6569 H         1 ASN         0.0826
    173 H          -0.5654    6.2798    1.3797 H         1 ASN         0.0551
    174 H          -0.5635    6.7892    3.1023 H         1 ASN         0.0551
    175 H          -4.0169    6.7547    0.8733 H         1 ASN         0.1814
    176 H          -2.5525    6.0460    0.2787 H         1 ASN         0.1814
    177 H           0.5336    3.4340    1.1324 H         1 ALA         0.1883
    178 H          -1.5388    2.5792   -0.7247 H         1 ALA         0.0797
    179 H           0.3277    1.4759   -1.9256 H         1 ALA         0.0277
    180 H           1.4288    1.8812   -0.5654 H         1 ALA         0.0277
    181 H           0.6859    3.1936   -1.5414 H         1 ALA         0.0277
    182 H           0.6497    0.8587    1.5782 H         1 VAL         0.1883
    183 H          -0.5807   -1.7157    1.0680 H         1 VAL         0.0802
    184 H           1.7603   -1.6167    1.8009 H         1 VAL         0.0343
    185 H           2.3971   -1.0740    4.1283 H         1 VAL         0.0234
    186 H           0.7112   -0.5500    4.4595 H         1 VAL         0.0234
    187 H           1.7100    0.3415    3.2619 H         1 VAL         0.0234
    188 H           0.4161   -3.6424    2.3025 H         1 VAL         0.0234
    189 H           0.0406   -2.9744    3.9271 H         1 VAL         0.0234
    190 H           1.7358   -3.3791    3.4923 H         1 VAL         0.0234
    191 H          -1.2491    0.9347    3.2676 H         1 LYS         0.1883
    192 H          -2.8349   -0.5501    5.1767 H         1 LYS         0.0800
    193 H          -3.2520    2.3958    4.6880 H         1 LYS         0.0312
    194 H          -1.6582    1.8313    5.2947 H         1 LYS         0.0312
    195 H          -2.7399    0.7987    7.2352 H         1 LYS         0.0269
    196 H          -4.3527    1.2945    6.6192 H         1 LYS         0.0269
    197 H          -3.6233    3.6798    6.7395 H         1 LYS         0.0317
    198 H          -2.0666    3.1392    7.4545 H         1 LYS         0.0317
    199 H          -4.7762    2.4546    8.6627 H         1 LYS         0.0813
    200 H          -3.8608    3.9399    9.0898 H         1 LYS         0.0813
    201 H          -3.4294    2.1478   10.6209 H         1 LYS         0.1994
    202 H          -2.0528    2.5297    9.8034 H         1 LYS         0.1994
    203 H          -2.8916    1.1685    9.4121 H         1 LYS         0.1994
    204 H          -3.5278    0.5885    1.9712 H         1 ILE         0.1883
    205 H          -6.3856    0.9653    2.3673 H         1 ILE         0.0803
    206 H          -4.9301    2.0472    0.5430 H         1 ILE         0.0345
    207 H          -7.6441    1.5008    0.6763 H         1 ILE         0.0267
    208 H          -7.2055    0.9347   -0.9710 H         1 ILE         0.0267
    209 H          -3.8456   -0.0220   -0.2897 H         1 ILE         0.0235
    210 H          -4.6890    0.8842   -1.5913 H         1 ILE         0.0235
    211 H          -5.4353   -0.5956   -0.8985 H         1 ILE         0.0235
    212 H          -7.9408    3.2807   -0.9937 H         1 ILE         0.0230
    213 H          -6.2130    3.1382   -1.4641 H         1 ILE         0.0230
    214 H          -6.6516    3.7043    0.1833 H         1 ILE         0.0230
    215 H          -4.6727   -1.7557    2.6939 H         1 SER         0.1884
    216 H          -6.5736   -3.5674    1.2974 H         1 SER         0.0823
    217 H          -4.9674   -5.3293    1.7709 H         1 SER         0.0606
    218 H          -4.0379   -4.2521    2.8674 H         1 SER         0.0606
    219 H          -3.1130   -4.4030    0.7602 H         1 SER         0.2097
    220 H          -6.7112   -1.8880    4.0126 H         1 ALA         0.1883
    221 H          -7.2855   -4.0099    5.9561 H         1 ALA         0.0797
    222 H          -7.7486   -2.1174    7.4943 H         1 ALA         0.0277
    223 H          -7.5313   -0.9712    6.1284 H         1 ALA         0.0277
    224 H          -6.1484   -1.9697    6.6917 H         1 ALA         0.0277
    225 H          -9.0522   -2.5500    3.4718 H         1 SER         0.1884
    226 H         -11.6315   -2.5664    4.8912 H         1 SER         0.0823
    227 H         -12.4413   -2.0911    2.4217 H         1 SER         0.0606
    228 H         -10.7004   -1.7588    2.1291 H         1 SER         0.0606
    229 H         -11.8740    0.1142    2.7879 H         1 SER         0.2097
    230 H         -10.1814   -4.3063    2.0792 H         1 LEU         0.1883
    231 H         -12.3628   -6.2827    2.1707 H         1 LEU         0.0800
    232 H         -10.9000   -7.3382    0.2851 H         1 LEU         0.0315
    233 H         -10.0075   -5.7802    0.3383 H         1 LEU         0.0315
    234 H         -12.3881   -4.7146    0.0471 H         1 LEU         0.0298
    235 H         -12.1382   -4.8421   -2.4129 H         1 LEU         0.0232
    236 H         -10.9797   -6.2012   -2.2196 H         1 LEU         0.0232
    237 H         -10.5630   -4.5699   -1.5934 H         1 LEU         0.0232
    238 H         -13.6486   -6.8302    0.3404 H         1 LEU         0.0232
    239 H         -12.8458   -7.5038   -1.1185 H         1 LEU         0.0232
    240 H         -13.9450   -6.0911   -1.2697 H         1 LEU         0.0232
    241 H          -9.2641   -5.8916    3.5765 H         1 MET         0.1875
    242 H          -9.3109   -8.7358    4.4633 H         1 MET         0.0726
    243 H          -6.6888   -7.3029    3.9407 H         1 MET         0.0313
    244 H          -7.5522   -8.1493    2.6122 H         1 MET         0.0313
    245 H          -6.6097   -9.4077    5.2260 H         1 MET         0.0378
    246 H          -5.8012   -9.5551    3.6287 H         1 MET         0.0378
    247 H          -7.7204  -13.0163    4.7843 H         1 MET         0.0340
    248 H          -7.3075  -11.6980    5.9324 H         1 MET         0.0340
    249 H          -6.1030  -12.2382    4.7142 H         1 MET         0.0340
@<TRIPOS>BOND
     1    1    2 1  
     2    2    3 1  
     3    2    6 1  
     4    3    4 1  
     5    3    5 1  
     6    6    7 2  
     7    6    8 am 
     8    8    9 1  
     9    9   10 1  
    10    9   12 1  
    11   10   11 2  
    12   10   19 am 
    13   12   13 1  
    14   13   14 ar 
    15   13   15 ar 
    16   14   16 ar 
    17   15   17 ar 
    18   16   18 ar 
    19   17   18 ar 
    20   19   20 1  
    21   20   21 1  
    22   20   23 1  
    23   21   22 2  
    24   21   28 am 
    25   23   24 1  
    26   24   25 1  
    27   25   26 1  
    28   26   27 1  
    29   28   29 1  
    30   29   30 1  
    31   29   32 1  
    32   30   31 2  
    33   30   37 am 
    34   32   33 1  
    35   33   34 1  
    36   34   35 ar 
    37   34   36 ar 
    38   37   38 1  
    39   38   39 1  
    40   38   41 1  
    41   39   40 2  
    42   39   44 am 
    43   41   42 1  
    44   41   43 1  
    45   44   45 1  
    46   45   46 1  
    47   45   48 1  
    48   46   47 2  
    49   46   49 am 
    50   49   50 1  
    51   50   51 1  
    52   50   53 1  
    53   51   52 2  
    54   51   57 am 
    55   53   54 1  
    56   54   55 2  
    57   54   56 am 
    58   57   58 1  
    59   58   59 1  
    60   58   61 1  
    61   59   60 2  
    62   59   62 am 
    63   62   63 1  
    64   63   64 1  
    65   63   66 1  
    66   64   65 2  
    67   64   69 am 
    68   66   67 1  
    69   66   68 1  
    70   69   70 1  
    71   70   71 1  
    72   70   73 1  
    73   71   72 2  
    74   71   78 am 
    75   73   74 1  
    76   74   75 1  
    77   75   76 1  
    78   76   77 1  
    79   78   79 1  
    80   79   80 1  
    81   79   82 1  
    82   80   81 2  
    83   80   86 am 
    84   82   83 1  
    85   82   84 1  
    86   83   85 1  
    87   86   87 1  
    88   87   88 1  
    89   87   90 1  
    90   88   89 2  
    91   88   92 am 
    92   90   91 1  
    93   92   93 1  
    94   93   94 1  
    95   93   96 1  
    96   94   95 2  
    97   94   97 am 
    98   97   98 1  
    99   98   99 1  
   100   98  101 1  
   101   99  100 2  
   102   99  103 am 
   103  101  102 1  
   104  103  104 1  
   105  104  105 1  
   106  104  107 1  
   107  105  106 2  
   108  105  111 am 
   109  107  108 1  
   110  108  109 1  
   111  108  110 1  
   112  111  112 1  
   113  112  113 1  
   114  112  115 1  
   115  113  114 ar 
   116  113  119 ar 
   117  115  116 1  
   118  116  117 1  
   119  117  118 1  
   120    1  120 1  
   121    1  121 1  
   122    1  122 1  
   123    2  123 1  
   124    3  124 1  
   125    4  125 1  
   126    4  126 1  
   127    4  127 1  
   128    5  128 1  
   129    8  129 1  
   130    9  130 1  
   131   12  131 1  
   132   12  132 1  
   133   14  133 1  
   134   15  134 1  
   135   16  135 1  
   136   17  136 1  
   137   18  137 1  
   138   19  138 1  
   139   20  139 1  
   140   23  140 1  
   141   23  141 1  
   142   24  142 1  
   143   24  143 1  
   144   25  144 1  
   145   25  145 1  
   146   26  146 1  
   147   26  147 1  
   148   27  148 1  
   149   27  149 1  
   150   27  150 1  
   151   28  151 1  
   152   29  152 1  
   153   32  153 1  
   154   32  154 1  
   155   33  155 1  
   156   33  156 1  
   157   37  157 1  
   158   38  158 1  
   159   41  159 1  
   160   42  160 1  
   161   42  161 1  
   162   42  162 1  
   163   43  163 1  
   164   43  164 1  
   165   43  165 1  
   166   44  166 1  
   167   45  167 1  
   168   48  168 1  
   169   48  169 1  
   170   48  170 1  
   171   49  171 1  
   172   50  172 1  
   173   53  173 1  
   174   53  174 1  
   175   56  175 1  
   176   56  176 1  
   177   57  177 1  
   178   58  178 1  
   179   61  179 1  
   180   61  180 1  
   181   61  181 1  
   182   62  182 1  
   183   63  183 1  
   184   66  184 1  
   185   67  185 1  
   186   67  186 1  
   187   67  187 1  
   188   68  188 1  
   189   68  189 1  
   190   68  190 1  
   191   69  191 1  
   192   70  192 1  
   193   73  193 1  
   194   73  194 1  
   195   74  195 1  
   196   74  196 1  
   197   75  197 1  
   198   75  198 1  
   199   76  199 1  
   200   76  200 1  
   201   77  201 1  
   202   77  202 1  
   203   77  203 1  
   204   78  204 1  
   205   79  205 1  
   206   82  206 1  
   207   83  207 1  
   208   83  208 1  
   209   84  209 1  
   210   84  210 1  
   211   84  211 1  
   212   85  212 1  
   213   85  213 1  
   214   85  214 1  
   215   86  215 1  
   216   87  216 1  
   217   90  217 1  
   218   90  218 1  
   219   91  219 1  
   220   92  220 1  
   221   93  221 1  
   222   96  222 1  
   223   96  223 1  
   224   96  224 1  
   225   97  225 1  
   226   98  226 1  
   227  101  227 1  
   228  101  228 1  
   229  102  229 1  
   230  103  230 1  
   231  104  231 1  
   232  107  232 1  
   233  107  233 1  
   234  108  234 1  
   235  109  235 1  
   236  109  236 1  
   237  109  237 1  
   238  110  238 1  
   239  110  239 1  
   240  110  240 1  
   241  111  241 1  
   242  112  242 1  
   243  115  243 1  
   244  115  244 1  
   245  116  245 1  
   246  116  246 1  
   247  118  247 1  
   248  118  248 1  
   249  118  249 1  
@<TRIPOS>SUBSTRUCTURE
     1 TPO         1

