2mg5_ligand
  -I-interpret- 

251251  0  0  0  0  0  0  0  0999 V2000
    8.9900    2.4810   -1.2490 N   0  3  0  0  0
    9.2990    3.5390   -0.2510 C   0  0  0  0  0
    8.7440    4.9150   -0.6880 C   0  0  0  0  0
    9.7830    5.7080   -1.4630 C   0  0  0  0  0
    7.5720    4.7490   -1.4940 O   0  0  0  0  0
    8.7180    3.1860    1.1100 C   0  0  0  0  0
    7.5740    2.7660    1.2060 O   0  0  0  0  0
    9.5170    3.3390    2.1640 N   0  0  0  0  0
    9.0630    3.0410    3.5250 C   0  0  0  0  0
    8.1560    4.1440    4.0900 C   0  0  0  0  0
    7.2220    3.8420    4.8280 O   0  0  0  0  0
   10.2580    2.7370    4.4330 C   0  0  0  0  0
   10.2490    1.2800    4.8020 C   0  0  0  0  0
   10.7390    0.3160    3.9290 C   0  0  0  0  0
    9.6790    0.8710    5.9900 C   0  0  0  0  0
   10.6570   -1.0260    4.2430 C   0  0  0  0  0
    9.6030   -0.4700    6.3130 C   0  0  0  0  0
   10.0880   -1.4190    5.4360 C   0  0  0  0  0
    8.4270    5.4110    3.7230 N   0  0  0  0  0
    7.6480    6.5700    4.2160 C   0  0  0  0  0
    6.2430    6.7720    3.5890 C   0  0  0  0  0
    5.2480    6.8040    4.3170 O   0  0  0  0  0
    8.4770    7.8430    4.0260 C   0  0  0  0  0
    9.7630    7.8300    4.8260 C   0  0  0  0  0
   10.7530    8.8600    4.3120 C   0  0  0  0  0
   11.9740    8.9590    5.2120 C   0  0  0  0  0
   12.9580    9.9550    4.7060 N   0  3  0  0  0
    6.1700    6.9080    2.2480 N   0  0  0  0  0
    4.8880    7.1610    1.5350 C   0  0  0  0  0
    4.0100    5.9180    1.3290 C   0  0  0  0  0
    2.7840    5.9930    1.4470 O   0  0  0  0  0
    5.1150    7.8790    0.1850 C   0  0  0  0  0
    6.2990    7.3780   -0.6390 C   0  0  0  0  0
    7.5980    8.0720   -0.2750 C   0  0  0  0  0
    8.2980    7.5850    0.6370 O   0  0  0  0  0
    7.9150    9.1040   -0.9030 O   0  0  0  0  0
    4.6530    4.7880    1.0190 N   0  0  0  0  0
    3.9840    3.4950    0.7480 C   0  0  0  0  0
    2.9690    3.0660    1.8360 C   0  0  0  0  0
    2.0400    2.3100    1.5390 O   0  0  0  0  0
    5.0370    2.3830    0.4670 C   0  0  0  0  0
    4.4800    0.9720    0.6340 C   0  0  0  0  0
    5.5840    2.5370   -0.9460 C   0  0  0  0  0
    3.1530    3.5390    3.0790 N   0  0  0  0  0
    2.2720    3.1790    4.2120 C   0  0  0  0  0
    0.7830    3.3390    3.8900 C   0  0  0  0  0
   -0.0270    2.4930    4.2730 O   0  0  0  0  0
    2.6010    4.0520    5.4030 C   0  0  0  0  0
    0.4390    4.4210    3.1850 N   0  0  0  0  0
   -0.9450    4.6930    2.7860 C   0  0  0  0  0
   -1.3950    3.7270    1.6680 C   0  0  0  0  0
   -2.5940    3.4920    1.4880 O   0  0  0  0  0
   -1.0660    6.1610    2.3520 C   0  0  0  0  0
   -2.5070    6.6330    2.2140 C   0  0  0  0  0
   -3.1010    7.1410    3.1640 O   0  0  0  0  0
   -3.0720    6.4640    1.0240 N   0  0  0  0  0
   -0.4120    3.1800    0.9290 N   0  0  0  0  0
   -0.6610    2.2270   -0.1630 C   0  0  0  0  0
   -0.9750    0.8180    0.3640 C   0  0  0  0  0
   -1.9460    0.1980   -0.0690 O   0  0  0  0  0
    0.5280    2.1920   -1.1150 C   0  0  0  0  0
   -0.1350    0.3110    1.2880 N   0  0  0  0  0
   -0.3320   -1.0260    1.8880 C   0  0  0  0  0
   -1.5290   -1.0320    2.8770 C   0  0  0  0  0
   -2.1710   -2.0680    3.0720 O   0  0  0  0  0
    0.9800   -1.5730    2.5750 C   0  0  0  0  0
    1.4850   -0.6490    3.6840 C   0  0  0  0  0
    0.7790   -2.9920    3.1120 C   0  0  0  0  0
   -1.8080    0.1350    3.4870 N   0  0  0  0  0
   -2.9020    0.2860    4.4650 C   0  0  0  0  0
   -4.2990    0.2440    3.8170 C   0  0  0  0  0
   -5.2950    0.0450    4.5190 O   0  0  0  0  0
   -2.7320    1.5990    5.2400 C   0  0  0  0  0
   -3.2860    1.5600    6.6590 C   0  0  0  0  0
   -3.1370    2.9070    7.3530 C   0  0  0  0  0
   -3.7740    2.9020    8.7360 C   0  0  0  0  0
   -2.9720    2.1240    9.7230 N   0  3  0  0  0
   -4.3710    0.4300    2.4850 N   0  0  0  0  0
   -5.6580    0.4070    1.7600 C   0  0  0  0  0
   -6.2090   -1.0380    1.6000 C   0  0  0  0  0
   -7.2410   -1.2480    0.9560 O   0  0  0  0  0
   -5.5380    1.1450    0.3800 C   0  0  0  0  0
   -6.9140    1.5950   -0.1410 C   0  0  0  0  0
   -4.8270    0.2930   -0.6740 C   0  0  0  0  0
   -6.9310    3.0280   -0.6380 C   0  0  0  0  0
   -5.5030   -2.0060    2.1960 N   0  0  0  0  0
   -5.8950   -3.4170    2.1500 C   0  0  0  0  0
   -6.6270   -3.8240    3.4390 C   0  0  0  0  0
   -6.9110   -5.0080    3.6600 O   0  0  0  0  0
   -4.6510   -4.2920    1.9550 C   0  0  0  0  0
   -3.8750   -3.8440    0.8570 O   0  0  0  0  0
   -6.9470   -2.8240    4.2740 N   0  0  0  0  0
   -7.6280   -3.0450    5.5540 C   0  0  0  0  0
   -9.1570   -3.1120    5.4150 C   0  0  0  0  0
   -9.8530   -3.4450    6.3800 O   0  0  0  0  0
   -7.2370   -1.9500    6.5350 C   0  0  0  0  0
   -9.6720   -2.8050    4.2140 N   0  0  0  0  0
  -11.1150   -2.8320    3.9570 C   0  0  0  0  0
  -11.5820   -4.2300    3.5400 C   0  0  0  0  0
  -12.5030   -4.7830    4.1470 O   0  0  0  0  0
  -11.4920   -1.7950    2.8920 C   0  0  0  0  0
  -11.6410   -0.5090    3.4660 O   0  0  0  0  0
  -10.9290   -4.8040    2.5190 N   0  0  0  0  0
  -11.2810   -6.1440    2.0280 C   0  0  0  0  0
  -10.5550   -7.2470    2.8100 C   0  0  0  0  0
  -10.9310   -8.4200    2.7260 O   0  0  0  0  0
  -10.9750   -6.2680    0.5280 C   0  0  0  0  0
  -12.0150   -5.6400   -0.4160 C   0  0  0  0  0
  -11.3800   -5.2890   -1.7530 C   0  0  0  0  0
  -13.1960   -6.5820   -0.6310 C   0  0  0  0  0
   -9.5170   -6.8590    3.5660 N   0  0  0  0  0
   -8.7410   -7.7990    4.3760 C   0  0  0  0  0
   -8.5230   -7.2320    5.7830 C   0  0  0  0  0
   -9.0010   -7.8600    6.7520 O   0  0  0  0  0
   -7.3930   -8.1130    3.7000 C   0  0  0  0  0
   -6.7690   -9.4370    4.1380 C   0  0  0  0  0
   -7.8050  -10.8610    3.7450 S   0  0  0  0  0
   -7.1730  -12.0700    4.9060 C   0  0  0  0  0
   -7.8850   -6.1630    5.9030 O   0  0  0  0  0
    9.3889    2.7396   -2.1514 H   0  0  0  0  0
    9.3913    1.5958   -0.9396 H   0  0  0  0  0
    7.9785    2.3844   -1.3382 H   0  0  0  0  0
   10.3851    3.6008   -0.1833 H   0  0  0  0  0
    8.4877    5.4680    0.2156 H   0  0  0  0  0
   10.0417    5.1710   -2.3756 H   0  0  0  0  0
    9.3753    6.6860   -1.7186 H   0  0  0  0  0
   10.6746    5.8338   -0.8488 H   0  0  0  0  0
    6.9161    4.2480   -1.0037 H   0  0  0  0  0
   10.4702    3.6724    2.0203 H   0  0  0  0  0
    8.4438    2.1448    3.4853 H   0  0  0  0  0
   10.1900    3.3413    5.3376 H   0  0  0  0  0
   11.1832    2.9729    3.9071 H   0  0  0  0  0
   11.1928    0.6226    2.9866 H   0  0  0  0  0
    9.2839    1.6148    6.6819 H   0  0  0  0  0
   11.0414   -1.7735    3.5491 H   0  0  0  0  0
    9.1602   -0.7785    7.2600 H   0  0  0  0  0
   10.0213   -2.4778    5.6861 H   0  0  0  0  0
    9.2002    5.5792    3.0793 H   0  0  0  0  0
    7.4504    6.3518    5.2655 H   0  0  0  0  0
    7.8780    8.6862    4.3701 H   0  0  0  0  0
    8.7407    7.9155    2.9709 H   0  0  0  0  0
   10.2152    6.8425    4.7340 H   0  0  0  0  0
    9.5255    8.0687    5.8627 H   0  0  0  0  0
   10.2600    9.8319    4.2918 H   0  0  0  0  0
   11.0812    8.5566    3.3179 H   0  0  0  0  0
   12.4587    7.9831    5.2386 H   0  0  0  0  0
   11.6443    9.2767    6.2012 H   0  0  0  0  0
   13.7591    9.9902    5.3364 H   0  0  0  0  0
   13.2690    9.6807    3.7741 H   0  0  0  0  0
   12.5177   10.8740    4.6620 H   0  0  0  0  0
    7.0279    6.8344    1.7012 H   0  0  0  0  0
    4.3332    7.8157    2.2070 H   0  0  0  0  0
    5.3222    8.9228    0.4210 H   0  0  0  0  0
    4.2228    7.6991   -0.4147 H   0  0  0  0  0
    6.0898    7.5865   -1.6882 H   0  0  0  0  0
    6.4201    6.3133   -0.4395 H   0  0  0  0  0
    7.2391    9.3002   -1.5559 H   0  0  0  0  0
    5.6712    4.8183    0.9656 H   0  0  0  0  0
    3.3829    3.6451   -0.1488 H   0  0  0  0  0
    5.8277    2.5097    1.2065 H   0  0  0  0  0
    4.1266    0.8410    1.6568 H   0  0  0  0  0
    3.6520    0.8252   -0.0595 H   0  0  0  0  0
    5.2650    0.2456    0.4236 H   0  0  0  0  0
    4.7668    2.4501   -1.6621 H   0  0  0  0  0
    6.0551    3.5147   -1.0473 H   0  0  0  0  0
    6.3202    1.7560   -1.1364 H   0  0  0  0  0
    3.9332    4.1735    3.2495 H   0  0  0  0  0
    2.4533    2.1259    4.4269 H   0  0  0  0  0
    3.6418    3.8985    5.6879 H   0  0  0  0  0
    2.4457    5.0981    5.1390 H   0  0  0  0  0
    1.9516    3.7862    6.2371 H   0  0  0  0  0
    1.1669    5.0824    2.9144 H   0  0  0  0  0
   -1.6084    4.5254    3.6345 H   0  0  0  0  0
   -0.5941    6.2548    1.3739 H   0  0  0  0  0
   -0.5922    6.7714    3.1208 H   0  0  0  0  0
   -4.0359    6.7602    0.8704 H   0  0  0  0  0
   -2.5421    6.0380    0.2637 H   0  0  0  0  0
    0.5525    3.4391    1.1365 H   0  0  0  0  0
   -1.5407    2.5714   -0.7066 H   0  0  0  0  0
    0.6835    3.1850   -1.5368 H   0  0  0  0  0
    1.4198    1.8840   -0.5692 H   0  0  0  0  0
    0.3284    1.4821   -1.9177 H   0  0  0  0  0
    0.6654    0.8697    1.5841 H   0  0  0  0  0
   -0.5694   -1.7060    1.0699 H   0  0  0  0  0
    1.7452   -1.6015    1.7992 H   0  0  0  0  0
    1.7075    0.3321    3.2645 H   0  0  0  0  0
    0.7174   -0.5517    4.4517 H   0  0  0  0  0
    2.3887   -1.0712    4.1235 H   0  0  0  0  0
   -0.0234   -2.9896    3.8498 H   0  0  0  0  0
    0.5158   -3.6566    2.2891 H   0  0  0  0  0
    1.7020   -3.3368    3.5782 H   0  0  0  0  0
   -1.2380    0.9507    3.2632 H   0  0  0  0  0
   -2.8382   -0.5652    5.1429 H   0  0  0  0  0
   -3.2850    2.3668    4.6989 H   0  0  0  0  0
   -1.6620    1.7920    5.3167 H   0  0  0  0  0
   -2.7286    0.8152    7.2271 H   0  0  0  0  0
   -4.3464    1.3126    6.6091 H   0  0  0  0  0
   -3.6375    3.6625    6.7473 H   0  0  0  0  0
   -2.0738    3.1194    7.4655 H   0  0  0  0  0
   -4.7563    2.4365    8.6551 H   0  0  0  0  0
   -3.8341    3.9328    9.0853 H   0  0  0  0  0
   -3.4358    2.1488   10.6311 H   0  0  0  0  0
   -2.8913    1.1574    9.4073 H   0  0  0  0  0
   -2.0421    2.5354    9.8034 H   0  0  0  0  0
   -3.5110    0.5916    1.9610 H   0  0  0  0  0
   -6.3854    0.9510    2.3626 H   0  0  0  0  0
   -4.9278    2.0304    0.5585 H   0  0  0  0  0
   -7.6177    1.5267    0.6886 H   0  0  0  0  0
   -7.1728    0.9524   -0.9825 H   0  0  0  0  0
   -3.8208    0.0553   -0.3288 H   0  0  0  0  0
   -5.3860   -0.6295   -0.8311 H   0  0  0  0  0
   -4.7696    0.8485   -1.6101 H   0  0  0  0  0
   -6.6540    3.6971    0.1767 H   0  0  0  0  0
   -6.2192    3.1358   -1.4564 H   0  0  0  0  0
   -7.9320    3.2772   -0.9902 H   0  0  0  0  0
   -4.6560   -1.7507    2.7039 H   0  0  0  0  0
   -6.5757   -3.5612    1.3110 H   0  0  0  0  0
   -4.9728   -5.3148    1.7588 H   0  0  0  0  0
   -4.0417   -4.2358    2.8571 H   0  0  0  0  0
   -3.1050   -4.4089    0.7592 H   0  0  0  0  0
   -6.7065   -1.8693    4.0073 H   0  0  0  0  0
   -7.3064   -4.0169    5.9282 H   0  0  0  0  0
   -6.1582   -1.9706    6.6894 H   0  0  0  0  0
   -7.5291   -0.9807    6.1309 H   0  0  0  0  0
   -7.7446   -2.1169    7.4851 H   0  0  0  0  0
   -9.0399   -2.5449    3.4569 H   0  0  0  0  0
  -11.6241   -2.5760    4.8862 H   0  0  0  0  0
  -12.4392   -2.0876    2.4390 H   0  0  0  0  0
  -10.6980   -1.7552    2.1463 H   0  0  0  0  0
  -11.8764    0.1207    2.7807 H   0  0  0  0  0
  -10.1665   -4.2964    2.0704 H   0  0  0  0  0
  -12.3517   -6.2757    2.1842 H   0  0  0  0  0
  -10.9562   -7.3343    0.3028 H   0  0  0  0  0
  -10.0398   -5.7346    0.3575 H   0  0  0  0  0
  -12.3823   -4.7262    0.0511 H   0  0  0  0  0
  -10.5707   -4.5765   -1.5935 H   0  0  0  0  0
  -10.9837   -6.1936   -2.2142 H   0  0  0  0  0
  -12.1322   -4.8462   -2.4059 H   0  0  0  0  0
  -12.8405   -7.5137   -1.0711 H   0  0  0  0  0
  -13.6725   -6.7898    0.3271 H   0  0  0  0  0
  -13.9157   -6.1131   -1.3020 H   0  0  0  0  0
   -9.2590   -5.8722    3.5767 H   0  0  0  0  0
   -9.3018   -8.7297    4.4615 H   0  0  0  0  0
   -6.6990   -7.3208    3.9810 H   0  0  0  0  0
   -7.5783   -8.1828    2.6281 H   0  0  0  0  0
   -6.6420   -9.4047    5.2201 H   0  0  0  0  0
   -5.8249   -9.5536    3.6058 H   0  0  0  0  0
   -6.1127  -12.2357    4.7149 H   0  0  0  0  0
   -7.3069  -11.7002    5.9226 H   0  0  0  0  0
   -7.7162  -13.0072    4.7844 H   0  0  0  0  0
   -7.6119   -5.8555    5.0355 H   0  0  0  0  0
  1  2  1  0  0  0
  2  3  1  0  0  0
  2  6  1  0  0  0
  3  4  1  0  0  0
  3  5  1  0  0  0
  6  7  2  0  0  0
  6  8  1  0  0  0
  8  9  1  0  0  0
  9 10  1  0  0  0
  9 12  1  0  0  0
 10 11  2  0  0  0
 10 19  1  0  0  0
 12 13  1  0  0  0
 13 14  4  0  0  0
 13 15  4  0  0  0
 14 16  4  0  0  0
 15 17  4  0  0  0
 16 18  4  0  0  0
 17 18  4  0  0  0
 19 20  1  0  0  0
 20 21  1  0  0  0
 20 23  1  0  0  0
 21 22  2  0  0  0
 21 28  1  0  0  0
 23 24  1  0  0  0
 24 25  1  0  0  0
 25 26  1  0  0  0
 26 27  1  0  0  0
 28 29  1  0  0  0
 29 30  1  0  0  0
 29 32  1  0  0  0
 30 31  2  0  0  0
 30 37  1  0  0  0
 32 33  1  0  0  0
 33 34  1  0  0  0
 34 35  2  0  0  0
 34 36  1  0  0  0
 37 38  1  0  0  0
 38 39  1  0  0  0
 38 41  1  0  0  0
 39 40  2  0  0  0
 39 44  1  0  0  0
 41 42  1  0  0  0
 41 43  1  0  0  0
 44 45  1  0  0  0
 45 46  1  0  0  0
 45 48  1  0  0  0
 46 47  2  0  0  0
 46 49  1  0  0  0
 49 50  1  0  0  0
 50 51  1  0  0  0
 50 53  1  0  0  0
 51 52  2  0  0  0
 51 57  1  0  0  0
 53 54  1  0  0  0
 54 55  2  0  0  0
 54 56  1  0  0  0
 57 58  1  0  0  0
 58 59  1  0  0  0
 58 61  1  0  0  0
 59 60  2  0  0  0
 59 62  1  0  0  0
 62 63  1  0  0  0
 63 64  1  0  0  0
 63 66  1  0  0  0
 64 65  2  0  0  0
 64 69  1  0  0  0
 66 67  1  0  0  0
 66 68  1  0  0  0
 69 70  1  0  0  0
 70 71  1  0  0  0
 70 73  1  0  0  0
 71 72  2  0  0  0
 71 78  1  0  0  0
 73 74  1  0  0  0
 74 75  1  0  0  0
 75 76  1  0  0  0
 76 77  1  0  0  0
 78 79  1  0  0  0
 79 80  1  0  0  0
 79 82  1  0  0  0
 80 81  2  0  0  0
 80 86  1  0  0  0
 82 83  1  0  0  0
 82 84  1  0  0  0
 83 85  1  0  0  0
 86 87  1  0  0  0
 87 88  1  0  0  0
 87 90  1  0  0  0
 88 89  2  0  0  0
 88 92  1  0  0  0
 90 91  1  0  0  0
 92 93  1  0  0  0
 93 94  1  0  0  0
 93 96  1  0  0  0
 94 95  2  0  0  0
 94 97  1  0  0  0
 97 98  1  0  0  0
 98 99  1  0  0  0
 98101  1  0  0  0
 99100  2  0  0  0
 99103  1  0  0  0
101102  1  0  0  0
103104  1  0  0  0
104105  1  0  0  0
104107  1  0  0  0
105106  2  0  0  0
105111  1  0  0  0
107108  1  0  0  0
108109  1  0  0  0
108110  1  0  0  0
111112  1  0  0  0
112113  1  0  0  0
112115  1  0  0  0
113114  2  0  0  0
113119  1  0  0  0
115116  1  0  0  0
116117  1  0  0  0
117118  1  0  0  0
  1120  1  0  0  0
  1121  1  0  0  0
  1122  1  0  0  0
  2123  1  0  0  0
  3124  1  0  0  0
  4125  1  0  0  0
  4126  1  0  0  0
  4127  1  0  0  0
  5128  1  0  0  0
  8129  1  0  0  0
  9130  1  0  0  0
 12131  1  0  0  0
 12132  1  0  0  0
 14133  1  0  0  0
 15134  1  0  0  0
 16135  1  0  0  0
 17136  1  0  0  0
 18137  1  0  0  0
 19138  1  0  0  0
 20139  1  0  0  0
 23140  1  0  0  0
 23141  1  0  0  0
 24142  1  0  0  0
 24143  1  0  0  0
 25144  1  0  0  0
 25145  1  0  0  0
 26146  1  0  0  0
 26147  1  0  0  0
 27148  1  0  0  0
 27149  1  0  0  0
 27150  1  0  0  0
 28151  1  0  0  0
 29152  1  0  0  0
 32153  1  0  0  0
 32154  1  0  0  0
 33155  1  0  0  0
 33156  1  0  0  0
 36157  1  0  0  0
 37158  1  0  0  0
 38159  1  0  0  0
 41160  1  0  0  0
 42161  1  0  0  0
 42162  1  0  0  0
 42163  1  0  0  0
 43164  1  0  0  0
 43165  1  0  0  0
 43166  1  0  0  0
 44167  1  0  0  0
 45168  1  0  0  0
 48169  1  0  0  0
 48170  1  0  0  0
 48171  1  0  0  0
 49172  1  0  0  0
 50173  1  0  0  0
 53174  1  0  0  0
 53175  1  0  0  0
 56176  1  0  0  0
 56177  1  0  0  0
 57178  1  0  0  0
 58179  1  0  0  0
 61180  1  0  0  0
 61181  1  0  0  0
 61182  1  0  0  0
 62183  1  0  0  0
 63184  1  0  0  0
 66185  1  0  0  0
 67186  1  0  0  0
 67187  1  0  0  0
 67188  1  0  0  0
 68189  1  0  0  0
 68190  1  0  0  0
 68191  1  0  0  0
 69192  1  0  0  0
 70193  1  0  0  0
 73194  1  0  0  0
 73195  1  0  0  0
 74196  1  0  0  0
 74197  1  0  0  0
 75198  1  0  0  0
 75199  1  0  0  0
 76200  1  0  0  0
 76201  1  0  0  0
 77202  1  0  0  0
 77203  1  0  0  0
 77204  1  0  0  0
 78205  1  0  0  0
 79206  1  0  0  0
 82207  1  0  0  0
 83208  1  0  0  0
 83209  1  0  0  0
 84210  1  0  0  0
 84211  1  0  0  0
 84212  1  0  0  0
 85213  1  0  0  0
 85214  1  0  0  0
 85215  1  0  0  0
 86216  1  0  0  0
 87217  1  0  0  0
 90218  1  0  0  0
 90219  1  0  0  0
 91220  1  0  0  0
 92221  1  0  0  0
 93222  1  0  0  0
 96223  1  0  0  0
 96224  1  0  0  0
 96225  1  0  0  0
 97226  1  0  0  0
 98227  1  0  0  0
101228  1  0  0  0
101229  1  0  0  0
102230  1  0  0  0
103231  1  0  0  0
104232  1  0  0  0
107233  1  0  0  0
107234  1  0  0  0
108235  1  0  0  0
109236  1  0  0  0
109237  1  0  0  0
109238  1  0  0  0
110239  1  0  0  0
110240  1  0  0  0
110241  1  0  0  0
111242  1  0  0  0
112243  1  0  0  0
115244  1  0  0  0
115245  1  0  0  0
116246  1  0  0  0
116247  1  0  0  0
118248  1  0  0  0
118249  1  0  0  0
118250  1  0  0  0
119251  1  0  0  0
M  END
$$$$
