6qcg_ligand
  -I-interpret- 

183184  0  0  0  0  0  0  0  0999 V2000
   73.5580  -31.4930  193.3830 N   0  3  0  0  0
   74.1550  -30.9440  194.6580 C   0  0  0  0  0
   74.0580  -32.0170  195.7500 C   0  0  0  0  0
   72.9190  -32.4810  196.0390 O   0  0  0  0  0
   73.4810  -29.6420  195.1190 C   0  0  0  0  0
   74.2540  -28.9060  196.2110 C   0  0  0  0  0
   75.3950  -28.0840  195.6600 C   0  0  0  0  0
   75.1850  -27.1140  194.9430 O   0  0  0  0  0
   76.6200  -28.4530  195.9950 N   0  0  0  0  0
   75.2140  -32.4080  196.3060 N   0  0  0  0  0
   75.3200  -33.2960  197.4960 C   0  0  0  0  0
   75.0800  -32.4010  198.7290 C   0  0  0  0  0
   75.2230  -31.1460  198.5930 O   0  0  0  0  0
   76.6390  -34.0970  197.4590 C   0  0  0  0  0
   76.5580  -35.4510  198.1600 C   0  0  0  0  0
   77.3760  -36.6250  197.6110 C   0  0  0  0  0
   77.2400  -37.7940  198.5060 N   0  0  0  0  0
   78.1100  -38.8040  198.6870 C   0  0  0  0  0
   79.2630  -38.8650  198.0390 N   0  0  0  0  0
   77.8120  -39.7620  199.5480 N   0  0  0  0  0
   74.6260  -33.0050  199.8410 N   0  0  0  0  0
   74.5690  -32.3680  201.1870 C   0  0  0  0  0
   75.9080  -32.5980  201.9090 C   0  0  0  0  0
   76.4290  -33.7650  201.8260 O   0  0  0  0  0
   73.4010  -32.9210  202.0080 C   0  0  0  0  0
   72.1970  -31.9950  202.0560 C   0  0  0  0  0
   71.2690  -32.0920  200.8610 C   0  0  0  0  0
   70.0940  -31.2820  201.1440 N   0  0  0  0  0
   69.1770  -31.5610  202.0810 C   0  0  0  0  0
   69.2760  -32.6510  202.8260 N   0  0  0  0  0
   68.1520  -30.7450  202.2710 N   0  0  0  0  0
   76.4280  -31.5450  202.5890 N   0  0  0  0  0
   77.7410  -31.5250  203.3260 C   0  0  0  0  0
   77.5790  -32.2500  204.6770 C   0  0  0  0  0
   78.6070  -32.5390  205.3600 O   0  0  0  0  0
   78.2920  -30.0900  203.4860 C   0  0  0  0  0
   77.3530  -29.1730  204.2640 C   0  0  0  0  0
   79.6710  -30.1050  204.1250 C   0  0  0  0  0
   76.3120  -32.5010  205.0270 N   0  0  0  0  0
   75.8250  -33.4730  206.0370 C   0  0  0  0  0
   76.3400  -34.8590  205.6110 C   0  0  0  0  0
   76.8110  -35.5620  206.5010 O   0  0  0  0  0
   74.3070  -33.2670  206.2320 C   0  0  0  0  0
   73.9480  -33.4590  207.5980 O   0  0  0  0  0
   73.4350  -34.1520  205.3690 C   0  0  0  0  0
   76.3600  -35.1840  204.3040 N   0  0  0  0  0
   76.6820  -36.5300  203.7340 C   0  0  0  0  0
   78.1420  -36.9660  203.9190 C   0  0  0  0  0
   78.3720  -38.2030  203.9310 O   0  0  0  0  0
   76.4830  -36.5780  202.2200 C   0  0  0  0  0
   75.0170  -36.2820  201.8080 C   0  0  0  0  0
   74.1190  -36.9090  202.4300 O   0  0  0  0  0
   74.7930  -35.6360  200.9010 O   0  0  0  0  0
   79.0860  -36.0160  203.9790 N   0  0  0  0  0
   80.5540  -36.2620  203.9610 C   0  0  0  0  0
   81.0590  -36.4620  205.3930 C   0  0  0  0  0
   81.7390  -37.4700  205.6470 O   0  0  0  0  0
   81.2530  -35.1400  203.1910 C   0  0  0  0  0
   80.7710  -35.0400  201.7630 C   0  0  0  0  0
   81.3350  -35.8210  200.7620 C   0  0  0  0  0
   79.7040  -34.2180  201.4310 C   0  0  0  0  0
   80.8660  -35.7480  199.4580 C   0  0  0  0  0
   79.2360  -34.1460  200.1280 C   0  0  0  0  0
   79.8220  -34.9060  199.1430 C   0  0  0  0  0
   80.6960  -35.5590  206.3040 N   0  0  0  0  0
   81.0390  -35.6320  207.7520 C   0  0  0  0  0
   79.7470  -35.8970  208.5530 C   0  0  0  0  0
   78.6840  -35.5080  208.0330 O   0  0  0  0  0
   81.7630  -34.3460  208.1780 C   0  0  0  0  0
   82.4220  -33.5160  207.0900 C   0  0  0  0  0
   81.7750  -32.4160  206.5350 C   0  0  0  0  0
   83.7220  -33.7850  206.6720 C   0  0  0  0  0
   82.3990  -31.6360  205.5760 C   0  0  0  0  0
   84.3380  -33.0060  205.7010 C   0  0  0  0  0
   83.6780  -31.9330  205.1610 C   0  0  0  0  0
   79.8220  -36.5260  209.7490 N   0  0  0  0  0
   78.6870  -36.7710  210.6970 C   0  0  0  0  0
   79.1110  -36.5830  212.1920 C   0  0  0  0  0
   80.3480  -36.5290  212.5150 O   0  0  0  0  0
   78.1170  -38.1590  210.4900 C   0  0  0  0  0
   78.1010  -36.3780  213.0700 N   0  0  0  0  0
   78.2550  -35.9880  214.5070 C   0  0  0  0  0
   79.2470  -36.9420  215.2030 C   0  0  0  0  0
   79.4290  -36.9500  216.4660 O   0  0  0  0  0
   76.9040  -35.9980  215.2490 C   0  0  0  0  0
   75.8380  -35.0420  214.7090 C   0  0  0  0  0
   74.4240  -35.4440  215.1150 C   0  0  0  0  0
   73.3950  -34.9590  214.1900 N   0  0  0  0  0
   72.0740  -35.1420  214.3330 C   0  0  0  0  0
   71.5890  -35.8000  215.3790 N   0  0  0  0  0
   71.2420  -34.6610  213.4200 N   0  0  0  0  0
   79.9550  -37.7900  214.5650 O   0  0  0  0  0
   74.0417  -32.3533  193.1254 H   0  0  0  0  0
   72.5678  -31.6891  193.5295 H   0  0  0  0  0
   73.6630  -30.8059  192.6365 H   0  0  0  0  0
   75.1976  -30.6933  194.4626 H   0  0  0  0  0
   72.5068  -29.9065  195.5302 H   0  0  0  0  0
   73.4254  -28.9795  194.2552 H   0  0  0  0  0
   74.6730  -29.6517  196.8866 H   0  0  0  0  0
   73.5633  -28.2281  196.7126 H   0  0  0  0  0
   77.4230  -27.9244  195.6542 H   0  0  0  0  0
   76.7618  -29.2662  196.5942 H   0  0  0  0  0
   76.0806  -32.0738  195.8843 H   0  0  0  0  0
   74.5678  -34.0844  197.5247 H   0  0  0  0  0
   77.3926  -33.5062  197.9796 H   0  0  0  0  0
   76.8746  -34.2868  196.4118 H   0  0  0  0  0
   75.5182  -35.7600  198.0526 H   0  0  0  0  0
   76.9582  -35.2737  199.1583 H   0  0  0  0  0
   78.4255  -36.3364  197.5530 H   0  0  0  0  0
   77.0085  -36.8868  196.6188 H   0  0  0  0  0
   76.3807  -37.8404  199.0536 H   0  0  0  0  0
   79.9027  -39.6412  198.2082 H   0  0  0  0  0
   79.5116  -38.1357  197.3706 H   0  0  0  0  0
   76.9328  -39.7286  200.0640 H   0  0  0  0  0
   74.2974  -33.9670  199.7575 H   0  0  0  0  0
   74.4027  -31.2971  201.0702 H   0  0  0  0  0
   73.7539  -33.0508  203.0311 H   0  0  0  0  0
   73.0802  -33.8491  201.5350 H   0  0  0  0  0
   72.5833  -30.9759  202.0736 H   0  0  0  0  0
   71.6143  -32.2802  202.9319 H   0  0  0  0  0
   70.9813  -33.1291  200.6883 H   0  0  0  0  0
   71.7699  -31.7315  199.9625 H   0  0  0  0  0
   69.9578  -30.4382  200.5874 H   0  0  0  0  0
   68.5689  -32.8513  203.5333 H   0  0  0  0  0
   70.0594  -33.2904  202.6927 H   0  0  0  0  0
   68.0591  -29.9023  201.7039 H   0  0  0  0  0
   75.8777  -30.6863  202.6021 H   0  0  0  0  0
   78.4863  -32.0595  202.7370 H   0  0  0  0  0
   78.3708  -29.6793  202.4794 H   0  0  0  0  0
   76.3985  -29.1051  203.7420 H   0  0  0  0  0
   77.1943  -29.5802  205.2625 H   0  0  0  0  0
   77.7977  -28.1808  204.3413 H   0  0  0  0  0
   79.6087  -30.5683  205.1097 H   0  0  0  0  0
   80.3551  -30.6750  203.4964 H   0  0  0  0  0
   80.0346  -29.0824  204.2256 H   0  0  0  0  0
   75.5961  -31.9600  204.5420 H   0  0  0  0  0
   76.2137  -33.3366  207.0462 H   0  0  0  0  0
   74.1208  -32.2402  205.9172 H   0  0  0  0  0
   73.0026  -33.3273  207.7008 H   0  0  0  0  0
   73.6485  -33.9565  204.3181 H   0  0  0  0  0
   73.6442  -35.1976  205.5952 H   0  0  0  0  0
   72.3862  -33.9374  205.5740 H   0  0  0  0  0
   76.1345  -34.4431  203.6402 H   0  0  0  0  0
   76.0036  -37.1837  204.2823 H   0  0  0  0  0
   76.7337  -37.5821  201.8781 H   0  0  0  0  0
   77.1203  -35.8161  201.7713 H   0  0  0  0  0
   74.5141  -37.3913  203.1600 H   0  0  0  0  0
   78.7733  -35.0472  204.0420 H   0  0  0  0  0
   80.7932  -37.1828  203.4290 H   0  0  0  0  0
   82.3213  -35.3558  203.1735 H   0  0  0  0  0
   81.0306  -34.1970  203.6903 H   0  0  0  0  0
   82.1544  -36.4981  201.0034 H   0  0  0  0  0
   79.2262  -33.6195  202.2066 H   0  0  0  0  0
   81.3250  -36.3587  198.6805 H   0  0  0  0  0
   78.4031  -33.4866  199.8841 H   0  0  0  0  0
   79.4616  -34.8424  198.1163 H   0  0  0  0  0
   80.1444  -34.7616  205.9873 H   0  0  0  0  0
   81.7252  -36.4544  207.9540 H   0  0  0  0  0
   82.5738  -34.6694  208.8307 H   0  0  0  0  0
   80.9930  -33.7057  208.6084 H   0  0  0  0  0
   80.7649  -32.1654  206.8591 H   0  0  0  0  0
   84.2654  -34.6203  207.1137 H   0  0  0  0  0
   81.8748  -30.7820  205.1471 H   0  0  0  0  0
   85.3473  -33.2482  205.3681 H   0  0  0  0  0
   84.1642  -31.3164  204.4050 H   0  0  0  0  0
   80.7405  -36.8666  210.0330 H   0  0  0  0  0
   77.9209  -36.0271  210.4784 H   0  0  0  0  0
   77.7524  -38.2518  209.4670 H   0  0  0  0  0
   78.8958  -38.9005  210.6682 H   0  0  0  0  0
   77.2940  -38.3200  211.1864 H   0  0  0  0  0
   77.1503  -36.5002  212.7212 H   0  0  0  0  0
   78.6417  -34.9694  214.5384 H   0  0  0  0  0
   78.8647  -36.2890  216.8737 H   0  0  0  0  0
   77.1124  -35.6801  216.2706 H   0  0  0  0  0
   76.4995  -37.0039  215.1368 H   0  0  0  0  0
   75.8915  -35.0626  213.6205 H   0  0  0  0  0
   76.0358  -34.0532  215.1227 H   0  0  0  0  0
   74.2236  -35.0028  216.0914 H   0  0  0  0  0
   74.3787  -36.5331  215.1165 H   0  0  0  0  0
   73.7096  -34.4397  213.3704 H   0  0  0  0  0
   70.5823  -35.9326  215.4761 H   0  0  0  0  0
   72.2230  -36.1730  216.0856 H   0  0  0  0  0
   71.6073  -34.1545  212.6135 H   0  0  0  0  0
  1  2  1  0  0  0
  2  3  1  0  0  0
  2  5  1  0  0  0
  3  4  2  0  0  0
  3 10  1  0  0  0
  5  6  1  0  0  0
  6  7  1  0  0  0
  7  8  2  0  0  0
  7  9  1  0  0  0
 10 11  1  0  0  0
 11 12  1  0  0  0
 11 14  1  0  0  0
 12 13  2  0  0  0
 12 21  1  0  0  0
 14 15  1  0  0  0
 15 16  1  0  0  0
 16 17  1  0  0  0
 17 18  1  0  0  0
 18 19  1  0  0  0
 18 20  2  0  0  0
 21 22  1  0  0  0
 22 23  1  0  0  0
 22 25  1  0  0  0
 23 24  2  0  0  0
 23 32  1  0  0  0
 25 26  1  0  0  0
 26 27  1  0  0  0
 27 28  1  0  0  0
 28 29  1  0  0  0
 29 30  1  0  0  0
 29 31  2  0  0  0
 32 33  1  0  0  0
 33 34  1  0  0  0
 33 36  1  0  0  0
 34 35  2  0  0  0
 34 39  1  0  0  0
 36 37  1  0  0  0
 36 38  1  0  0  0
 39 40  1  0  0  0
 40 41  1  0  0  0
 40 43  1  0  0  0
 41 42  2  0  0  0
 41 46  1  0  0  0
 43 44  1  0  0  0
 43 45  1  0  0  0
 46 47  1  0  0  0
 47 48  1  0  0  0
 47 50  1  0  0  0
 48 49  2  0  0  0
 48 54  1  0  0  0
 50 51  1  0  0  0
 51 52  1  0  0  0
 51 53  2  0  0  0
 54 55  1  0  0  0
 55 56  1  0  0  0
 55 58  1  0  0  0
 56 57  2  0  0  0
 56 65  1  0  0  0
 58 59  1  0  0  0
 59 60  4  0  0  0
 59 61  4  0  0  0
 60 62  4  0  0  0
 61 63  4  0  0  0
 62 64  4  0  0  0
 63 64  4  0  0  0
 65 66  1  0  0  0
 66 67  1  0  0  0
 66 69  1  0  0  0
 67 68  2  0  0  0
 67 76  1  0  0  0
 69 70  1  0  0  0
 70 71  4  0  0  0
 70 72  4  0  0  0
 71 73  4  0  0  0
 72 74  4  0  0  0
 73 75  4  0  0  0
 74 75  4  0  0  0
 76 77  1  0  0  0
 77 78  1  0  0  0
 77 80  1  0  0  0
 78 79  2  0  0  0
 78 81  1  0  0  0
 81 82  1  0  0  0
 82 83  1  0  0  0
 82 85  1  0  0  0
 83 84  1  0  0  0
 83 92  2  0  0  0
 85 86  1  0  0  0
 86 87  1  0  0  0
 87 88  1  0  0  0
 88 89  1  0  0  0
 89 90  1  0  0  0
 89 91  2  0  0  0
  1 93  1  0  0  0
  1 94  1  0  0  0
  1 95  1  0  0  0
  2 96  1  0  0  0
  5 97  1  0  0  0
  5 98  1  0  0  0
  6 99  1  0  0  0
  6100  1  0  0  0
  9101  1  0  0  0
  9102  1  0  0  0
 10103  1  0  0  0
 11104  1  0  0  0
 14105  1  0  0  0
 14106  1  0  0  0
 15107  1  0  0  0
 15108  1  0  0  0
 16109  1  0  0  0
 16110  1  0  0  0
 17111  1  0  0  0
 19112  1  0  0  0
 19113  1  0  0  0
 20114  1  0  0  0
 21115  1  0  0  0
 22116  1  0  0  0
 25117  1  0  0  0
 25118  1  0  0  0
 26119  1  0  0  0
 26120  1  0  0  0
 27121  1  0  0  0
 27122  1  0  0  0
 28123  1  0  0  0
 30124  1  0  0  0
 30125  1  0  0  0
 31126  1  0  0  0
 32127  1  0  0  0
 33128  1  0  0  0
 36129  1  0  0  0
 37130  1  0  0  0
 37131  1  0  0  0
 37132  1  0  0  0
 38133  1  0  0  0
 38134  1  0  0  0
 38135  1  0  0  0
 39136  1  0  0  0
 40137  1  0  0  0
 43138  1  0  0  0
 44139  1  0  0  0
 45140  1  0  0  0
 45141  1  0  0  0
 45142  1  0  0  0
 46143  1  0  0  0
 47144  1  0  0  0
 50145  1  0  0  0
 50146  1  0  0  0
 52147  1  0  0  0
 54148  1  0  0  0
 55149  1  0  0  0
 58150  1  0  0  0
 58151  1  0  0  0
 60152  1  0  0  0
 61153  1  0  0  0
 62154  1  0  0  0
 63155  1  0  0  0
 64156  1  0  0  0
 65157  1  0  0  0
 66158  1  0  0  0
 69159  1  0  0  0
 69160  1  0  0  0
 71161  1  0  0  0
 72162  1  0  0  0
 73163  1  0  0  0
 74164  1  0  0  0
 75165  1  0  0  0
 76166  1  0  0  0
 77167  1  0  0  0
 80168  1  0  0  0
 80169  1  0  0  0
 80170  1  0  0  0
 81171  1  0  0  0
 82172  1  0  0  0
 84173  1  0  0  0
 85174  1  0  0  0
 85175  1  0  0  0
 86176  1  0  0  0
 86177  1  0  0  0
 87178  1  0  0  0
 87179  1  0  0  0
 88180  1  0  0  0
 90181  1  0  0  0
 90182  1  0  0  0
 91183  1  0  0  0
M  END
$$$$
