### 
### Created by X-TOOL on Mon Aug  2 16:11:49 2021
### 

@<TRIPOS>MOLECULE
6qcg_ligand
  184   185     1     0     0
SMALL
GAST_HUCK


@<TRIPOS>ATOM
      1 N          73.5580  -31.4930  193.3830 N.4       1 GLN         0.2380
      2 CA         74.1550  -30.9440  194.6580 C.3       1 GLN         0.0671
      3 C          74.0580  -32.0170  195.7500 C.2       1 GLN         0.2269
      4 O          72.9190  -32.4810  196.0390 O.2       1 GLN        -0.3907
      5 CB         73.4810  -29.6420  195.1190 C.3       1 GLN         0.0247
      6 CG         74.2540  -28.9060  196.2110 C.3       1 GLN         0.0443
      7 CD         75.3950  -28.0840  195.6600 C.2       1 GLN         0.1738
      8 OE1        75.1850  -27.1140  194.9430 O.2       1 GLN        -0.3973
      9 NE2        76.6200  -28.4530  195.9950 N.am      1 GLN        -0.3009
     10 N          75.2140  -32.4080  196.3060 N.am      1 GLN        -0.2610
     11 CA         75.3200  -33.2960  197.4960 C.3       1 GLN         0.1312
     12 C          75.0800  -32.4010  198.7290 C.2       1 GLN         0.2039
     13 O          75.2230  -31.1460  198.5930 O.2       1 GLN        -0.3944
     14 CB         76.6390  -34.0970  197.4590 C.3       1 GLN        -0.0092
     15 CG         76.5580  -35.4510  198.1600 C.3       1 GLN        -0.0156
     16 CD         77.3760  -36.6250  197.6110 C.3       1 GLN         0.0627
     17 NE         77.2400  -37.7940  198.5060 N.pl3     1 GLN        -0.2723
     18 CZ         78.1100  -38.8040  198.6870 C.cat     1 GLN         0.2882
     19 NH1        79.2630  -38.8650  198.0390 N.pl3     1 GLN        -0.2849
     20 NH2        77.8120  -39.7620  199.5480 N.pl3     1 GLN        -0.2849
     21 N          74.6260  -33.0050  199.8410 N.am      1 GLN        -0.2637
     22 CA         74.5690  -32.3680  201.1870 C.3       1 GLN         0.1311
     23 C          75.9080  -32.5980  201.9090 C.2       1 GLN         0.2039
     24 O          76.4290  -33.7650  201.8260 O.2       1 GLN        -0.3944
     25 CB         73.4010  -32.9210  202.0080 C.3       1 GLN        -0.0092
     26 CG         72.1970  -31.9950  202.0560 C.3       1 GLN        -0.0156
     27 CD         71.2690  -32.0920  200.8610 C.3       1 GLN         0.0627
     28 NE         70.0940  -31.2820  201.1440 N.pl3     1 GLN        -0.2723
     29 CZ         69.1770  -31.5610  202.0810 C.cat     1 GLN         0.2882
     30 NH1        69.2760  -32.6510  202.8260 N.pl3     1 GLN        -0.2849
     31 NH2        68.1520  -30.7450  202.2710 N.pl3     1 GLN        -0.2849
     32 N          76.4280  -31.5450  202.5890 N.am      1 GLN        -0.2635
     33 CA         77.7410  -31.5250  203.3260 C.3       1 GLN         0.1333
     34 C          77.5790  -32.2500  204.6770 C.2       1 GLN         0.2042
     35 O          78.6070  -32.5390  205.3600 O.2       1 GLN        -0.3944
     36 CB         78.2920  -30.0900  203.4860 C.3       1 GLN        -0.0063
     37 CG1        77.3530  -29.1730  204.2640 C.3       1 GLN        -0.0584
     38 CG2        79.6710  -30.1050  204.1250 C.3       1 GLN        -0.0584
     39 N          76.3120  -32.5010  205.0270 N.am      1 GLN        -0.2613
     40 CA         75.8250  -33.4730  206.0370 C.3       1 GLN         0.1565
     41 C          76.3400  -34.8590  205.6110 C.2       1 GLN         0.2066
     42 O          76.8110  -35.5620  206.5010 O.2       1 GLN        -0.3943
     43 CB         74.3070  -33.2670  206.2320 C.3       1 GLN         0.0924
     44 OG1        73.9480  -33.4590  207.5980 O.3       1 GLN        -0.3874
     45 CG2        73.4350  -34.1520  205.3690 C.3       1 GLN        -0.0346
     46 N          76.3600  -35.1840  204.3040 N.am      1 GLN        -0.2621
     47 CA         76.6820  -36.5300  203.7340 C.3       1 GLN         0.1423
     48 C          78.1420  -36.9660  203.9190 C.2       1 GLN         0.2057
     49 O          78.3720  -38.2030  203.9310 O.2       1 GLN        -0.3943
     50 CB         76.4830  -36.5780  202.2200 C.3       1 GLN         0.0406
     51 CG         75.0170  -36.2820  201.8080 C.2       1 GLN         0.0393
     52 OD1        74.1190  -36.9090  202.4300 O.co2     1 GLN        -0.5688
     53 OD2        74.7930  -35.6360  200.9010 O.co2     1 GLN        -0.5688
     54 N          79.0860  -36.0160  203.9790 N.am      1 GLN        -0.2618
     55 CA         80.5540  -36.2620  203.9610 C.3       1 GLN         0.1404
     56 C          81.0590  -36.4620  205.3930 C.2       1 GLN         0.2061
     57 O          81.7390  -37.4700  205.6470 O.2       1 GLN        -0.3942
     58 CB         81.2530  -35.1400  203.1910 C.3       1 GLN         0.0214
     59 CG         80.7710  -35.0400  201.7630 C.ar      1 GLN        -0.0386
     60 CD1        81.3350  -35.8210  200.7620 C.ar      1 GLN        -0.0601
     61 CD2        79.7040  -34.2180  201.4310 C.ar      1 GLN        -0.0601
     62 CE1        80.8660  -35.7480  199.4580 C.ar      1 GLN        -0.0686
     63 CE2        79.2360  -34.1460  200.1280 C.ar      1 GLN        -0.0686
     64 CZ         79.8220  -34.9060  199.1430 C.ar      1 GLN        -0.0687
     65 N          80.6960  -35.5590  206.3040 N.am      1 GLN        -0.2618
     66 CA         81.0390  -35.6320  207.7520 C.3       1 GLN         0.1404
     67 C          79.7470  -35.8970  208.5530 C.2       1 GLN         0.2059
     68 O          78.6840  -35.5080  208.0330 O.2       1 GLN        -0.3942
     69 CB         81.7630  -34.3460  208.1780 C.3       1 GLN         0.0214
     70 CG         82.4220  -33.5160  207.0900 C.ar      1 GLN        -0.0386
     71 CD1        81.7750  -32.4160  206.5350 C.ar      1 GLN        -0.0601
     72 CD2        83.7220  -33.7850  206.6720 C.ar      1 GLN        -0.0601
     73 CE1        82.3990  -31.6360  205.5760 C.ar      1 GLN        -0.0686
     74 CE2        84.3380  -33.0060  205.7010 C.ar      1 GLN        -0.0686
     75 CZ         83.6780  -31.9330  205.1610 C.ar      1 GLN        -0.0687
     76 N          79.8220  -36.5260  209.7490 N.am      1 GLN        -0.2639
     77 CA         78.6870  -36.7710  210.6970 C.3       1 GLN         0.1282
     78 C          79.1110  -36.5830  212.1920 C.2       1 GLN         0.2031
     79 O          80.3480  -36.5290  212.5150 O.2       1 GLN        -0.3944
     80 CB         78.1170  -38.1590  210.4900 C.3       1 GLN        -0.0244
     81 N          78.1010  -36.3780  213.0700 N.am      1 GLN        -0.2695
     82 CA         78.2550  -35.9880  214.5070 C.3       1 GLN         0.0945
     83 C          79.2470  -36.9420  215.2030 C.2       1 GLN         0.0601
     84 O          79.4290  -36.9500  216.4660 O.co2     1 GLN        -0.5666
     85 CB         76.9040  -35.9980  215.2490 C.3       1 GLN        -0.0148
     86 CG         75.8380  -35.0420  214.7090 C.3       1 GLN        -0.0162
     87 CD         74.4240  -35.4440  215.1150 C.3       1 GLN         0.0627
     88 NE         73.3950  -34.9590  214.1900 N.pl3     1 GLN        -0.2723
     89 CZ         72.0740  -35.1420  214.3330 C.cat     1 GLN         0.2882
     90 NH1        71.5890  -35.8000  215.3790 N.pl3     1 GLN        -0.2849
     91 NH2        71.2420  -34.6610  213.4200 N.pl3     1 GLN        -0.2849
     92 OXT        79.9550  -37.7900  214.5650 O.co2     1 GLN        -0.5666
     93 H1         73.6162  -30.7958  192.6573 H         1 GLN         0.2015
     94 H2         72.5920  -31.7339  193.5408 H         1 GLN         0.2015
     95 H3         74.0675  -32.3155  193.1003 H         1 GLN         0.2015
     96 H4         75.2172  -30.7259  194.4733 H         1 GLN         0.1100
     97 H5         72.4807  -29.8864  195.5058 H         1 GLN         0.0370
     98 H6         73.3851  -28.9738  194.2505 H         1 GLN         0.0370
     99 H7         74.6611  -29.6467  196.9150 H         1 GLN         0.0506
    100 H8         73.5619  -28.2365  196.7426 H         1 GLN         0.0506
    101 H9         77.4076  -27.9394  195.6545 H         1 GLN         0.1814
    102 H10        76.7587  -29.2456  196.5888 H         1 GLN         0.1814
    103 H11        76.0636  -32.0804  195.8926 H         1 GLN         0.1884
    104 H12        74.5039  -34.0326  197.4603 H         1 GLN         0.0800
    105 H13        77.4216  -33.4992  197.9490 H         1 GLN         0.0313
    106 H14        76.9121  -34.2670  196.4071 H         1 GLN         0.0313
    107 H15        75.5022  -35.7591  198.1438 H         1 GLN         0.0301
    108 H16        76.8784  -35.2943  199.2006 H         1 GLN         0.0301
    109 H17        78.4351  -36.3344  197.5488 H         1 GLN         0.0689
    110 H18        77.0085  -36.8885  196.6082 H         1 GLN         0.0689
    111 H19        76.3723  -37.8408  199.0590 H         1 GLN         0.2642
    112 H20        79.9048  -39.6538  198.2029 H         1 GLN         0.2615
    113 H21        79.5182  -38.1237  197.3710 H         1 GLN         0.2615
    114 H22        76.9200  -39.7331  200.0623 H         1 GLN         0.2615
    115 H23        78.4718  -40.5373  199.7045 H         1 GLN         0.2615
    116 H24        74.3039  -33.9482  199.7591 H         1 GLN         0.1883
    117 H25        74.4191  -31.2859  201.0586 H         1 GLN         0.0800
    118 H26        73.7496  -33.0913  203.0373 H         1 GLN         0.0313
    119 H27        73.0864  -33.8772  201.5645 H         1 GLN         0.0313
    120 H28        72.5642  -30.9601  202.1203 H         1 GLN         0.0301
    121 H29        71.6170  -32.2351  202.9593 H         1 GLN         0.0301
    122 H30        70.9721  -33.1391  200.7016 H         1 GLN         0.0689
    123 H31        71.7765  -31.7137  199.9613 H         1 GLN         0.0689
    124 H32        69.9564  -30.4299  200.5819 H         1 GLN         0.2642
    125 H33        68.5634  -32.8518  203.5421 H         1 GLN         0.2615
    126 H34        70.0656  -33.2981  202.6895 H         1 GLN         0.2615
    127 H35        68.0596  -29.8926  201.7002 H         1 GLN         0.2615
    128 H36        67.4469  -30.9625  202.9896 H         1 GLN         0.2615
    129 H37        75.8885  -30.7031  202.6019 H         1 GLN         0.1883
    130 H38        78.4718  -32.0896  202.7283 H         1 GLN         0.0802
    131 H39        78.3970  -29.6681  202.4756 H         1 GLN         0.0343
    132 H40        77.8007  -28.1713  204.3427 H         1 GLN         0.0234
    133 H41        77.1921  -29.5829  205.2720 H         1 GLN         0.0234
    134 H42        76.3893  -29.1036  203.7382 H         1 GLN         0.0234
    135 H43        80.3335  -30.7702  203.5517 H         1 GLN         0.0234
    136 H44        79.5917  -30.4695  205.1598 H         1 GLN         0.0234
    137 H45        80.0859  -29.0862  204.1258 H         1 GLN         0.0234
    138 H46        75.6101  -31.9706  204.5515 H         1 GLN         0.1884
    139 H47        76.2958  -33.2444  207.0045 H         1 GLN         0.0826
    140 H48        74.0856  -32.2239  205.9619 H         1 GLN         0.0639
    141 H49        73.0125  -33.3287  207.6997 H         1 GLN         0.2101
    142 H50        72.3762  -33.9363  205.5750 H         1 GLN         0.0257
    143 H51        73.6451  -35.2075  205.5964 H         1 GLN         0.0257
    144 H52        73.6495  -33.9557  204.3081 H         1 GLN         0.0257
    145 H53        76.1389  -34.4576  203.6532 H         1 GLN         0.1884
    146 H54        76.0205  -37.2631  204.2187 H         1 GLN         0.0819
    147 H55        76.7560  -37.5806  201.8591 H         1 GLN         0.0478
    148 H56        77.1395  -35.8289  201.7532 H         1 GLN         0.0478
    149 H57        78.7795  -35.0661  204.0408 H         1 GLN         0.1885
    150 H58        80.7403  -37.1985  203.4149 H         1 GLN         0.0823
    151 H59        82.3356  -35.3349  203.1863 H         1 GLN         0.0474
    152 H60        81.0546  -34.1849  203.6993 H         1 GLN         0.0474
    153 H61        82.1499  -36.4944  201.0021 H         1 GLN         0.0557
    154 H62        79.2288  -33.6228  202.2023 H         1 GLN         0.0557
    155 H63        81.3225  -36.3554  198.6848 H         1 GLN         0.0599
    156 H64        78.4076  -33.4902  199.8854 H         1 GLN         0.0599
    157 H65        79.4636  -34.8428  198.1219 H         1 GLN         0.0559
    158 H66        80.1552  -34.7773  205.9935 H         1 GLN         0.1885
    159 H67        81.7237  -36.4775  207.9143 H         1 GLN         0.0823
    160 H68        82.5474  -34.6319  208.8942 H         1 GLN         0.0474
    161 H69        81.0246  -33.7036  208.6800 H         1 GLN         0.0474
    162 H70        80.7705  -32.1668  206.8573 H         1 GLN         0.0557
    163 H71        84.2624  -34.6157  207.1113 H         1 GLN         0.0557
    164 H72        81.8777  -30.7867  205.1495 H         1 GLN         0.0599
    165 H73        85.3417  -33.2469  205.3699 H         1 GLN         0.0599
    166 H74        84.1616  -31.3198  204.4092 H         1 GLN         0.0559
    167 H75        80.7225  -36.8599  210.0275 H         1 GLN         0.1883
    168 H76        77.8981  -36.0375  210.4746 H         1 GLN         0.0797
    169 H77        77.2863  -38.3227  211.1923 H         1 GLN         0.0277
    170 H78        78.9020  -38.9083  210.6696 H         1 GLN         0.0277
    171 H79        77.7487  -38.2540  209.4579 H         1 GLN         0.0277
    172 H80        77.1690  -36.4978  212.7280 H         1 GLN         0.1875
    173 H81        78.6623  -34.9670  214.5463 H         1 GLN         0.0726
    174 H82        77.0943  -35.7321  216.2993 H         1 GLN         0.0307
    175 H83        76.4984  -37.0191  215.1970 H         1 GLN         0.0307
    176 H84        75.8988  -35.0318  213.6107 H         1 GLN         0.0301
    177 H85        76.0416  -34.0330  215.0970 H         1 GLN         0.0301
    178 H86        74.2173  -35.0326  216.1140 H         1 GLN         0.0689
    179 H87        74.3703  -36.5420  215.1523 H         1 GLN         0.0689
    180 H88        73.7127  -34.4346  213.3623 H         1 GLN         0.2642
    181 H89        70.5724  -35.9337  215.4771 H         1 GLN         0.2615
    182 H90        72.2293  -36.1768  216.0924 H         1 GLN         0.2615
    183 H91        71.6108  -34.1494  212.6057 H         1 GLN         0.2615
    184 H92        70.2267  -34.7989  213.5249 H         1 GLN         0.2615
@<TRIPOS>BOND
     1    1    2 1  
     2    2    3 1  
     3    2    5 1  
     4    3    4 2  
     5    3   10 am 
     6    5    6 1  
     7    6    7 1  
     8    7    8 2  
     9    7    9 am 
    10   10   11 1  
    11   11   12 1  
    12   11   14 1  
    13   12   13 2  
    14   12   21 am 
    15   14   15 1  
    16   15   16 1  
    17   16   17 1  
    18   17   18 ar 
    19   18   19 ar 
    20   18   20 ar 
    21   21   22 1  
    22   22   23 1  
    23   22   25 1  
    24   23   24 2  
    25   23   32 am 
    26   25   26 1  
    27   26   27 1  
    28   27   28 1  
    29   28   29 ar 
    30   29   30 ar 
    31   29   31 ar 
    32   32   33 1  
    33   33   34 1  
    34   33   36 1  
    35   34   35 2  
    36   34   39 am 
    37   36   37 1  
    38   36   38 1  
    39   39   40 1  
    40   40   41 1  
    41   40   43 1  
    42   41   42 2  
    43   41   46 am 
    44   43   44 1  
    45   43   45 1  
    46   46   47 1  
    47   47   48 1  
    48   47   50 1  
    49   48   49 2  
    50   48   54 am 
    51   50   51 1  
    52   51   52 ar 
    53   51   53 ar 
    54   54   55 1  
    55   55   56 1  
    56   55   58 1  
    57   56   57 2  
    58   56   65 am 
    59   58   59 1  
    60   59   60 ar 
    61   59   61 ar 
    62   60   62 ar 
    63   61   63 ar 
    64   62   64 ar 
    65   63   64 ar 
    66   65   66 1  
    67   66   67 1  
    68   66   69 1  
    69   67   68 2  
    70   67   76 am 
    71   69   70 1  
    72   70   71 ar 
    73   70   72 ar 
    74   71   73 ar 
    75   72   74 ar 
    76   73   75 ar 
    77   74   75 ar 
    78   76   77 1  
    79   77   78 1  
    80   77   80 1  
    81   78   79 2  
    82   78   81 am 
    83   81   82 1  
    84   82   83 1  
    85   82   85 1  
    86   83   84 ar 
    87   83   92 ar 
    88   85   86 1  
    89   86   87 1  
    90   87   88 1  
    91   88   89 ar 
    92   89   90 ar 
    93   89   91 ar 
    94    1   93 1  
    95    1   94 1  
    96    1   95 1  
    97    2   96 1  
    98    5   97 1  
    99    5   98 1  
   100    6   99 1  
   101    6  100 1  
   102    9  101 1  
   103    9  102 1  
   104   10  103 1  
   105   11  104 1  
   106   14  105 1  
   107   14  106 1  
   108   15  107 1  
   109   15  108 1  
   110   16  109 1  
   111   16  110 1  
   112   17  111 1  
   113   19  112 1  
   114   19  113 1  
   115   20  114 1  
   116   20  115 1  
   117   21  116 1  
   118   22  117 1  
   119   25  118 1  
   120   25  119 1  
   121   26  120 1  
   122   26  121 1  
   123   27  122 1  
   124   27  123 1  
   125   28  124 1  
   126   30  125 1  
   127   30  126 1  
   128   31  127 1  
   129   31  128 1  
   130   32  129 1  
   131   33  130 1  
   132   36  131 1  
   133   37  132 1  
   134   37  133 1  
   135   37  134 1  
   136   38  135 1  
   137   38  136 1  
   138   38  137 1  
   139   39  138 1  
   140   40  139 1  
   141   43  140 1  
   142   44  141 1  
   143   45  142 1  
   144   45  143 1  
   145   45  144 1  
   146   46  145 1  
   147   47  146 1  
   148   50  147 1  
   149   50  148 1  
   150   54  149 1  
   151   55  150 1  
   152   58  151 1  
   153   58  152 1  
   154   60  153 1  
   155   61  154 1  
   156   62  155 1  
   157   63  156 1  
   158   64  157 1  
   159   65  158 1  
   160   66  159 1  
   161   69  160 1  
   162   69  161 1  
   163   71  162 1  
   164   72  163 1  
   165   73  164 1  
   166   74  165 1  
   167   75  166 1  
   168   76  167 1  
   169   77  168 1  
   170   80  169 1  
   171   80  170 1  
   172   80  171 1  
   173   81  172 1  
   174   82  173 1  
   175   85  174 1  
   176   85  175 1  
   177   86  176 1  
   178   86  177 1  
   179   87  178 1  
   180   87  179 1  
   181   88  180 1  
   182   90  181 1  
   183   90  182 1  
   184   91  183 1  
   185   91  184 1  
@<TRIPOS>SUBSTRUCTURE
     1 GLN         1

