6n3o_ligand
  -I-interpret- 

 42 44  0  0  0  0  0  0  0  0999 V2000
   -0.6920  -14.1800   14.7510 C   0  0  0  0  0
   -2.9480  -13.2200   10.2400 C   0  0  0  0  0
   -2.2360  -18.3920   20.1980 C   0  0  0  0  0
   -3.9750  -16.8590   20.4660 C   0  0  0  0  0
   -5.0240  -12.0740   10.1680 C   0  0  0  0  0
   -1.9440  -15.7340   16.1090 C   0  0  0  0  0
   -2.5580  -16.1760   14.9650 C   0  0  0  0  0
   -3.6580  -12.0740    9.9520 C   0  0  0  0  0
   -3.5230  -18.3960   22.0800 C   0  0  0  0  0
   -2.6510  -16.7770   18.3940 C   0  0  0  0  0
   -2.3050  -16.3060   17.3460 C   0  0  0  0  0
   -1.3230  -14.6260   13.6070 C   0  0  0  0  0
   -2.9550  -17.3390   19.6780 C   0  0  0  0  0
   -2.2590  -15.6310   13.7420 C   0  0  0  0  0
   -1.0090  -14.7340   15.9880 C   0  0  0  0  0
   -3.6680  -14.3020   10.7250 C   0  0  0  0  0
   -5.0380  -14.2170   10.8930 C   0  0  0  0  0
   -7.0770  -15.0800   11.5940 C   0  0  0  0  0
   -5.7430  -13.1080   10.6320 N   0  0  0  0  0
   -2.5120  -18.9340   21.3890 N   0  0  0  0  0
   -4.2780  -17.3670   21.6640 N   0  0  0  0  0
   -3.8220  -18.9350   23.3250 N   0  0  0  0  0
   -3.0290  -16.2120   12.7000 N   0  0  0  0  0
   -1.3890  -15.6000   10.7130 O   0  0  0  0  0
   -3.5320  -16.8380   10.3870 O   0  0  0  0  0
   -5.6850  -15.3450   11.3650 O   0  0  0  0  0
   -0.4100  -14.2970   17.0910 F   0  0  0  0  0
   -3.4720  -17.1490   15.0060 F   0  0  0  0  0
   -2.7900  -15.8120   11.0750 S   0  0  0  0  0
   -2.8560  -10.6520    9.3560 Cl  0  0  0  0  0
    0.0573  -13.3911   14.6854 H   0  0  0  0  0
   -1.8693  -13.2736   10.0932 H   0  0  0  0  0
   -1.4095  -18.7998   19.6160 H   0  0  0  0  0
   -4.5660  -16.0219   20.0944 H   0  0  0  0  0
   -5.5636  -11.1544    9.9418 H   0  0  0  0  0
   -1.0901  -14.1993   12.6314 H   0  0  0  0  0
   -7.1774  -14.2837   12.3315 H   0  0  0  0  0
   -7.5456  -14.7723   10.6592 H   0  0  0  0  0
   -7.5614  -15.9834   11.9646 H   0  0  0  0  0
   -3.2766  -19.7176   23.6862 H   0  0  0  0  0
   -4.5869  -18.5481   23.8779 H   0  0  0  0  0
   -3.7497  -16.8928   12.9398 H   0  0  0  0  0
 12  1  4  0  0  0
  1 15  4  0  0  0
  2  8  4  0  0  0
 16  2  4  0  0  0
 13  3  4  0  0  0
  3 20  4  0  0  0
 13  4  4  0  0  0
  4 21  4  0  0  0
  8  5  4  0  0  0
 19  5  4  0  0  0
  7  6  4  0  0  0
  6 11  1  0  0  0
  6 15  4  0  0  0
 14  7  4  0  0  0
  7 28  1  0  0  0
  8 30  1  0  0  0
 20  9  4  0  0  0
 21  9  4  0  0  0
  9 22  1  0  0  0
 11 10  3  0  0  0
 10 13  1  0  0  0
 14 12  4  0  0  0
 23 14  1  0  0  0
 15 27  1  0  0  0
 16 17  4  0  0  0
 29 16  1  0  0  0
 17 19  4  0  0  0
 17 26  1  0  0  0
 26 18  1  0  0  0
 23 29  1  0  0  0
 29 24  2  0  0  0
 29 25  2  0  0  0
  1 31  1  0  0  0
  2 32  1  0  0  0
  3 33  1  0  0  0
  4 34  1  0  0  0
  5 35  1  0  0  0
 12 36  1  0  0  0
 18 37  1  0  0  0
 18 38  1  0  0  0
 18 39  1  0  0  0
 22 40  1  0  0  0
 22 41  1  0  0  0
 23 42  1  0  0  0
M  END
$$$$
