### 
### Created by X-TOOL on Mon Aug  2 16:17:21 2021
### 

@<TRIPOS>MOLECULE
6e4v_ligand
  105   110     1     0     0
SMALL
GAST_HUCK


@<TRIPOS>ATOM
      1 C1         35.3210    2.1050   25.1660 C.2       1 HWS         0.2039
      2 C2         34.9710    2.5900   26.5110 C.3       1 HWS         0.1310
      3 C3         33.5500    3.2280   26.4370 C.3       1 HWS        -0.0104
      4 C4         33.1570    4.2540   27.4640 C.3       1 HWS        -0.0246
      5 C5         31.6970    4.7200   27.2830 C.3       1 HWS         0.0779
      6 N1         31.4560    5.3980   26.0600 N.2       1 HWS        -0.1000
      7 C6         30.6900    4.9370   25.1230 C.2       1 HWS         0.3047
      8 O1         34.7250    1.1830   24.7230 O.2       1 HWS        -0.3944
      9 N2         35.9460    3.4740   27.0420 N.am      1 HWS        -0.2637
     10 O2         32.0030    6.4870   25.7800 O.3       1 HWS         0.0610
     11 O3         30.7840    5.8040   23.9790 O.3       1 HWS        -0.0767
     12 C7         36.8840    4.0540   26.3640 C.2       1 HWS         0.2039
     13 C8         36.9810    3.8800   24.9210 C.3       1 HWS         0.1310
     14 C9         36.6470    5.2090   24.2350 C.3       1 HWS        -0.0103
     15 C10        36.1830    5.1580   22.7980 C.3       1 HWS        -0.0230
     16 C11        35.7180    6.5320   22.2850 C.3       1 HWS         0.0847
     17 O4         37.7080    4.7060   26.9000 O.2       1 HWS        -0.3944
     18 N3         36.2410    2.7320   24.4800 N.am      1 HWS        -0.2637
     19 C12        29.2440    3.2540   23.0430 C.3       1 HWS         0.0138
     20 C13        29.3490    2.8790   24.4700 C.2       1 HWS         0.0313
     21 C14        28.6500    1.5900   24.8480 C.3       1 HWS         0.0482
     22 C15        27.2330    1.7130   24.2980 C.3       1 HWS         0.0682
     23 O5         26.4960    2.4450   25.2350 O.3       1 HWS        -0.3902
     24 C16        29.9540    3.6390   25.3830 C.2       1 HWS         0.0790
     25 N4         34.3080    6.7640   22.5030 N.2       1 HWS        -0.0841
     26 C17        33.3620    7.2260   21.7470 C.2       1 HWS         0.3223
     27 C18        33.7690    7.8820   20.5180 C.2       1 HWS         0.0816
     28 C19        33.1980    7.8100   19.3690 C.2       1 HWS         0.0105
     29 C20        33.8190    8.5880   18.2740 C.3       1 HWS         0.0465
     30 C21        33.3650   10.0540   18.1740 C.3       1 HWS         0.1005
     31 O6         33.9430   10.8990   19.1210 O.3       1 HWS        -0.2699
     32 O7         33.7850    6.5770   23.5830 O.3       1 HWS         0.0786
     33 O8         32.0740    7.0870   22.3670 O.3       1 HWS        -0.0631
     34 C23        33.2260   11.9280   19.8370 C.2       1 HWS         0.2599
     35 C24        33.5200   12.2950   21.2460 C.3       1 HWS         0.1422
     36 C25        32.6630   11.5840   22.2410 C.3       1 HWS        -0.0091
     37 C26        32.9180   12.0700   23.6100 C.3       1 HWS        -0.0245
     38 C27        32.0170   11.4330   24.6360 C.3       1 HWS         0.0779
     39 N5         31.5930   10.0530   24.4310 N.2       1 HWS        -0.1000
     40 C28        30.4220    9.6530   23.9940 C.2       1 HWS         0.3047
     41 C29        29.2350   10.5640   23.9200 C.2       1 HWS         0.0790
     42 C30        28.7660   11.0450   22.7920 C.2       1 HWS         0.0313
     43 C31        27.5350   11.9640   22.7330 C.3       1 HWS         0.0482
     44 C32        27.7870   13.3610   23.2020 C.3       1 HWS         0.0682
     45 O9         29.1070   13.7660   22.8930 O.3       1 HWS        -0.3902
     46 O10        32.4430   12.5480   19.2180 O.2       1 HWS        -0.3678
     47 O11        32.3290    9.0310   24.6980 O.3       1 HWS         0.0610
     48 O12        30.5310    8.2640   23.6460 O.3       1 HWS        -0.0767
     49 C33        29.3880   10.6150   21.5260 C.3       1 HWS         0.0138
     50 N6         33.4240   13.7170   21.4550 N.am      1 HWS        -0.2645
     51 C34        34.3770   14.5900   21.2090 C.2       1 HWS         0.1752
     52 O13        35.2730   14.4000   20.4340 O.2       1 HWS        -0.3972
     53 C35        34.2610   15.8890   21.9280 C.3       1 HWS         0.0258
     54 FE         32.0620    7.2310   24.1240 Fe        1 HWS         0.0000
     55 H1         34.9198    1.7219   27.1846 H         1 HWS         0.0800
     56 H2         32.8232    2.4054   26.5087 H         1 HWS         0.0313
     57 H3         33.4635    3.7089   25.4515 H         1 HWS         0.0313
     58 H4         33.8224    5.1248   27.3694 H         1 HWS         0.0288
     59 H5         33.2683    3.8146   28.4663 H         1 HWS         0.0288
     60 H6         31.4454    5.3994   28.1107 H         1 HWS         0.0562
     61 H7         31.0440    3.8357   27.3230 H         1 HWS         0.0562
     62 H8         35.9050    3.6650   28.0227 H         1 HWS         0.1883
     63 H9         38.0344    3.6670   24.6868 H         1 HWS         0.0800
     64 H10        37.5529    5.8321   24.2662 H         1 HWS         0.0313
     65 H11        35.8503    5.6906   24.8210 H         1 HWS         0.0313
     66 H12        35.3447    4.4499   22.7219 H         1 HWS         0.0290
     67 H13        37.0157    4.8092   22.1696 H         1 HWS         0.0290
     68 H14        35.9210    6.5911   21.2055 H         1 HWS         0.0582
     69 H15        36.2877    7.3138   22.8086 H         1 HWS         0.0582
     70 H16        36.4473    2.3803   23.5669 H         1 HWS         0.1883
     71 H17        28.7034    2.4675   22.4960 H         1 HWS         0.0620
     72 H18        30.2524    3.3686   22.6188 H         1 HWS         0.0620
     73 H19        28.6980    4.2047   22.9529 H         1 HWS         0.0620
     74 H20        28.6281    1.4718   25.9414 H         1 HWS         0.0678
     75 H21        29.1634    0.7284   24.3962 H         1 HWS         0.0678
     76 H22        26.7907    0.7147   24.1652 H         1 HWS         0.0609
     77 H23        27.2463    2.2396   23.3323 H         1 HWS         0.0609
     78 H24        26.8901    3.3022   25.3464 H         1 HWS         0.2099
     79 H25        29.9153    3.2934   26.4150 H         1 HWS         0.0868
     80 H26        34.6595    8.5062   20.5761 H         1 HWS         0.0928
     81 H27        32.3044    7.2083   19.2095 H         1 HWS         0.1390
     82 H28        33.5764    8.0909   17.3232 H         1 HWS         0.0689
     83 H29        34.9085    8.5786   18.4252 H         1 HWS         0.0689
     84 H30        32.2732   10.0863   18.3041 H         1 HWS         0.0669
     85 H31        33.6263   10.4282   17.1732 H         1 HWS         0.0669
     86 H32        34.5611   11.9989   21.4419 H         1 HWS         0.0816
     87 H33        32.8805   10.5066   22.1967 H         1 HWS         0.0314
     88 H34        31.6056   11.7553   21.9909 H         1 HWS         0.0314
     89 H35        32.7595   13.1583   23.6313 H         1 HWS         0.0288
     90 H36        33.9624   11.8463   23.8730 H         1 HWS         0.0288
     91 H37        31.1061   12.0470   24.6937 H         1 HWS         0.0562
     92 H38        32.5459   11.4700   25.5998 H         1 HWS         0.0562
     93 H39        28.7365   10.8410   24.8478 H         1 HWS         0.0868
     94 H40        26.7474   11.5258   23.3636 H         1 HWS         0.0678
     95 H41        27.1877   12.0081   21.6902 H         1 HWS         0.0678
     96 H42        27.6417   13.4071   24.2914 H         1 HWS         0.0609
     97 H43        27.0768   14.0405   22.7082 H         1 HWS         0.0609
     98 H44        29.2443   14.6546   23.1995 H         1 HWS         0.2099
     99 H45        30.2500    9.9669   21.7426 H         1 HWS         0.0620
    100 H46        29.7256   11.4986   20.9646 H         1 HWS         0.0620
    101 H47        28.6525   10.0587   20.9265 H         1 HWS         0.0620
    102 H48        32.5613   14.0699   21.8172 H         1 HWS         0.1884
    103 H49        35.1042   16.5385   21.6501 H         1 HWS         0.0467
    104 H50        34.2781   15.7102   23.0132 H         1 HWS         0.0467
    105 H51        33.3151   16.3778   21.6517 H         1 HWS         0.0467
@<TRIPOS>BOND
     1    2    1 1  
     2    1    8 2  
     3    1   18 am 
     4    3    2 1  
     5    2    9 1  
     6    4    3 1  
     7    5    4 1  
     8    6    5 1  
     9    7    6 2  
    10    6   10 1  
    11    7   11 1  
    12   24    7 1  
    13    9   12 am 
    14   12   13 1  
    15   12   17 2  
    16   13   14 1  
    17   18   13 1  
    18   14   15 1  
    19   15   16 1  
    20   16   25 1  
    21   20   19 1  
    22   20   21 1  
    23   20   24 2  
    24   21   22 1  
    25   22   23 1  
    26   25   26 2  
    27   25   32 1  
    28   26   27 1  
    29   26   33 1  
    30   27   28 2  
    31   28   29 1  
    32   29   30 1  
    33   30   31 1  
    34   31   34 1  
    35   34   35 1  
    36   34   46 2  
    37   35   36 1  
    38   35   50 1  
    39   36   37 1  
    40   37   38 1  
    41   38   39 1  
    42   39   40 2  
    43   39   47 1  
    44   40   41 1  
    45   40   48 1  
    46   41   42 2  
    47   42   43 1  
    48   42   49 1  
    49   43   44 1  
    50   44   45 1  
    51   50   51 am 
    52   51   52 2  
    53   51   53 1  
    54   10   54 1  
    55   54   11 1  
    56   54   32 1  
    57   54   33 1  
    58   54   47 1  
    59   54   48 1  
    60    2   55 1  
    61    3   56 1  
    62    3   57 1  
    63    4   58 1  
    64    4   59 1  
    65    5   60 1  
    66    5   61 1  
    67    9   62 1  
    68   13   63 1  
    69   14   64 1  
    70   14   65 1  
    71   15   66 1  
    72   15   67 1  
    73   16   68 1  
    74   16   69 1  
    75   18   70 1  
    76   19   71 1  
    77   19   72 1  
    78   19   73 1  
    79   21   74 1  
    80   21   75 1  
    81   22   76 1  
    82   22   77 1  
    83   23   78 1  
    84   24   79 1  
    85   27   80 1  
    86   28   81 1  
    87   29   82 1  
    88   29   83 1  
    89   30   84 1  
    90   30   85 1  
    91   35   86 1  
    92   36   87 1  
    93   36   88 1  
    94   37   89 1  
    95   37   90 1  
    96   38   91 1  
    97   38   92 1  
    98   41   93 1  
    99   43   94 1  
   100   43   95 1  
   101   44   96 1  
   102   44   97 1  
   103   45   98 1  
   104   49   99 1  
   105   49  100 1  
   106   49  101 1  
   107   50  102 1  
   108   53  103 1  
   109   53  104 1  
   110   53  105 1  
@<TRIPOS>SUBSTRUCTURE
     1 HWS         1

