6e4v_ligand
  -I-interpret- 

105110  0  0  0  0  0  0  0  0999 V2000
   35.3210    2.1050   25.1660 C   0  0  0  0  0
   34.9710    2.5900   26.5110 C   0  0  0  0  0
   33.5500    3.2280   26.4370 C   0  0  0  0  0
   33.1570    4.2540   27.4640 C   0  0  0  0  0
   31.6970    4.7200   27.2830 C   0  0  0  0  0
   31.4560    5.3980   26.0600 N   0  3  0  0  0
   30.6900    4.9370   25.1230 C   0  0  0  0  0
   34.7250    1.1830   24.7230 O   0  0  0  0  0
   35.9460    3.4740   27.0420 N   0  0  0  0  0
   32.0030    6.4870   25.7800 O   0  0  0  0  0
   30.7840    5.8040   23.9790 O   0  0  0  0  0
   36.8840    4.0540   26.3640 C   0  0  0  0  0
   36.9810    3.8800   24.9210 C   0  0  0  0  0
   36.6470    5.2090   24.2350 C   0  0  0  0  0
   36.1830    5.1580   22.7980 C   0  0  0  0  0
   35.7180    6.5320   22.2850 C   0  0  0  0  0
   37.7080    4.7060   26.9000 O   0  0  0  0  0
   36.2410    2.7320   24.4800 N   0  0  0  0  0
   29.2440    3.2540   23.0430 C   0  0  0  0  0
   29.3490    2.8790   24.4700 C   0  0  0  0  0
   28.6500    1.5900   24.8480 C   0  0  0  0  0
   27.2330    1.7130   24.2980 C   0  0  0  0  0
   26.4960    2.4450   25.2350 O   0  0  0  0  0
   29.9540    3.6390   25.3830 C   0  0  0  0  0
   34.3080    6.7640   22.5030 N   0  3  0  0  0
   33.3620    7.2260   21.7470 C   0  0  0  0  0
   33.7690    7.8820   20.5180 C   0  0  0  0  0
   33.1980    7.8100   19.3690 C   0  0  0  0  0
   33.8190    8.5880   18.2740 C   0  0  0  0  0
   33.3650   10.0540   18.1740 C   0  0  0  0  0
   33.9430   10.8990   19.1210 O   0  0  0  0  0
   33.7850    6.5770   23.5830 O   0  0  0  0  0
   32.0740    7.0870   22.3670 O   0  0  0  0  0
   33.2260   11.9280   19.8370 C   0  0  0  0  0
   33.5200   12.2950   21.2460 C   0  0  0  0  0
   32.6630   11.5840   22.2410 C   0  0  0  0  0
   32.9180   12.0700   23.6100 C   0  0  0  0  0
   32.0170   11.4330   24.6360 C   0  0  0  0  0
   31.5930   10.0530   24.4310 N   0  3  0  0  0
   30.4220    9.6530   23.9940 C   0  0  0  0  0
   29.2350   10.5640   23.9200 C   0  0  0  0  0
   28.7660   11.0450   22.7920 C   0  0  0  0  0
   27.5350   11.9640   22.7330 C   0  0  0  0  0
   27.7870   13.3610   23.2020 C   0  0  0  0  0
   29.1070   13.7660   22.8930 O   0  0  0  0  0
   32.4430   12.5480   19.2180 O   0  0  0  0  0
   32.3290    9.0310   24.6980 O   0  0  0  0  0
   30.5310    8.2640   23.6460 O   0  0  0  0  0
   29.3880   10.6150   21.5260 C   0  0  0  0  0
   33.4240   13.7170   21.4550 N   0  0  0  0  0
   34.3770   14.5900   21.2090 C   0  0  0  0  0
   35.2730   14.4000   20.4340 O   0  0  0  0  0
   34.2610   15.8890   21.9280 C   0  0  0  0  0
   32.0620    7.2310   24.1240 Fe  0  0  0  0  0
   34.9549    1.7537   27.2098 H   0  0  0  0  0
   32.8610    2.3977   26.5917 H   0  0  0  0  0
   33.5306    3.7607   25.4862 H   0  0  0  0  0
   33.8088    5.1200   27.3486 H   0  0  0  0  0
   33.2516    3.8025   28.4516 H   0  0  0  0  0
   31.4782    5.4197   28.0896 H   0  0  0  0  0
   31.0697    3.8286   27.2880 H   0  0  0  0  0
   35.9042    3.6688   28.0423 H   0  0  0  0  0
   38.0013    3.6418   24.6204 H   0  0  0  0  0
   37.5793    5.7735   24.2214 H   0  0  0  0  0
   35.8118    5.6266   24.7973 H   0  0  0  0  0
   35.3381    4.4718   22.7398 H   0  0  0  0  0
   37.0226    4.8340   22.1830 H   0  0  0  0  0
   35.8995    6.5659   21.2108 H   0  0  0  0  0
   36.2703    7.2965   22.8314 H   0  0  0  0  0
   36.4514    2.3733   23.5486 H   0  0  0  0  0
   28.7029    4.1961   22.9551 H   0  0  0  0  0
   30.2438    3.3673   22.6239 H   0  0  0  0  0
   28.7082    2.4739   22.5021 H   0  0  0  0  0
   28.6460    1.4416   25.9278 H   0  0  0  0  0
   29.1637    0.7226   24.4334 H   0  0  0  0  0
   26.7916    0.7286   24.1423 H   0  0  0  0  0
   27.2358    2.2150   23.3305 H   0  0  0  0  0
   25.5934    2.5445   24.9234 H   0  0  0  0  0
   29.9153    3.2930   26.4159 H   0  0  0  0  0
   34.6603    8.5068   20.5762 H   0  0  0  0  0
   32.3036    7.2078   19.2094 H   0  0  0  0  0
   33.5262    8.1052   17.3417 H   0  0  0  0  0
   34.8910    8.6049   18.4707 H   0  0  0  0  0
   32.2886   10.0690   18.3449 H   0  0  0  0  0
   33.6679   10.4175   17.1921 H   0  0  0  0  0
   34.5473   11.9716   21.4141 H   0  0  0  0  0
   32.8945   10.5196   22.2013 H   0  0  0  0  0
   31.6175   11.7703   21.9952 H   0  0  0  0  0
   32.7298   13.1436   23.6225 H   0  0  0  0  0
   33.9465   11.8164   23.8670 H   0  0  0  0  0
   31.0985   12.0194   24.6110 H   0  0  0  0  0
   32.6007   11.4174   25.5564 H   0  0  0  0  0
   28.7360   10.8412   24.8486 H   0  0  0  0  0
   26.7823   11.5346   23.3942 H   0  0  0  0  0
   27.2312   12.0264   21.6881 H   0  0  0  0  0
   27.6527   13.3978   24.2831 H   0  0  0  0  0
   27.0881   14.0308   22.7009 H   0  0  0  0  0
   29.2458   14.6640   23.2028 H   0  0  0  0  0
   30.4423   10.8918   21.5282 H   0  0  0  0  0
   29.2952    9.5336   21.4260 H   0  0  0  0  0
   28.8847   11.1029   20.6913 H   0  0  0  0  0
   32.5440   14.0770   21.8244 H   0  0  0  0  0
   35.1583   16.0541   22.5244 H   0  0  0  0  0
   34.1515   16.6956   21.2030 H   0  0  0  0  0
   33.3886   15.8647   22.5810 H   0  0  0  0  0
  2  1  1  0  0  0
  1  8  2  0  0  0
  1 18  1  0  0  0
  3  2  1  0  0  0
  2  9  1  0  0  0
  4  3  1  0  0  0
  5  4  1  0  0  0
  6  5  1  0  0  0
  7  6  2  0  0  0
  6 10  1  0  0  0
  7 11  1  0  0  0
 24  7  1  0  0  0
  9 12  1  0  0  0
 12 13  1  0  0  0
 12 17  2  0  0  0
 13 14  1  0  0  0
 18 13  1  0  0  0
 14 15  1  0  0  0
 15 16  1  0  0  0
 16 25  1  0  0  0
 20 19  1  0  0  0
 20 21  1  0  0  0
 20 24  2  0  0  0
 21 22  1  0  0  0
 22 23  1  0  0  0
 25 26  2  0  0  0
 25 32  1  0  0  0
 26 27  1  0  0  0
 26 33  1  0  0  0
 27 28  2  0  0  0
 28 29  1  0  0  0
 29 30  1  0  0  0
 30 31  1  0  0  0
 31 34  1  0  0  0
 34 35  1  0  0  0
 34 46  2  0  0  0
 35 36  1  0  0  0
 35 50  1  0  0  0
 36 37  1  0  0  0
 37 38  1  0  0  0
 38 39  1  0  0  0
 39 40  2  0  0  0
 39 47  1  0  0  0
 40 41  1  0  0  0
 40 48  1  0  0  0
 41 42  2  0  0  0
 42 43  1  0  0  0
 42 49  1  0  0  0
 43 44  1  0  0  0
 44 45  1  0  0  0
 50 51  1  0  0  0
 51 52  2  0  0  0
 51 53  1  0  0  0
 10 54  1  0  0  0
 54 11  1  0  0  0
 54 32  1  0  0  0
 54 33  1  0  0  0
 54 47  1  0  0  0
 54 48  1  0  0  0
  2 55  1  0  0  0
  3 56  1  0  0  0
  3 57  1  0  0  0
  4 58  1  0  0  0
  4 59  1  0  0  0
  5 60  1  0  0  0
  5 61  1  0  0  0
  9 62  1  0  0  0
 13 63  1  0  0  0
 14 64  1  0  0  0
 14 65  1  0  0  0
 15 66  1  0  0  0
 15 67  1  0  0  0
 16 68  1  0  0  0
 16 69  1  0  0  0
 18 70  1  0  0  0
 19 71  1  0  0  0
 19 72  1  0  0  0
 19 73  1  0  0  0
 21 74  1  0  0  0
 21 75  1  0  0  0
 22 76  1  0  0  0
 22 77  1  0  0  0
 23 78  1  0  0  0
 24 79  1  0  0  0
 27 80  1  0  0  0
 28 81  1  0  0  0
 29 82  1  0  0  0
 29 83  1  0  0  0
 30 84  1  0  0  0
 30 85  1  0  0  0
 35 86  1  0  0  0
 36 87  1  0  0  0
 36 88  1  0  0  0
 37 89  1  0  0  0
 37 90  1  0  0  0
 38 91  1  0  0  0
 38 92  1  0  0  0
 41 93  1  0  0  0
 43 94  1  0  0  0
 43 95  1  0  0  0
 44 96  1  0  0  0
 44 97  1  0  0  0
 45 98  1  0  0  0
 49 99  1  0  0  0
 49100  1  0  0  0
 49101  1  0  0  0
 50102  1  0  0  0
 53103  1  0  0  0
 53104  1  0  0  0
 53105  1  0  0  0
M  END
$$$$
