3t70_ligand
  -I-interpret- 

 56 59  0  0  0  0  0  0  0  0999 V2000
   -6.1200   25.7830   -1.1280 N   0  0  0  0  0
   -5.5760   24.6530   -1.7560 C   0  0  0  0  0
   -6.2290   23.6150   -1.8780 O   0  0  0  0  0
   -4.2700   24.7090   -2.2370 N   0  0  0  0  0
   -3.5100   25.8750   -2.1140 C   0  0  0  0  0
   -2.3670   25.8690   -2.5650 O   0  0  0  0  0
   -4.0420   27.0140   -1.4960 C   0  0  0  0  0
   -5.3540   26.9640   -1.0050 C   0  0  0  0  0
   -7.5370   25.6960   -0.6470 C   0  0  0  0  0
   -8.8280   27.4690   -5.5480 C   0  0  0  0  0
   -9.3890   26.8000   -6.8320 C   0  0  0  0  0
   -9.4790   27.5730   -7.9960 C   0  0  0  0  0
   -8.0200   26.7940    0.2990 C   0  0  0  0  0
   -9.9770   27.0220   -9.1760 C   0  0  0  0  0
  -10.3820   25.6890   -9.1930 C   0  0  0  0  0
  -10.2910   24.9110   -8.0380 C   0  0  0  0  0
   -9.7920   25.4670   -6.8580 C   0  0  0  0  0
   -7.3180   27.1660   -5.4650 C   0  0  0  0  0
   -6.4160   28.1670   -5.8230 C   0  0  0  0  0
   -5.0400   27.9450   -5.7610 C   0  0  0  0  0
   -4.5550   26.7070   -5.3430 C   0  0  0  0  0
   -5.4560   25.7020   -4.9940 C   0  0  0  0  0
   -6.8350   25.9220   -5.0480 C   0  0  0  0  0
   -8.6940   27.8140   -0.5950 C   0  0  0  0  0
   -9.8360   28.3330    0.1050 O   0  0  0  0  0
   -9.1570   27.0080   -1.8140 C   0  0  0  0  0
   -8.3140   25.8140   -1.8790 O   0  0  0  0  0
  -11.0080   27.4910   -4.4110 C   0  0  0  0  0
   -9.0360   27.8470   -3.1120 C   0  0  0  0  0
   -9.5750   27.1260   -4.2960 N   0  3  0  0  0
   -3.8630   23.8879   -2.6850 H   0  0  0  0  0
   -3.4470   27.9221   -1.3988 H   0  0  0  0  0
   -5.7862   27.8420   -0.5251 H   0  0  0  0  0
   -7.6411   24.7801   -0.0652 H   0  0  0  0  0
   -8.9776   28.5458   -5.6270 H   0  0  0  0  0
   -9.1570   28.6142   -7.9795 H   0  0  0  0  0
   -7.1964   27.2326    0.8624 H   0  0  0  0  0
   -8.7031   26.4048    1.0539 H   0  0  0  0  0
  -10.0489   27.6294  -10.0782 H   0  0  0  0  0
  -10.7716   25.2519  -10.1124 H   0  0  0  0  0
  -10.6096   23.8688   -8.0568 H   0  0  0  0  0
   -9.7179   24.8577   -5.9573 H   0  0  0  0  0
   -6.7905   29.1351   -6.1555 H   0  0  0  0  0
   -4.3458   28.7380   -6.0389 H   0  0  0  0  0
   -3.4814   26.5263   -5.2895 H   0  0  0  0  0
   -5.0793   24.7304   -4.6743 H   0  0  0  0  0
   -7.5288   25.1297   -4.7671 H   0  0  0  0  0
   -8.0471   28.6454   -0.8752 H   0  0  0  0  0
  -10.2790   28.9830   -0.4453 H   0  0  0  0  0
  -10.2073   26.7325   -1.7190 H   0  0  0  0  0
  -11.0955   28.5632   -4.5868 H   0  0  0  0  0
  -11.4544   26.9473   -5.2436 H   0  0  0  0  0
  -11.5234   27.2298   -3.4868 H   0  0  0  0  0
   -7.9797   28.0495   -3.2889 H   0  0  0  0  0
   -9.6122   28.7628   -2.9800 H   0  0  0  0  0
   -9.4649   26.1195   -4.1729 H   0  0  0  0  0
  1  2  1  0  0  0
  1  8  1  0  0  0
  9  1  1  0  0  0
  2  3  2  0  0  0
  2  4  1  0  0  0
  4  5  1  0  0  0
  5  6  2  0  0  0
  7  5  1  0  0  0
  8  7  2  0  0  0
  9 13  1  0  0  0
 27  9  1  0  0  0
 10 11  1  0  0  0
 10 18  1  0  0  0
 30 10  1  0  0  0
 11 12  4  0  0  0
 11 17  4  0  0  0
 12 14  4  0  0  0
 24 13  1  0  0  0
 14 15  4  0  0  0
 16 15  4  0  0  0
 17 16  4  0  0  0
 18 19  4  0  0  0
 18 23  4  0  0  0
 19 20  4  0  0  0
 20 21  4  0  0  0
 22 21  4  0  0  0
 23 22  4  0  0  0
 24 25  1  0  0  0
 26 24  1  0  0  0
 26 27  1  0  0  0
 29 26  1  0  0  0
 30 28  1  0  0  0
 29 30  1  0  0  0
  4 31  1  0  0  0
  7 32  1  0  0  0
  8 33  1  0  0  0
  9 34  1  0  0  0
 10 35  1  0  0  0
 12 36  1  0  0  0
 13 37  1  0  0  0
 13 38  1  0  0  0
 14 39  1  0  0  0
 15 40  1  0  0  0
 16 41  1  0  0  0
 17 42  1  0  0  0
 19 43  1  0  0  0
 20 44  1  0  0  0
 21 45  1  0  0  0
 22 46  1  0  0  0
 23 47  1  0  0  0
 24 48  1  0  0  0
 25 49  1  0  0  0
 26 50  1  0  0  0
 28 51  1  0  0  0
 28 52  1  0  0  0
 28 53  1  0  0  0
 29 54  1  0  0  0
 29 55  1  0  0  0
 30 56  1  0  0  0
M  END
$$$$
