3nzs_ligand
  -I-interpret- 

 47 50  0  0  0  0  0  0  0  0999 V2000
   20.2290   13.3200   22.9300 C   0  0  0  0  0
   22.5850   12.9710   23.0970 N   0  0  0  0  0
   22.0020   19.0400   21.2690 O   0  0  0  0  0
   24.7480   13.3740   19.1170 S   0  0  0  0  0
   21.3180   12.6390   23.4360 C   0  0  0  0  0
   21.7520   14.6770   21.7250 N   0  0  0  0  0
   26.1040   13.8030   18.9240 O   0  0  0  0  0
   22.7980   13.9930   22.2410 C   0  0  0  0  0
   19.3710   11.7730   24.2500 N   0  0  0  0  0
   24.2840   12.6810   17.9470 O   0  0  0  0  0
   20.4760   14.3700   22.0540 C   0  0  0  0  0
   20.7790   11.7110   24.2300 N   0  0  0  0  0
   18.9940   12.7870   23.4330 C   0  0  0  0  0
   19.4370   15.0680   21.5270 N   0  0  0  0  0
   21.3750   10.6480   25.0770 C   0  0  0  0  0
   24.1190   14.3450   21.8870 N   0  0  0  0  0
   19.4420   16.4260   21.4820 C   0  0  0  0  0
   20.6500   17.1030   21.6100 C   0  0  0  0  0
   20.7970   18.4000   21.1360 C   0  0  0  0  0
   19.7230   19.0400   20.5300 C   0  0  0  0  0
   18.5090   18.3750   20.4030 C   0  0  0  0  0
   18.3700   17.0750   20.8780 C   0  0  0  0  0
   22.2070   20.3170   20.6690 C   0  0  0  0  0
   24.9850   13.1640   21.6880 C   0  0  0  0  0
   24.6420   12.3710   20.4330 C   0  0  0  0  0
   23.7740   14.6820   19.4190 C   0  0  0  0  0
   24.1470   15.3060   20.7620 C   0  0  0  0  0
   17.9814   13.1223   23.2084 H   0  0  0  0  0
   18.6336   14.5606   21.1561 H   0  0  0  0  0
   21.9554    9.9696   24.4516 H   0  0  0  0  0
   22.0261   11.1025   25.8237 H   0  0  0  0  0
   20.5797   10.0938   25.5755 H   0  0  0  0  0
   21.4944   16.6080   22.0897 H   0  0  0  0  0
   19.8318   20.0581   20.1562 H   0  0  0  0  0
   17.6633   18.8738   19.9297 H   0  0  0  0  0
   17.4142   16.5611   20.7762 H   0  0  0  0  0
   22.0712   20.2363   19.5905 H   0  0  0  0  0
   21.4870   21.0276   21.0750 H   0  0  0  0  0
   23.2190   20.6600   20.8844 H   0  0  0  0  0
   24.8443   12.5039   22.5439 H   0  0  0  0  0
   26.0097   13.5204   21.5831 H   0  0  0  0  0
   25.3391   11.5407   20.3202 H   0  0  0  0  0
   23.6298   11.9746   20.5132 H   0  0  0  0  0
   22.7339   14.3574   19.4490 H   0  0  0  0  0
   23.9078   15.4209   18.6289 H   0  0  0  0  0
   25.1667   15.6815   20.6770 H   0  0  0  0  0
   23.4141   16.0837   20.9769 H   0  0  0  0  0
  5  1  4  0  0  0
 11  1  4  0  0  0
  1 13  4  0  0  0
  2  5  4  0  0  0
  8  2  4  0  0  0
 19  3  1  0  0  0
  3 23  1  0  0  0
  4  7  2  0  0  0
  4 10  2  0  0  0
 25  4  1  0  0  0
  4 26  1  0  0  0
  5 12  4  0  0  0
  8  6  4  0  0  0
  6 11  4  0  0  0
 16  8  1  0  0  0
 12  9  4  0  0  0
 13  9  4  0  0  0
 11 14  1  0  0  0
 12 15  1  0  0  0
 14 17  1  0  0  0
 24 16  1  0  0  0
 16 27  1  0  0  0
 17 18  4  0  0  0
 17 22  4  0  0  0
 18 19  4  0  0  0
 19 20  4  0  0  0
 21 20  4  0  0  0
 22 21  4  0  0  0
 24 25  1  0  0  0
 26 27  1  0  0  0
 13 28  1  0  0  0
 14 29  1  0  0  0
 15 30  1  0  0  0
 15 31  1  0  0  0
 15 32  1  0  0  0
 18 33  1  0  0  0
 20 34  1  0  0  0
 21 35  1  0  0  0
 22 36  1  0  0  0
 23 37  1  0  0  0
 23 38  1  0  0  0
 23 39  1  0  0  0
 24 40  1  0  0  0
 24 41  1  0  0  0
 25 42  1  0  0  0
 25 43  1  0  0  0
 26 44  1  0  0  0
 26 45  1  0  0  0
 27 46  1  0  0  0
 27 47  1  0  0  0
M  END
$$$$
