5n1z_ligand
  -I-interpret- 

 61 66  0  0  0  0  0  0  0  0999 V2000
    4.6390   -2.4960  -11.9560 C   0  0  0  0  0
    5.2290   -2.0980  -13.1600 C   0  0  0  0  0
    4.9860   -2.8210  -14.3210 C   0  0  0  0  0
    4.9770   -1.8850  -10.7310 N   0  0  0  0  0
    1.9950   -5.8440  -14.4260 C   0  0  0  0  0
    2.8140   -5.5100  -15.6470 C   0  0  0  0  0
    6.5290   -1.4990  -15.6500 C   0  0  0  0  0
    7.8870   -2.0790  -15.4180 C   0  0  0  0  0
    8.9750   -1.4300  -15.0200 C   0  0  0  0  0
   10.3450   -2.0230  -14.9210 C   0  0  0  0  0
   11.0010   -3.1640  -12.8370 C   0  0  0  0  0
   11.9550   -3.0360  -11.6560 C   0  0  0  0  0
   11.1400   -2.2550  -10.6080 C   0  0  0  0  0
    9.6650   -3.4400  -12.1640 C   0  0  0  0  0
    6.2510   -1.7480  -10.1990 C   0  0  0  0  0
    7.7770   -0.6190   -8.7760 C   0  0  0  0  0
    7.7110    0.2930   -7.7270 C   0  0  0  0  0
    6.3380    0.5100   -7.5330 C   0  0  0  0  0
   11.5310   -0.7850  -10.5340 C   0  0  0  0  0
    9.6870    1.3470   -6.4740 N   0  0  0  0  0
    8.8070    0.8850   -7.0340 C   0  0  0  0  0
    5.5680   -0.1580   -8.4210 N   0  0  0  0  0
    6.4770   -0.8990   -9.1570 N   0  0  0  0  0
    7.3500   -2.3720  -10.7720 C   0  0  0  0  0
    8.8510   -1.2200   -9.3040 N   0  0  0  0  0
    8.6380   -2.0310  -10.3590 C   0  0  0  0  0
    9.7450   -2.5710  -10.9890 N   0  0  0  0  0
   11.2660   -0.2240   -9.2540 O   0  0  0  0  0
   10.9260   -1.9410  -13.5880 O   0  0  0  0  0
    5.4990   -2.5050  -15.5610 O   0  0  0  0  0
    4.0750   -3.8960  -14.3140 C   0  0  0  0  0
    3.7590   -4.5500  -15.5010 N   0  0  0  0  0
    2.5710   -6.0110  -16.7350 O   0  0  0  0  0
    2.5730   -5.4820  -13.0780 C   0  0  0  0  0
    3.4740   -4.2720  -13.1070 C   0  0  0  0  0
    3.7920   -3.6000  -11.9320 C   0  0  0  0  0
    5.8779   -1.2226  -13.1873 H   0  0  0  0  0
    4.2070   -1.5053  -10.1803 H   0  0  0  0  0
    1.9019   -6.9300  -14.4232 H   0  0  0  0  0
    1.0789   -5.2606  -14.5186 H   0  0  0  0  0
    6.5048   -1.0693  -16.6514 H   0  0  0  0  0
    6.3413   -0.7456  -14.8850 H   0  0  0  0  0
    7.9958   -3.1491  -15.5944 H   0  0  0  0  0
    8.8609   -0.3819  -14.7434 H   0  0  0  0  0
   10.9924   -1.4596  -15.5930 H   0  0  0  0  0
   10.2609   -3.0798  -15.1745 H   0  0  0  0  0
   11.3112   -3.9321  -13.5454 H   0  0  0  0  0
   12.8813   -2.5279  -11.9241 H   0  0  0  0  0
   12.2879   -4.0052  -11.2846 H   0  0  0  0  0
   11.3224   -2.5402   -9.5719 H   0  0  0  0  0
    9.5083   -4.4907  -11.9198 H   0  0  0  0  0
    8.8048   -3.2343  -12.8011 H   0  0  0  0  0
    5.9347    1.1502   -6.7484 H   0  0  0  0  0
   10.9433   -0.2395  -11.2723 H   0  0  0  0  0
   12.6016   -0.7082  -10.7236 H   0  0  0  0  0
    7.2070   -3.1279  -11.5441 H   0  0  0  0  0
   11.5261    0.7001   -9.2508 H   0  0  0  0  0
    4.2845   -4.2835  -16.3336 H   0  0  0  0  0
    3.1747   -6.3275  -12.7446 H   0  0  0  0  0
    1.7374   -5.2494  -12.4178 H   0  0  0  0  0
    3.3745   -3.9406  -10.9845 H   0  0  0  0  0
  2  1  4  0  0  0
  1  4  1  0  0  0
  1 36  4  0  0  0
  3  2  4  0  0  0
  3 30  1  0  0  0
 31  3  4  0  0  0
  4 15  1  0  0  0
  6  5  1  0  0  0
  5 34  1  0  0  0
 32  6  1  0  0  0
  6 33  2  0  0  0
  7  8  1  0  0  0
 30  7  1  0  0  0
  8  9  2  0  0  0
  9 10  1  0  0  0
 10 29  1  0  0  0
 11 12  1  0  0  0
 11 14  1  0  0  0
 29 11  1  0  0  0
 12 13  1  0  0  0
 13 19  1  0  0  0
 27 13  1  0  0  0
 27 14  1  0  0  0
 15 23  4  0  0  0
 15 24  4  0  0  0
 16 17  4  0  0  0
 23 16  4  0  0  0
 16 25  4  0  0  0
 18 17  4  0  0  0
 17 21  1  0  0  0
 22 18  4  0  0  0
 19 28  1  0  0  0
 21 20  3  0  0  0
 23 22  4  0  0  0
 24 26  4  0  0  0
 26 25  4  0  0  0
 26 27  1  0  0  0
 31 32  1  0  0  0
 31 35  4  0  0  0
 34 35  1  0  0  0
 35 36  4  0  0  0
  2 37  1  0  0  0
  4 38  1  0  0  0
  5 39  1  0  0  0
  5 40  1  0  0  0
  7 41  1  0  0  0
  7 42  1  0  0  0
  8 43  1  0  0  0
  9 44  1  0  0  0
 10 45  1  0  0  0
 10 46  1  0  0  0
 11 47  1  0  0  0
 12 48  1  0  0  0
 12 49  1  0  0  0
 13 50  1  0  0  0
 14 51  1  0  0  0
 14 52  1  0  0  0
 18 53  1  0  0  0
 19 54  1  0  0  0
 19 55  1  0  0  0
 24 56  1  0  0  0
 28 57  1  0  0  0
 32 58  1  0  0  0
 34 59  1  0  0  0
 34 60  1  0  0  0
 36 61  1  0  0  0
M  END
$$$$
