3zxv_ligand
  -I-interpret- 

 51 54  0  0  0  0  0  0  0  0999 V2000
  -31.3980   83.9010    8.0080 N   0  0  0  0  0
  -31.1240   82.9050    8.8770 C   0  0  0  0  0
  -32.1060   82.0820    9.3010 N   0  0  0  0  0
  -31.8470   81.0860   10.1680 C   0  0  0  0  0
  -30.5650   80.8700   10.6610 C   0  0  0  0  0
  -29.8310   82.7270    9.3610 C   0  0  0  0  0
  -29.5290   81.7030   10.2570 C   0  0  0  0  0
  -28.2340   81.5080   10.7590 C   0  0  0  0  0
  -27.9590   80.7760   11.8760 N   0  0  0  0  0
  -26.6160   80.6950   11.9230 C   0  0  0  0  0
  -25.8110   79.9730   12.9750 C   0  0  0  0  0
  -26.7060   79.5580   14.1290 C   0  0  0  0  0
  -24.7030   80.9090   13.4460 C   0  0  0  0  0
  -25.2070   78.7120   12.3830 C   0  0  0  0  0
  -26.9940   81.8530   10.1620 C   0  0  0  0  0
  -26.0030   81.3250   10.9160 N   0  0  0  0  0
  -26.7010   82.7740    9.0120 C   0  0  0  0  0
  -27.4670   82.7250    7.9030 C   0  0  0  0  0
  -27.1940   83.6310    6.7720 C   0  0  0  0  0
  -26.1240   84.4980    6.8960 C   0  0  0  0  0
  -25.3810   84.4740    8.0730 C   0  0  0  0  0
  -25.7200   83.5790    9.0910 C   0  0  0  0  0
  -27.9790   83.6060    5.6170 C   0  0  0  0  0
  -27.6720   84.4740    4.5660 C   0  0  0  0  0
  -26.5940   85.3630    4.6810 C   0  0  0  0  0
  -25.8190   85.3700    5.8530 C   0  0  0  0  0
  -26.2810   86.3080    3.5250 O   0  0  0  0  0
  -25.1020   87.2250    3.8270 C   0  0  0  0  0
  -32.3507   84.0342    7.6688 H   0  0  0  0  0
  -30.6523   84.5204    7.6905 H   0  0  0  0  0
  -32.6594   80.4348   10.4906 H   0  0  0  0  0
  -30.3744   80.0543   11.3584 H   0  0  0  0  0
  -29.0398   83.4012    9.0331 H   0  0  0  0  0
  -27.1593   80.4445   14.5725 H   0  0  0  0  0
  -27.4880   78.8943   13.7601 H   0  0  0  0  0
  -26.1109   79.0383   14.8799 H   0  0  0  0  0
  -24.0678   81.1725   12.6003 H   0  0  0  0  0
  -25.1460   81.8126   13.8647 H   0  0  0  0  0
  -24.1060   80.4086   14.2084 H   0  0  0  0  0
  -26.0054   78.0602   12.0282 H   0  0  0  0  0
  -24.5566   78.9787   11.5499 H   0  0  0  0  0
  -24.6269   78.1950   13.1474 H   0  0  0  0  0
  -28.2905   82.0134    7.8425 H   0  0  0  0  0
  -24.5368   85.1518    8.2001 H   0  0  0  0  0
  -25.1140   83.5705    9.9970 H   0  0  0  0  0
  -28.8206   82.9180    5.5366 H   0  0  0  0  0
  -28.2713   84.4600    3.6556 H   0  0  0  0  0
  -24.9787   86.0580    5.9463 H   0  0  0  0  0
  -25.3293   87.8298    4.7048 H   0  0  0  0  0
  -24.2145   86.6222    4.0195 H   0  0  0  0  0
  -24.9218   87.8766    2.9720 H   0  0  0  0  0
  1  2  1  0  0  0
  2  3  4  0  0  0
  2  6  4  0  0  0
  3  4  4  0  0  0
  4  5  4  0  0  0
  5  7  4  0  0  0
  6  7  4  0  0  0
  7  8  1  0  0  0
  8  9  4  0  0  0
  8 15  4  0  0  0
  9 10  4  0  0  0
 10 11  1  0  0  0
 10 16  4  0  0  0
 11 12  1  0  0  0
 11 13  1  0  0  0
 11 14  1  0  0  0
 15 16  4  0  0  0
 15 17  1  0  0  0
 17 18  4  0  0  0
 17 22  4  0  0  0
 18 19  4  0  0  0
 19 20  4  0  0  0
 19 23  4  0  0  0
 20 21  4  0  0  0
 20 26  4  0  0  0
 21 22  4  0  0  0
 23 24  4  0  0  0
 24 25  4  0  0  0
 25 26  4  0  0  0
 25 27  1  0  0  0
 27 28  1  0  0  0
  1 29  1  0  0  0
  1 30  1  0  0  0
  4 31  1  0  0  0
  5 32  1  0  0  0
  6 33  1  0  0  0
 12 34  1  0  0  0
 12 35  1  0  0  0
 12 36  1  0  0  0
 13 37  1  0  0  0
 13 38  1  0  0  0
 13 39  1  0  0  0
 14 40  1  0  0  0
 14 41  1  0  0  0
 14 42  1  0  0  0
 18 43  1  0  0  0
 21 44  1  0  0  0
 22 45  1  0  0  0
 23 46  1  0  0  0
 24 47  1  0  0  0
 26 48  1  0  0  0
 28 49  1  0  0  0
 28 50  1  0  0  0
 28 51  1  0  0  0
M  END
$$$$
