5a3t_ligand
  -I-interpret- 

 48 48  0  0  0  0  0  0  0  0999 V2000
   88.1370   65.2640   15.0270 O   0  0  0  0  0
   87.6290   64.6530   14.0300 C   0  0  0  0  0
   88.1550   63.5840   13.6390 O   0  0  0  0  0
   86.4620   65.1600   13.4130 C   0  0  0  0  0
   85.4760   64.3210   12.8690 C   0  0  0  0  0
   86.2300   66.5390   13.3570 C   0  0  0  0  0
   85.0910   67.0590   12.7450 C   0  0  0  0  0
   84.1490   66.1810   12.2090 N   0  0  0  0  0
   84.3320   64.8600   12.2670 C   0  0  0  0  0
   83.2950   64.0620   11.7180 C   0  0  0  0  0
   82.0320   64.8420   11.8780 N   0  3  0  0  0
   81.4550   64.6460   13.2030 C   0  0  0  0  0
   80.4130   63.5170   13.1360 C   0  0  0  0  0
   80.2090   62.9420   12.0640 O   0  0  0  0  0
   79.8120   63.1450   14.2920 N   0  0  0  0  0
   80.0540   63.7290   15.6310 C   0  0  0  0  0
   79.0250   64.8300   15.8260 C   0  0  0  0  0
   78.7880   62.0780   14.2560 C   0  0  0  0  0
   79.4820   60.7140   14.2960 C   0  0  0  0  0
   79.0630   59.7110   13.2730 N   0  3  0  0  0
   77.6930   59.8160   12.7250 C   0  0  0  0  0
   79.2280   58.3580   13.8510 C   0  0  0  0  0
   87.6294   66.0589   15.2063 H   0  0  0  0  0
   85.6023   63.2393   12.9157 H   0  0  0  0  0
   86.9553   67.2206   13.8013 H   0  0  0  0  0
   84.9384   68.1367   12.6860 H   0  0  0  0  0
   83.2286   63.1016   12.2292 H   0  0  0  0  0
   83.4869   63.8400   10.6682 H   0  0  0  0  0
   81.3608   64.5214   11.1801 H   0  0  0  0  0
   82.2439   65.8326   11.7586 H   0  0  0  0  0
   80.9764   65.5675   13.5345 H   0  0  0  0  0
   82.2409   64.3782   13.9092 H   0  0  0  0  0
   81.0656   64.1288   15.7010 H   0  0  0  0  0
   79.9587   62.9693   16.4068 H   0  0  0  0  0
   79.1488   65.5832   15.0479 H   0  0  0  0  0
   78.0234   64.4043   15.7654 H   0  0  0  0  0
   79.1673   65.2895   16.8041 H   0  0  0  0  0
   78.2018   62.1638   13.3411 H   0  0  0  0  0
   78.1256   62.1771   15.1159 H   0  0  0  0  0
   79.2271   60.2784   15.2621 H   0  0  0  0  0
   80.5370   60.9109   14.1054 H   0  0  0  0  0
   79.6675   59.9045   12.4746 H   0  0  0  0  0
   76.9705   59.7172   13.5351 H   0  0  0  0  0
   77.5694   60.7855   12.2424 H   0  0  0  0  0
   77.5332   59.0224   11.9951 H   0  0  0  0  0
   80.2732   58.2039   14.1193 H   0  0  0  0  0
   78.6057   58.2662   14.7412 H   0  0  0  0  0
   78.9262   57.6113   13.1166 H   0  0  0  0  0
  1  2  1  0  0  0
  2  3  2  0  0  0
  2  4  1  0  0  0
  4  5  4  0  0  0
  4  6  4  0  0  0
  5  9  4  0  0  0
  6  7  4  0  0  0
  7  8  4  0  0  0
  8  9  4  0  0  0
  9 10  1  0  0  0
 10 11  1  0  0  0
 11 12  1  0  0  0
 12 13  1  0  0  0
 13 14  2  0  0  0
 13 15  1  0  0  0
 15 16  1  0  0  0
 15 18  1  0  0  0
 16 17  1  0  0  0
 18 19  1  0  0  0
 19 20  1  0  0  0
 20 21  1  0  0  0
 20 22  1  0  0  0
  1 23  1  0  0  0
  5 24  1  0  0  0
  6 25  1  0  0  0
  7 26  1  0  0  0
 10 27  1  0  0  0
 10 28  1  0  0  0
 11 29  1  0  0  0
 11 30  1  0  0  0
 12 31  1  0  0  0
 12 32  1  0  0  0
 16 33  1  0  0  0
 16 34  1  0  0  0
 17 35  1  0  0  0
 17 36  1  0  0  0
 17 37  1  0  0  0
 18 38  1  0  0  0
 18 39  1  0  0  0
 19 40  1  0  0  0
 19 41  1  0  0  0
 20 42  1  0  0  0
 21 43  1  0  0  0
 21 44  1  0  0  0
 21 45  1  0  0  0
 22 46  1  0  0  0
 22 47  1  0  0  0
 22 48  1  0  0  0
M  END
$$$$
