3tvx_ligand
  -I-interpret- 

 38 39  0  0  0  0  0  0  0  0999 V2000
   39.9500   15.7000  -28.6970 C   0  0  0  0  0
   39.9740   15.3860  -27.2170 C   0  0  0  0  0
   40.0460   14.2180  -26.8610 O   0  0  0  0  0
   39.9090   16.5140  -26.2080 C   0  0  0  0  0
   39.7630   16.0360  -24.7610 C   0  0  0  0  0
   41.1300   15.8710  -24.0980 C   0  0  0  0  0
   41.7740   17.2370  -23.8400 C   0  0  0  0  0
   43.2350   17.1890  -24.0050 N   0  0  0  0  0
   43.9830   16.9800  -22.8900 C   0  0  0  0  0
   43.4590   16.8300  -21.7970 O   0  0  0  0  0
   45.3720   16.9450  -23.0650 C   0  0  0  0  0
   46.4020   16.7550  -22.1950 N   0  0  0  0  0
   46.3660   16.5280  -20.7480 C   0  0  0  0  0
   47.5530   16.8080  -22.9050 C   0  0  0  0  0
   47.2690   17.0230  -24.2070 N   0  0  0  0  0
   45.9260   17.1190  -24.3400 C   0  0  0  0  0
   45.1490   17.3300  -25.4320 N   0  0  0  0  0
   45.7430   17.5140  -26.7580 C   0  0  0  0  0
   43.8030   17.3600  -25.2340 C   0  0  0  0  0
   43.0930   17.5460  -26.2150 O   0  0  0  0  0
   40.8631   15.3271  -29.1611 H   0  0  0  0  0
   39.0856   15.2194  -29.1551 H   0  0  0  0  0
   39.8841   16.7789  -28.8372 H   0  0  0  0  0
   39.0294   17.1129  -26.4442 H   0  0  0  0  0
   40.8458   17.0671  -26.2760 H   0  0  0  0  0
   39.2557   15.0713  -24.7610 H   0  0  0  0  0
   39.1914   16.7781  -24.2036 H   0  0  0  0  0
   41.7764   15.2958  -24.7609 H   0  0  0  0  0
   41.0004   15.3566  -23.1458 H   0  0  0  0  0
   41.5536   17.5326  -22.8143 H   0  0  0  0  0
   41.3701   17.9488  -24.5599 H   0  0  0  0  0
   45.8885   17.3777  -20.2600 H   0  0  0  0  0
   45.7992   15.6210  -20.5378 H   0  0  0  0  0
   47.3836   16.4170  -20.3735 H   0  0  0  0  0
   48.5544   16.6946  -22.4897 H   0  0  0  0  0
   46.4004   18.3833  -26.7428 H   0  0  0  0  0
   46.3179   16.6268  -27.0235 H   0  0  0  0  0
   44.9513   17.6683  -27.4911 H   0  0  0  0  0
  1  2  1  0  0  0
  2  3  2  0  0  0
  2  4  1  0  0  0
  4  5  1  0  0  0
  5  6  1  0  0  0
  6  7  1  0  0  0
  7  8  1  0  0  0
  8  9  1  0  0  0
  8 19  1  0  0  0
  9 10  2  0  0  0
  9 11  1  0  0  0
 11 12  4  0  0  0
 11 16  4  0  0  0
 12 13  1  0  0  0
 12 14  4  0  0  0
 14 15  4  0  0  0
 15 16  4  0  0  0
 16 17  1  0  0  0
 17 18  1  0  0  0
 17 19  1  0  0  0
 19 20  2  0  0  0
  1 21  1  0  0  0
  1 22  1  0  0  0
  1 23  1  0  0  0
  4 24  1  0  0  0
  4 25  1  0  0  0
  5 26  1  0  0  0
  5 27  1  0  0  0
  6 28  1  0  0  0
  6 29  1  0  0  0
  7 30  1  0  0  0
  7 31  1  0  0  0
 13 32  1  0  0  0
 13 33  1  0  0  0
 13 34  1  0  0  0
 14 35  1  0  0  0
 18 36  1  0  0  0
 18 37  1  0  0  0
 18 38  1  0  0  0
M  END
$$$$
