6md4_ligand
  -I-interpret- 

 44 46  0  0  0  0  0  0  0  0999 V2000
   20.2740   64.1110   17.3570 S   0  0  0  0  0
   21.1390   66.3050   18.2370 O   0  0  0  0  0
   18.3780   63.1200   20.4750 O   0  0  0  0  0
   17.4060   61.6880   12.0740 O   0  0  0  0  0
   20.0320   64.8240   19.8270 N   0  0  0  0  0
   17.6230   63.6150    9.6360 N   0  0  0  0  0
   16.1090   65.5570    9.5890 N   0  0  0  0  0
   20.5920   65.2730   18.4430 C   0  0  0  0  0
   18.9770   63.6460   19.6020 C   0  0  0  0  0
   18.8990   63.3650   17.9960 C   0  0  0  0  0
   18.8250   61.8820   17.6170 C   0  0  0  0  0
   18.4540   61.8180   16.1250 C   0  0  0  0  0
   17.1170   61.9070   15.7420 C   0  0  0  0  0
   16.7490   61.8660   14.4060 C   0  0  0  0  0
   17.7390   61.7400   13.4380 C   0  0  0  0  0
   19.0770   61.6520   13.8180 C   0  0  0  0  0
   19.4440   61.6870   15.1540 C   0  0  0  0  0
   16.5140   62.6670   11.6310 C   0  0  0  0  0
   16.5680   62.7250   10.1070 C   0  0  0  0  0
   18.9450   63.0580    9.4360 C   0  0  0  0  0
   17.3380   65.0240    9.3260 C   0  0  0  0  0
   15.8300   66.8540    9.3000 C   0  0  0  0  0
   16.7890   67.6720    8.7240 C   0  0  0  0  0
   18.0160   67.1410    8.4570 C   0  0  0  0  0
   18.3090   65.8330    8.7400 C   0  0  0  0  0
   20.2964   65.2185   20.7297 H   0  0  0  0  0
   17.9724   63.7685   17.5876 H   0  0  0  0  0
   18.0802   61.3655   18.2225 H   0  0  0  0  0
   19.7800   61.3890   17.7988 H   0  0  0  0  0
   16.3469   62.0107   16.5064 H   0  0  0  0  0
   15.6995   61.9315   14.1189 H   0  0  0  0  0
   19.8468   61.5541   13.0525 H   0  0  0  0  0
   20.4930   61.6130   15.4409 H   0  0  0  0  0
   16.7901   63.6354   12.0483 H   0  0  0  0  0
   15.5032   62.4213   11.9565 H   0  0  0  0  0
   16.7735   61.7220    9.7330 H   0  0  0  0  0
   15.6126   63.1042    9.7445 H   0  0  0  0  0
   19.3144   62.6546   10.3788 H   0  0  0  0  0
   18.8938   62.2614    8.6938 H   0  0  0  0  0
   19.6182   63.8403    9.0854 H   0  0  0  0  0
   14.8417   67.2559    9.5233 H   0  0  0  0  0
   16.5679   68.7135    8.4904 H   0  0  0  0  0
   18.7824   67.7724    8.0075 H   0  0  0  0  0
   19.2943   65.4284    8.5084 H   0  0  0  0  0
  1  8  1  0  0  0
 10  1  1  0  0  0
  8  2  2  0  0  0
  9  3  2  0  0  0
  4 15  1  0  0  0
 18  4  1  0  0  0
  5  8  1  0  0  0
  9  5  1  0  0  0
 19  6  1  0  0  0
  6 20  1  0  0  0
  6 21  1  0  0  0
 21  7  4  0  0  0
  7 22  4  0  0  0
 10  9  1  0  0  0
 11 10  1  0  0  0
 12 11  1  0  0  0
 13 12  4  0  0  0
 17 12  4  0  0  0
 14 13  4  0  0  0
 15 14  4  0  0  0
 15 16  4  0  0  0
 16 17  4  0  0  0
 18 19  1  0  0  0
 21 25  4  0  0  0
 22 23  4  0  0  0
 23 24  4  0  0  0
 24 25  4  0  0  0
  5 26  1  0  0  0
 10 27  1  0  0  0
 11 28  1  0  0  0
 11 29  1  0  0  0
 13 30  1  0  0  0
 14 31  1  0  0  0
 16 32  1  0  0  0
 17 33  1  0  0  0
 18 34  1  0  0  0
 18 35  1  0  0  0
 19 36  1  0  0  0
 19 37  1  0  0  0
 20 38  1  0  0  0
 20 39  1  0  0  0
 20 40  1  0  0  0
 22 41  1  0  0  0
 23 42  1  0  0  0
 24 43  1  0  0  0
 25 44  1  0  0  0
M  END
$$$$
