4pl3_ligand
  -I-interpret- 

 45 46  0  0  0  0  0  0  0  0999 V2000
   62.7290   43.1220    1.3370 C   0  0  0  0  0
   61.8450   42.5150   -0.8110 C   0  0  0  0  0
   67.8430   45.6450   -3.8790 C   0  0  0  0  0
   66.5060   45.3700   -3.4650 O   0  0  0  0  0
   65.5310   45.5730   -4.4840 C   0  0  0  0  0
   64.3900   44.5850   -4.3160 C   0  0  0  0  0
   63.2810   45.1110   -3.5830 O   0  0  0  0  0
   62.2030   44.1620   -3.6130 C   0  0  0  0  0
   61.1340   44.3710   -2.5360 C   0  0  0  0  0
   61.6730   43.9370   -1.1950 C   0  0  0  0  0
   62.0770   44.9590   -0.2190 C   0  0  0  0  0
   61.9440   46.4220   -0.5440 C   0  0  0  0  0
   62.6150   44.4890    1.0790 C   0  0  0  0  0
   62.9990   45.4260    2.0250 C   0  0  0  0  0
   63.5050   45.0020    3.2450 C   0  0  0  0  0
   63.8750   45.9580    4.1640 O   0  0  0  0  0
   63.4360   47.3110    3.9900 C   0  0  0  0  0
   63.6270   43.6390    3.5060 C   0  0  0  0  0
   64.1170   43.1720    4.6890 O   0  0  0  0  0
   63.2410   42.7100    2.5620 C   0  0  0  0  0
   63.3820   41.2780    2.9170 C   0  0  0  0  0
   62.3540   42.1760    0.4140 O   0  0  0  0  0
   61.5180   41.6210   -1.6060 O   0  0  0  0  0
   68.1057   44.9923   -4.7115 H   0  0  0  0  0
   67.9176   46.6858   -4.1941 H   0  0  0  0  0
   68.5237   45.4663   -3.0467 H   0  0  0  0  0
   65.9948   45.4226   -5.4589 H   0  0  0  0  0
   65.1403   46.5878   -4.4092 H   0  0  0  0  0
   64.7758   43.7319   -3.7578 H   0  0  0  0  0
   64.0308   44.3279   -5.3125 H   0  0  0  0  0
   62.6411   43.1794   -3.4379 H   0  0  0  0  0
   61.7076   44.2758   -4.5772 H   0  0  0  0  0
   60.2530   43.7778   -2.7809 H   0  0  0  0  0
   60.8650   45.4264   -2.4933 H   0  0  0  0  0
   62.5440   46.6534   -1.4241 H   0  0  0  0  0
   60.8981   46.6548   -0.7443 H   0  0  0  0  0
   62.2938   47.0140    0.3017 H   0  0  0  0  0
   62.9039   46.4907    1.8116 H   0  0  0  0  0
   63.8082   47.6930    3.0394 H   0  0  0  0  0
   62.3464   47.3414    3.9937 H   0  0  0  0  0
   63.8206   47.9241    4.8050 H   0  0  0  0  0
   64.1220   42.2121    4.6754 H   0  0  0  0  0
   62.4026   40.8003    2.8907 H   0  0  0  0  0
   64.0445   40.7911    2.2013 H   0  0  0  0  0
   63.8023   41.1931    3.9191 H   0  0  0  0  0
  1 13  4  0  0  0
  1 20  4  0  0  0
 22  1  1  0  0  0
 10  2  1  0  0  0
  2 22  1  0  0  0
  2 23  2  0  0  0
  4  3  1  0  0  0
  5  4  1  0  0  0
  6  5  1  0  0  0
  7  6  1  0  0  0
  8  7  1  0  0  0
  9  8  1  0  0  0
  9 10  1  0  0  0
 10 11  2  0  0  0
 11 12  1  0  0  0
 11 13  1  0  0  0
 13 14  4  0  0  0
 14 15  4  0  0  0
 15 16  1  0  0  0
 15 18  4  0  0  0
 16 17  1  0  0  0
 18 19  1  0  0  0
 18 20  4  0  0  0
 20 21  1  0  0  0
  3 24  1  0  0  0
  3 25  1  0  0  0
  3 26  1  0  0  0
  5 27  1  0  0  0
  5 28  1  0  0  0
  6 29  1  0  0  0
  6 30  1  0  0  0
  8 31  1  0  0  0
  8 32  1  0  0  0
  9 33  1  0  0  0
  9 34  1  0  0  0
 12 35  1  0  0  0
 12 36  1  0  0  0
 12 37  1  0  0  0
 14 38  1  0  0  0
 17 39  1  0  0  0
 17 40  1  0  0  0
 17 41  1  0  0  0
 19 42  1  0  0  0
 21 43  1  0  0  0
 21 44  1  0  0  0
 21 45  1  0  0  0
M  END
$$$$
