5tdr_ligand
  -I-interpret- 

190189  0  0  0  0  0  0  0  0999 V2000
   -0.2000   15.3430    3.8810 N   0  3  0  0  0
    1.2450   15.3100    3.6740 C   0  0  0  0  0
    1.5960   14.2710    2.6220 C   0  0  0  0  0
    0.7260   13.5580    2.1450 O   0  0  0  0  0
    1.9650   14.9960    4.9830 C   0  0  0  0  0
    2.8760   14.1910    2.2700 N   0  0  0  0  0
    3.3690   13.1580    1.3620 C   0  0  0  0  0
    3.7870   11.9130    2.1380 C   0  0  0  0  0
    4.5840   11.9980    3.0720 O   0  0  0  0  0
    4.5480   13.6850    0.5500 C   0  0  0  0  0
    4.2160   14.8910   -0.3100 C   0  0  0  0  0
    5.4790   15.6490   -0.6870 C   0  0  0  0  0
    6.1260   16.2510    0.4760 N   0  0  0  0  0
    7.3020   16.8690    0.4410 C   0  0  0  0  0
    7.9710   16.9610   -0.7000 N   0  0  0  0  0
    7.8160   17.3850    1.5510 N   0  0  0  0  0
    3.2560   10.7580    1.7450 N   0  0  0  0  0
    3.5370    9.5110    2.4580 C   0  0  0  0  0
    3.9790    8.3630    1.5520 C   0  0  0  0  0
    3.7180    8.3640    0.3470 O   0  0  0  0  0
    2.2940    9.0310    3.2610 C   0  0  0  0  0
    1.1950    8.8090    2.3660 O   0  0  0  0  0
    1.8860   10.0600    4.3060 C   0  0  0  0  0
    4.6580    7.3900    2.1530 N   0  0  0  0  0
    4.9690    6.1160    1.5170 C   0  0  0  0  0
    6.4780    5.9300    1.3550 C   0  0  0  0  0
    7.0990    6.5630    0.1400 C   0  0  0  0  0
    8.5630    6.1470    0.0210 C   0  0  0  0  0
    9.3800    6.6680    1.1950 C   0  0  0  0  0
   10.8340    6.3510    1.0520 N   0  3  0  0  0
   11.5460    7.1300    2.0760 C   0  0  0  0  0
   10.9880    4.9460    1.4420 C   0  0  0  0  0
    4.4800    5.0280    2.4500 C   0  0  0  0  0
    4.8790    4.9820    3.6060 O   0  0  0  0  0
    3.7190    4.0680    1.9420 N   0  0  0  0  0
    3.2900    2.9570    2.7770 C   0  0  0  0  0
    3.3500    1.6590    2.0030 C   0  0  0  0  0
    2.7840    1.5430    0.9100 O   0  0  0  0  0
    1.8830    3.1790    3.3290 C   0  0  0  0  0
    1.5240    2.1450    4.4010 C   0  0  0  0  0
    0.3300    2.5520    5.2550 C   0  0  0  0  0
   -0.5330    3.3140    4.8180 O   0  0  0  0  0
    0.2910    2.0590    6.4900 N   0  0  0  0  0
    4.0430    0.6840    2.5780 N   0  0  0  0  0
    4.2110   -0.6050    1.9250 C   0  0  0  0  0
    3.2930   -1.6420    2.5460 C   0  0  0  0  0
    3.3210   -1.8810    3.7550 O   0  0  0  0  0
    5.6620   -1.0920    2.0030 C   0  0  0  0  0
    6.5200   -0.1250    1.3830 O   0  0  0  0  0
    5.8100   -2.4310    1.2870 C   0  0  0  0  0
    2.4600   -2.2330    1.7010 N   0  0  0  0  0
    1.5490   -3.2850    2.1100 C   0  0  0  0  0
    2.1400   -4.6440    1.7810 C   0  0  0  0  0
    2.6220   -4.8650    0.6730 O   0  0  0  0  0
    0.2050   -3.1160    1.4260 C   0  0  0  0  0
    2.1040   -5.5530    2.7460 N   0  0  0  0  0
    2.6060   -6.9040    2.5460 C   0  0  0  0  0
    1.4740   -7.9110    2.6780 C   0  0  0  0  0
    0.8770   -8.0550    3.7430 O   0  0  0  0  0
    3.7130   -7.2150    3.5470 C   0  0  0  0  0
    4.9320   -6.3250    3.3940 C   0  0  0  0  0
    5.9210   -6.5170    4.5290 C   0  0  0  0  0
    7.1100   -5.6940    4.3290 N   0  0  0  0  0
    8.2010   -6.1060    3.6920 C   0  0  0  0  0
    8.2620   -7.3380    3.2020 N   0  0  0  0  0
    9.2340   -5.2880    3.5510 N   0  0  0  0  0
    1.1800   -8.6030    1.5860 N   0  0  0  0  0
    0.0730   -9.5510    1.5480 C   0  0  0  0  0
    0.5100  -10.8990    0.9800 C   0  0  0  0  0
    1.2130  -10.9460   -0.0280 O   0  0  0  0  0
   -1.0800   -8.9910    0.7150 C   0  0  0  0  0
   -1.6140   -7.6490    1.1870 C   0  0  0  0  0
   -2.6760   -7.1280    0.2340 C   0  0  0  0  0
   -2.9960   -5.6680    0.4980 C   0  0  0  0  0
   -3.9110   -5.1110   -0.5380 N   0  3  0  0  0
    0.0990  -11.9880    1.6260 N   0  0  0  0  0
    0.3350  -13.3290    1.0890 C   0  0  0  0  0
   -0.9850  -13.9180    0.5900 C   0  0  0  0  0
   -1.9110  -14.1260    1.3770 O   0  0  0  0  0
    0.9940  -14.2320    2.1430 C   0  0  0  0  0
    0.1450  -14.4190    3.2610 O   0  0  0  0  0
   -1.0420  -14.1980   -0.7160 N   0  0  0  0  0
   -2.3040  -14.3740   -1.4540 C   0  0  0  0  0
   -3.3010  -13.2780   -1.0830 C   0  0  0  0  0
   -2.9360  -12.1020   -1.0070 O   0  0  0  0  0
   -2.9550  -15.7570   -1.2160 C   0  0  0  0  0
   -3.1930  -15.9530    0.1830 O   0  0  0  0  0
   -2.0830  -16.8720   -1.7350 C   0  0  0  0  0
   -4.4810  -13.5580   -0.8560 O   0  0  0  0  0
   -0.6641   15.5538    2.9975 H   0  0  0  0  0
   -0.5141   14.4349    4.2232 H   0  0  0  0  0
   -0.4277   16.0633    4.5664 H   0  0  0  0  0
    1.5698   16.2908    3.3266 H   0  0  0  0  0
    1.6601   14.0111    5.3367 H   0  0  0  0  0
    3.0420   15.0059    4.8152 H   0  0  0  0  0
    1.7052   15.7476    5.7284 H   0  0  0  0  0
    3.5348   14.8729    2.6461 H   0  0  0  0  0
    2.5613   12.8889    0.6813 H   0  0  0  0  0
    4.8610   12.8855   -0.1215 H   0  0  0  0  0
    5.3158   13.9951    1.2589 H   0  0  0  0  0
    3.5621   15.5559    0.2543 H   0  0  0  0  0
    3.7261   14.5487   -1.2215 H   0  0  0  0  0
    5.2033   16.4485   -1.3746 H   0  0  0  0  0
    6.1773   14.9436   -1.1375 H   0  0  0  0  0
    5.6440   16.1933    1.3731 H   0  0  0  0  0
    7.5832   16.5571   -1.5526 H   0  0  0  0  0
    8.7231   17.8506    1.5245 H   0  0  0  0  0
    7.3038   17.3158    2.4303 H   0  0  0  0  0
    2.6413   10.7413    0.9312 H   0  0  0  0  0
    4.3648    9.7564    3.1234 H   0  0  0  0  0
    2.5570    8.1028    3.7684 H   0  0  0  0  0
    0.4310    8.5131    2.8664 H   0  0  0  0  0
    2.7111   10.2174    5.0006 H   0  0  0  0  0
    1.6409   11.0002    3.8119 H   0  0  0  0  0
    1.0148    9.6966    4.8511 H   0  0  0  0  0
    4.9779    7.5435    3.1093 H   0  0  0  0  0
    4.5007    6.0807    0.5334 H   0  0  0  0  0
    6.6435    4.8571    1.2572 H   0  0  0  0  0
    6.9382    6.4116    2.2177 H   0  0  0  0  0
    7.0421    7.6475    0.2334 H   0  0  0  0  0
    6.5606    6.2342   -0.7489 H   0  0  0  0  0
    8.9701    6.5656   -0.8994 H   0  0  0  0  0
    8.6162    5.0583    0.0158 H   0  0  0  0  0
    9.0149    6.1884    2.1032 H   0  0  0  0  0
    9.2700    7.7518    1.2318 H   0  0  0  0  0
   11.1752    6.5437    0.1103 H   0  0  0  0  0
   11.3648    8.1925    1.9136 H   0  0  0  0  0
   11.1843    6.8453    3.0640 H   0  0  0  0  0
   12.6148    6.9276    2.0067 H   0  0  0  0  0
   10.6583    4.8182    2.4731 H   0  0  0  0  0
   10.3837    4.3198    0.7857 H   0  0  0  0  0
   12.0361    4.6592    1.3561 H   0  0  0  0  0
    3.4339    4.1088    0.9635 H   0  0  0  0  0
    3.9748    2.8975    3.6230 H   0  0  0  0  0
    1.1730    3.0822    2.5076 H   0  0  0  0  0
    1.8444    4.1699    3.7816 H   0  0  0  0  0
    2.3839    2.0450    5.0633 H   0  0  0  0  0
    1.2630    1.2181    3.8903 H   0  0  0  0  0
   -0.4750    2.3095    7.1152 H   0  0  0  0  0
    1.0271    1.4305    6.8117 H   0  0  0  0  0
    4.4649    0.8412    3.4932 H   0  0  0  0  0
    3.9494   -0.4723    0.8752 H   0  0  0  0  0
    5.9382   -1.2179    3.0499 H   0  0  0  0  0
    7.4295   -0.4285    1.4309 H   0  0  0  0  0
    5.1607   -3.1680    1.7596 H   0  0  0  0  0
    5.5286   -2.3149    0.2404 H   0  0  0  0  0
    6.8461   -2.7634    1.3513 H   0  0  0  0  0
    2.4596   -1.9364    0.7251 H   0  0  0  0  0
    1.3995   -3.2185    3.1876 H   0  0  0  0  0
   -0.2211   -2.1505    1.6987 H   0  0  0  0  0
    0.3403   -3.1628    0.3454 H   0  0  0  0  0
   -0.4661   -3.9137    1.7443 H   0  0  0  0  0
    1.7137   -5.2981    3.6532 H   0  0  0  0  0
    3.0206   -6.9752    1.5405 H   0  0  0  0  0
    4.0329   -8.2425    3.3740 H   0  0  0  0  0
    3.3087   -7.0493    4.5456 H   0  0  0  0  0
    4.5998   -5.2869    3.4029 H   0  0  0  0  0
    5.4297   -6.5857    2.4600 H   0  0  0  0  0
    6.2209   -7.5645    4.5591 H   0  0  0  0  0
    5.4437   -6.2219    5.4634 H   0  0  0  0  0
    7.1029   -4.7443    4.7011 H   0  0  0  0  0
    9.1027   -7.6534    2.7181 H   0  0  0  0  0
    7.4682   -7.9694    3.3093 H   0  0  0  0  0
    9.1915   -4.3425    3.9314 H   0  0  0  0  0
    1.7451   -8.4681    0.7476 H   0  0  0  0  0
   -0.2624   -9.7048    2.5737 H   0  0  0  0  0
   -1.9014   -9.7033    0.7923 H   0  0  0  0  0
   -0.6977   -8.8420   -0.2948 H   0  0  0  0  0
   -0.7911   -6.9350    1.2218 H   0  0  0  0  0
   -2.0579   -7.7742    2.1746 H   0  0  0  0  0
   -3.5851   -7.7115    0.3793 H   0  0  0  0  0
   -2.2991   -7.2192   -0.7847 H   0  0  0  0  0
   -2.0649   -5.1018    0.4754 H   0  0  0  0  0
   -3.4877   -5.5931    1.4679 H   0  0  0  0  0
   -4.1033   -4.1314   -0.3288 H   0  0  0  0  0
   -3.4694   -5.1838   -1.4545 H   0  0  0  0  0
   -4.7844   -5.6379   -0.5373 H   0  0  0  0  0
   -0.3911  -11.8857    2.5147 H   0  0  0  0  0
    1.0247  -13.2633    0.2475 H   0  0  0  0  0
    1.9148  -13.7568    2.4813 H   0  0  0  0  0
    1.1942  -15.2039    1.6920 H   0  0  0  0  0
    0.5813  -14.9856    3.9015 H   0  0  0  0  0
   -0.1652  -14.2948   -1.2281 H   0  0  0  0  0
   -2.0490  -14.3070   -2.5116 H   0  0  0  0  0
   -3.9000  -15.7770   -1.7588 H   0  0  0  0  0
   -3.5967  -16.8131    0.3203 H   0  0  0  0  0
   -1.9279  -16.7417   -2.8060 H   0  0  0  0  0
   -1.1216  -16.8486   -1.2218 H   0  0  0  0  0
   -2.5713  -17.8290   -1.5511 H   0  0  0  0  0
   -4.6088  -14.5044   -0.9544 H   0  0  0  0  0
  1  2  1  0  0  0
  2  3  1  0  0  0
  2  5  1  0  0  0
  3  4  2  0  0  0
  3  6  1  0  0  0
  6  7  1  0  0  0
  7  8  1  0  0  0
  7 10  1  0  0  0
  8  9  2  0  0  0
  8 17  1  0  0  0
 10 11  1  0  0  0
 11 12  1  0  0  0
 12 13  1  0  0  0
 13 14  1  0  0  0
 14 15  2  0  0  0
 14 16  1  0  0  0
 17 18  1  0  0  0
 18 19  1  0  0  0
 18 21  1  0  0  0
 19 20  2  0  0  0
 19 24  1  0  0  0
 21 22  1  0  0  0
 21 23  1  0  0  0
 24 25  1  0  0  0
 25 26  1  0  0  0
 25 33  1  0  0  0
 26 27  1  0  0  0
 27 28  1  0  0  0
 28 29  1  0  0  0
 29 30  1  0  0  0
 30 31  1  0  0  0
 30 32  1  0  0  0
 33 34  2  0  0  0
 33 35  1  0  0  0
 35 36  1  0  0  0
 36 37  1  0  0  0
 36 39  1  0  0  0
 37 38  2  0  0  0
 37 44  1  0  0  0
 39 40  1  0  0  0
 40 41  1  0  0  0
 41 42  2  0  0  0
 41 43  1  0  0  0
 44 45  1  0  0  0
 45 46  1  0  0  0
 45 48  1  0  0  0
 46 47  2  0  0  0
 46 51  1  0  0  0
 48 49  1  0  0  0
 48 50  1  0  0  0
 51 52  1  0  0  0
 52 53  1  0  0  0
 52 55  1  0  0  0
 53 54  2  0  0  0
 53 56  1  0  0  0
 56 57  1  0  0  0
 57 58  1  0  0  0
 57 60  1  0  0  0
 58 59  2  0  0  0
 58 67  1  0  0  0
 60 61  1  0  0  0
 61 62  1  0  0  0
 62 63  1  0  0  0
 63 64  1  0  0  0
 64 65  1  0  0  0
 64 66  2  0  0  0
 67 68  1  0  0  0
 68 69  1  0  0  0
 68 71  1  0  0  0
 69 70  2  0  0  0
 69 76  1  0  0  0
 71 72  1  0  0  0
 72 73  1  0  0  0
 73 74  1  0  0  0
 74 75  1  0  0  0
 76 77  1  0  0  0
 77 78  1  0  0  0
 77 80  1  0  0  0
 78 79  2  0  0  0
 78 82  1  0  0  0
 80 81  1  0  0  0
 82 83  1  0  0  0
 83 84  1  0  0  0
 83 86  1  0  0  0
 84 85  2  0  0  0
 84 89  1  0  0  0
 86 87  1  0  0  0
 86 88  1  0  0  0
  1 90  1  0  0  0
  1 91  1  0  0  0
  1 92  1  0  0  0
  2 93  1  0  0  0
  5 94  1  0  0  0
  5 95  1  0  0  0
  5 96  1  0  0  0
  6 97  1  0  0  0
  7 98  1  0  0  0
 10 99  1  0  0  0
 10100  1  0  0  0
 11101  1  0  0  0
 11102  1  0  0  0
 12103  1  0  0  0
 12104  1  0  0  0
 13105  1  0  0  0
 15106  1  0  0  0
 16107  1  0  0  0
 16108  1  0  0  0
 17109  1  0  0  0
 18110  1  0  0  0
 21111  1  0  0  0
 22112  1  0  0  0
 23113  1  0  0  0
 23114  1  0  0  0
 23115  1  0  0  0
 24116  1  0  0  0
 25117  1  0  0  0
 26118  1  0  0  0
 26119  1  0  0  0
 27120  1  0  0  0
 27121  1  0  0  0
 28122  1  0  0  0
 28123  1  0  0  0
 29124  1  0  0  0
 29125  1  0  0  0
 30126  1  0  0  0
 31127  1  0  0  0
 31128  1  0  0  0
 31129  1  0  0  0
 32130  1  0  0  0
 32131  1  0  0  0
 32132  1  0  0  0
 35133  1  0  0  0
 36134  1  0  0  0
 39135  1  0  0  0
 39136  1  0  0  0
 40137  1  0  0  0
 40138  1  0  0  0
 43139  1  0  0  0
 43140  1  0  0  0
 44141  1  0  0  0
 45142  1  0  0  0
 48143  1  0  0  0
 49144  1  0  0  0
 50145  1  0  0  0
 50146  1  0  0  0
 50147  1  0  0  0
 51148  1  0  0  0
 52149  1  0  0  0
 55150  1  0  0  0
 55151  1  0  0  0
 55152  1  0  0  0
 56153  1  0  0  0
 57154  1  0  0  0
 60155  1  0  0  0
 60156  1  0  0  0
 61157  1  0  0  0
 61158  1  0  0  0
 62159  1  0  0  0
 62160  1  0  0  0
 63161  1  0  0  0
 65162  1  0  0  0
 65163  1  0  0  0
 66164  1  0  0  0
 67165  1  0  0  0
 68166  1  0  0  0
 71167  1  0  0  0
 71168  1  0  0  0
 72169  1  0  0  0
 72170  1  0  0  0
 73171  1  0  0  0
 73172  1  0  0  0
 74173  1  0  0  0
 74174  1  0  0  0
 75175  1  0  0  0
 75176  1  0  0  0
 75177  1  0  0  0
 76178  1  0  0  0
 77179  1  0  0  0
 80180  1  0  0  0
 80181  1  0  0  0
 81182  1  0  0  0
 82183  1  0  0  0
 83184  1  0  0  0
 86185  1  0  0  0
 87186  1  0  0  0
 88187  1  0  0  0
 88188  1  0  0  0
 88189  1  0  0  0
 89190  1  0  0  0
M  END
$$$$
