### 
### Created by X-TOOL on Mon Sep 10 21:13:26 2018
### 

@<TRIPOS>MOLECULE
5tdr_ligand
  191   190     1     0     0
SMALL
GAST_HUCK


@<TRIPOS>ATOM
      1 N          -0.2000   15.3430    3.8810 N.4       1 ALA         0.2377
      2 CA          1.2450   15.3100    3.6740 C.3       1 ALA         0.0621
      3 C           1.5960   14.2710    2.6220 C.2       1 ALA         0.2264
      4 O           0.7260   13.5580    2.1450 O.2       1 ALA        -0.3907
      5 CB          1.9650   14.9960    4.9830 C.3       1 ALA        -0.0040
      6 N           2.8760   14.1910    2.2700 N.am      1 ARG        -0.2610
      7 CA          3.3690   13.1580    1.3620 C.3       1 ARG         0.1312
      8 C           3.7870   11.9130    2.1380 C.2       1 ARG         0.2040
      9 O           4.5840   11.9980    3.0720 O.2       1 ARG        -0.3944
     10 CB          4.5480   13.6850    0.5500 C.3       1 ARG        -0.0092
     11 CG          4.2160   14.8910   -0.3100 C.3       1 ARG        -0.0156
     12 CD          5.4790   15.6490   -0.6870 C.3       1 ARG         0.0627
     13 NE          6.1260   16.2510    0.4760 N.pl3     1 ARG        -0.2723
     14 CZ          7.3020   16.8690    0.4410 C.cat     1 ARG         0.2882
     15 NH1         7.9710   16.9610   -0.7000 N.pl3     1 ARG        -0.2849
     16 NH2         7.8160   17.3850    1.5510 N.pl3     1 ARG        -0.2849
     17 N           3.2560   10.7580    1.7450 N.am      1 THR        -0.2613
     18 CA          3.5370    9.5110    2.4580 C.3       1 THR         0.1565
     19 C           3.9790    8.3630    1.5520 C.2       1 THR         0.2065
     20 O           3.7180    8.3640    0.3470 O.2       1 THR        -0.3943
     21 CB          2.2940    9.0310    3.2610 C.3       1 THR         0.0924
     22 OG1         1.1950    8.8090    2.3660 O.3       1 THR        -0.3874
     23 CG2         1.8860   10.0600    4.3060 C.3       1 THR        -0.0346
     24 N           4.6580    7.3900    2.1530 N.am      1 MLY        -0.2637
     25 CA          4.9690    6.1160    1.5170 C.3       1 MLY         0.1310
     26 CB          6.4780    5.9300    1.3550 C.3       1 MLY        -0.0122
     27 CG          7.0990    6.5630    0.1400 C.3       1 MLY        -0.0440
     28 CD          8.5630    6.1470    0.0210 C.3       1 MLY        -0.0123
     29 CE          9.3800    6.6680    1.1950 C.3       1 MLY        -0.0324
     30 NZ         10.8340    6.3510    1.0520 N.4       1 MLY         0.2309
     31 CH1        11.5460    7.1300    2.0760 C.3       1 MLY        -0.0433
     32 CH2        10.9880    4.9460    1.4420 C.3       1 MLY        -0.0433
     33 C           4.4800    5.0280    2.4500 C.2       1 MLY         0.2039
     34 O           4.8790    4.9820    3.6060 O.2       1 MLY        -0.3944
     35 N           3.7190    4.0680    1.9420 N.am      1 GLN        -0.2636
     36 CA          3.2900    2.9570    2.7770 C.3       1 GLN         0.1330
     37 C           3.3500    1.6590    2.0030 C.2       1 GLN         0.2041
     38 O           2.7840    1.5430    0.9100 O.2       1 GLN        -0.3944
     39 CB          1.8830    3.1790    3.3290 C.3       1 GLN         0.0045
     40 CG          1.5240    2.1450    4.4010 C.3       1 GLN         0.0412
     41 CD          0.3300    2.5520    5.2550 C.2       1 GLN         0.1737
     42 OE1        -0.5330    3.3140    4.8180 O.2       1 GLN        -0.3973
     43 NE2         0.2910    2.0590    6.4900 N.am      1 GLN        -0.3009
     44 N           4.0430    0.6840    2.5780 N.am      1 THR        -0.2613
     45 CA          4.2110   -0.6050    1.9250 C.3       1 THR         0.1565
     46 C           3.2930   -1.6420    2.5460 C.2       1 THR         0.2065
     47 O           3.3210   -1.8810    3.7550 O.2       1 THR        -0.3943
     48 CB          5.6620   -1.0920    2.0030 C.3       1 THR         0.0924
     49 OG1         6.5200   -0.1250    1.3830 O.3       1 THR        -0.3874
     50 CG2         5.8100   -2.4310    1.2870 C.3       1 THR        -0.0346
     51 N           2.4600   -2.2330    1.7010 N.am      1 ALA        -0.2639
     52 CA          1.5490   -3.2850    2.1100 C.3       1 ALA         0.1282
     53 C           2.1400   -4.6440    1.7810 C.2       1 ALA         0.2036
     54 O           2.6220   -4.8650    0.6730 O.2       1 ALA        -0.3944
     55 CB          0.2050   -3.1160    1.4260 C.3       1 ALA        -0.0244
     56 N           2.1040   -5.5530    2.7460 N.am      1 ARG        -0.2637
     57 CA          2.6060   -6.9040    2.5460 C.3       1 ARG         0.1311
     58 C           1.4740   -7.9110    2.6780 C.2       1 ARG         0.2039
     59 O           0.8770   -8.0550    3.7430 O.2       1 ARG        -0.3944
     60 CB          3.7130   -7.2150    3.5470 C.3       1 ARG        -0.0092
     61 CG          4.9320   -6.3250    3.3940 C.3       1 ARG        -0.0156
     62 CD          5.9210   -6.5170    4.5290 C.3       1 ARG         0.0627
     63 NE          7.1100   -5.6940    4.3290 N.pl3     1 ARG        -0.2723
     64 CZ          8.2010   -6.1060    3.6920 C.cat     1 ARG         0.2882
     65 NH1         8.2620   -7.3380    3.2020 N.pl3     1 ARG        -0.2849
     66 NH2         9.2340   -5.2880    3.5510 N.pl3     1 ARG        -0.2849
     67 N           1.1800   -8.6030    1.5860 N.am      1 LYS        -0.2637
     68 CA          0.0730   -9.5510    1.5480 C.3       1 LYS         0.1310
     69 C           0.5100  -10.8990    0.9800 C.2       1 LYS         0.2040
     70 O           1.2130  -10.9460   -0.0280 O.2       1 LYS        -0.3944
     71 CB         -1.0800   -8.9910    0.7150 C.3       1 LYS        -0.0122
     72 CG         -1.6140   -7.6490    1.1870 C.3       1 LYS        -0.0440
     73 CD         -2.6760   -7.1280    0.2340 C.3       1 LYS        -0.0124
     74 CE         -2.9960   -5.6680    0.4980 C.3       1 LYS        -0.0354
     75 NZ         -3.9110   -5.1110   -0.5380 N.4       1 LYS         0.2185
     76 N           0.0990  -11.9880    1.6260 N.am      1 SER        -0.2616
     77 CA          0.3350  -13.3290    1.0890 C.3       1 SER         0.1539
     78 C          -0.9850  -13.9180    0.5900 C.2       1 SER         0.2057
     79 O          -1.9110  -14.1260    1.3770 O.2       1 SER        -0.3943
     80 CB          0.9940  -14.2320    2.1430 C.3       1 SER         0.0843
     81 OG          0.1450  -14.4190    3.2610 O.3       1 SER        -0.3903
     82 N          -1.0420  -14.1980   -0.7160 N.am      1 THR        -0.2669
     83 CA         -2.3040  -14.3740   -1.4540 C.3       1 THR         0.1198
     84 C          -3.3010  -13.2780   -1.0830 C.2       1 THR         0.0626
     85 O          -2.9360  -12.1020   -1.0070 O.co2     1 THR        -0.5665
     86 CB         -2.9550  -15.7570   -1.2160 C.3       1 THR         0.0869
     87 OG1        -3.1930  -15.9530    0.1830 O.3       1 THR        -0.3880
     88 CG2        -2.0830  -16.8720   -1.7350 C.3       1 THR        -0.0352
     89 OXT        -4.4810  -13.5580   -0.8560 O.co2     1 THR        -0.5665
     90 H1         -0.4236   16.0343    4.5797 H         1 ALA         0.2015
     91 H2         -0.5158   14.4374    4.1912 H         1 ALA         0.2015
     92 H3         -0.6582   15.5802    3.0151 H         1 ALA         0.2015
     93 H4          1.5734   16.2981    3.3194 H         1 ALA         0.1095
     94 H5          3.0508   14.9752    4.8083 H         1 ALA         0.0310
     95 H6          1.6350   14.0156    5.3570 H         1 ALA         0.0310
     96 H7          1.7281   15.7709    5.7269 H         1 ALA         0.0310
     97 H8          3.5219   14.8595    2.6387 H         1 ARG         0.1884
     98 H9          2.5587   12.8848    0.6701 H         1 ARG         0.0800
     99 H10         4.9029   12.8782   -0.1081 H         1 ARG         0.0313
    100 H11         5.3496   13.9682    1.2480 H         1 ARG         0.0313
    101 H12         3.5472   15.5607    0.2506 H         1 ARG         0.0301
    102 H13         3.7114   14.5523   -1.2269 H         1 ARG         0.0301
    103 H14         5.2157   16.4456   -1.3983 H         1 ARG         0.0689
    104 H15         6.1832   14.9506   -1.1628 H         1 ARG         0.0689
    105 H16         5.6393   16.1928    1.3819 H         1 ARG         0.2642
    106 H17         8.8823   17.4403   -0.7255 H         1 ARG         0.2615
    107 H18         7.5794   16.5532   -1.5609 H         1 ARG         0.2615
    108 H19         7.2987   17.3152    2.4390 H         1 ARG         0.2615
    109 H20         8.7320   17.8552    1.5242 H         1 ARG         0.2615
    110 H21         2.6533   10.7416    0.9472 H         1 THR         0.1884
    111 H22         4.3527    9.7165    3.1668 H         1 THR         0.0826
    112 H23         2.5430    8.0873    3.7684 H         1 THR         0.0639
    113 H24         1.4350    8.1452    1.7302 H         1 THR         0.2101
    114 H25         1.0068    9.6944    4.8568 H         1 THR         0.0257
    115 H26         1.6384   11.0094    3.8087 H         1 THR         0.0257
    116 H27         2.7179   10.2197    5.0077 H         1 THR         0.0257
    117 H28         4.9716    7.5405    3.0906 H         1 MLY         0.1883
    118 H29         4.4721    6.0489    0.5379 H         1 MLY         0.0800
    119 H30         6.6801    4.8496    1.3107 H         1 MLY         0.0312
    120 H31         6.9661    6.3583    2.2429 H         1 MLY         0.0312
    121 H32         7.0381    7.6577    0.2290 H         1 MLY         0.0269
    122 H33         6.5542    6.2372   -0.7584 H         1 MLY         0.0269
    123 H34         8.9771    6.5543   -0.9132 H         1 MLY         0.0317
    124 H35         8.6236    5.0489    0.0009 H         1 MLY         0.0317
    125 H36         9.0056    6.2063    2.1206 H         1 MLY         0.0814
    126 H37         9.2591    7.7597    1.2548 H         1 MLY         0.0814
    127 H38        11.1764    6.5343    0.1219 H         1 MLY         0.2028
    128 H39        12.6248    6.9266    2.0071 H         1 MLY         0.0777
    129 H40        11.1819    6.8436    3.0737 H         1 MLY         0.0777
    130 H41        11.3640    8.2025    1.9132 H         1 MLY         0.0777
    131 H42        10.4740    4.3042    0.7113 H         1 MLY         0.0777
    132 H43        10.5485    4.7918    2.4385 H         1 MLY         0.0777
    133 H44        12.0569    4.6879    1.4687 H         1 MLY         0.0777
    134 H45         3.4395    4.1080    0.9827 H         1 GLN         0.1883
    135 H46         3.9828    2.8837    3.6283 H         1 GLN         0.0801
    136 H47         1.1601    3.1019    2.5035 H         1 GLN         0.0337
    137 H48         1.8284    4.1846    3.7715 H         1 GLN         0.0337
    138 H49         2.3942    2.0087    5.0599 H         1 GLN         0.0504
    139 H50         1.2885    1.1930    3.9028 H         1 GLN         0.0504
    140 H51        -0.4688    2.2912    7.0973 H         1 GLN         0.1814
    141 H52         1.0215    1.4562    6.8110 H         1 GLN         0.1814
    142 H53         4.4567    0.8381    3.4753 H         1 THR         0.1884
    143 H54         3.9414   -0.4894    0.8649 H         1 THR         0.0826
    144 H55         5.9480   -1.2119    3.0584 H         1 THR         0.0639
    145 H56         6.4380    0.7061    1.8359 H         1 THR         0.2101
    146 H57         6.8553   -2.7675    1.3512 H         1 THR         0.0257
    147 H58         5.5264   -2.3152    0.2305 H         1 THR         0.0257
    148 H59         5.1552   -3.1757    1.7630 H         1 THR         0.0257
    149 H60         2.4597   -1.9422    0.7442 H         1 ALA         0.1883
    150 H61         1.4005   -3.2191    3.1979 H         1 ALA         0.0797
    151 H62        -0.4732   -3.9206    1.7465 H         1 ALA         0.0277
    152 H63         0.3401   -3.1631    0.3354 H         1 ALA         0.0277
    153 H64        -0.2262   -2.1420    1.7004 H         1 ALA         0.0277
    154 H65         1.7214   -5.3031    3.6355 H         1 ARG         0.1883
    155 H66         3.0226   -6.9761    1.5305 H         1 ARG         0.0800
    156 H67         4.0252   -8.2605    3.4078 H         1 ARG         0.0313
    157 H68         3.3114   -7.0843    4.5627 H         1 ARG         0.0313
    158 H69         4.6057   -5.2746    3.3810 H         1 ARG         0.0301
    159 H70         5.4308   -6.5658    2.4436 H         1 ARG         0.0301
    160 H71         6.2186   -7.5751    4.5722 H         1 ARG         0.0689
    161 H72         5.4411   -6.2320    5.4769 H         1 ARG         0.0689
    162 H73         7.1028   -4.7350    4.7047 H         1 ARG         0.2642
    163 H74         9.1089   -7.6547    2.7087 H         1 ARG         0.2615
    164 H75         7.4624   -7.9774    3.3151 H         1 ARG         0.2615
    165 H76         9.1890   -4.3315    3.9304 H         1 ARG         0.2615
    166 H77        10.0819   -5.6087    3.0620 H         1 ARG         0.2615
    167 H78         1.7340   -8.4708    0.7640 H         1 LYS         0.1883
    168 H79        -0.2818   -9.7071    2.5774 H         1 LYS         0.0800
    169 H80        -1.9061   -9.7168    0.7425 H         1 LYS         0.0312
    170 H81        -0.7287   -8.8743   -0.3208 H         1 LYS         0.0312
    171 H82        -0.7855   -6.9270    1.2338 H         1 LYS         0.0269
    172 H83        -2.0542   -7.7675    2.1881 H         1 LYS         0.0269
    173 H84        -3.5925   -7.7229    0.3611 H         1 LYS         0.0317
    174 H85        -2.3113   -7.2324   -0.7985 H         1 LYS         0.0317
    175 H86        -2.0595   -5.0910    0.4946 H         1 LYS         0.0813
    176 H87        -3.4770   -5.5805    1.4833 H         1 LYS         0.0813
    177 H88        -4.1018   -4.1428   -0.3322 H         1 LYS         0.1994
    178 H89        -4.7746   -5.6309   -0.5382 H         1 LYS         0.1994
    179 H90        -3.4756   -5.1824   -1.4443 H         1 LYS         0.1994
    180 H91        -0.3815  -11.8877    2.4972 H         1 SER         0.1884
    181 H92         1.0219  -13.2460    0.2338 H         1 SER         0.0823
    182 H93         1.9319  -13.7657    2.4789 H         1 SER         0.0606
    183 H94         1.2124  -15.2107    1.6909 H         1 SER         0.0606
    184 H95        -0.6654  -14.8254    2.9773 H         1 SER         0.2097
    185 H96        -0.1824  -14.2929   -1.2181 H         1 THR         0.1876
    186 H97        -2.0772  -14.2875   -2.5269 H         1 THR         0.0752
    187 H98        -3.9169  -15.7862   -1.7487 H         1 THR         0.0632
    188 H99        -2.3682  -15.9105    0.6524 H         1 THR         0.2100
    189 H100       -2.5747  -17.8384   -1.5500 H         1 THR         0.0256
    190 H101       -1.1124  -16.8495   -1.2178 H         1 THR         0.0256
    191 H102       -1.9257  -16.7417   -2.8159 H         1 THR         0.0256
@<TRIPOS>BOND
     1    1    2 1  
     2    2    3 1  
     3    2    5 1  
     4    3    4 2  
     5    3    6 am 
     6    6    7 1  
     7    7    8 1  
     8    7   10 1  
     9    8    9 2  
    10    8   17 am 
    11   10   11 1  
    12   11   12 1  
    13   12   13 1  
    14   13   14 ar 
    15   14   15 ar 
    16   14   16 ar 
    17   17   18 1  
    18   18   19 1  
    19   18   21 1  
    20   19   20 2  
    21   19   24 am 
    22   21   22 1  
    23   21   23 1  
    24   24   25 1  
    25   25   26 1  
    26   25   33 1  
    27   26   27 1  
    28   27   28 1  
    29   28   29 1  
    30   29   30 1  
    31   30   31 1  
    32   30   32 1  
    33   33   34 2  
    34   33   35 am 
    35   35   36 1  
    36   36   37 1  
    37   36   39 1  
    38   37   38 2  
    39   37   44 am 
    40   39   40 1  
    41   40   41 1  
    42   41   42 2  
    43   41   43 am 
    44   44   45 1  
    45   45   46 1  
    46   45   48 1  
    47   46   47 2  
    48   46   51 am 
    49   48   49 1  
    50   48   50 1  
    51   51   52 1  
    52   52   53 1  
    53   52   55 1  
    54   53   54 2  
    55   53   56 am 
    56   56   57 1  
    57   57   58 1  
    58   57   60 1  
    59   58   59 2  
    60   58   67 am 
    61   60   61 1  
    62   61   62 1  
    63   62   63 1  
    64   63   64 ar 
    65   64   65 ar 
    66   64   66 ar 
    67   67   68 1  
    68   68   69 1  
    69   68   71 1  
    70   69   70 2  
    71   69   76 am 
    72   71   72 1  
    73   72   73 1  
    74   73   74 1  
    75   74   75 1  
    76   76   77 1  
    77   77   78 1  
    78   77   80 1  
    79   78   79 2  
    80   78   82 am 
    81   80   81 1  
    82   82   83 1  
    83   83   84 1  
    84   83   86 1  
    85   84   85 ar 
    86   84   89 ar 
    87   86   87 1  
    88   86   88 1  
    89    1   90 1  
    90    1   91 1  
    91    1   92 1  
    92    2   93 1  
    93    5   94 1  
    94    5   95 1  
    95    5   96 1  
    96    6   97 1  
    97    7   98 1  
    98   10   99 1  
    99   10  100 1  
   100   11  101 1  
   101   11  102 1  
   102   12  103 1  
   103   12  104 1  
   104   13  105 1  
   105   15  106 1  
   106   15  107 1  
   107   16  108 1  
   108   16  109 1  
   109   17  110 1  
   110   18  111 1  
   111   21  112 1  
   112   22  113 1  
   113   23  114 1  
   114   23  115 1  
   115   23  116 1  
   116   24  117 1  
   117   25  118 1  
   118   26  119 1  
   119   26  120 1  
   120   27  121 1  
   121   27  122 1  
   122   28  123 1  
   123   28  124 1  
   124   29  125 1  
   125   29  126 1  
   126   30  127 1  
   127   31  128 1  
   128   31  129 1  
   129   31  130 1  
   130   32  131 1  
   131   32  132 1  
   132   32  133 1  
   133   35  134 1  
   134   36  135 1  
   135   39  136 1  
   136   39  137 1  
   137   40  138 1  
   138   40  139 1  
   139   43  140 1  
   140   43  141 1  
   141   44  142 1  
   142   45  143 1  
   143   48  144 1  
   144   49  145 1  
   145   50  146 1  
   146   50  147 1  
   147   50  148 1  
   148   51  149 1  
   149   52  150 1  
   150   55  151 1  
   151   55  152 1  
   152   55  153 1  
   153   56  154 1  
   154   57  155 1  
   155   60  156 1  
   156   60  157 1  
   157   61  158 1  
   158   61  159 1  
   159   62  160 1  
   160   62  161 1  
   161   63  162 1  
   162   65  163 1  
   163   65  164 1  
   164   66  165 1  
   165   66  166 1  
   166   67  167 1  
   167   68  168 1  
   168   71  169 1  
   169   71  170 1  
   170   72  171 1  
   171   72  172 1  
   172   73  173 1  
   173   73  174 1  
   174   74  175 1  
   175   74  176 1  
   176   75  177 1  
   177   75  178 1  
   178   75  179 1  
   179   76  180 1  
   180   77  181 1  
   181   80  182 1  
   182   80  183 1  
   183   81  184 1  
   184   82  185 1  
   185   83  186 1  
   186   86  187 1  
   187   87  188 1  
   188   88  189 1  
   189   88  190 1  
   190   88  191 1  
@<TRIPOS>SUBSTRUCTURE
     1 ALA         1

