3snc_ligand
  -I-interpret- 

 76 75  0  0  0  0  0  0  0  0999 V2000
   29.4170   51.4660   -6.1850 C   0  0  0  0  0
   28.5910   51.9920   -6.9480 O   0  0  0  0  0
   30.7210   52.1430   -5.8340 C   0  0  0  0  0
   29.0960   50.4700   -5.4140 N   0  0  0  0  0
   28.8550   49.1030   -5.9060 C   0  0  0  0  0
   27.4240   48.6070   -5.5590 C   0  0  0  0  0
   26.5300   49.4290   -5.3160 O   0  0  0  0  0
   29.9600   48.1280   -5.4120 C   0  0  0  0  0
   31.3720   48.4580   -5.9740 C   0  0  0  0  0
   32.3460   48.5540   -5.2200 O   0  0  0  0  0
   31.4760   48.6050   -7.2880 N   0  0  0  0  0
   27.2070   47.2830   -5.5490 N   0  0  0  0  0
   25.8810   46.6820   -5.2330 C   0  0  0  0  0
   25.9430   45.3800   -4.3960 C   0  0  0  0  0
   26.9250   44.6200   -4.4820 O   0  0  0  0  0
   25.0650   46.4590   -6.5150 C   0  0  0  0  0
   25.9040   46.1970   -7.6260 O   0  0  0  0  0
   24.8980   45.1450   -3.5870 N   0  0  0  0  0
   24.7420   43.8910   -2.8200 C   0  0  0  0  0
   24.0850   42.7690   -3.6460 C   0  0  0  0  0
   22.8720   42.7930   -3.8880 O   0  0  0  0  0
   23.8960   44.0620   -1.5000 C   0  0  0  0  0
   24.1650   45.3220   -0.8790 O   0  0  0  0  0
   24.1800   42.9180   -0.5020 C   0  0  0  0  0
   24.8950   41.7910   -4.0600 N   0  0  0  0  0
   24.3990   40.4950   -4.5530 C   0  0  0  0  0
   23.6190   39.7820   -3.4450 C   0  0  0  0  0
   24.2060   39.4070   -2.4100 O   0  0  0  0  0
   25.5660   39.5990   -4.9920 C   0  0  0  0  0
   26.2940   40.1680   -6.0680 O   0  0  0  0  0
   21.6000   37.6680   -2.4630 C   0  0  0  0  0
   22.4180   39.9200   -3.0350 N   0  0  0  0  0
   21.1160   36.8180   -1.4160 O   0  0  0  0  0
   21.7060   39.1350   -2.0100 C   0  0  0  0  0
   20.3330   39.7160   -1.6930 C   0  0  0  0  0
   19.1770   41.8000   -1.0720 C   0  0  0  0  0
   20.4960   41.0760   -1.0430 C   0  0  0  0  0
   18.4910   41.7850   -2.0900 O   0  0  0  0  0
   18.8480   42.4240    0.0600 N   0  0  0  0  0
   31.2982   52.3106   -6.7433 H   0  0  0  0  0
   30.5146   53.0985   -5.3519 H   0  0  0  0  0
   31.2879   51.5066   -5.1544 H   0  0  0  0  0
   29.0061   50.6448   -4.4131 H   0  0  0  0  0
   28.9127   49.1258   -6.9942 H   0  0  0  0  0
   29.6945   47.1288   -5.7572 H   0  0  0  0  0
   30.0108   48.2122   -4.3264 H   0  0  0  0  0
   32.3836   48.8046   -7.7086 H   0  0  0  0  0
   30.6484   48.5185   -7.8779 H   0  0  0  0  0
   27.9846   46.6601   -5.7675 H   0  0  0  0  0
   25.3805   47.4126   -4.5975 H   0  0  0  0  0
   24.4919   47.3630   -6.7209 H   0  0  0  0  0
   24.4135   45.5983   -6.3640 H   0  0  0  0  0
   25.3643   46.0627   -8.4085 H   0  0  0  0  0
   24.1797   45.8636   -3.4975 H   0  0  0  0  0
   25.7648   43.6186   -2.5598 H   0  0  0  0  0
   22.8437   44.0251   -1.7820 H   0  0  0  0  0
   23.6395   45.4022   -0.0796 H   0  0  0  0  0
   23.9200   41.9642   -0.9611 H   0  0  0  0  0
   25.2381   42.9203   -0.2402 H   0  0  0  0  0
   23.5816   43.0650    0.3971 H   0  0  0  0  0
   25.9024   41.9489   -4.0335 H   0  0  0  0  0
   23.7490   40.6822   -5.4077 H   0  0  0  0  0
   25.1579   38.6439   -5.3227 H   0  0  0  0  0
   26.2431   39.4807   -4.1460 H   0  0  0  0  0
   27.0126   39.5804   -6.3128 H   0  0  0  0  0
   20.8982   37.6177   -3.2955 H   0  0  0  0  0
   22.5950   37.3260   -2.7479 H   0  0  0  0  0
   21.8822   40.6695   -3.4727 H   0  0  0  0  0
   21.0643   35.9147   -1.7369 H   0  0  0  0  0
   22.2817   39.1818   -1.0856 H   0  0  0  0  0
   19.8053   39.0489   -1.0113 H   0  0  0  0  0
   19.7616   39.8208   -2.6153 H   0  0  0  0  0
   21.2426   41.6543   -1.5873 H   0  0  0  0  0
   20.8219   40.9511   -0.0104 H   0  0  0  0  0
   17.9688   42.9374    0.1224 H   0  0  0  0  0
   19.4756   42.3878    0.8633 H   0  0  0  0  0
  1  2  2  0  0  0
  1  3  1  0  0  0
  4  1  1  0  0  0
  5  4  1  0  0  0
  6  5  1  0  0  0
  5  8  1  0  0  0
  6  7  2  0  0  0
 12  6  1  0  0  0
  8  9  1  0  0  0
  9 10  2  0  0  0
  9 11  1  0  0  0
 13 12  1  0  0  0
 14 13  1  0  0  0
 13 16  1  0  0  0
 14 15  2  0  0  0
 18 14  1  0  0  0
 16 17  1  0  0  0
 19 18  1  0  0  0
 20 19  1  0  0  0
 19 22  1  0  0  0
 20 21  2  0  0  0
 25 20  1  0  0  0
 22 23  1  0  0  0
 22 24  1  0  0  0
 26 25  1  0  0  0
 27 26  1  0  0  0
 26 29  1  0  0  0
 27 28  2  0  0  0
 32 27  1  0  0  0
 29 30  1  0  0  0
 31 33  1  0  0  0
 34 31  1  0  0  0
 32 34  1  0  0  0
 34 35  1  0  0  0
 35 37  1  0  0  0
 37 36  1  0  0  0
 36 38  2  0  0  0
 36 39  1  0  0  0
  3 40  1  0  0  0
  3 41  1  0  0  0
  3 42  1  0  0  0
  4 43  1  0  0  0
  5 44  1  0  0  0
  8 45  1  0  0  0
  8 46  1  0  0  0
 11 47  1  0  0  0
 11 48  1  0  0  0
 12 49  1  0  0  0
 13 50  1  0  0  0
 16 51  1  0  0  0
 16 52  1  0  0  0
 17 53  1  0  0  0
 18 54  1  0  0  0
 19 55  1  0  0  0
 22 56  1  0  0  0
 23 57  1  0  0  0
 24 58  1  0  0  0
 24 59  1  0  0  0
 24 60  1  0  0  0
 25 61  1  0  0  0
 26 62  1  0  0  0
 29 63  1  0  0  0
 29 64  1  0  0  0
 30 65  1  0  0  0
 31 66  1  0  0  0
 31 67  1  0  0  0
 32 68  1  0  0  0
 33 69  1  0  0  0
 34 70  1  0  0  0
 35 71  1  0  0  0
 35 72  1  0  0  0
 37 73  1  0  0  0
 37 74  1  0  0  0
 39 75  1  0  0  0
 39 76  1  0  0  0
M  END
$$$$
