3pcg_ligand
  -I-interpret- 

 19 19  0  0  0  0  0  0  0  0999 V2000
   15.5990   13.7890   40.4550 C   0  0  0  0  0
   16.7700   13.6750   40.0290 O   0  0  0  0  0
   15.3480   14.4780   41.4700 O   0  0  0  0  0
   14.4470   12.9200   39.8720 C   0  0  0  0  0
   14.4130   11.5380   40.5330 C   0  0  0  0  0
   15.1060   10.4510   39.9400 C   0  0  0  0  0
   15.1060    9.1960   40.5500 C   0  0  0  0  0
   14.4920    9.0650   41.8080 C   0  0  0  0  0
   13.8350   10.1460   42.4160 C   0  0  0  0  0
   13.8000   11.3790   41.7800 C   0  0  0  0  0
   14.4770    7.9050   42.5200 O   0  0  0  0  0
   14.4051   14.4513   41.6483 H   0  0  0  0  0
   14.6125   12.7920   38.8023 H   0  0  0  0  0
   13.4988   13.4225   40.0632 H   0  0  0  0  0
   15.6417   10.5973   39.0021 H   0  0  0  0  0
   15.5705    8.3384   40.0632 H   0  0  0  0  0
   13.3534   10.0174   43.3854 H   0  0  0  0  0
   13.2955   12.2223   42.2517 H   0  0  0  0  0
   14.0058    8.0432   43.3449 H   0  0  0  0  0
  4  1  1  0  0  0
  1  3  1  0  0  0
  1  2  2  0  0  0
  4  5  1  0  0  0
  5 10  4  0  0  0
  5  6  4  0  0  0
  6  7  4  0  0  0
  7  8  4  0  0  0
  8 11  1  0  0  0
  8  9  4  0  0  0
  9 10  4  0  0  0
  3 12  1  0  0  0
  4 13  1  0  0  0
  4 14  1  0  0  0
  6 15  1  0  0  0
  7 16  1  0  0  0
  9 17  1  0  0  0
 10 18  1  0  0  0
 11 19  1  0  0  0
M  END
$$$$
