2vwn_ligand
  -I-interpret- 

 54 57  0  0  0  0  0  0  0  0999 V2000
    9.4660   62.1560    1.5430 F   0  0  0  0  0
    8.6290   61.6830    2.4620 C   0  0  0  0  0
    8.2220   60.3560    2.4230 C   0  0  0  0  0
    7.3740   59.8270    3.4000 C   0  0  0  0  0
    6.9120   58.5070    3.3490 N   0  0  0  0  0
    7.3800   57.5420    4.1750 C   0  0  0  0  0
    6.8990   56.2550    4.1180 C   0  0  0  0  0
    5.9120   55.9170    3.2050 C   0  0  0  0  0
    5.4410   56.9150    2.3610 C   0  0  0  0  0
    5.9610   58.2020    2.4360 C   0  0  0  0  0
    5.5270   59.1220    1.6690 O   0  0  0  0  0
    6.9280   60.6930    4.4080 C   0  0  0  0  0
    7.3580   62.0290    4.4310 C   0  0  0  0  0
    8.2040   62.5390    3.4440 C   0  0  0  0  0
    8.6040   63.8850    3.3950 N   0  0  0  0  0
    8.1860   64.6220    2.3220 C   0  0  0  0  0
    7.4990   64.1370    1.4050 O   0  0  0  0  0
    8.5450   66.0840    2.2280 C   0  0  0  0  0
    9.4900   66.4220    3.2860 N   0  3  0  0  0
    9.5780   67.8770    3.5580 C   0  0  0  0  0
   10.9370   67.9870    4.2490 C   0  0  0  0  0
   11.5860   69.2280    3.9320 O   0  0  0  0  0
   10.8250   65.9640    2.8950 C   0  0  0  0  0
   11.7810   66.8700    3.6420 C   0  0  0  0  0
   12.4900   66.1690    4.7270 N   0  0  0  0  0
   13.4720   65.3160    4.4510 C   0  0  0  0  0
   13.8010   65.0360    3.2910 O   0  0  0  0  0
   14.2070   64.6850    5.5920 C   0  0  0  0  0
   14.1630   64.9640    6.9750 C   0  0  0  0  0
   15.0340   64.1240    7.6740 C   0  0  0  0  0
   15.3070   63.4280    5.1330 S   0  0  0  0  0
   15.6940   63.2960    6.8000 C   0  0  0  0  0
   16.9010   62.0400    7.2640 Cl  0  0  0  0  0
    8.5709   59.7140    1.6142 H   0  0  0  0  0
    8.1545   57.7904    4.9006 H   0  0  0  0  0
    7.2955   55.4972    4.7937 H   0  0  0  0  0
    5.5186   54.9019    3.1511 H   0  0  0  0  0
    4.6594   56.6876    1.6360 H   0  0  0  0  0
    6.2457   60.3281    5.1757 H   0  0  0  0  0
    7.0243   62.6826    5.2369 H   0  0  0  0  0
    9.1818   64.2949    4.1289 H   0  0  0  0  0
    7.6439   66.6871    2.3396 H   0  0  0  0  0
    8.9992   66.2848    1.2577 H   0  0  0  0  0
    9.1520   65.9648    4.1329 H   0  0  0  0  0
    8.7535   68.2547    4.1626 H   0  0  0  0  0
    9.4981   68.4904    2.6606 H   0  0  0  0  0
   10.8198   67.9261    5.3310 H   0  0  0  0  0
   12.4345   69.2675    4.3793 H   0  0  0  0  0
   10.9728   66.0202    1.8165 H   0  0  0  0  0
   10.9826   64.9148    3.1447 H   0  0  0  0  0
   12.5392   67.2388    2.9512 H   0  0  0  0  0
   12.2255   66.3394    5.6972 H   0  0  0  0  0
   13.5365   65.7287    7.4341 H   0  0  0  0  0
   15.1696   64.1259    8.7555 H   0  0  0  0  0
  1  2  1  0  0  0
  2  3  4  0  0  0
  2 14  4  0  0  0
  3  4  4  0  0  0
  4  5  1  0  0  0
  4 12  4  0  0  0
  5  6  1  0  0  0
  5 10  1  0  0  0
  6  7  2  0  0  0
  7  8  1  0  0  0
  8  9  2  0  0  0
  9 10  1  0  0  0
 10 11  2  0  0  0
 12 13  4  0  0  0
 13 14  4  0  0  0
 14 15  1  0  0  0
 15 16  1  0  0  0
 16 17  2  0  0  0
 16 18  1  0  0  0
 18 19  1  0  0  0
 19 20  1  0  0  0
 19 23  1  0  0  0
 20 21  1  0  0  0
 21 22  1  0  0  0
 21 24  1  0  0  0
 23 24  1  0  0  0
 24 25  1  0  0  0
 25 26  1  0  0  0
 26 27  2  0  0  0
 26 28  1  0  0  0
 28 29  4  0  0  0
 28 31  4  0  0  0
 29 30  4  0  0  0
 30 32  4  0  0  0
 31 32  4  0  0  0
 32 33  1  0  0  0
  3 34  1  0  0  0
  6 35  1  0  0  0
  7 36  1  0  0  0
  8 37  1  0  0  0
  9 38  1  0  0  0
 12 39  1  0  0  0
 13 40  1  0  0  0
 15 41  1  0  0  0
 18 42  1  0  0  0
 18 43  1  0  0  0
 19 44  1  0  0  0
 20 45  1  0  0  0
 20 46  1  0  0  0
 21 47  1  0  0  0
 22 48  1  0  0  0
 23 49  1  0  0  0
 23 50  1  0  0  0
 24 51  1  0  0  0
 25 52  1  0  0  0
 29 53  1  0  0  0
 30 54  1  0  0  0
M  END
$$$$
