1b3l_ligand
  -I-interpret- 

 55 54  0  0  0  0  0  0  0  0999 V2000
   55.2420    6.2450   94.2520 N   0  3  0  0  0
   54.8870    4.8000   94.0990 C   0  0  0  0  0
   55.7900    4.1440   93.0250 C   0  0  0  0  0
   56.2220    4.8330   92.0790 O   0  0  0  0  0
   53.4070    4.6400   93.7230 C   0  0  0  0  0
   52.9970    5.5020   92.5310 C   0  0  0  0  0
   51.5180    5.2160   92.1420 C   0  0  0  0  0
   50.6320    6.1100   92.9960 C   0  0  0  0  0
   50.9360    7.5370   92.8540 N   0  3  0  0  0
   56.0520    2.8700   93.2420 N   0  0  0  0  0
   56.9980    2.1730   92.3600 C   0  0  0  0  0
   56.3340    1.7810   91.0490 C   0  0  0  0  0
   55.1590    1.4030   91.0950 O   0  0  0  0  0
   57.0540    1.8450   89.9370 N   0  0  0  0  0
   56.5760    1.3980   88.6360 C   0  0  0  0  0
   57.4930    0.3690   87.9530 C   0  0  0  0  0
   56.9740   -0.4330   87.1210 O   0  0  0  0  0
   56.4110    2.5450   87.6560 C   0  0  0  0  0
   55.3690    2.0920   86.5410 C   0  0  0  0  0
   55.3460    3.2130   85.5280 C   0  0  0  0  0
   54.6270    2.7790   84.2340 C   0  0  0  0  0
   53.4400    1.9760   84.5750 N   0  3  0  0  0
   58.7360    0.3540   88.1410 O   0  0  0  0  0
   54.6426    6.6679   94.9607 H   0  0  0  0  0
   56.2177    6.3257   94.5380 H   0  0  0  0  0
   55.1069    6.7232   93.3612 H   0  0  0  0  0
   55.0510    4.2996   95.0534 H   0  0  0  0  0
   52.8111    4.9538   94.5800 H   0  0  0  0  0
   53.2449    3.5973   93.4499 H   0  0  0  0  0
   53.6402    5.2663   91.6831 H   0  0  0  0  0
   53.0974    6.5534   92.8006 H   0  0  0  0  0
   51.2769    4.1672   92.3154 H   0  0  0  0  0
   51.3578    5.4237   91.0840 H   0  0  0  0  0
   50.8005    5.8402   94.0386 H   0  0  0  0  0
   49.6025    5.9594   92.6710 H   0  0  0  0  0
   50.3094    8.0778   93.4500 H   0  0  0  0  0
   51.9025    7.7068   93.1322 H   0  0  0  0  0
   50.8069    7.8158   91.8814 H   0  0  0  0  0
   55.6035    2.3746   94.0126 H   0  0  0  0  0
   57.3422    1.2686   92.8616 H   0  0  0  0  0
   57.8315    2.8413   92.1436 H   0  0  0  0  0
   57.9969    2.2295   89.9964 H   0  0  0  0  0
   55.6167    0.9349   88.8670 H   0  0  0  0  0
   56.0243   -0.2952   87.0951 H   0  0  0  0  0
   57.3694    2.7908   87.1986 H   0  0  0  0  0
   56.0476    3.4331   88.1730 H   0  0  0  0  0
   54.3804    1.9184   86.9661 H   0  0  0  0  0
   55.6607    1.1468   86.0832 H   0  0  0  0  0
   56.3734    3.4817   85.2824 H   0  0  0  0  0
   54.8100    4.0595   85.9572 H   0  0  0  0  0
   55.3058    2.1821   83.6248 H   0  0  0  0  0
   54.3185    3.6634   83.6765 H   0  0  0  0  0
   52.9665    1.6904   83.7179 H   0  0  0  0  0
   53.7291    1.1488   85.0970 H   0  0  0  0  0
   52.8054    2.5348   85.1454 H   0  0  0  0  0
  2  1  1  0  0  0
  2  5  1  0  0  0
  3  2  1  0  0  0
  3  4  2  0  0  0
  5  6  1  0  0  0
  6  7  1  0  0  0
  7  8  1  0  0  0
  8  9  1  0  0  0
 11 10  1  0  0  0
 12 11  1  0  0  0
 12 13  2  0  0  0
 10  3  1  0  0  0
 14 15  1  0  0  0
 15 18  1  0  0  0
 15 16  1  0  0  0
 16 17  1  0  0  0
 16 23  2  0  0  0
 18 19  1  0  0  0
 19 20  1  0  0  0
 20 21  1  0  0  0
 21 22  1  0  0  0
 12 14  1  0  0  0
  1 24  1  0  0  0
  1 25  1  0  0  0
  1 26  1  0  0  0
  2 27  1  0  0  0
  5 28  1  0  0  0
  5 29  1  0  0  0
  6 30  1  0  0  0
  6 31  1  0  0  0
  7 32  1  0  0  0
  7 33  1  0  0  0
  8 34  1  0  0  0
  8 35  1  0  0  0
  9 36  1  0  0  0
  9 37  1  0  0  0
  9 38  1  0  0  0
 10 39  1  0  0  0
 11 40  1  0  0  0
 11 41  1  0  0  0
 14 42  1  0  0  0
 15 43  1  0  0  0
 17 44  1  0  0  0
 18 45  1  0  0  0
 18 46  1  0  0  0
 19 47  1  0  0  0
 19 48  1  0  0  0
 20 49  1  0  0  0
 20 50  1  0  0  0
 21 51  1  0  0  0
 21 52  1  0  0  0
 22 53  1  0  0  0
 22 54  1  0  0  0
 22 55  1  0  0  0
M  END
$$$$
