4j48_ligand
  -I-interpret- 

 70 69  0  0  0  0  0  0  0  0999 V2000
  -38.1350  -25.0330   -7.2830 N   0  3  0  0  0
  -38.0510  -25.5140   -8.6690 C   0  0  0  0  0
  -36.9540  -26.5990   -8.6860 C   0  0  0  0  0
  -36.1590  -26.7640   -7.7250 O   0  0  0  0  0
  -37.7430  -24.3890   -9.6490 C   0  0  0  0  0
  -36.9350  -27.3530   -9.7690 N   0  0  0  0  0
  -35.9730  -28.4180   -9.8760 C   0  0  0  0  0
  -35.2510  -28.3680  -11.2180 C   0  0  0  0  0
  -35.7500  -27.8260  -12.2260 O   0  0  0  0  0
  -36.6670  -29.7690   -9.5950 C   0  0  0  0  0
  -37.6660  -30.2410  -10.6310 C   0  0  0  0  0
  -38.6990  -31.6130   -9.9690 S   0  0  0  0  0
  -37.6590  -33.0190  -10.4230 C   0  0  0  0  0
  -34.0610  -28.9370  -11.2280 N   0  0  0  0  0
  -33.3760  -29.1840  -12.4770 C   0  0  0  0  0
  -34.0900  -30.1800  -13.3360 C   0  0  0  0  0
  -34.7850  -31.0770  -12.8570 O   0  0  0  0  0
  -31.9560  -29.6670  -12.2290 C   0  0  0  0  0
  -31.0690  -28.4710  -11.9870 C   0  0  0  0  0
  -29.7540  -28.8940  -11.4440 C   0  0  0  0  0
  -29.9780  -29.5580  -10.1920 N   0  0  0  0  0
  -29.0420  -30.1850   -9.5110 C   0  0  0  0  0
  -27.7840  -30.2400   -9.9690 N   0  0  0  0  0
  -29.3820  -30.7470   -8.3630 N   0  0  0  0  0
  -33.9120  -29.9580  -14.6250 N   0  0  0  0  0
  -34.5260  -30.7140  -15.6580 C   0  0  0  0  0
  -33.7130  -31.9650  -15.8840 C   0  0  0  0  0
  -34.3050  -33.0160  -16.1090 O   0  0  0  0  0
  -34.5750  -29.9110  -16.9490 C   0  0  0  0  0
  -35.0800  -30.7780  -18.0940 C   0  0  0  0  0
  -35.4690  -28.6990  -16.7670 C   0  0  0  0  0
  -32.6240  -31.9357  -15.8482 O   0  0  0  0  0
  -38.3420  -25.8170   -6.6642 H   0  0  0  0  0
  -37.2448  -24.6131   -7.0156 H   0  0  0  0  0
  -38.8764  -24.3362   -7.2105 H   0  0  0  0  0
  -39.0094  -25.9200   -8.9925 H   0  0  0  0  0
  -36.7945  -23.9241   -9.3801 H   0  0  0  0  0
  -37.6765  -24.7959  -10.6580 H   0  0  0  0  0
  -38.5384  -23.6449   -9.6076 H   0  0  0  0  0
  -37.5978  -27.1820  -10.5252 H   0  0  0  0  0
  -35.1950  -28.2950   -9.1226 H   0  0  0  0  0
  -37.2297  -29.6340   -8.6713 H   0  0  0  0  0
  -35.8751  -30.5177   -9.5749 H   0  0  0  0  0
  -37.1220  -30.6013  -11.5041 H   0  0  0  0  0
  -38.3171  -29.4078  -10.8955 H   0  0  0  0  0
  -37.5299  -33.0393  -11.5051 H   0  0  0  0  0
  -36.6861  -32.9201   -9.9415 H   0  0  0  0  0
  -38.1358  -33.9428  -10.0953 H   0  0  0  0  0
  -33.6207  -29.2048  -10.3478 H   0  0  0  0  0
  -33.3563  -28.2322  -13.0078 H   0  0  0  0  0
  -31.5984  -30.2217  -13.0965 H   0  0  0  0  0
  -31.9363  -30.3228  -11.3585 H   0  0  0  0  0
  -31.5533  -27.8136  -11.2649 H   0  0  0  0  0
  -30.9095  -27.9536  -12.9330 H   0  0  0  0  0
  -29.1123  -28.0252  -11.2976 H   0  0  0  0  0
  -29.2599  -29.5690  -12.1428 H   0  0  0  0  0
  -30.9217  -29.5433   -9.8053 H   0  0  0  0  0
  -27.0655  -30.7227   -9.4294 H   0  0  0  0  0
  -27.5449  -29.7992  -10.8572 H   0  0  0  0  0
  -30.3445  -30.6866   -8.0309 H   0  0  0  0  0
  -33.2933  -29.1939  -14.8964 H   0  0  0  0  0
  -35.5451  -30.9651  -15.3640 H   0  0  0  0  0
  -35.2516  -32.8563  -16.1034 H   0  0  0  0  0
  -33.5682  -29.5729  -17.1943 H   0  0  0  0  0
  -34.4096  -31.6269  -18.2283 H   0  0  0  0  0
  -36.0820  -31.1381  -17.8608 H   0  0  0  0  0
  -35.1087  -30.1876  -19.0098 H   0  0  0  0  0
  -36.4755  -29.0272  -16.5077 H   0  0  0  0  0
  -35.0723  -28.0732  -15.9676 H   0  0  0  0  0
  -35.4993  -28.1288  -17.6954 H   0  0  0  0  0
  1  2  1  0  0  0
  2  3  1  0  0  0
  2  5  1  0  0  0
  3  4  2  0  0  0
  3  6  1  0  0  0
  6  7  1  0  0  0
  7  8  1  0  0  0
  7 10  1  0  0  0
  8  9  2  0  0  0
  8 14  1  0  0  0
 10 11  1  0  0  0
 11 12  1  0  0  0
 12 13  1  0  0  0
 14 15  1  0  0  0
 15 16  1  0  0  0
 15 18  1  0  0  0
 16 17  2  0  0  0
 16 25  1  0  0  0
 18 19  1  0  0  0
 19 20  1  0  0  0
 20 21  1  0  0  0
 21 22  1  0  0  0
 22 23  1  0  0  0
 22 24  2  0  0  0
 25 26  1  0  0  0
 26 27  1  0  0  0
 26 29  1  0  0  0
 27 28  1  0  0  0
 29 30  1  0  0  0
 29 31  1  0  0  0
 27 32  2  0  0  0
  1 33  1  0  0  0
  1 34  1  0  0  0
  1 35  1  0  0  0
  2 36  1  0  0  0
  5 37  1  0  0  0
  5 38  1  0  0  0
  5 39  1  0  0  0
  6 40  1  0  0  0
  7 41  1  0  0  0
 10 42  1  0  0  0
 10 43  1  0  0  0
 11 44  1  0  0  0
 11 45  1  0  0  0
 13 46  1  0  0  0
 13 47  1  0  0  0
 13 48  1  0  0  0
 14 49  1  0  0  0
 15 50  1  0  0  0
 18 51  1  0  0  0
 18 52  1  0  0  0
 19 53  1  0  0  0
 19 54  1  0  0  0
 20 55  1  0  0  0
 20 56  1  0  0  0
 21 57  1  0  0  0
 23 58  1  0  0  0
 23 59  1  0  0  0
 24 60  1  0  0  0
 25 61  1  0  0  0
 26 62  1  0  0  0
 28 63  1  0  0  0
 29 64  1  0  0  0
 30 65  1  0  0  0
 30 66  1  0  0  0
 30 67  1  0  0  0
 31 68  1  0  0  0
 31 69  1  0  0  0
 31 70  1  0  0  0
M  END
$$$$
