3f8f_ligand
  -I-interpret- 

 68 72  0  0  0  0  0  0  0  0999 V2000
   25.4770   39.1680   47.9470 C   0  0  0  0  0
   26.1120   38.7900   46.7730 C   0  0  0  0  0
   25.4470   38.0300   45.8250 C   0  0  0  0  0
   24.1290   37.6360   46.0420 C   0  0  0  0  0
   23.5400   36.9540   45.1860 O   0  0  0  0  0
   23.4770   38.0190   47.2350 C   0  0  0  0  0
   22.1560   37.6380   47.4750 C   0  0  0  0  0
   21.5540   36.9620   46.6390 O   0  0  0  0  0
   21.5130   38.0210   48.6640 C   0  0  0  0  0
   20.1910   37.6300   48.8850 C   0  0  0  0  0
   19.5390   36.8810   47.9490 O   0  0  0  0  0
   19.4830   38.0260   50.1450 C   0  0  0  0  0
   18.0680   37.6120   50.3980 C   0  0  0  0  0
   17.7380   36.5390   49.5330 O   0  0  0  0  0
   17.9740   37.1060   51.8350 C   0  0  0  0  0
   18.5200   38.0780   52.9000 C   0  0  0  0  0
   19.2800   37.2990   53.8510 O   0  0  0  0  0
   17.3300   38.7210   53.6290 C   0  0  0  0  0
   16.1230   38.6310   53.1080 O   0  0  0  0  0
   17.5730   39.4410   54.9310 C   0  0  0  0  0
   19.4400   39.1860   52.3570 C   0  0  0  0  0
   20.1450   38.7760   51.0830 C   0  0  0  0  0
   21.5670   39.1860   50.8200 C   0  0  0  0  0
   22.2510   39.9430   51.7480 O   0  0  0  0  0
   22.2000   38.7950   49.6220 C   0  0  0  0  0
   23.5260   39.1780   49.3800 C   0  0  0  0  0
   24.1390   39.8610   50.2220 O   0  0  0  0  0
   24.1620   38.7880   48.1850 C   0  0  0  0  0
   24.2720   36.1560   44.2800 C   0  0  0  0  0
   16.3440   36.4240   49.2970 C   0  0  0  0  0
   16.1040   35.8900   47.8760 C   0  0  0  0  0
   16.5810   34.4360   47.7260 C   0  0  0  0  0
   16.1080   33.8940   46.4610 N   0  3  0  0  0
   16.1030   33.5480   48.8940 C   0  0  0  0  0
   14.7320   33.2130   48.7300 O   0  0  0  0  0
   16.3290   34.2400   50.2550 C   0  0  0  0  0
   15.7460   35.5440   50.2530 O   0  0  0  0  0
   15.7570   33.4210   51.4110 C   0  0  0  0  0
   26.0117   39.7654   48.6855 H   0  0  0  0  0
   27.1436   39.0938   46.5950 H   0  0  0  0  0
   25.9568   37.7394   44.9064 H   0  0  0  0  0
   18.6464   36.6987   48.2517 H   0  0  0  0  0
   17.3939   38.4520   50.2304 H   0  0  0  0  0
   18.5795   36.2014   51.8921 H   0  0  0  0  0
   16.9154   36.9620   52.0511 H   0  0  0  0  0
   19.6337   37.8797   54.5287 H   0  0  0  0  0
   17.2656   40.4821   54.8319 H   0  0  0  0  0
   16.9946   38.9638   55.7221 H   0  0  0  0  0
   18.6339   39.3959   55.1771 H   0  0  0  0  0
   20.1992   39.3941   53.1110 H   0  0  0  0  0
   18.8244   40.0580   52.1365 H   0  0  0  0  0
   23.1390   40.1156   51.4266 H   0  0  0  0  0
   24.9371   36.7905   43.6942 H   0  0  0  0  0
   24.8604   35.4252   44.8348 H   0  0  0  0  0
   23.5817   35.6384   43.6140 H   0  0  0  0  0
   15.8877   37.4088   49.3974 H   0  0  0  0  0
   16.6661   36.5094   47.1771 H   0  0  0  0  0
   15.0335   35.9226   47.6734 H   0  0  0  0  0
   17.6709   34.4386   47.7431 H   0  0  0  0  0
   16.4264   32.9297   46.3653 H   0  0  0  0  0
   15.0885   33.9202   46.4412 H   0  0  0  0  0
   16.4787   34.4535   45.6929 H   0  0  0  0  0
   16.6942   32.6323   48.8830 H   0  0  0  0  0
   14.4487   32.6612   49.4627 H   0  0  0  0  0
   17.4059   34.3229   50.4017 H   0  0  0  0  0
   14.6844   33.2911   51.2668 H   0  0  0  0  0
   16.2420   32.4452   51.4382 H   0  0  0  0  0
   15.9379   33.9444   52.3498 H   0  0  0  0  0
  1  2  4  0  0  0
  1 28  4  0  0  0
  2  3  4  0  0  0
  3  4  4  0  0  0
  4  5  1  0  0  0
  4  6  4  0  0  0
  5 29  1  0  0  0
  6  7  1  0  0  0
  6 28  4  0  0  0
  7  8  2  0  0  0
  7  9  1  0  0  0
  9 10  4  0  0  0
  9 25  4  0  0  0
 10 11  1  0  0  0
 10 12  4  0  0  0
 12 13  1  0  0  0
 12 22  4  0  0  0
 13 14  1  0  0  0
 13 15  1  0  0  0
 14 30  1  0  0  0
 15 16  1  0  0  0
 16 17  1  0  0  0
 16 18  1  0  0  0
 16 21  1  0  0  0
 18 19  2  0  0  0
 18 20  1  0  0  0
 21 22  1  0  0  0
 22 23  4  0  0  0
 23 24  1  0  0  0
 23 25  4  0  0  0
 25 26  1  0  0  0
 26 27  2  0  0  0
 26 28  1  0  0  0
 30 31  1  0  0  0
 30 37  1  0  0  0
 31 32  1  0  0  0
 32 33  1  0  0  0
 32 34  1  0  0  0
 34 35  1  0  0  0
 34 36  1  0  0  0
 36 37  1  0  0  0
 36 38  1  0  0  0
  1 39  1  0  0  0
  2 40  1  0  0  0
  3 41  1  0  0  0
 11 42  1  0  0  0
 13 43  1  0  0  0
 15 44  1  0  0  0
 15 45  1  0  0  0
 17 46  1  0  0  0
 20 47  1  0  0  0
 20 48  1  0  0  0
 20 49  1  0  0  0
 21 50  1  0  0  0
 21 51  1  0  0  0
 24 52  1  0  0  0
 29 53  1  0  0  0
 29 54  1  0  0  0
 29 55  1  0  0  0
 30 56  1  0  0  0
 31 57  1  0  0  0
 31 58  1  0  0  0
 32 59  1  0  0  0
 33 60  1  0  0  0
 33 61  1  0  0  0
 33 62  1  0  0  0
 34 63  1  0  0  0
 35 64  1  0  0  0
 36 65  1  0  0  0
 38 66  1  0  0  0
 38 67  1  0  0  0
 38 68  1  0  0  0
M  END
$$$$
