5yyb_ligand
  -I-interpret- 

 41 41  0  0  0  0  0  0  0  0999 V2000
    1.1890   -4.6620   27.5640 O   0  0  0  0  0
    0.6260   -4.3250   26.3270 C   0  0  0  0  0
    0.9530   -2.8730   25.9140 C   0  0  0  0  0
    0.2250   -1.9910   26.7200 O   0  0  0  0  0
    2.4770   -2.6360   25.9680 C   0  0  0  0  0
    3.1140   -3.5170   25.0800 O   0  0  0  0  0
    2.8040   -1.2600   25.4590 C   0  0  0  0  0
    2.2780   -1.2520   24.1080 O   0  0  0  0  0
    1.7080    0.0320   22.2310 C   0  0  0  0  0
    1.7590   -1.0670   21.6130 O   0  0  0  0  0
    1.0420    1.0070   21.7800 O   0  0  0  0  0
    1.7690    1.0270   24.3860 O   0  0  0  0  0
    3.8780    0.4630   23.4860 C   0  0  0  0  0
    4.4790    0.4320   24.8480 C   0  0  0  0  0
    5.9080    0.8500   24.7960 O   0  0  0  0  0
    4.2940   -0.9070   25.4680 C   0  0  0  0  0
    4.7620   -0.8440   26.8800 N   0  0  0  0  0
    2.4000    0.1000   23.5490 C   0  0  0  0  0
    6.0760   -1.2320   27.2810 C   0  0  0  0  0
    6.9010   -1.6520   26.5150 O   0  0  0  0  0
    6.3580   -1.0830   28.7680 C   0  0  0  0  0
    5.2190   -0.5500   29.3880 O   0  0  0  0  0
    0.9619   -5.5691   27.7812 H   0  0  0  0  0
   -0.4568   -4.4185   26.4102 H   0  0  0  0  0
    1.0398   -4.9938   25.5723 H   0  0  0  0  0
    0.6529   -2.6897   24.8823 H   0  0  0  0  0
   -0.7114   -2.1883   26.6436 H   0  0  0  0  0
    2.8011   -2.7736   26.9995 H   0  0  0  0  0
    2.9432   -4.4219   25.3512 H   0  0  0  0  0
    2.3673   -0.5045   26.1122 H   0  0  0  0  0
    1.1204    1.7518   22.3806 H   0  0  0  0  0
    1.8554    1.9063   24.0104 H   0  0  0  0  0
    4.3942   -0.2594   22.8538 H   0  0  0  0  0
    3.9795    1.4679   23.0761 H   0  0  0  0  0
    3.9626    1.1493   25.4859 H   0  0  0  0  0
    6.2801    0.8246   25.6806 H   0  0  0  0  0
    4.8573   -1.6578   24.9139 H   0  0  0  0  0
    4.1145   -0.5084   27.5931 H   0  0  0  0  0
    7.2085   -0.4184   28.9197 H   0  0  0  0  0
    6.5951   -2.0552   29.2001 H   0  0  0  0  0
    5.3847   -0.4510   30.3284 H   0  0  0  0  0
  2  1  1  0  0  0
  3  2  1  0  0  0
  3  4  1  0  0  0
  5  3  1  0  0  0
  5  6  1  0  0  0
  7  5  1  0  0  0
  8  7  1  0  0  0
  7 16  1  0  0  0
 18  8  1  0  0  0
  9 10  2  0  0  0
  9 11  1  0  0  0
 18  9  1  0  0  0
 18 12  1  0  0  0
 13 14  1  0  0  0
 13 18  1  0  0  0
 14 15  1  0  0  0
 14 16  1  0  0  0
 16 17  1  0  0  0
 17 19  1  0  0  0
 19 20  2  0  0  0
 19 21  1  0  0  0
 21 22  1  0  0  0
  1 23  1  0  0  0
  2 24  1  0  0  0
  2 25  1  0  0  0
  3 26  1  0  0  0
  4 27  1  0  0  0
  5 28  1  0  0  0
  6 29  1  0  0  0
  7 30  1  0  0  0
 11 31  1  0  0  0
 12 32  1  0  0  0
 13 33  1  0  0  0
 13 34  1  0  0  0
 14 35  1  0  0  0
 15 36  1  0  0  0
 16 37  1  0  0  0
 17 38  1  0  0  0
 21 39  1  0  0  0
 21 40  1  0  0  0
 22 41  1  0  0  0
M  END
$$$$
