4nmt_ligand
  -I-interpret- 

134136  0  0  0  0  0  0  0  0999 V2000
   22.3880   29.7730   15.9310 N   0  3  0  0  0
   21.6460   28.6750   15.3240 C   0  0  0  0  0
   20.2070   28.6390   15.8360 C   0  0  0  0  0
   19.7910   29.5160   16.5980 O   0  0  0  0  0
   22.3460   27.3380   15.5880 C   0  0  0  0  0
   21.8880   26.6120   16.8440 C   0  0  0  0  0
   21.8200   25.1110   16.5850 C   0  0  0  0  0
   22.0010   24.8010   15.1660 N   0  0  0  0  0
   21.0260   24.8160   14.2590 C   0  0  0  0  0
   21.2910   24.5240   12.9940 N   0  0  0  0  0
   19.7880   25.1280   14.6140 N   0  0  0  0  0
   19.4500   27.6280   15.4150 N   0  0  0  0  0
   18.0450   27.5160   15.8000 C   0  0  0  0  0
   17.8370   26.6430   17.0310 C   0  0  0  0  0
   18.4990   25.6220   17.2020 O   0  0  0  0  0
   17.2000   26.9290   14.6690 C   0  0  0  0  0
   17.4980   27.4330   13.2950 C   0  0  0  0  0
   18.0200   28.6480   12.9490 C   0  0  0  0  0
   17.2920   26.7200   12.0780 C   0  0  0  0  0
   18.1460   28.7310   11.5820 N   0  0  0  0  0
   17.7080   27.5560   11.0230 C   0  0  0  0  0
   16.7930   25.4500   11.7740 C   0  0  0  0  0
   17.6390   27.1680    9.6880 C   0  0  0  0  0
   16.7250   25.0620   10.4460 C   0  0  0  0  0
   17.1460   25.9190    9.4210 C   0  0  0  0  0
   16.8810   27.0280   17.8760 N   0  0  0  0  0
   16.5330   26.2050   19.0340 C   0  0  0  0  0
   15.7230   24.9730   18.6320 C   0  0  0  0  0
   15.1000   24.9350   17.5650 O   0  0  0  0  0
   15.6480   27.1390   19.8540 C   0  0  0  0  0
   14.9780   27.9880   18.8290 C   0  0  0  0  0
   16.0270   28.2240   17.7700 C   0  0  0  0  0
   15.7420   23.9720   19.5010 N   0  0  0  0  0
   14.9220   22.7900   19.3260 C   0  0  0  0  0
   14.0870   22.5950   20.5780 C   0  0  0  0  0
   14.6000   22.7330   21.6880 O   0  0  0  0  0
   15.7920   21.5500   19.0940 C   0  0  0  0  0
   16.5150   21.7230   17.8740 O   0  0  0  0  0
   14.9250   20.3030   18.9920 C   0  0  0  0  0
   12.8040   22.2820   20.4010 N   0  0  0  0  0
   11.9420   21.9490   21.5250 C   0  0  0  0  0
   11.3520   20.5650   21.2990 C   0  0  0  0  0
   10.9560   20.2150   20.1810 O   0  0  0  0  0
   10.8130   22.9690   21.6740 C   0  0  0  0  0
   11.3480   24.2500   21.9720 O   0  0  0  0  0
   11.3160   19.7650   22.3580 N   0  0  0  0  0
   10.6110   18.4900   22.3220 C   0  0  0  0  0
    9.2140   18.7220   22.8440 C   0  0  0  0  0
    9.0340   19.3230   23.9030 O   0  0  0  0  0
   11.3360   17.4530   23.1920 C   0  0  0  0  0
   12.8110   17.3020   22.8390 C   0  0  0  0  0
   13.3860   15.9630   23.3000 C   0  0  0  0  0
   13.3510   15.8080   24.8120 C   0  0  0  0  0
   14.2740   16.7700   25.4450 N   0  0  0  0  0
   13.8860   17.9850   26.1280 C   0  0  0  0  0
   12.6710   18.2850   26.1890 O   0  0  0  0  0
   14.8960   18.7360   26.9210 C   0  0  0  0  0
   16.1220   18.4470   26.4900 F   0  0  0  0  0
   14.6480   20.0340   26.8100 F   0  0  0  0  0
   14.8000   18.3710   28.1870 F   0  0  0  0  0
    8.2290   18.2420   22.0950 N   0  0  0  0  0
    6.8260   18.5050   22.3850 C   0  0  0  0  0
    5.9720   17.2650   22.1710 C   0  0  0  0  0
    6.4360   16.2470   21.6570 O   0  0  0  0  0
    6.2690   19.6610   21.5140 C   0  0  0  0  0
    6.3570   19.3160   20.0290 C   0  0  0  0  0
    7.0130   20.9680   21.8050 C   0  0  0  0  0
    5.7140   20.3790   19.1460 C   0  0  0  0  0
    4.7930   17.3070   22.4960 O   0  0  0  0  0
   21.9058   30.6521   15.7437 H   0  0  0  0  0
   22.4486   29.6249   16.9384 H   0  0  0  0  0
   23.3270   29.8076   15.5342 H   0  0  0  0  0
   21.6179   28.8416   14.2472 H   0  0  0  0  0
   23.4057   27.5572   15.7190 H   0  0  0  0  0
   22.1125   26.6878   14.7449 H   0  0  0  0  0
   20.8983   26.9721   17.1250 H   0  0  0  0  0
   22.5982   26.8048   17.6481 H   0  0  0  0  0
   20.8381   24.7522   16.8936 H   0  0  0  0  0
   22.6185   24.6276   17.1479 H   0  0  0  0  0
   22.9394   24.5564   14.8498 H   0  0  0  0  0
   22.2428   24.2873   12.7138 H   0  0  0  0  0
   19.0453   25.1424   13.9150 H   0  0  0  0  0
   19.5778   25.3537   15.5862 H   0  0  0  0  0
   19.8598   26.9160   14.8104 H   0  0  0  0  0
   17.7298   28.5347   16.0258 H   0  0  0  0  0
   16.1688   27.2119   14.8805 H   0  0  0  0  0
   17.4113   25.8598   14.6540 H   0  0  0  0  0
   18.2954   29.4342   13.6520 H   0  0  0  0  0
   16.4638   24.7781   12.5666 H   0  0  0  0  0
   17.9645   27.8320    8.8872 H   0  0  0  0  0
   16.3379   24.0745   10.1947 H   0  0  0  0  0
   17.0795   25.5834    8.3861 H   0  0  0  0  0
   17.4141   25.8326   19.5566 H   0  0  0  0  0
   16.2199   27.7285   20.5706 H   0  0  0  0  0
   14.9340   26.5957   20.4730 H   0  0  0  0  0
   14.6158   28.9240   19.2542 H   0  0  0  0  0
   14.0924   27.5026   18.4189 H   0  0  0  0  0
   15.6010   28.3516   16.7749 H   0  0  0  0  0
   16.5789   29.1516   17.9219 H   0  0  0  0  0
   16.3514   24.0356   20.3164 H   0  0  0  0  0
   14.2818   22.9240   18.4541 H   0  0  0  0  0
   16.4790   21.4291   19.9316 H   0  0  0  0  0
   17.0647   20.9518   17.7170 H   0  0  0  0  0
   14.3643   20.1751   19.9180 H   0  0  0  0  0
   14.2317   20.4113   18.1579 H   0  0  0  0  0
   15.5604   19.4328   18.8273 H   0  0  0  0  0
   12.4177   22.2757   19.4570 H   0  0  0  0  0
   12.5349   21.9642   22.4395 H   0  0  0  0  0
   10.1556   22.6585   22.4861 H   0  0  0  0  0
   10.2548   23.0234   20.7394 H   0  0  0  0  0
   10.6309   24.8817   22.0633 H   0  0  0  0  0
   11.7916   20.0487   23.2146 H   0  0  0  0  0
   10.5781   18.1057   21.3025 H   0  0  0  0  0
   10.8557   16.4885   23.0269 H   0  0  0  0  0
   11.2761   17.7893   24.2271 H   0  0  0  0  0
   13.3614   18.0968   23.3424 H   0  0  0  0  0
   12.9053   17.3542   21.7543 H   0  0  0  0  0
   14.4267   15.9143   22.9797 H   0  0  0  0  0
   12.7804   15.1679   22.8651 H   0  0  0  0  0
   13.6570   14.7951   25.0738 H   0  0  0  0  0
   12.3382   15.9993   25.1667 H   0  0  0  0  0
   15.2710   16.5603   25.3968 H   0  0  0  0  0
    8.4634   17.6672   21.2857 H   0  0  0  0  0
    6.7765   18.7966   23.4341 H   0  0  0  0  0
    7.3669   16.3824   21.4654 H   0  0  0  0  0
    5.2187   19.7984   21.7710 H   0  0  0  0  0
    5.8254   18.3780   19.8688 H   0  0  0  0  0
    7.4113   19.2475   19.7607 H   0  0  0  0  0
    6.8899   21.2284   22.8563 H   0  0  0  0  0
    8.0723   20.8388   21.5830 H   0  0  0  0  0
    6.6044   21.7636   21.1820 H   0  0  0  0  0
    4.6604   20.4778   19.4072 H   0  0  0  0  0
    6.2190   21.3324   19.3010 H   0  0  0  0  0
    5.8044   20.0843   18.1005 H   0  0  0  0  0
  1  2  1  0  0  0
  2  3  1  0  0  0
  2  5  1  0  0  0
  3  4  2  0  0  0
  3 12  1  0  0  0
  5  6  1  0  0  0
  6  7  1  0  0  0
  7  8  1  0  0  0
  8  9  1  0  0  0
  9 10  2  0  0  0
  9 11  1  0  0  0
 12 13  1  0  0  0
 13 14  1  0  0  0
 13 16  1  0  0  0
 14 15  2  0  0  0
 14 26  1  0  0  0
 16 17  1  0  0  0
 17 18  4  0  0  0
 17 19  4  0  0  0
 18 20  4  0  0  0
 19 21  4  0  0  0
 19 22  4  0  0  0
 20 21  4  0  0  0
 21 23  4  0  0  0
 22 24  4  0  0  0
 23 25  4  0  0  0
 24 25  4  0  0  0
 26 27  1  0  0  0
 26 32  1  0  0  0
 27 28  1  0  0  0
 27 30  1  0  0  0
 28 29  2  0  0  0
 28 33  1  0  0  0
 30 31  1  0  0  0
 31 32  1  0  0  0
 33 34  1  0  0  0
 34 35  1  0  0  0
 34 37  1  0  0  0
 35 36  2  0  0  0
 35 40  1  0  0  0
 37 38  1  0  0  0
 37 39  1  0  0  0
 40 41  1  0  0  0
 41 42  1  0  0  0
 41 44  1  0  0  0
 42 43  2  0  0  0
 42 46  1  0  0  0
 44 45  1  0  0  0
 46 47  1  0  0  0
 47 48  1  0  0  0
 47 50  1  0  0  0
 48 49  2  0  0  0
 48 61  1  0  0  0
 50 51  1  0  0  0
 51 52  1  0  0  0
 52 53  1  0  0  0
 53 54  1  0  0  0
 54 55  1  0  0  0
 55 56  2  0  0  0
 55 57  1  0  0  0
 57 58  1  0  0  0
 57 59  1  0  0  0
 57 60  1  0  0  0
 61 62  1  0  0  0
 62 63  1  0  0  0
 62 65  1  0  0  0
 63 64  1  0  0  0
 63 69  2  0  0  0
 65 66  1  0  0  0
 65 67  1  0  0  0
 66 68  1  0  0  0
  1 70  1  0  0  0
  1 71  1  0  0  0
  1 72  1  0  0  0
  2 73  1  0  0  0
  5 74  1  0  0  0
  5 75  1  0  0  0
  6 76  1  0  0  0
  6 77  1  0  0  0
  7 78  1  0  0  0
  7 79  1  0  0  0
  8 80  1  0  0  0
 10 81  1  0  0  0
 11 82  1  0  0  0
 11 83  1  0  0  0
 12 84  1  0  0  0
 13 85  1  0  0  0
 16 86  1  0  0  0
 16 87  1  0  0  0
 18 88  1  0  0  0
 22 89  1  0  0  0
 23 90  1  0  0  0
 24 91  1  0  0  0
 25 92  1  0  0  0
 27 93  1  0  0  0
 30 94  1  0  0  0
 30 95  1  0  0  0
 31 96  1  0  0  0
 31 97  1  0  0  0
 32 98  1  0  0  0
 32 99  1  0  0  0
 33100  1  0  0  0
 34101  1  0  0  0
 37102  1  0  0  0
 38103  1  0  0  0
 39104  1  0  0  0
 39105  1  0  0  0
 39106  1  0  0  0
 40107  1  0  0  0
 41108  1  0  0  0
 44109  1  0  0  0
 44110  1  0  0  0
 45111  1  0  0  0
 46112  1  0  0  0
 47113  1  0  0  0
 50114  1  0  0  0
 50115  1  0  0  0
 51116  1  0  0  0
 51117  1  0  0  0
 52118  1  0  0  0
 52119  1  0  0  0
 53120  1  0  0  0
 53121  1  0  0  0
 54122  1  0  0  0
 61123  1  0  0  0
 62124  1  0  0  0
 64125  1  0  0  0
 65126  1  0  0  0
 66127  1  0  0  0
 66128  1  0  0  0
 67129  1  0  0  0
 67130  1  0  0  0
 67131  1  0  0  0
 68132  1  0  0  0
 68133  1  0  0  0
 68134  1  0  0  0
M  END
$$$$
