### 
### Created by X-TOOL on Mon Sep 10 21:13:17 2018
### 

@<TRIPOS>MOLECULE
4nmt_ligand
  135   137     1     0     0
SMALL
GAST_HUCK


@<TRIPOS>ATOM
      1 N          22.3880   29.7730   15.9310 N.4       1 ARG         0.2379
      2 CA         21.6460   28.6750   15.3240 C.3       1 ARG         0.0651
      3 C          20.2070   28.6390   15.8360 C.2       1 ARG         0.2268
      4 O          19.7910   29.5160   16.5980 O.2       1 ARG        -0.3907
      5 CB         22.3460   27.3380   15.5880 C.3       1 ARG         0.0110
      6 CG         21.8880   26.6120   16.8440 C.3       1 ARG        -0.0125
      7 CD         21.8200   25.1110   16.5850 C.3       1 ARG         0.0629
      8 NE         22.0010   24.8010   15.1660 N.pl3     1 ARG        -0.2723
      9 CZ         21.0260   24.8160   14.2590 C.cat     1 ARG         0.2882
     10 NH1        21.2910   24.5240   12.9940 N.pl3     1 ARG        -0.2849
     11 NH2        19.7880   25.1280   14.6140 N.pl3     1 ARG        -0.2849
     12 N          19.4500   27.6280   15.4150 N.am      1 TRP        -0.2599
     13 CA         18.0450   27.5160   15.8000 C.3       1 TRP         0.1355
     14 C          17.8370   26.6430   17.0310 C.2       1 TRP         0.2077
     15 O          18.4990   25.6220   17.2020 O.2       1 TRP        -0.3940
     16 CB         17.2000   26.9290   14.6690 C.3       1 TRP         0.0042
     17 CG         17.4980   27.4330   13.2950 C.2       1 TRP        -0.0418
     18 CD1        18.0200   28.6480   12.9490 C.2       1 TRP         0.0167
     19 CD2        17.2920   26.7200   12.0780 C.ar      1 TRP        -0.0214
     20 NE1        18.1460   28.7310   11.5820 N.pl3     1 TRP        -0.2890
     21 CE2        17.7080   27.5560   11.0230 C.ar      1 TRP         0.0603
     22 CE3        16.7930   25.4500   11.7740 C.ar      1 TRP        -0.0747
     23 CZ2        17.6390   27.1680    9.6880 C.ar      1 TRP        -0.0443
     24 CZ3        16.7250   25.0620   10.4460 C.ar      1 TRP        -0.0792
     25 CH2        17.1460   25.9190    9.4210 C.ar      1 TRP        -0.0768
     26 N          16.8810   27.0280   17.8760 N.am      1 PRO        -0.2497
     27 CA         16.5330   26.2050   19.0340 C.3       1 PRO         0.1338
     28 C          15.7230   24.9730   18.6320 C.2       1 PRO         0.2042
     29 O          15.1000   24.9350   17.5650 O.2       1 PRO        -0.3944
     30 CB         15.6480   27.1390   19.8540 C.3       1 PRO        -0.0104
     31 CG         14.9780   27.9880   18.8290 C.3       1 PRO        -0.0281
     32 CD         16.0270   28.2240   17.7700 C.3       1 PRO         0.0369
     33 N          15.7420   23.9720   19.5010 N.am      1 THR        -0.2613
     34 CA         14.9220   22.7900   19.3260 C.3       1 THR         0.1565
     35 C          14.0870   22.5950   20.5780 C.2       1 THR         0.2065
     36 O          14.6000   22.7330   21.6880 O.2       1 THR        -0.3943
     37 CB         15.7920   21.5500   19.0940 C.3       1 THR         0.0924
     38 OG1        16.5150   21.7230   17.8740 O.3       1 THR        -0.3874
     39 CG2        14.9250   20.3030   18.9920 C.3       1 THR        -0.0346
     40 N          12.8040   22.2820   20.4010 N.am      1 SER        -0.2615
     41 CA         11.9420   21.9490   21.5250 C.3       1 SER         0.1539
     42 C          11.3520   20.5650   21.2990 C.2       1 SER         0.2062
     43 O          10.9560   20.2150   20.1810 O.2       1 SER        -0.3943
     44 CB         10.8130   22.9690   21.6740 C.3       1 SER         0.0843
     45 OG         11.3480   24.2500   21.9720 O.3       1 SER        -0.3903
     46 N          11.3160   19.7650   22.3580 N.am      1 FAK        -0.2637
     47 CA         10.6110   18.4900   22.3220 C.3       1 FAK         0.1309
     48 C           9.2140   18.7220   22.8440 C.2       1 FAK         0.2033
     49 O           9.0340   19.3230   23.9030 O.2       1 FAK        -0.3944
     50 CB         11.3360   17.4530   23.1920 C.3       1 FAK        -0.0123
     51 CG         12.8110   17.3020   22.8390 C.3       1 FAK        -0.0470
     52 CD         13.3860   15.9630   23.3000 C.3       1 FAK        -0.0324
     53 CE         13.3510   15.8080   24.8120 C.3       1 FAK         0.0312
     54 NZ         14.2740   16.7700   25.4450 N.am      1 FAK        -0.2789
     55 CH         13.8860   17.9850   26.1280 C.2       1 FAK         0.3009
     56 OH         12.6710   18.2850   26.1890 O.2       1 FAK        -0.3351
     57 CT         14.8960   18.7360   26.9210 C.3       1 FAK         0.4749
     58 FI1        16.1220   18.4470   26.4900 F         1 FAK        -0.1699
     59 FI2        14.6480   20.0340   26.8100 F         1 FAK        -0.1699
     60 FI3        14.8000   18.3710   28.1870 F         1 FAK        -0.1699
     61 N           8.2290   18.2420   22.0950 N.am      1 ILE        -0.2692
     62 CA          6.8260   18.5050   22.3850 C.3       1 ILE         0.0969
     63 C           5.9720   17.2650   22.1710 C.2       1 ILE         0.0604
     64 O           6.4360   16.2470   21.6570 O.co2     1 ILE        -0.5666
     65 CB          6.2690   19.6610   21.5140 C.3       1 ILE        -0.0092
     66 CG1         6.3570   19.3160   20.0290 C.3       1 ILE        -0.0497
     67 CG2         7.0130   20.9680   21.8050 C.3       1 ILE        -0.0588
     68 CD1         5.7140   20.3790   19.1460 C.3       1 ILE        -0.0649
     69 OXT         4.7930   17.3070   22.4960 O.co2     1 ILE        -0.5666
     70 H          23.3323   29.7759   15.5783 H         1 ARG         0.2015
     71 H          22.4036   29.6552   16.9320 H         1 ARG         0.2015
     72 H          21.9413   30.6473   15.7025 H         1 ARG         0.2015
     73 H          21.6188   28.8398   14.2368 H         1 ARG         0.1098
     74 H          23.4254   27.5295   15.6785 H         1 ARG         0.0347
     75 H          22.1613   26.6796   14.7264 H         1 ARG         0.0347
     76 H          20.8913   26.9771   17.1325 H         1 ARG         0.0302
     77 H          22.6006   26.8089   17.6585 H         1 ARG         0.0302
     78 H          20.8380   24.7367   16.9098 H         1 ARG         0.0689
     79 H          22.6120   24.6126   17.1632 H         1 ARG         0.0689
     80 H          22.9486   24.5540   14.8467 H         1 ARG         0.2642
     81 H          20.5359   24.5360   12.2936 H         1 ARG         0.2615
     82 H          22.2521   24.2850   12.7111 H         1 ARG         0.2615
     83 H          19.5757   25.3559   15.5958 H         1 ARG         0.2615
     84 H          19.0380   25.1426   13.9082 H         1 ARG         0.2615
     85 H          19.8518   26.9300   14.8223 H         1 TRP         0.1886
     86 H          17.6786   28.5284   16.0255 H         1 TRP         0.0815
     87 H          16.1452   27.1522   14.8871 H         1 TRP         0.0397
     88 H          17.3515   25.8395   14.6672 H         1 TRP         0.0397
     89 H          18.2952   29.4335   13.6513 H         1 TRP         0.0795
     90 H          18.5097   29.5425   11.0623 H         1 TRP         0.2216
     91 H          16.4656   24.7818   12.5623 H         1 TRP         0.0540
     92 H          17.9627   27.8284    8.8916 H         1 TRP         0.0541
     93 H          16.3400   24.0800   10.1961 H         1 TRP         0.0510
     94 H          17.0799   25.5852    8.3918 H         1 TRP         0.0530
     95 H          17.4312   25.8994   19.5906 H         1 PRO         0.0802
     96 H          16.2537   27.7536   20.5362 H         1 PRO         0.0313
     97 H          14.9079   26.5682   20.4340 H         1 PRO         0.0313
     98 H          14.6525   28.9418   19.2699 H         1 PRO         0.0287
     99 H          14.1090   27.4656   18.4025 H         1 PRO         0.0287
    100 H          15.5712   28.2969   16.7716 H         1 PRO         0.0524
    101 H          16.6006   29.1390   17.9790 H         1 PRO         0.0524
    102 H          16.3395   24.0344   20.3004 H         1 THR         0.1884
    103 H          14.2596   22.9321   18.4594 H         1 THR         0.0826
    104 H          16.4975   21.4354   19.9302 H         1 THR         0.0639
    105 H          17.0632   22.4961   17.9390 H         1 THR         0.2101
    106 H          15.5651   19.4240   18.8258 H         1 THR         0.0257
    107 H          14.2248   20.4110   18.1506 H         1 THR         0.0257
    108 H          14.3586   20.1728   19.9259 H         1 THR         0.0257
    109 H          12.4252   22.2758   19.4755 H         1 SER         0.1884
    110 H          12.5412   21.9436   22.4475 H         1 SER         0.0823
    111 H          10.1447   22.6553   22.4895 H         1 SER         0.0606
    112 H          10.2444   23.0221   20.7339 H         1 SER         0.0606
    113 H          11.9243   24.5230   21.2677 H         1 SER         0.2097
    114 H          11.7823   20.0431   23.1978 H         1 FAK         0.1883
    115 H          10.5635   18.1226   21.2863 H         1 FAK         0.0800
    116 H          10.8429   16.4787   23.0594 H         1 FAK         0.0312
    117 H          11.2580   17.7632   24.2445 H         1 FAK         0.0312
    118 H          13.3748   18.1136   23.3220 H         1 FAK         0.0268
    119 H          12.9225   17.3773   21.7473 H         1 FAK         0.0268
    120 H          14.4302   15.8914   22.9615 H         1 FAK         0.0285
    121 H          12.7974   15.1511   22.8478 H         1 FAK         0.0285
    122 H          13.6534   14.7847   25.0794 H         1 FAK         0.0522
    123 H          12.3287   15.9943   25.1727 H         1 FAK         0.0522
    124 H          15.2515   16.5644   25.3978 H         1 FAK         0.1859
    125 H           8.4588   17.6784   21.3015 H         1 ILE         0.1875
    126 H           6.7495   18.8004   23.4418 H         1 ILE         0.0729
    127 H           5.2091   19.8038   21.7714 H         1 ILE         0.0338
    128 H           5.8446   18.3578   19.8581 H         1 ILE         0.0267
    129 H           7.4169   19.2198   19.7509 H         1 ILE         0.0267
    130 H           6.9394   21.2008   22.8776 H         1 ILE         0.0234
    131 H           6.5627   21.7841   21.2209 H         1 ILE         0.0234
    132 H           8.0712   20.8576   21.5256 H         1 ILE         0.0234
    133 H           5.8045   20.0827   18.0905 H         1 ILE         0.0230
    134 H           6.2228   21.3417   19.3015 H         1 ILE         0.0230
    135 H           4.6506   20.4797   19.4086 H         1 ILE         0.0230
@<TRIPOS>BOND
     1    1    2 1  
     2    2    3 1  
     3    2    5 1  
     4    3    4 2  
     5    3   12 am 
     6    5    6 1  
     7    6    7 1  
     8    7    8 1  
     9    8    9 ar 
    10    9   10 ar 
    11    9   11 ar 
    12   12   13 1  
    13   13   14 1  
    14   13   16 1  
    15   14   15 2  
    16   14   26 am 
    17   16   17 1  
    18   17   18 2  
    19   17   19 1  
    20   18   20 1  
    21   19   21 ar 
    22   19   22 ar 
    23   20   21 1  
    24   21   23 ar 
    25   22   24 ar 
    26   23   25 ar 
    27   24   25 ar 
    28   26   27 1  
    29   26   32 1  
    30   27   28 1  
    31   27   30 1  
    32   28   29 2  
    33   28   33 am 
    34   30   31 1  
    35   31   32 1  
    36   33   34 1  
    37   34   35 1  
    38   34   37 1  
    39   35   36 2  
    40   35   40 am 
    41   37   38 1  
    42   37   39 1  
    43   40   41 1  
    44   41   42 1  
    45   41   44 1  
    46   42   43 2  
    47   42   46 am 
    48   44   45 1  
    49   46   47 1  
    50   47   48 1  
    51   47   50 1  
    52   48   49 2  
    53   48   61 am 
    54   50   51 1  
    55   51   52 1  
    56   52   53 1  
    57   53   54 1  
    58   54   55 am 
    59   55   56 2  
    60   55   57 1  
    61   57   58 1  
    62   57   59 1  
    63   57   60 1  
    64   61   62 1  
    65   62   63 1  
    66   62   65 1  
    67   63   64 ar 
    68   63   69 ar 
    69   65   66 1  
    70   65   67 1  
    71   66   68 1  
    72    1   70 1  
    73    1   71 1  
    74    1   72 1  
    75    2   73 1  
    76    5   74 1  
    77    5   75 1  
    78    6   76 1  
    79    6   77 1  
    80    7   78 1  
    81    7   79 1  
    82    8   80 1  
    83   10   81 1  
    84   10   82 1  
    85   11   83 1  
    86   11   84 1  
    87   12   85 1  
    88   13   86 1  
    89   16   87 1  
    90   16   88 1  
    91   18   89 1  
    92   20   90 1  
    93   22   91 1  
    94   23   92 1  
    95   24   93 1  
    96   25   94 1  
    97   27   95 1  
    98   30   96 1  
    99   30   97 1  
   100   31   98 1  
   101   31   99 1  
   102   32  100 1  
   103   32  101 1  
   104   33  102 1  
   105   34  103 1  
   106   37  104 1  
   107   38  105 1  
   108   39  106 1  
   109   39  107 1  
   110   39  108 1  
   111   40  109 1  
   112   41  110 1  
   113   44  111 1  
   114   44  112 1  
   115   45  113 1  
   116   46  114 1  
   117   47  115 1  
   118   50  116 1  
   119   50  117 1  
   120   51  118 1  
   121   51  119 1  
   122   52  120 1  
   123   52  121 1  
   124   53  122 1  
   125   53  123 1  
   126   54  124 1  
   127   61  125 1  
   128   62  126 1  
   129   65  127 1  
   130   66  128 1  
   131   66  129 1  
   132   67  130 1  
   133   67  131 1  
   134   67  132 1  
   135   68  133 1  
   136   68  134 1  
   137   68  135 1  
@<TRIPOS>SUBSTRUCTURE
     1 ARG         1

