### 
### Created by X-TOOL on Mon Sep 10 21:12:53 2018
### 

@<TRIPOS>MOLECULE
1w2h_ligand
   36    37     1     0     0
SMALL
GAST_HUCK


@<TRIPOS>ATOM
      1 P          32.4040   24.4020   97.3340 P.3       1 ATM         0.2008
      2 O1P        33.0500   23.2690   96.6620 O.co2     1 ATM        -0.5537
      3 O2P        31.6150   25.3220   96.4780 O.co2     1 ATM        -0.5537
      4 O3P        33.4460   25.2390   98.2180 O.co2     1 ATM        -0.5537
      5 O5         31.4140   23.8560   98.4900 O.3       1 ATM        -0.2733
      6 C5         30.6690   24.8060   99.3240 C.3       1 ATM         0.1099
      7 C4         29.8010   23.9520  100.2930 C.3       1 ATM         0.1319
      8 O4         30.1900   23.7390  101.6480 O.3       1 ATM        -0.3364
      9 C3         28.4260   24.5420  100.3200 C.3       1 ATM         0.0101
     10 N3         27.3620   23.4790  100.1810 N.4       1 ATM         0.2228
     11 C2         28.3740   25.2980  101.6720 C.3       1 ATM         0.0476
     12 C1         29.3820   24.4830  102.5290 C.3       1 ATM         0.1786
     13 N1         30.2990   25.1390  103.5280 N.am      1 ATM        -0.1735
     14 C2         31.1750   24.2610  104.2860 C.2       1 ATM         0.3265
     15 O2         31.2010   23.0300  104.1340 O.2       1 ATM        -0.3843
     16 N3         31.9790   24.9150  105.1940 N.am      1 ATM        -0.1859
     17 C4         31.9460   26.3140  105.3690 C.2       1 ATM         0.1930
     18 O4         32.7760   26.8660  106.2900 O.2       1 ATM        -0.4079
     19 C5         31.0210   27.1690  104.5570 C.2       1 ATM         0.0225
     20 C5A        31.0080   28.6490  104.7610 C.3       1 ATM        -0.0437
     21 C6         30.2080   26.5140  103.6380 C.2       1 ATM         0.0524
     22 H1         30.0261   25.4407   98.6964 H         1 ATM         0.0640
     23 H2         31.3648   25.4390   99.8941 H         1 ATM         0.0640
     24 H3         29.7439   22.9525   99.8371 H         1 ATM         0.0681
     25 H4         28.3060   25.2565   99.4923 H         1 ATM         0.0878
     26 H5         26.4512   23.9104  100.2031 H         1 ATM         0.1998
     27 H6         27.4414   22.8225  100.9418 H         1 ATM         0.1998
     28 H7         27.4832   22.9947   99.3053 H         1 ATM         0.1998
     29 H8         27.3643   25.2713  102.1076 H         1 ATM         0.0374
     30 H9         28.6972   26.3434  101.5593 H         1 ATM         0.0374
     31 H10        28.7676   23.7813  103.1122 H         1 ATM         0.0961
     32 H11        32.6110   24.3762  105.7510 H         1 ATM         0.2259
     33 H12        30.2725   29.1061  104.0827 H         1 ATM         0.0296
     34 H13        32.0069   29.0574  104.5477 H         1 ATM         0.0296
     35 H14        30.7350   28.8732  105.8027 H         1 ATM         0.0296
     36 H15        29.5118   27.0746  103.0159 H         1 ATM         0.1011
@<TRIPOS>BOND
     1    1    2 ar 
     2    1    3 ar 
     3    1    4 ar 
     4    1    5 1  
     5    5    6 1  
     6    6    7 1  
     7    7    8 1  
     8    7    9 1  
     9    8   12 1  
    10    9   10 1  
    11    9   11 1  
    12   11   12 1  
    13   12   13 1  
    14   13   14 am 
    15   13   21 1  
    16   14   15 2  
    17   14   16 am 
    18   16   17 am 
    19   17   18 2  
    20   17   19 1  
    21   19   20 1  
    22   19   21 2  
    23    6   22 1  
    24    6   23 1  
    25    7   24 1  
    26    9   25 1  
    27   10   26 1  
    28   10   27 1  
    29   10   28 1  
    30   11   29 1  
    31   11   30 1  
    32   12   31 1  
    33   16   32 1  
    34   20   33 1  
    35   20   34 1  
    36   20   35 1  
    37   21   36 1  
@<TRIPOS>SUBSTRUCTURE
     1 ATM         1

