1w2h_ligand
  -I-interpret- 

 38 39  0  0  0  0  0  0  0  0999 V2000
   32.4040   24.4020   97.3340 P   0  0  0  0  0
   33.0500   23.2690   96.6620 O   0  0  0  0  0
   31.6150   25.3220   96.4780 O   0  0  0  0  0
   33.4460   25.2390   98.2180 O   0  0  0  0  0
   31.4140   23.8560   98.4900 O   0  0  0  0  0
   30.6690   24.8060   99.3240 C   0  0  0  0  0
   29.8010   23.9520  100.2930 C   0  0  0  0  0
   30.1900   23.7390  101.6480 O   0  0  0  0  0
   28.4260   24.5420  100.3200 C   0  0  0  0  0
   27.3620   23.4790  100.1810 N   0  3  0  0  0
   28.3740   25.2980  101.6720 C   0  0  0  0  0
   29.3820   24.4830  102.5290 C   0  0  0  0  0
   30.2990   25.1390  103.5280 N   0  0  0  0  0
   31.1750   24.2610  104.2860 C   0  0  0  0  0
   31.2010   23.0300  104.1340 O   0  0  0  0  0
   31.9790   24.9150  105.1940 N   0  0  0  0  0
   31.9460   26.3140  105.3690 C   0  0  0  0  0
   32.7760   26.8660  106.2900 O   0  0  0  0  0
   31.0210   27.1690  104.5570 C   0  0  0  0  0
   31.0080   28.6490  104.7610 C   0  0  0  0  0
   30.2080   26.5140  103.6380 C   0  0  0  0  0
   31.2411   26.0203   97.0204 H   0  0  0  0  0
   32.9900   25.9699   98.6415 H   0  0  0  0  0
   30.0460   25.4587   98.7126 H   0  0  0  0  0
   31.3466   25.4571   99.8762 H   0  0  0  0  0
   29.9115   22.9579   99.8599 H   0  0  0  0  0
   28.2275   25.2118   99.4833 H   0  0  0  0  0
   26.4409   23.9166  100.2035 H   0  0  0  0  0
   27.4857   22.9897   99.2946 H   0  0  0  0  0
   27.4434   22.8154  100.9513 H   0  0  0  0  0
   27.3748   25.3450  102.1049 H   0  0  0  0  0
   28.6296   26.3543  101.5888 H   0  0  0  0  0
   28.7034   23.9345  103.1823 H   0  0  0  0  0
   32.6237   24.3655  105.7622 H   0  0  0  0  0
   31.2717   29.1455  103.8272 H   0  0  0  0  0
   30.0116   28.9629  105.0721 H   0  0  0  0  0
   31.7313   28.9146  105.5320 H   0  0  0  0  0
   29.5112   27.0751  103.0153 H   0  0  0  0  0
  1  2  2  0  0  0
  1  3  1  0  0  0
  1  4  1  0  0  0
  1  5  1  0  0  0
  5  6  1  0  0  0
  6  7  1  0  0  0
  7  8  1  0  0  0
  7  9  1  0  0  0
  8 12  1  0  0  0
  9 10  1  0  0  0
  9 11  1  0  0  0
 11 12  1  0  0  0
 12 13  1  0  0  0
 13 14  1  0  0  0
 13 21  1  0  0  0
 14 15  2  0  0  0
 14 16  1  0  0  0
 16 17  1  0  0  0
 17 18  2  0  0  0
 17 19  1  0  0  0
 19 20  1  0  0  0
 19 21  2  0  0  0
  3 22  1  0  0  0
  4 23  1  0  0  0
  6 24  1  0  0  0
  6 25  1  0  0  0
  7 26  1  0  0  0
  9 27  1  0  0  0
 10 28  1  0  0  0
 10 29  1  0  0  0
 10 30  1  0  0  0
 11 31  1  0  0  0
 11 32  1  0  0  0
 12 33  1  0  0  0
 16 34  1  0  0  0
 20 35  1  0  0  0
 20 36  1  0  0  0
 20 37  1  0  0  0
 21 38  1  0  0  0
M  END
$$$$
