3dek_ligand
  -I-interpret- 

 49 51  0  0  0  0  0  0  0  0999 V2000
  -39.9970    3.1170  -23.4600 F   0  0  0  0  0
  -39.3470    4.3050  -23.7120 C   0  0  0  0  0
  -40.3840    5.3480  -24.1280 C   0  0  0  0  0
  -40.7140    6.1770  -22.9990 O   0  0  0  0  0
  -40.9110    7.5450  -23.1120 C   0  0  0  0  0
  -41.1830    8.0900  -24.3730 C   0  0  0  0  0
  -41.3730    9.4640  -24.5350 C   0  0  0  0  0
  -41.2960   10.2890  -23.4120 C   0  0  0  0  0
  -40.8450    8.3730  -21.9890 C   0  0  0  0  0
  -41.0310    9.7610  -22.1350 C   0  0  0  0  0
  -40.9510   10.6090  -21.0610 N   0  0  0  0  0
  -41.2500   11.9260  -21.2030 C   0  0  0  0  0
  -41.3490   12.5330  -22.2740 O   0  0  0  0  0
  -41.4680   12.6910  -19.9270 C   0  0  0  0  0
  -42.4480   13.8390  -20.1000 C   0  0  0  0  0
  -42.0800   14.8330  -21.1850 C   0  0  0  0  0
  -40.9750   15.3680  -21.2260 O   0  0  0  0  0
  -43.0300   15.1040  -22.0820 N   0  0  0  0  0
  -44.2960   14.4790  -22.0680 C   0  0  0  0  0
  -44.7510   13.9510  -23.2870 C   0  0  0  0  0
  -45.9840   13.3120  -23.3530 C   0  0  0  0  0
  -46.7580   13.2060  -22.1930 C   0  0  0  0  0
  -46.3220   13.7180  -20.9640 C   0  0  0  0  0
  -47.1490   13.5770  -19.8420 C   0  0  0  0  0
  -46.8140   14.0200  -18.7150 O   0  0  0  0  0
  -45.0820   14.3590  -20.8940 C   0  0  0  0  0
  -47.9800   12.5650  -22.2740 C   0  0  0  0  0
  -48.3280   12.1180  -23.3880 O   0  0  0  0  0
  -48.7760   12.4370  -21.1920 N   0  0  0  0  0
  -48.3830   12.9340  -19.9880 C   0  0  0  0  0
  -49.1250   12.8000  -18.9780 O   0  0  0  0  0
  -38.6175    4.1674  -24.5101 H   0  0  0  0  0
  -38.8226    4.6389  -22.8166 H   0  0  0  0  0
  -41.2830    4.8438  -24.4824 H   0  0  0  0  0
  -39.9745    5.9681  -24.9254 H   0  0  0  0  0
  -41.2473    7.4326  -25.2401 H   0  0  0  0  0
  -41.5775    9.8841  -25.5198 H   0  0  0  0  0
  -41.4440   11.3628  -23.5263 H   0  0  0  0  0
  -40.6505    7.9468  -21.0048 H   0  0  0  0  0
  -40.6654   10.2489  -20.1504 H   0  0  0  0  0
  -40.5104   13.1090  -19.6167 H   0  0  0  0  0
  -41.8806   12.0039  -19.1882 H   0  0  0  0  0
  -42.4602   14.3886  -19.1588 H   0  0  0  0  0
  -43.4033   13.3987  -20.3856 H   0  0  0  0  0
  -42.8332   15.7920  -22.8088 H   0  0  0  0  0
  -44.1367   14.0422  -24.1827 H   0  0  0  0  0
  -46.3425   12.8993  -24.2960 H   0  0  0  0  0
  -44.7230   14.7623  -19.9471 H   0  0  0  0  0
  -49.6765   11.9655  -21.2771 H   0  0  0  0  0
  1  2  1  0  0  0
  2  3  1  0  0  0
  3  4  1  0  0  0
  4  5  1  0  0  0
  5  6  4  0  0  0
  5  9  4  0  0  0
  6  7  4  0  0  0
  7  8  4  0  0  0
  8 10  4  0  0  0
  9 10  4  0  0  0
 10 11  1  0  0  0
 11 12  1  0  0  0
 12 13  2  0  0  0
 12 14  1  0  0  0
 14 15  1  0  0  0
 15 16  1  0  0  0
 16 17  2  0  0  0
 16 18  1  0  0  0
 18 19  1  0  0  0
 19 20  4  0  0  0
 19 26  4  0  0  0
 20 21  4  0  0  0
 21 22  4  0  0  0
 22 23  4  0  0  0
 22 27  1  0  0  0
 23 24  1  0  0  0
 23 26  4  0  0  0
 24 25  2  0  0  0
 24 30  1  0  0  0
 27 28  2  0  0  0
 27 29  1  0  0  0
 29 30  1  0  0  0
 30 31  2  0  0  0
  2 32  1  0  0  0
  2 33  1  0  0  0
  3 34  1  0  0  0
  3 35  1  0  0  0
  6 36  1  0  0  0
  7 37  1  0  0  0
  8 38  1  0  0  0
  9 39  1  0  0  0
 11 40  1  0  0  0
 14 41  1  0  0  0
 14 42  1  0  0  0
 15 43  1  0  0  0
 15 44  1  0  0  0
 18 45  1  0  0  0
 20 46  1  0  0  0
 21 47  1  0  0  0
 26 48  1  0  0  0
 29 49  1  0  0  0
M  END
$$$$
