3sut_ligand
  -I-interpret- 

 47 48  0  0  0  0  0  0  0  0999 V2000
   32.4220  -20.5560   17.9330 C   0  0  0  0  0
   33.3760  -19.8100   17.0460 C   0  0  0  0  0
   33.3110  -19.8900   15.8240 O   0  0  0  0  0
   34.2730  -19.0900   17.7120 N   0  0  0  0  0
   35.2680  -18.2410   17.0460 C   0  0  0  0  0
   34.6120  -16.8860   16.5930 C   0  0  0  0  0
   34.7150  -15.8780   17.6110 O   0  0  0  0  0
   35.2680  -16.3990   15.2920 C   0  0  0  0  0
   34.6490  -15.1640   14.8480 O   0  0  0  0  0
   35.0590  -17.4870   14.2510 C   0  0  0  0  0
   35.5360  -17.0210   12.8770 C   0  0  0  0  0
   35.2140  -18.0650   11.9610 O   0  0  0  0  0
   35.7710  -18.7020   14.6590 O   0  0  0  0  0
   36.0560  -18.8410   16.0060 C   0  0  0  0  0
   36.8030  -19.9320   16.1370 N   0  3  0  0  0
   38.1310  -19.6790   15.6270 O   0  0  0  0  0
   39.0970  -20.5490   15.2760 C   0  0  0  0  0
   39.3150  -21.4650   16.0880 O   0  0  0  0  0
   39.9950  -20.1600   14.3350 N   0  0  0  0  0
   41.1710  -20.7840   14.1310 C   0  0  0  0  0
   41.3800  -22.1050   14.5820 C   0  0  0  0  0
   42.5750  -22.7890   14.3050 C   0  0  0  0  0
   43.5440  -22.1400   13.5280 C   0  0  0  0  0
   43.3400  -20.8420   13.0340 C   0  0  0  0  0
   42.1480  -20.1700   13.3250 C   0  0  0  0  0
   31.4022  -20.2378   17.7165 H   0  0  0  0  0
   32.5171  -21.6260   17.7481 H   0  0  0  0  0
   32.6564  -20.3440   18.9762 H   0  0  0  0  0
   34.2698  -19.1292   18.7312 H   0  0  0  0  0
   36.0193  -18.0564   17.8139 H   0  0  0  0  0
   33.5514  -17.0677   16.4193 H   0  0  0  0  0
   34.3015  -16.1955   18.4171 H   0  0  0  0  0
   36.3294  -16.2045   15.4461 H   0  0  0  0  0
   34.7855  -14.4828   15.5105 H   0  0  0  0  0
   33.9936  -17.7058   14.1788 H   0  0  0  0  0
   36.6079  -16.8235   12.8824 H   0  0  0  0  0
   35.0507  -16.0878   12.5913 H   0  0  0  0  0
   35.4975  -17.8139   11.0789 H   0  0  0  0  0
   36.5950  -17.9927   16.4279 H   0  0  0  0  0
   36.3793  -20.6963   15.6110 H   0  0  0  0  0
   36.8626  -20.1838   17.1236 H   0  0  0  0  0
   39.7674  -19.3540   13.7528 H   0  0  0  0  0
   40.5992  -22.6038   15.1562 H   0  0  0  0  0
   42.7441  -23.7969   14.6840 H   0  0  0  0  0
   44.4777  -22.6550   13.3020 H   0  0  0  0  0
   44.1064  -20.3602   12.4268 H   0  0  0  0  0
   41.9757  -19.1699   12.9272 H   0  0  0  0  0
  1  2  1  0  0  0
  2  3  2  0  0  0
  2  4  1  0  0  0
  4  5  1  0  0  0
  5  6  1  0  0  0
  5 14  1  0  0  0
  6  7  1  0  0  0
  6  8  1  0  0  0
  8  9  1  0  0  0
  8 10  1  0  0  0
 10 11  1  0  0  0
 10 13  1  0  0  0
 11 12  1  0  0  0
 13 14  1  0  0  0
 14 15  1  0  0  0
 15 16  1  0  0  0
 16 17  1  0  0  0
 17 18  2  0  0  0
 17 19  1  0  0  0
 19 20  1  0  0  0
 20 21  4  0  0  0
 20 25  4  0  0  0
 21 22  4  0  0  0
 22 23  4  0  0  0
 23 24  4  0  0  0
 24 25  4  0  0  0
  1 26  1  0  0  0
  1 27  1  0  0  0
  1 28  1  0  0  0
  4 29  1  0  0  0
  5 30  1  0  0  0
  6 31  1  0  0  0
  7 32  1  0  0  0
  8 33  1  0  0  0
  9 34  1  0  0  0
 10 35  1  0  0  0
 11 36  1  0  0  0
 11 37  1  0  0  0
 12 38  1  0  0  0
 14 39  1  0  0  0
 15 40  1  0  0  0
 15 41  1  0  0  0
 19 42  1  0  0  0
 21 43  1  0  0  0
 22 44  1  0  0  0
 23 45  1  0  0  0
 24 46  1  0  0  0
 25 47  1  0  0  0
M  END
$$$$
