4zsm_ligand
  -I-interpret- 

 25 26  0  0  0  0  0  0  0  0999 V2000
   14.3600   -2.7380   -1.0300 C   0  0  0  0  0
   14.6960   -2.6750    1.8910 C   0  0  0  0  0
   16.0440   -1.1590   -1.9250 C   0  0  0  0  0
   12.9930   -2.8840   -0.3920 C   0  0  0  0  0
   16.7430   -3.3660   -0.9560 C   0  0  0  0  0
   14.7100   -1.2730   -1.2350 C   0  0  0  0  0
   17.1060   -1.8990   -1.1210 C   0  0  0  0  0
   15.4170   -3.5220   -0.2490 C   0  0  0  0  0
   14.8670   -2.2960    3.1960 N   0  0  0  0  0
   15.6680   -3.1180    1.1560 N   0  0  0  0  0
   13.0120   -2.4890    1.3830 S   0  0  0  0  0
   14.3363   -3.1818   -2.0253 H   0  0  0  0  0
   16.3199   -0.1075   -2.0045 H   0  0  0  0  0
   15.9738   -1.5987   -2.9199 H   0  0  0  0  0
   12.6774   -3.9213   -0.5037 H   0  0  0  0  0
   12.3141   -2.1885   -0.8854 H   0  0  0  0  0
   17.5155   -3.8515   -0.3596 H   0  0  0  0  0
   16.6669   -3.8198   -1.9441 H   0  0  0  0  0
   14.7615   -0.7758   -0.2664 H   0  0  0  0  0
   13.9440   -0.8022   -1.8513 H   0  0  0  0  0
   17.1764   -1.4436   -0.1332 H   0  0  0  0  0
   18.0556   -1.8319   -1.6520 H   0  0  0  0  0
   15.0114   -4.5331   -0.2136 H   0  0  0  0  0
   14.0710   -1.9598    3.7379 H   0  0  0  0  0
   16.6082   -3.1889    1.5452 H   0  0  0  0  0
  4  1  1  0  0  0
  1  6  1  0  0  0
  1  8  1  0  0  0
  2  9  2  0  0  0
  2 10  1  0  0  0
 11  2  1  0  0  0
  6  3  1  0  0  0
  3  7  1  0  0  0
  4 11  1  0  0  0
  7  5  1  0  0  0
  5  8  1  0  0  0
  8 10  1  0  0  0
  1 12  1  0  0  0
  3 13  1  0  0  0
  3 14  1  0  0  0
  4 15  1  0  0  0
  4 16  1  0  0  0
  5 17  1  0  0  0
  5 18  1  0  0  0
  6 19  1  0  0  0
  6 20  1  0  0  0
  7 21  1  0  0  0
  7 22  1  0  0  0
  8 23  1  0  0  0
  9 24  1  0  0  0
 10 25  1  0  0  0
M  END
$$$$
