### 
### Created by X-TOOL on Mon Sep 10 21:12:55 2018
### 

@<TRIPOS>MOLECULE
3biz_ligand
   58    62     1     0     0
SMALL
GAST_HUCK


@<TRIPOS>ATOM
      1 C26         8.8180   52.8040   16.3630 C.3       1 61E        -0.1260
      2 N3          7.3910   53.1050   16.6580 N.4       1 61E         0.3987
      3 C25         6.6600   53.0310   15.3300 C.3       1 61E        -0.1260
      4 C24         7.2250   54.3760   17.4880 C.3       1 61E        -0.1113
      5 C23         5.7360   54.9230   17.5250 C.3       1 61E        -0.0432
      6 C22         4.9990   54.7790   18.9030 C.3       1 61E         0.0709
      7 O4          6.0200   54.9230   19.9780 O.3       1 61E        -0.3080
      8 C20         5.6410   54.7330   21.2950 C.2       1 61E         0.1494
      9 C18         4.3190   54.3370   21.6710 C.2       1 61E        -0.0006
     10 C19         6.6470   54.9810   22.2580 C.2       1 61E         0.1614
     11 O3          7.8060   55.2810   21.8760 O.2       1 61E        -0.3888
     12 C17         6.3320   54.7730   23.6350 C.3       1 61E         0.0455
     13 C15         5.0130   54.4440   24.0230 C.2       1 61E        -0.0113
     14 C16         4.0090   54.1990   23.0410 C.2       1 61E         0.0587
     15 N2          2.8850   53.8590   23.6860 N.pl3     1 61E        -0.2676
     16 C21         1.5330   53.5030   23.0800 C.3       1 61E         0.0371
     17 C14         3.0740   53.8980   24.9910 C.ar      1 61E         0.0722
     18 C1          2.1700   53.5410   26.0180 C.ar      1 61E        -0.0273
     19 C13         4.4050   54.2540   25.2550 C.ar      1 61E         0.0087
     20 C4          4.8620   54.3120   26.6110 C.ar      1 61E         0.0605
     21 C5          6.0680   54.6060   27.2800 C.2       1 61E         0.2294
     22 O1          7.0980   55.0050   26.7460 O.2       1 61E        -0.3708
     23 N1          5.9600   54.5150   28.6380 N.am      1 61E        -0.2016
     24 C6          4.7280   54.1260   28.8740 C.2       1 61E         0.2291
     25 O2          4.3170   53.9280   30.0150 O.2       1 61E        -0.3715
     26 C3          3.9480   53.9930   27.6430 C.ar      1 61E         0.0625
     27 C2          2.5960   53.6380   27.3420 C.ar      1 61E        -0.0085
     28 C7          1.6380   53.3760   28.3580 C.ar      1 61E        -0.0070
     29 C12         0.9860   52.1030   28.4200 C.ar      1 61E        -0.0548
     30 C11         0.0270   51.9030   29.4410 C.ar      1 61E        -0.0618
     31 C10        -0.2610   52.8740   30.4300 C.ar      1 61E        -0.0619
     32 C9          0.3500   54.1510   30.3780 C.ar      1 61E        -0.0480
     33 C8          1.2640   54.4180   29.3030 C.ar      1 61E         0.0470
     34 CL1         1.8980   56.0290   29.3670 Cl        1 61E        -0.0701
     35 H           9.2546   53.6317   15.8041 H         1 61E        -0.0019
     36 H           9.3606   52.6695   17.2987 H         1 61E        -0.0019
     37 H           8.8805   51.8910   15.7708 H         1 61E        -0.0019
     38 H           5.5876   53.1245   15.5013 H         1 61E        -0.0019
     39 H           6.9982   53.8419   14.6849 H         1 61E        -0.0019
     40 H           6.8710   52.0737   14.8534 H         1 61E        -0.0019
     41 H           7.8445   55.1474   17.0306 H         1 61E         0.0018
     42 H           7.5098   54.1361   18.5124 H         1 61E         0.0018
     43 H           5.1694   54.3312   16.8061 H         1 61E         0.0272
     44 H           5.7916   55.9906   17.3122 H         1 61E         0.0272
     45 H           4.5090   53.8078   18.9721 H         1 61E         0.0620
     46 H           4.2300   55.5448   19.0044 H         1 61E         0.0620
     47 H           3.5621   54.1446   20.9106 H         1 61E         0.0514
     48 H           6.5183   55.7393   24.1036 H         1 61E         0.0606
     49 H           6.9222   53.9016   23.9184 H         1 61E         0.0606
     50 H           1.1637   54.3471   22.4976 H         1 61E         0.0551
     51 H           1.6443   52.6337   22.4319 H         1 61E         0.0551
     52 H           0.8272   53.2744   23.8786 H         1 61E         0.0551
     53 H           1.1632   53.1978   25.7800 H         1 61E         0.0588
     54 H           6.6864   54.7091   29.3272 H         1 61E         0.2209
     55 H           1.2204   51.3145   27.7049 H         1 61E         0.0618
     56 H          -0.5150   50.9577   29.4672 H         1 61E         0.0617
     57 H          -0.9563   52.6379   31.2355 H         1 61E         0.0612
     58 H           0.1329   54.9082   31.1314 H         1 61E         0.0622
@<TRIPOS>BOND
     1    1    2 1  
     2    2    3 1  
     3    2    4 1  
     4    4    5 1  
     5    5    6 1  
     6    6    7 1  
     7    7    8 1  
     8    8    9 2  
     9    8   10 1  
    10    9   14 1  
    11   10   11 2  
    12   10   12 1  
    13   12   13 1  
    14   13   14 2  
    15   13   19 1  
    16   14   15 1  
    17   15   16 1  
    18   15   17 1  
    19   17   18 ar 
    20   17   19 ar 
    21   18   27 ar 
    22   19   20 ar 
    23   20   21 1  
    24   20   26 ar 
    25   21   22 2  
    26   21   23 am 
    27   23   24 am 
    28   24   25 2  
    29   24   26 1  
    30   26   27 ar 
    31   27   28 1  
    32   28   29 ar 
    33   28   33 ar 
    34   29   30 ar 
    35   30   31 ar 
    36   31   32 ar 
    37   32   33 ar 
    38   33   34 1  
    39    1   35 1  
    40    1   36 1  
    41    1   37 1  
    42    3   38 1  
    43    3   39 1  
    44    3   40 1  
    45    4   41 1  
    46    4   42 1  
    47    5   43 1  
    48    5   44 1  
    49    6   45 1  
    50    6   46 1  
    51    9   47 1  
    52   12   48 1  
    53   12   49 1  
    54   16   50 1  
    55   16   51 1  
    56   16   52 1  
    57   18   53 1  
    58   23   54 1  
    59   29   55 1  
    60   30   56 1  
    61   31   57 1  
    62   32   58 1  
@<TRIPOS>SUBSTRUCTURE
     1 61E         1

