6qmr_ligand
  -I-interpret- 

 52 54  0  0  0  0  0  0  0  0999 V2000
    5.8690    3.2660    7.6580 C   0  0  0  0  0
    4.8750    4.2710    7.7370 C   0  0  0  0  0
    3.6860    4.0040    8.4350 C   0  0  0  0  0
   -0.2130    2.8920   11.5530 C   0  0  0  0  0
   -1.3940    3.1940   12.2700 C   0  0  0  0  0
   -1.5020    4.4080   12.9630 C   0  0  0  0  0
   -0.4470    5.3440   12.9240 C   0  0  0  0  0
    0.7240    5.0780   12.1790 C   0  0  0  0  0
    1.8780    6.1130   12.2060 C   0  0  0  0  0
    2.2720    6.6880   10.8490 C   0  0  0  0  0
    5.6990    5.6940    5.8540 C   0  0  0  0  0
    5.9350    6.9490    5.2710 C   0  0  0  0  0
    5.5840    8.1230    5.9690 C   0  0  0  0  0
    4.9540    8.0630    7.2240 C   0  0  0  0  0
    4.7100    6.7920    7.7680 C   0  0  0  0  0
    6.6000    6.9880    3.8750 C   0  0  0  0  0
    5.4710    7.1050    2.8000 C   0  0  0  0  0
    3.4880    2.7610    9.0710 C   0  0  0  0  0
    4.4780    1.7610    8.9650 C   0  0  0  0  0
    5.6770    2.0050    8.2620 C   0  0  0  0  0
    5.0950    5.6070    7.1110 C   0  0  0  0  0
    2.1690    2.4890    9.8050 C   0  0  0  0  0
    2.0350    3.5410   10.7830 O   0  0  0  0  0
    0.8510    3.8200   11.4990 C   0  0  0  0  0
    1.5180    6.3630    9.7820 O   0  0  0  0  0
    3.2340    7.4470   10.7290 O   0  0  0  0  0
    7.6400    8.0530    3.7110 N   0  3  0  0  0
    5.1140    8.5020    2.6560 O   0  0  0  0  0
    6.7965    3.4692    7.1227 H   0  0  0  0  0
    2.9079    4.7656    8.4857 H   0  0  0  0  0
   -0.1229    1.9356   11.0379 H   0  0  0  0  0
   -2.2201    2.4831   12.2838 H   0  0  0  0  0
   -2.4039    4.6294   13.5337 H   0  0  0  0  0
   -0.5360    6.2811   13.4736 H   0  0  0  0  0
    2.7550    5.5919   12.5900 H   0  0  0  0  0
    1.5309    6.9510   12.8105 H   0  0  0  0  0
    5.9875    4.7856    5.3251 H   0  0  0  0  0
    5.8053    9.0946    5.5272 H   0  0  0  0  0
    4.6655    8.9699    7.7553 H   0  0  0  0  0
    4.2055    6.7197    8.7315 H   0  0  0  0  0
    7.1580    6.0605    3.7465 H   0  0  0  0  0
    4.5997    6.5292    3.1122 H   0  0  0  0  0
    5.8236    6.7115    1.8466 H   0  0  0  0  0
    4.3148    0.7894    9.4313 H   0  0  0  0  0
    6.4422    1.2324    8.1867 H   0  0  0  0  0
    2.1757    1.5074   10.2789 H   0  0  0  0  0
    1.3262    2.4824    9.1138 H   0  0  0  0  0
    0.8174    5.7668   10.0563 H   0  0  0  0  0
    8.0249    8.0082    2.7675 H   0  0  0  0  0
    7.2151    8.9677    3.8631 H   0  0  0  0  0
    8.3858    7.9059    4.3911 H   0  0  0  0  0
    4.4205    8.5877    1.9977 H   0  0  0  0  0
  2  1  4  0  0  0
 20  1  4  0  0  0
  3  2  4  0  0  0
  2 21  1  0  0  0
 18  3  4  0  0  0
  4  5  4  0  0  0
 24  4  4  0  0  0
  5  6  4  0  0  0
  7  6  4  0  0  0
  8  7  4  0  0  0
  8  9  1  0  0  0
 24  8  4  0  0  0
  9 10  1  0  0  0
 10 25  1  0  0  0
 10 26  2  0  0  0
 11 12  4  0  0  0
 21 11  4  0  0  0
 12 13  4  0  0  0
 12 16  1  0  0  0
 14 13  4  0  0  0
 15 14  4  0  0  0
 21 15  4  0  0  0
 16 17  1  0  0  0
 16 27  1  0  0  0
 17 28  1  0  0  0
 18 19  4  0  0  0
 22 18  1  0  0  0
 19 20  4  0  0  0
 23 22  1  0  0  0
 23 24  1  0  0  0
  1 29  1  0  0  0
  3 30  1  0  0  0
  4 31  1  0  0  0
  5 32  1  0  0  0
  6 33  1  0  0  0
  7 34  1  0  0  0
  9 35  1  0  0  0
  9 36  1  0  0  0
 11 37  1  0  0  0
 13 38  1  0  0  0
 14 39  1  0  0  0
 15 40  1  0  0  0
 16 41  1  0  0  0
 17 42  1  0  0  0
 17 43  1  0  0  0
 19 44  1  0  0  0
 20 45  1  0  0  0
 22 46  1  0  0  0
 22 47  1  0  0  0
 25 48  1  0  0  0
 27 49  1  0  0  0
 27 50  1  0  0  0
 27 51  1  0  0  0
 28 52  1  0  0  0
M  END
$$$$
