3usn_ligand
  -I-interpret- 

 37 38  0  0  0  0  0  0  0  0999 V2000
   -9.2880    1.7670    8.9730 C   0  0  0  0  0
  -10.5160    0.9950    8.3530 C   0  0  0  0  0
  -10.9470    2.5120    6.4320 C   0  0  0  0  0
   -6.2210    5.0900   10.2810 C   0  0  0  0  0
   -5.9830    4.7020   11.6090 C   0  0  0  0  0
   -6.9470    3.9690   12.3020 C   0  0  0  0  0
   -8.0910    3.5250   11.6450 C   0  0  0  0  0
   -4.5840    1.8160    8.4670 C   0  0  0  0  0
   -2.4420    1.6490    9.6280 C   0  0  0  0  0
   -2.5110    2.6060    8.7050 N   0  0  0  0  0
   -3.7240    2.6660    8.1230 N   0  0  0  0  0
   -3.9280    0.7320    9.6790 S   0  0  0  0  0
   -1.1010    1.3360   10.4720 S   0  0  0  0  0
   -5.8870    1.7870    7.8900 N   0  0  0  0  0
   -6.9290    1.2530    8.4720 C   0  0  0  0  0
   -6.7550    0.5460    9.5000 O   0  0  0  0  0
   -8.1090    1.6510    8.0610 N   0  0  0  0  0
  -11.0390   -0.0030    8.8640 O   0  0  0  0  0
  -11.1900    1.2850    7.2560 N   0  0  0  0  0
   -9.4690    3.2280    9.4960 C   0  0  0  0  0
   -8.3130    3.8360   10.2990 C   0  0  0  0  0
   -7.3970    4.6430    9.6470 C   0  0  0  0  0
   -9.1384    1.2460    9.9187 H   0  0  0  0  0
  -11.1164    3.3982    7.0436 H   0  0  0  0  0
   -9.9181    2.5086    6.0721 H   0  0  0  0  0
  -11.6303    2.5190    5.5828 H   0  0  0  0  0
   -5.5103    5.7243    9.7511 H   0  0  0  0  0
   -5.0471    4.9728   12.0977 H   0  0  0  0  0
   -6.8041    3.7438   13.3589 H   0  0  0  0  0
   -8.8239    2.9269   12.1865 H   0  0  0  0  0
   -1.3330    0.3331   11.3141 H   0  0  0  0  0
   -6.0140    2.2073    6.9694 H   0  0  0  0  0
   -8.2275    1.8917    7.0769 H   0  0  0  0  0
  -11.9171    0.6373    6.9523 H   0  0  0  0  0
  -10.3171    3.1935   10.1798 H   0  0  0  0  0
   -9.5690    3.8495    8.6062 H   0  0  0  0  0
   -7.5904    4.9404    8.6164 H   0  0  0  0  0
  1  2  1  0  0  0
  1 17  1  0  0  0
 20  1  1  0  0  0
  2 18  2  0  0  0
  2 19  1  0  0  0
 19  3  1  0  0  0
  5  4  4  0  0  0
  4 22  4  0  0  0
  6  5  4  0  0  0
  7  6  4  0  0  0
 21  7  4  0  0  0
  8 11  4  0  0  0
  8 12  4  0  0  0
 14  8  1  0  0  0
  9 10  4  0  0  0
 12  9  4  0  0  0
  9 13  1  0  0  0
 11 10  4  0  0  0
 15 14  1  0  0  0
 15 16  2  0  0  0
 17 15  1  0  0  0
 20 21  1  0  0  0
 21 22  4  0  0  0
  1 23  1  0  0  0
  3 24  1  0  0  0
  3 25  1  0  0  0
  3 26  1  0  0  0
  4 27  1  0  0  0
  5 28  1  0  0  0
  6 29  1  0  0  0
  7 30  1  0  0  0
 13 31  1  0  0  0
 14 32  1  0  0  0
 17 33  1  0  0  0
 19 34  1  0  0  0
 20 35  1  0  0  0
 20 36  1  0  0  0
 22 37  1  0  0  0
M  END
$$$$
