4ewn_ligand
  -I-interpret- 

 43 43  0  0  0  0  0  0  0  0999 V2000
   19.1340   17.5550   24.7670 P   0  0  0  0  0
   20.4820   17.8840   24.1710 O   0  0  0  0  0
   18.8900   18.3490   26.0420 O   0  0  0  0  0
   19.1870   16.0720   25.0800 O   0  0  0  0  0
   17.9520   17.9200   23.7930 O   0  0  0  0  0
   17.2250   16.9320   23.1120 C   0  0  0  0  0
   16.1530   17.5690   22.2300 C   0  0  0  0  0
   15.2060   18.1580   23.0380 O   0  0  0  0  0
   16.7250   18.5640   21.2290 C   0  0  0  0  0
   17.7670   17.9370   20.5770 O   0  0  0  0  0
   15.7570   19.0360   20.1610 C   0  0  0  0  0
   14.4450   18.7470   20.4450 O   0  0  0  0  0
   15.8430   20.5210   19.9400 C   0  0  0  0  0
   14.6480   20.9570   19.2050 N   0  0  0  0  0
   12.8870   22.3910   18.9560 C   0  0  0  0  0
   13.8640   22.1050   19.6400 C   0  0  0  0  0
   14.3730   22.6680   20.7710 C   0  0  0  0  0
   13.4660   23.9150   21.1930 C   0  0  0  0  0
   12.2630   24.1340   20.1990 C   0  0  0  0  0
   12.1340   23.2930   19.1620 C   0  0  0  0  0
   12.5500   21.5840   17.7420 C   0  0  0  0  0
   12.5210   20.3450   17.9620 O   0  0  0  0  0
   12.3400   22.3070   16.7350 O   0  0  0  0  0
   18.0285   18.1215   26.3994 H   0  0  0  0  0
   18.3517   15.7974   25.4652 H   0  0  0  0  0
   16.7427   16.2813   23.8414 H   0  0  0  0  0
   17.9075   16.3605   22.4829 H   0  0  0  0  0
   15.6921   16.7839   21.6307 H   0  0  0  0  0
   14.8652   17.5075   23.6563 H   0  0  0  0  0
   17.0111   19.4450   21.8035 H   0  0  0  0  0
   18.1511   18.5399   19.9362 H   0  0  0  0  0
   16.0612   18.4911   19.2673 H   0  0  0  0  0
   13.8863   19.0700   19.7343 H   0  0  0  0  0
   16.7385   20.7590   19.3659 H   0  0  0  0  0
   15.8965   21.0359   20.8992 H   0  0  0  0  0
   14.3608   20.4443   18.3713 H   0  0  0  0  0
   15.3929   23.0045   20.5845 H   0  0  0  0  0
   14.3789   21.9318   21.5748 H   0  0  0  0  0
   14.0883   24.8097   21.1770 H   0  0  0  0  0
   13.0574   23.7190   22.1843 H   0  0  0  0  0
   11.5540   24.9479   20.3502 H   0  0  0  0  0
   11.3011   23.4409   18.4746 H   0  0  0  0  0
   12.7466   20.1788   18.8802 H   0  0  0  0  0
  1  2  2  0  0  0
  1  3  1  0  0  0
  1  4  1  0  0  0
  1  5  1  0  0  0
  5  6  1  0  0  0
  6  7  1  0  0  0
  7  8  1  0  0  0
  7  9  1  0  0  0
  9 10  1  0  0  0
  9 11  1  0  0  0
 11 12  1  0  0  0
 11 13  1  0  0  0
 13 14  1  0  0  0
 14 16  1  0  0  0
 16 15  2  0  0  0
 15 20  1  0  0  0
 15 21  1  0  0  0
 16 17  1  0  0  0
 17 18  1  0  0  0
 18 19  1  0  0  0
 19 20  2  0  0  0
 21 22  1  0  0  0
 21 23  2  0  0  0
  3 24  1  0  0  0
  4 25  1  0  0  0
  6 26  1  0  0  0
  6 27  1  0  0  0
  7 28  1  0  0  0
  8 29  1  0  0  0
  9 30  1  0  0  0
 10 31  1  0  0  0
 11 32  1  0  0  0
 12 33  1  0  0  0
 13 34  1  0  0  0
 13 35  1  0  0  0
 14 36  1  0  0  0
 17 37  1  0  0  0
 17 38  1  0  0  0
 18 39  1  0  0  0
 18 40  1  0  0  0
 19 41  1  0  0  0
 20 42  1  0  0  0
 22 43  1  0  0  0
M  END
$$$$
