6nze_ligand
  -I-interpret- 

 45 47  0  0  0  0  0  0  0  0999 V2000
    8.6060   -2.8960   32.1090 C   0  0  0  0  0
   15.3120   -3.7480   27.4110 C   0  0  0  0  0
   15.0310   -4.8090   26.5420 C   0  0  0  0  0
   14.1940   -5.8450   26.9370 C   0  0  0  0  0
   13.5990   -5.8190   28.1740 C   0  0  0  0  0
   16.4470   -2.8320   27.0750 C   0  0  0  0  0
    8.2820   -4.9470   30.9750 C   0  0  0  0  0
    7.7640   -3.9290   31.7380 C   0  0  0  0  0
   14.6630   -0.7810   31.1000 C   0  0  0  0  0
   13.7890   -0.0860   31.9340 C   0  0  0  0  0
   12.5290   -0.4560   32.1870 N   0  0  0  0  0
   12.0710   -1.5490   31.5870 C   0  0  0  0  0
   12.8540   -2.3180   30.7130 C   0  0  0  0  0
   14.1780   -1.9460   30.4590 C   0  0  0  0  0
   15.0140   -2.7000   29.6000 N   0  0  0  0  0
   10.7570   -1.8530   31.9340 N   0  0  0  0  0
   16.0220   -0.2360   30.7890 C   0  0  0  0  0
   16.5510    0.6360   31.6480 N   0  0  0  0  0
   16.5980   -0.5740   29.7640 O   0  0  0  0  0
   17.7540    1.3790   31.3360 C   0  0  0  0  0
   14.6920   -3.7160   28.6780 C   0  0  0  0  0
    9.9260   -2.8940   31.6240 C   0  0  0  0  0
   10.4200   -3.8790   30.8700 N   0  0  0  0  0
    9.6180   -4.9090   30.5760 C   0  0  0  0  0
    7.4800   -6.0020   30.6630 F   0  0  0  0  0
   13.8490   -4.7700   29.0520 C   0  0  0  0  0
   16.3550   -2.1060   25.9590 N   0  0  0  0  0
   17.4300   -2.7650   27.8310 O   0  0  0  0  0
    8.2533   -2.0995   32.7642 H   0  0  0  0  0
   15.4732   -4.8224   25.5458 H   0  0  0  0  0
   14.0091   -6.6812   26.2627 H   0  0  0  0  0
   12.9271   -6.6248   28.4695 H   0  0  0  0  0
    6.7175   -3.9350   32.0430 H   0  0  0  0  0
   14.1576    0.8212   32.4128 H   0  0  0  0  0
   12.4322   -3.2016   30.2340 H   0  0  0  0  0
   16.0064   -2.4716   29.6577 H   0  0  0  0  0
   10.3267   -1.1575   32.5436 H   0  0  0  0  0
   16.0961    0.7836   32.5489 H   0  0  0  0  0
   18.5730    0.6827   31.1557 H   0  0  0  0  0
   17.5856    1.9827   30.4442 H   0  0  0  0  0
   18.0057    2.0289   32.1741 H   0  0  0  0  0
   10.0220   -5.7457   30.0061 H   0  0  0  0  0
   13.3855   -4.7681   30.0385 H   0  0  0  0  0
   17.1085   -1.4685   25.7018 H   0  0  0  0  0
   15.5312   -2.1887   25.3633 H   0  0  0  0  0
  1  8  4  0  0  0
 22  1  4  0  0  0
  2  3  4  0  0  0
  2  6  1  0  0  0
 21  2  4  0  0  0
  3  4  4  0  0  0
  4  5  4  0  0  0
  5 26  4  0  0  0
  6 27  1  0  0  0
  6 28  2  0  0  0
  8  7  4  0  0  0
  7 24  4  0  0  0
  7 25  1  0  0  0
 10  9  4  0  0  0
 14  9  4  0  0  0
  9 17  1  0  0  0
 11 10  4  0  0  0
 12 11  4  0  0  0
 12 13  4  0  0  0
 16 12  1  0  0  0
 13 14  4  0  0  0
 14 15  1  0  0  0
 15 21  1  0  0  0
 16 22  1  0  0  0
 17 18  1  0  0  0
 17 19  2  0  0  0
 18 20  1  0  0  0
 21 26  4  0  0  0
 22 23  4  0  0  0
 23 24  4  0  0  0
  1 29  1  0  0  0
  3 30  1  0  0  0
  4 31  1  0  0  0
  5 32  1  0  0  0
  8 33  1  0  0  0
 10 34  1  0  0  0
 13 35  1  0  0  0
 15 36  1  0  0  0
 16 37  1  0  0  0
 18 38  1  0  0  0
 20 39  1  0  0  0
 20 40  1  0  0  0
 20 41  1  0  0  0
 24 42  1  0  0  0
 26 43  1  0  0  0
 27 44  1  0  0  0
 27 45  1  0  0  0
M  END
$$$$
