### 
### Created by X-TOOL on Mon Sep 10 21:13:11 2018
### 

@<TRIPOS>MOLECULE
3v6s_ligand
   66    69     1     0     0
SMALL
GAST_HUCK


@<TRIPOS>ATOM
      1 C01        20.7290  -17.6200  -27.1640 C.ar      1 0F0         0.0248
      2 N02        20.2950  -18.8880  -27.0960 N.ar      1 0F0        -0.2920
      3 C03        19.1150  -19.1420  -26.5370 C.ar      1 0F0         0.0142
      4 C04        18.3370  -18.0930  -26.0260 C.ar      1 0F0        -0.0301
      5 C05        18.7620  -16.7630  -26.0900 C.ar      1 0F0        -0.0291
      6 C06        19.9910  -16.5300  -26.6800 C.ar      1 0F0         0.0315
      7 C07        20.5490  -15.1550  -26.7280 C.ar      1 0F0         0.0618
      8 N08        21.7540  -14.9480  -27.3050 N.ar      1 0F0        -0.2461
      9 C09        19.8960  -14.0940  -26.1200 C.ar      1 0F0        -0.0156
     10 C10        20.5140  -12.8430  -26.1590 C.ar      1 0F0         0.0143
     11 N11        21.7000  -12.6820  -26.7730 N.ar      1 0F0        -0.2522
     12 C12        22.3580  -13.7350  -27.3220 C.ar      1 0F0         0.2078
     13 N13        23.6200  -13.5260  -27.9420 N.pl3     1 0F0        -0.2494
     14 C14        24.3470  -14.7170  -28.2640 C.ar      1 0F0         0.0515
     15 C15        25.4930  -14.7240  -29.0730 C.ar      1 0F0        -0.0503
     16 C16        26.1750  -15.9310  -29.3510 C.ar      1 0F0        -0.0493
     17 C17        23.9560  -15.9420  -27.7000 C.ar      1 0F0        -0.0503
     18 C18        24.6040  -17.1360  -27.9850 C.ar      1 0F0        -0.0493
     19 C19        25.6950  -17.1450  -28.8380 C.ar      1 0F0         0.0555
     20 N20        26.3570  -18.3800  -28.9700 N.am      1 0F0        -0.2394
     21 C21        27.0730  -18.5870  -30.1150 C.2       1 0F0         0.2260
     22 O22        26.7620  -18.0890  -31.1860 O.2       1 0F0        -0.3745
     23 C23        28.2430  -19.5100  -29.9940 C.ar      1 0F0         0.0419
     24 C24        29.4630  -19.1840  -30.5890 C.ar      1 0F0        -0.0570
     25 C25        30.5690  -20.0180  -30.4410 C.ar      1 0F0        -0.0700
     26 C26        30.4260  -21.2050  -29.7260 C.ar      1 0F0        -0.0370
     27 C27        29.2160  -21.5290  -29.0910 C.ar      1 0F0         0.0716
     28 C28        28.1310  -20.6670  -29.2290 C.ar      1 0F0        -0.0212
     29 N29        28.9960  -22.7160  -28.3380 N.am      1 0F0        -0.2331
     30 C30        30.0460  -23.3240  -27.6920 C.2       1 0F0         0.2035
     31 O31        31.2230  -23.0370  -27.8990 O.2       1 0F0        -0.3849
     32 C32        29.6630  -24.3870  -26.6960 C.3       1 0F0         0.0413
     33 C33        30.8330  -24.7070  -25.7850 C.3       1 0F0        -0.0543
     34 C34        30.4350  -25.9030  -24.9330 C.3       1 0F0        -0.1117
     35 N35        31.1620  -25.9010  -23.6570 N.4       1 0F0         0.3987
     36 C36        30.1940  -26.0290  -22.5630 C.3       1 0F0        -0.1260
     37 C37        32.1450  -26.9860  -23.6240 C.3       1 0F0        -0.1260
     38 H          21.7016  -17.4280  -27.6171 H         1 0F0         0.0864
     39 H          18.7519  -20.1679  -26.4760 H         1 0F0         0.0847
     40 H          17.3752  -18.3210  -25.5666 H         1 0F0         0.0718
     41 H          18.1545  -15.9491  -25.6942 H         1 0F0         0.0773
     42 H          18.9330  -14.2319  -25.6284 H         1 0F0         0.0675
     43 H          20.0305  -11.9877  -25.6870 H         1 0F0         0.0892
     44 H          23.9820  -12.5939  -28.1432 H         1 0F0         0.2142
     45 H          25.8621  -13.7880  -29.4922 H         1 0F0         0.0503
     46 H          27.0754  -15.9180  -29.9651 H         1 0F0         0.0479
     47 H          23.1109  -15.9559  -27.0117 H         1 0F0         0.0503
     48 H          24.2542  -18.0663  -27.5375 H         1 0F0         0.0479
     49 H          26.3044  -19.0913  -28.2408 H         1 0F0         0.2218
     50 H          29.5510  -18.2689  -31.1745 H         1 0F0         0.0539
     51 H          31.5302  -19.7463  -30.8774 H         1 0F0         0.0588
     52 H          31.2678  -21.8942  -29.6582 H         1 0F0         0.0537
     53 H          27.1879  -20.9001  -28.7346 H         1 0F0         0.0552
     54 H          28.0595  -23.1156  -28.2776 H         1 0F0         0.2256
     55 H          29.3759  -25.2902  -27.2345 H         1 0F0         0.0507
     56 H          28.8323  -24.0232  -26.0913 H         1 0F0         0.0507
     57 H          31.0698  -23.8508  -25.1534 H         1 0F0         0.0270
     58 H          31.7221  -24.9363  -26.3724 H         1 0F0         0.0270
     59 H          30.6794  -26.8167  -25.4747 H         1 0F0         0.0018
     60 H          29.3659  -25.8476  -24.7279 H         1 0F0         0.0018
     61 H          29.4989  -25.1900  -22.5946 H         1 0F0        -0.0019
     62 H          29.6434  -26.9631  -22.6742 H         1 0F0        -0.0019
     63 H          30.7227  -26.0287  -21.6098 H         1 0F0        -0.0019
     64 H          31.6335  -27.9416  -23.7389 H         1 0F0        -0.0019
     65 H          32.8577  -26.8538  -24.4381 H         1 0F0        -0.0019
     66 H          32.6730  -26.9673  -22.6706 H         1 0F0        -0.0019
@<TRIPOS>BOND
     1    1    2 ar 
     2    1    6 ar 
     3    2    3 ar 
     4    3    4 ar 
     5    4    5 ar 
     6    5    6 ar 
     7    6    7 1  
     8    7    8 ar 
     9    7    9 ar 
    10    8   12 ar 
    11    9   10 ar 
    12   10   11 ar 
    13   11   12 ar 
    14   12   13 1  
    15   13   14 1  
    16   14   15 ar 
    17   14   17 ar 
    18   15   16 ar 
    19   16   19 ar 
    20   17   18 ar 
    21   18   19 ar 
    22   19   20 1  
    23   20   21 am 
    24   21   22 2  
    25   21   23 1  
    26   23   24 ar 
    27   23   28 ar 
    28   24   25 ar 
    29   25   26 ar 
    30   26   27 ar 
    31   27   28 ar 
    32   27   29 1  
    33   29   30 am 
    34   30   31 2  
    35   30   32 1  
    36   32   33 1  
    37   33   34 1  
    38   34   35 1  
    39   35   36 1  
    40   35   37 1  
    41    1   38 1  
    42    3   39 1  
    43    4   40 1  
    44    5   41 1  
    45    9   42 1  
    46   10   43 1  
    47   13   44 1  
    48   15   45 1  
    49   16   46 1  
    50   17   47 1  
    51   18   48 1  
    52   20   49 1  
    53   24   50 1  
    54   25   51 1  
    55   26   52 1  
    56   28   53 1  
    57   29   54 1  
    58   32   55 1  
    59   32   56 1  
    60   33   57 1  
    61   33   58 1  
    62   34   59 1  
    63   34   60 1  
    64   36   61 1  
    65   36   62 1  
    66   36   63 1  
    67   37   64 1  
    68   37   65 1  
    69   37   66 1  
@<TRIPOS>SUBSTRUCTURE
     1 0F0         1

