1kv1_ligand
  -I-interpret- 

 40 41  0  0  0  0  0  0  0  0999 V2000
   33.3350   33.7310   14.7430 C   0  0  0  0  0
   32.6010   34.5460   15.3330 O   0  0  0  0  0
   34.5710   33.5060   15.1830 N   0  0  0  0  0
   35.1480   34.1290   16.2090 C   0  0  0  0  0
   36.4480   34.4790   16.0740 C   0  0  0  0  0
   37.1140   35.1040   17.1080 C   0  0  0  0  0
   36.4760   35.3630   18.2450 C   0  0  0  0  0
   35.1700   35.0230   18.4040 C   0  0  0  0  0
   34.4900   34.3920   17.3610 C   0  0  0  0  0
   32.9130   33.0390   13.6810 N   0  0  0  0  0
   31.7140   33.1640   13.1110 C   0  0  0  0  0
   31.0350   34.3170   12.8600 C   0  0  0  0  0
   29.8770   33.9530   12.1980 C   0  0  0  0  0
   29.8450   32.6300   12.0430 N   0  0  0  0  0
   31.0160   32.1480   12.6350 N   0  0  0  0  0
   31.4020   30.7330   12.7230 C   0  0  0  0  0
   28.3360   35.6290   12.9670 C   0  0  0  0  0
   27.7110   33.9850   11.1740 C   0  0  0  0  0
   29.4050   35.7600   10.6900 C   0  0  0  0  0
   28.8780   34.8070   11.7780 C   0  0  0  0  0
   37.3570   36.1330   19.5340 Cl  0  0  0  0  0
   35.1208   32.7991   14.6948 H   0  0  0  0  0
   36.9724   34.2658   15.1425 H   0  0  0  0  0
   38.1609   35.3848   16.9929 H   0  0  0  0  0
   34.6565   35.2417   19.3403 H   0  0  0  0  0
   33.4419   34.1147   17.4735 H   0  0  0  0  0
   33.5585   32.3620   13.2743 H   0  0  0  0  0
   31.3434   35.3275   13.1280 H   0  0  0  0  0
   32.3562   30.5859   12.2171 H   0  0  0  0  0
   31.4971   30.4482   13.7708 H   0  0  0  0  0
   30.6380   30.1190   12.2461 H   0  0  0  0  0
   27.9318   34.9528   13.7203 H   0  0  0  0  0
   29.1458   36.2157   13.4006 H   0  0  0  0  0
   27.5490   36.2968   12.6166 H   0  0  0  0  0
   28.0762   33.4082   10.3243 H   0  0  0  0  0
   27.3151   33.3081   11.9311 H   0  0  0  0  0
   26.9239   34.6627   10.8434 H   0  0  0  0  0
   30.2289   36.3491   11.0928 H   0  0  0  0  0
   29.7555   35.1779    9.8377 H   0  0  0  0  0
   28.6024   36.4254   10.3719 H   0  0  0  0  0
  1 10  1  0  0  0
  1  3  1  0  0  0
  1  2  2  0  0  0
  3  4  1  0  0  0
  4  9  4  0  0  0
  4  5  4  0  0  0
  5  6  4  0  0  0
  6  7  4  0  0  0
  7  8  4  0  0  0
  8  9  4  0  0  0
 10 11  1  0  0  0
 11 15  4  0  0  0
 11 12  4  0  0  0
 12 13  4  0  0  0
 13 20  1  0  0  0
 13 14  4  0  0  0
 14 15  4  0  0  0
 15 16  1  0  0  0
 20 17  1  0  0  0
 20 18  1  0  0  0
 20 19  1  0  0  0
  7 21  1  0  0  0
  3 22  1  0  0  0
  5 23  1  0  0  0
  6 24  1  0  0  0
  8 25  1  0  0  0
  9 26  1  0  0  0
 10 27  1  0  0  0
 12 28  1  0  0  0
 16 29  1  0  0  0
 16 30  1  0  0  0
 16 31  1  0  0  0
 17 32  1  0  0  0
 17 33  1  0  0  0
 17 34  1  0  0  0
 18 35  1  0  0  0
 18 36  1  0  0  0
 18 37  1  0  0  0
 19 38  1  0  0  0
 19 39  1  0  0  0
 19 40  1  0  0  0
M  END
$$$$
