2pjt_ligand
  -I-interpret- 

 63 64  0  0  0  0  0  0  0  0999 V2000
   -0.7000   23.1420  142.4390 C   0  0  0  0  0
    0.4050   23.9370  141.9070 C   0  0  0  0  0
    1.3020   24.5920  141.4500 C   0  0  0  0  0
    2.3900   25.3920  140.8830 C   0  0  0  0  0
    3.6160   25.2210  141.6370 N   0  0  0  0  0
    4.8950   25.5680  141.1760 C   0  0  0  0  0
    5.1840   26.6780  140.3210 C   0  0  0  0  0
    6.5050   26.9700  139.8810 C   0  0  0  0  0
    7.5860   26.1490  140.3020 C   0  0  0  0  0
    7.3580   25.0490  141.1630 C   0  0  0  0  0
    6.0060   24.7710  141.6010 C   0  0  0  0  0
    9.2450   26.5060  139.7250 S   0  0  0  0  0
    9.1490   27.8240  139.0970 O   0  0  0  0  0
    9.6760   25.3840  138.8880 O   0  0  0  0  0
   10.3310   26.5730  141.1660 C   0  0  0  0  0
   10.6240   27.9440  141.8120 C   0  0  0  0  0
   11.2660   28.9460  140.7420 C   0  0  0  0  0
   11.8260   30.2290  141.3650 C   0  0  0  0  0
   12.8100   29.9030  142.3710 N   0  0  0  0  0
   12.3240   29.0390  143.5040 C   0  0  0  0  0
   11.6870   27.7160  142.9650 C   0  0  0  0  0
   14.1440   30.4000  142.3700 C   0  0  0  0  0
   14.5870   31.2360  141.5390 O   0  0  0  0  0
   14.8810   29.8010  143.4070 O   0  0  0  0  0
   16.3260   29.8210  143.7790 C   0  0  0  0  0
   16.7710   28.3700  143.6880 C   0  0  0  0  0
   17.1630   30.6070  142.7450 C   0  0  0  0  0
   16.5440   30.3750  145.1820 C   0  0  0  0  0
    9.3050   28.5230  142.4020 C   0  0  0  0  0
    8.7170   27.9500  143.3330 O   0  0  0  0  0
    8.8000   29.6390  141.7640 N   0  0  0  0  0
    7.6260   30.2010  142.2610 O   0  0  0  0  0
   -1.6174   23.7298  142.4066 H   0  0  0  0  0
   -0.8220   22.2423  141.8359 H   0  0  0  0  0
   -0.4819   22.8631  143.4699 H   0  0  0  0  0
    2.1037   26.4431  140.9191 H   0  0  0  0  0
    2.5641   25.0649  139.8579 H   0  0  0  0  0
    3.5437   24.8188  142.5716 H   0  0  0  0  0
    4.3657   27.3207  139.9962 H   0  0  0  0  0
    6.6873   27.8201  139.2236 H   0  0  0  0  0
    8.1866   24.4213  141.4910 H   0  0  0  0  0
    5.8291   23.9314  142.2732 H   0  0  0  0  0
   11.2971   26.2164  140.8088 H   0  0  0  0  0
    9.8136   26.0019  141.9369 H   0  0  0  0  0
   10.4757   29.2360  140.0496 H   0  0  0  0  0
   12.0952   28.4258  140.2625 H   0  0  0  0  0
   11.0121   30.7870  141.8279 H   0  0  0  0  0
   12.2958   30.8297  140.5862 H   0  0  0  0  0
   11.5677   29.5889  144.0642 H   0  0  0  0  0
   13.1723   28.7855  144.1398 H   0  0  0  0  0
   12.4935   27.1117  142.5497 H   0  0  0  0  0
   11.1677   27.2416  143.7977 H   0  0  0  0  0
   16.1835   27.7670  144.3804 H   0  0  0  0  0
   16.6202   28.0082  142.6709 H   0  0  0  0  0
   17.8272   28.2982  143.9477 H   0  0  0  0  0
   17.0634   30.1374  141.7664 H   0  0  0  0  0
   16.8037   31.6349  142.6945 H   0  0  0  0  0
   18.2102   30.6012  143.0473 H   0  0  0  0  0
   16.1640   31.3954  145.2314 H   0  0  0  0  0
   16.0138   29.7531  145.9033 H   0  0  0  0  0
   17.6096   30.3713  145.4112 H   0  0  0  0  0
    9.2722   30.0396  140.9535 H   0  0  0  0  0
    7.3878   30.9641  141.7294 H   0  0  0  0  0
  1  2  1  0  0  0
  2  3  3  0  0  0
  3  4  1  0  0  0
  4  5  1  0  0  0
  5  6  1  0  0  0
  6  7  4  0  0  0
  6 11  4  0  0  0
  7  8  4  0  0  0
  8  9  4  0  0  0
  9 10  4  0  0  0
  9 12  1  0  0  0
 10 11  4  0  0  0
 12 13  2  0  0  0
 12 14  2  0  0  0
 12 15  1  0  0  0
 15 16  1  0  0  0
 16 17  1  0  0  0
 16 21  1  0  0  0
 16 29  1  0  0  0
 17 18  1  0  0  0
 18 19  1  0  0  0
 19 20  1  0  0  0
 19 22  1  0  0  0
 20 21  1  0  0  0
 22 23  2  0  0  0
 22 24  1  0  0  0
 24 25  1  0  0  0
 25 26  1  0  0  0
 25 27  1  0  0  0
 25 28  1  0  0  0
 29 30  2  0  0  0
 29 31  1  0  0  0
 31 32  1  0  0  0
  1 33  1  0  0  0
  1 34  1  0  0  0
  1 35  1  0  0  0
  4 36  1  0  0  0
  4 37  1  0  0  0
  5 38  1  0  0  0
  7 39  1  0  0  0
  8 40  1  0  0  0
 10 41  1  0  0  0
 11 42  1  0  0  0
 15 43  1  0  0  0
 15 44  1  0  0  0
 17 45  1  0  0  0
 17 46  1  0  0  0
 18 47  1  0  0  0
 18 48  1  0  0  0
 20 49  1  0  0  0
 20 50  1  0  0  0
 21 51  1  0  0  0
 21 52  1  0  0  0
 26 53  1  0  0  0
 26 54  1  0  0  0
 26 55  1  0  0  0
 27 56  1  0  0  0
 27 57  1  0  0  0
 27 58  1  0  0  0
 28 59  1  0  0  0
 28 60  1  0  0  0
 28 61  1  0  0  0
 31 62  1  0  0  0
 32 63  1  0  0  0
M  END
$$$$
