6bqh_ligand
  -I-interpret- 

 60 64  0  0  0  0  0  0  0  0999 V2000
   39.3720   36.0920   61.6090 C   0  0  0  0  0
   38.3900   36.4230   60.8160 N   0  0  0  0  0
   37.6580   33.1830   59.1600 C   0  0  0  0  0
   38.5320   33.0770   57.9110 C   0  0  0  0  0
   38.4400   32.3630   55.6190 C   0  0  0  0  0
   38.9820   29.2000   52.9650 C   0  0  0  0  0
   38.9510   28.5140   50.6570 C   0  0  0  0  0
   39.9950   30.1130   52.6640 C   0  0  0  0  0
   37.5830   29.7420   56.5570 C   0  0  0  0  0
   38.3580   30.7490   57.4080 C   0  0  0  0  0
   38.5510   27.6570   54.9360 C   0  0  0  0  0
   38.4630   29.0230   54.3520 C   0  0  0  0  0
   39.7430   25.9840   56.1830 C   0  0  0  0  0
   36.6830   35.9650   59.1330 C   0  0  0  0  0
   37.8160   35.5320   60.0250 C   0  0  0  0  0
   38.2740   34.2290   60.0500 C   0  0  0  0  0
   39.3270   33.8770   60.8950 C   0  0  0  0  0
   39.7310   32.7230   60.9110 O   0  0  0  0  0
   39.8950   34.8290   61.7010 N   0  0  0  0  0
   40.9310   34.6640   62.5920 C   0  0  0  0  0
   41.3870   35.6880   63.3160 C   0  0  0  0  0
   40.3380   37.0280   62.7690 S   0  0  0  0  0
   37.9590   32.0970   56.9830 N   0  3  0  0  0
   37.7170   31.4340   54.6360 C   0  0  0  0  0
   37.9320   30.0080   55.1070 C   0  0  0  0  0
   39.6830   27.2560   55.6510 C   0  0  0  0  0
   38.6870   25.1010   56.0030 C   0  0  0  0  0
   37.5650   25.4910   55.2900 C   0  0  0  0  0
   37.4960   26.7610   54.7550 C   0  0  0  0  0
   38.7470   23.8570   56.5240 F   0  0  0  0  0
   38.4750   28.3930   51.9470 C   0  0  0  0  0
   39.9440   29.4340   50.3640 C   0  0  0  0  0
   40.4630   30.2330   51.3710 C   0  0  0  0  0
   40.4050   29.5500   49.0990 F   0  0  0  0  0
   37.6078   32.2235   59.6748 H   0  0  0  0  0
   36.6387   33.4606   58.8916 H   0  0  0  0  0
   39.5334   32.7569   58.1989 H   0  0  0  0  0
   38.5800   34.0500   57.4220 H   0  0  0  0  0
   39.5138   32.1822   55.5691 H   0  0  0  0  0
   38.2366   33.4012   55.3565 H   0  0  0  0  0
   38.5441   27.8835   49.8664 H   0  0  0  0  0
   40.4181   30.7337   53.4538 H   0  0  0  0  0
   36.5106   29.8525   56.7176 H   0  0  0  0  0
   37.8520   28.7224   56.8332 H   0  0  0  0  0
   39.4309   30.6118   57.2733 H   0  0  0  0  0
   38.1336   30.6034   58.4647 H   0  0  0  0  0
   40.6223   25.6717   56.7463 H   0  0  0  0  0
   36.9510   35.7816   58.0925 H   0  0  0  0  0
   35.7871   35.3973   59.3843 H   0  0  0  0  0
   36.4936   37.0285   59.2787 H   0  0  0  0  0
   41.3865   33.6806   62.7082 H   0  0  0  0  0
   42.1915   35.7034   64.0512 H   0  0  0  0  0
   36.9415   32.1675   56.9884 H   0  0  0  0  0
   38.1130   31.5649   53.6289 H   0  0  0  0  0
   36.6527   31.6674   54.6060 H   0  0  0  0  0
   40.5158   27.9457   55.7880 H   0  0  0  0  0
   36.7375   24.7952   55.1518 H   0  0  0  0  0
   36.6153   27.0654   54.1895 H   0  0  0  0  0
   37.6980   27.6622   52.1713 H   0  0  0  0  0
   41.2433   30.9585   51.1409 H   0  0  0  0  0
  2  1  2  0  0  0
  1 19  1  0  0  0
  1 22  1  0  0  0
 15  2  1  0  0  0
  3  4  1  0  0  0
 16  3  1  0  0  0
  4 23  1  0  0  0
 23  5  1  0  0  0
  5 24  1  0  0  0
  6  8  4  0  0  0
 12  6  1  0  0  0
  6 31  4  0  0  0
 31  7  4  0  0  0
  7 32  4  0  0  0
  8 33  4  0  0  0
 10  9  1  0  0  0
  9 25  1  0  0  0
 23 10  1  0  0  0
 12 11  1  0  0  0
 11 26  4  0  0  0
 11 29  4  0  0  0
 25 12  2  0  0  0
 26 13  4  0  0  0
 13 27  4  0  0  0
 15 14  1  0  0  0
 15 16  2  0  0  0
 16 17  1  0  0  0
 17 18  2  0  0  0
 17 19  1  0  0  0
 19 20  1  0  0  0
 20 21  2  0  0  0
 21 22  1  0  0  0
 24 25  1  0  0  0
 27 28  4  0  0  0
 27 30  1  0  0  0
 28 29  4  0  0  0
 32 33  4  0  0  0
 32 34  1  0  0  0
  3 35  1  0  0  0
  3 36  1  0  0  0
  4 37  1  0  0  0
  4 38  1  0  0  0
  5 39  1  0  0  0
  5 40  1  0  0  0
  7 41  1  0  0  0
  8 42  1  0  0  0
  9 43  1  0  0  0
  9 44  1  0  0  0
 10 45  1  0  0  0
 10 46  1  0  0  0
 13 47  1  0  0  0
 14 48  1  0  0  0
 14 49  1  0  0  0
 14 50  1  0  0  0
 20 51  1  0  0  0
 21 52  1  0  0  0
 23 53  1  0  0  0
 24 54  1  0  0  0
 24 55  1  0  0  0
 26 56  1  0  0  0
 28 57  1  0  0  0
 29 58  1  0  0  0
 31 59  1  0  0  0
 33 60  1  0  0  0
M  END
$$$$
