6i8t_ligand
  -I-interpret- 

 56 59  0  0  0  0  0  0  0  0999 V2000
   12.4530   23.5280   21.2240 C   0  0  0  0  0
    7.3120   21.7330   19.5360 C   0  0  0  0  0
    6.2740   22.8620   19.7110 C   0  0  0  0  0
    6.6460   20.3490   19.2490 C   0  0  0  0  0
    5.4240   22.9350   18.4850 C   0  0  0  0  0
    5.6260   20.4770   18.0720 C   0  0  0  0  0
    4.7200   21.6560   18.2530 N   0  3  0  0  0
    9.3780   21.8530   22.6960 C   0  0  0  0  0
   10.1980   22.4300   21.7600 C   0  0  0  0  0
    8.1820   21.3960   22.0800 C   0  0  0  0  0
    8.2870   21.8250   20.7140 N   0  0  0  0  0
    9.5090   22.3640   20.6110 C   0  0  0  0  0
   12.1250   24.0070   19.9930 N   0  0  0  0  0
    9.7630   21.7460   23.9790 C   0  0  0  0  0
    6.8400   21.7550   22.7200 C   0  0  0  0  0
   11.8280   22.8350   23.4460 C   0  0  0  0  0
   10.9890   22.2400   24.3870 C   0  0  0  0  0
    2.3150   21.3840   17.7490 C   0  0  0  0  0
    2.5230   23.5180   15.6760 C   0  0  0  0  0
    1.1930   21.6260   16.6960 C   0  0  0  0  0
    1.1400   23.0970   16.2060 C   0  0  0  0  0
    3.5610   23.3410   16.7920 C   0  0  0  0  0
    3.6720   21.8560   17.2310 C   0  0  0  0  0
    9.8910   22.8140   19.5360 O   0  0  0  0  0
   11.4510   22.9460   22.0950 C   0  0  0  0  0
   13.6410   23.5280   21.5720 O   0  0  0  0  0
    7.9097   21.8549   18.6327 H   0  0  0  0  0
    6.7862   23.8125   19.8604 H   0  0  0  0  0
    5.6491   22.6555   20.5799 H   0  0  0  0  0
    6.1203   20.0130   20.1428 H   0  0  0  0  0
    7.4186   19.6302   18.9760 H   0  0  0  0  0
    6.0637   23.1432   17.6273 H   0  0  0  0  0
    4.6831   23.7232   18.6190 H   0  0  0  0  0
    5.0155   19.5744   18.0458 H   0  0  0  0  0
    6.1844   20.6109   17.1455 H   0  0  0  0  0
    4.2359   21.3781   19.1067 H   0  0  0  0  0
    8.1346   20.3143   22.2059 H   0  0  0  0  0
   12.8536   24.3592   19.3720 H   0  0  0  0  0
   11.1506   24.0138   19.6914 H   0  0  0  0  0
    9.1046   21.2665   24.7034 H   0  0  0  0  0
    6.8016   21.3506   23.7315 H   0  0  0  0  0
    6.7349   22.8393   22.7566 H   0  0  0  0  0
    6.0306   21.3300   22.1264 H   0  0  0  0  0
   12.7962   23.2223   23.7635 H   0  0  0  0  0
   11.2950   22.1650   25.4305 H   0  0  0  0  0
    2.3742   20.3151   17.9541 H   0  0  0  0  0
    2.0725   21.9467   18.6505 H   0  0  0  0  0
    2.4944   24.5617   15.3629 H   0  0  0  0  0
    2.7932   22.8981   14.8211 H   0  0  0  0  0
    0.2371   21.3949   17.1660 H   0  0  0  0  0
    1.4010   20.9929   15.8334 H   0  0  0  0  0
    0.4046   23.1850   15.4063 H   0  0  0  0  0
    0.8591   23.7445   17.0366 H   0  0  0  0  0
    3.2497   23.9341   17.6519 H   0  0  0  0  0
    4.5318   23.6648   16.4167 H   0  0  0  0  0
    3.9625   21.2626   16.3641 H   0  0  0  0  0
  1 13  1  0  0  0
 25  1  1  0  0  0
  1 26  2  0  0  0
  3  2  1  0  0  0
  4  2  1  0  0  0
  2 11  1  0  0  0
  5  3  1  0  0  0
  6  4  1  0  0  0
  7  5  1  0  0  0
  7  6  1  0  0  0
 23  7  1  0  0  0
  9  8  4  0  0  0
 10  8  1  0  0  0
  8 14  4  0  0  0
 12  9  1  0  0  0
  9 25  4  0  0  0
 11 10  1  0  0  0
 10 15  1  0  0  0
 11 12  1  0  0  0
 12 24  2  0  0  0
 14 17  4  0  0  0
 16 17  4  0  0  0
 25 16  4  0  0  0
 20 18  1  0  0  0
 18 23  1  0  0  0
 21 19  1  0  0  0
 19 22  1  0  0  0
 20 21  1  0  0  0
 22 23  1  0  0  0
  2 27  1  0  0  0
  3 28  1  0  0  0
  3 29  1  0  0  0
  4 30  1  0  0  0
  4 31  1  0  0  0
  5 32  1  0  0  0
  5 33  1  0  0  0
  6 34  1  0  0  0
  6 35  1  0  0  0
  7 36  1  0  0  0
 10 37  1  0  0  0
 13 38  1  0  0  0
 13 39  1  0  0  0
 14 40  1  0  0  0
 15 41  1  0  0  0
 15 42  1  0  0  0
 15 43  1  0  0  0
 16 44  1  0  0  0
 17 45  1  0  0  0
 18 46  1  0  0  0
 18 47  1  0  0  0
 19 48  1  0  0  0
 19 49  1  0  0  0
 20 50  1  0  0  0
 20 51  1  0  0  0
 21 52  1  0  0  0
 21 53  1  0  0  0
 22 54  1  0  0  0
 22 55  1  0  0  0
 23 56  1  0  0  0
M  END
$$$$
