2y55_ligand
  -I-interpret- 

 22 22  0  0  0  0  0  0  0  0999 V2000
   -3.2180   -3.6670   38.3640 O   0  0  0  0  0
   -2.2710   -2.8930   38.5760 C   0  0  0  0  0
   -1.1750   -3.2170   39.2690 N   0  0  0  0  0
   -0.8830   -4.5040   39.8820 C   0  0  0  0  0
    0.5220   -4.9680   39.2630 B   0  0  0  0  0
   -2.2380   -1.4850   38.0240 C   0  0  0  0  0
   -1.5710   -1.7480   36.7120 C   0  0  0  0  0
   -2.3020   -2.3310   35.6820 C   0  0  0  0  0
   -1.6810   -2.5960   34.4610 C   0  0  0  0  0
   -0.3170   -2.3220   34.3040 C   0  0  0  0  0
    0.4160   -1.7550   35.3590 C   0  0  0  0  0
   -0.2190   -1.4680   36.5630 C   0  0  0  0  0
   -0.4710   -2.4872   39.3795 H   0  0  0  0  0
   -1.6686   -5.2309   39.6758 H   0  0  0  0  0
   -0.8335   -4.4259   40.9681 H   0  0  0  0  0
   -1.7256   -0.7606   38.6571 H   0  0  0  0  0
   -3.2129   -1.0031   37.9496 H   0  0  0  0  0
   -3.3533   -2.5792   35.8279 H   0  0  0  0  0
   -2.2547   -3.0141   33.6338 H   0  0  0  0  0
    0.1776   -2.5496   33.3597 H   0  0  0  0  0
    1.4775   -1.5408   35.2351 H   0  0  0  0  0
    0.3422   -1.0253   37.3859 H   0  0  0  0  0
  1  2  2  0  0  0
  2  3  1  0  0  0
  2  6  1  0  0  0
  3  4  1  0  0  0
  4  5  1  0  0  0
  6  7  1  0  0  0
  7  8  4  0  0  0
  7 12  4  0  0  0
  8  9  4  0  0  0
  9 10  4  0  0  0
 10 11  4  0  0  0
 11 12  4  0  0  0
  3 13  1  0  0  0
  4 14  1  0  0  0
  4 15  1  0  0  0
  6 16  1  0  0  0
  6 17  1  0  0  0
  8 18  1  0  0  0
  9 19  1  0  0  0
 10 20  1  0  0  0
 11 21  1  0  0  0
 12 22  1  0  0  0
M  END
$$$$
