### 
### Created by X-TOOL on Mon Sep 10 21:13:06 2018
### 

@<TRIPOS>MOLECULE
2y55_ligand
   22    22     1     0     0
SMALL
GAST_HUCK


@<TRIPOS>ATOM
      1 O6         -3.2180   -3.6670   38.3640 O.2       1 FP5        -0.3966
      2 C5         -2.2710   -2.8930   38.5760 C.2       1 FP5         0.1591
      3 N4         -1.1750   -3.2170   39.2690 N.am      1 FP5        -0.4393
      4 C3         -0.8830   -4.5040   39.8820 C.3       1 FP5        -0.2407
      5 B           0.5220   -4.9680   39.2630 B         1 FP5         1.0000
      6 C7         -2.2380   -1.4850   38.0240 C.3       1 FP5         0.0679
      7 CG         -1.5710   -1.7480   36.7120 C.ar      1 FP5        -0.0244
      8 CD2        -2.3020   -2.3310   35.6820 C.ar      1 FP5        -0.0580
      9 CE2        -1.6810   -2.5960   34.4610 C.ar      1 FP5        -0.0681
     10 CZ         -0.3170   -2.3220   34.3040 C.ar      1 FP5        -0.0684
     11 CE1         0.4160   -1.7550   35.3590 C.ar      1 FP5        -0.0681
     12 CD1        -0.2190   -1.4680   36.5630 C.ar      1 FP5        -0.0580
     13 H          -0.4710   -2.4872   39.3795 H         1 FP5         0.1458
     14 H          -1.6686   -5.2309   39.6758 H         1 FP5        -0.1856
     15 H          -0.8335   -4.4259   40.9681 H         1 FP5        -0.1856
     16 H          -1.7256   -0.7606   38.6571 H         1 FP5         0.0658
     17 H          -3.2129   -1.0031   37.9496 H         1 FP5         0.0658
     18 H          -3.3533   -2.5792   35.8279 H         1 FP5         0.0561
     19 H          -2.2547   -3.0141   33.6338 H         1 FP5         0.0600
     20 H           0.1776   -2.5496   33.3597 H         1 FP5         0.0561
     21 H           1.4775   -1.5408   35.2351 H         1 FP5         0.0600
     22 H           0.3422   -1.0253   37.3859 H         1 FP5         0.0561
@<TRIPOS>BOND
     1    1    2 2  
     2    2    3 am 
     3    2    6 1  
     4    3    4 1  
     5    4    5 1  
     6    6    7 1  
     7    7    8 ar 
     8    7   12 ar 
     9    8    9 ar 
    10    9   10 ar 
    11   10   11 ar 
    12   11   12 ar 
    13    3   13 1  
    14    4   14 1  
    15    4   15 1  
    16    6   16 1  
    17    6   17 1  
    18    8   18 1  
    19    9   19 1  
    20   10   20 1  
    21   11   21 1  
    22   12   22 1  
@<TRIPOS>SUBSTRUCTURE
     1 FP5         1

