### 
### Created by X-TOOL on Mon Sep 10 21:13:23 2018
### 

@<TRIPOS>MOLECULE
4wz4_ligand
   36    38     1     0     0
SMALL
GAST_HUCK


@<TRIPOS>ATOM
      1 C1         -6.6170  -12.4840   19.3580 C.ar      1 3VU        -0.0550
      2 C2         -6.4610  -13.8300   19.6830 C.ar      1 3VU         0.0847
      3 C3         -5.2160  -14.4560   19.7150 C.ar      1 3VU        -0.0288
      4 O4         -5.7120  -10.3280   16.9990 O.3       1 3VU        -0.8710
      5 C7         -2.6930  -11.6950   17.1130 C.3       1 3VU        -0.0059
      6 C8         -1.8490  -10.5800   16.5190 C.2       1 3VU         0.0353
      7 C9         -2.7040  -14.3270   19.3830 C.3       1 3VU        -0.0413
      8 C10        -5.0890  -15.9250   20.0520 C.3       1 3VU        -0.0400
      9 C11        -8.5190  -14.8380   19.0760 C.2       1 3VU         0.1300
     10 C12       -10.3010  -15.6780   18.1610 C.2       1 3VU         0.0216
     11 O1         -0.9840   -9.9990   17.2580 O.co2     1 3VU        -0.5689
     12 O2         -2.0680  -10.2520   15.3540 O.co2     1 3VU        -0.5689
     13 C6         -3.2060  -11.3890   18.5180 C.3       1 3VU        -0.0922
     14 O          -3.8930  -10.1200   18.5660 O.3       1 3VU        -0.8444
     15 B          -5.2470  -10.3440   18.2890 B         1 3VU         3.0000
     16 C5         -4.2620  -12.3500   19.0260 C.ar      1 3VU        -0.0745
     17 C          -5.5000  -11.6920   19.0330 C.ar      1 3VU        -0.0616
     18 C4         -4.0790  -13.6970   19.3860 C.ar      1 3VU        -0.0605
     19 O3         -7.6080  -14.5770   20.0540 O.3       1 3VU        -0.2942
     20 S          -8.4670  -14.2210   17.4320 S.3       1 3VU        -0.0998
     21 N1         -9.8780  -15.0050   17.0800 N.2       1 3VU        -0.4111
     22 N          -9.5940  -15.5950   19.3020 N.2       1 3VU        -0.3727
     23 N2        -11.4150  -16.4110   18.1240 N.pl3     1 3VU        -0.3480
     24 H          -7.6073  -12.0431   19.3555 H         1 3VU         0.0403
     25 H          -6.6468  -10.4975   16.9984 H         1 3VU        -0.1290
     26 H          -2.0818  -12.6085   17.1570 H         1 3VU         0.0437
     27 H          -3.5586  -11.8642   16.4557 H         1 3VU         0.0437
     28 H          -2.7822  -15.3793   19.6936 H         1 3VU         0.0353
     29 H          -2.0510  -13.7856   20.0833 H         1 3VU         0.0353
     30 H          -2.2788  -14.2744   18.3699 H         1 3VU         0.0353
     31 H          -6.0836  -16.3364   20.2790 H         1 3VU         0.0345
     32 H          -4.4340  -16.0451   20.9275 H         1 3VU         0.0345
     33 H          -4.6572  -16.4619   19.1946 H         1 3VU         0.0345
     34 H          -2.3448  -11.3859   19.2023 H         1 3VU         0.0243
     35 H         -11.9593  -16.4771   17.2520 H         1 3VU         0.1672
     36 H         -11.7308  -16.9109   18.9674 H         1 3VU         0.1672
@<TRIPOS>BOND
     1    1    2 ar 
     2   17    1 ar 
     3    2    3 ar 
     4    2   19 1  
     5    3    8 1  
     6    3   18 ar 
     7   15    4 1  
     8    5    6 1  
     9   13    5 1  
    10    6   11 ar 
    11    6   12 ar 
    12   18    7 1  
    13   19    9 1  
    14    9   20 1  
    15    9   22 2  
    16   10   21 2  
    17   22   10 1  
    18   10   23 1  
    19   14   13 1  
    20   13   16 1  
    21   15   14 1  
    22   15   17 1  
    23   16   17 ar 
    24   16   18 ar 
    25   20   21 1  
    26    1   24 1  
    27    4   25 1  
    28    5   26 1  
    29    5   27 1  
    30    7   28 1  
    31    7   29 1  
    32    7   30 1  
    33    8   31 1  
    34    8   32 1  
    35    8   33 1  
    36   13   34 1  
    37   23   35 1  
    38   23   36 1  
@<TRIPOS>SUBSTRUCTURE
     1 3VU         1

