4wz4_ligand
  -I-interpret- 

 37 39  0  0  0  0  0  0  0  0999 V2000
   -6.6170  -12.4840   19.3580 C   0  0  0  0  0
   -6.4610  -13.8300   19.6830 C   0  0  0  0  0
   -5.2160  -14.4560   19.7150 C   0  0  0  0  0
   -5.7120  -10.3280   16.9990 O   0  0  0  0  0
   -2.6930  -11.6950   17.1130 C   0  0  0  0  0
   -1.8490  -10.5800   16.5190 C   0  0  0  0  0
   -2.7040  -14.3270   19.3830 C   0  0  0  0  0
   -5.0890  -15.9250   20.0520 C   0  0  0  0  0
   -8.5190  -14.8380   19.0760 C   0  0  0  0  0
  -10.3010  -15.6780   18.1610 C   0  0  0  0  0
   -0.9840   -9.9990   17.2580 O   0  0  0  0  0
   -2.0680  -10.2520   15.3540 O   0  0  0  0  0
   -3.2060  -11.3890   18.5180 C   0  0  0  0  0
   -3.8930  -10.1200   18.5660 O   0  0  0  0  0
   -5.2470  -10.3440   18.2890 B   0  0  0  0  0
   -4.2620  -12.3500   19.0260 C   0  0  0  0  0
   -5.5000  -11.6920   19.0330 C   0  0  0  0  0
   -4.0790  -13.6970   19.3860 C   0  0  0  0  0
   -7.6080  -14.5770   20.0540 O   0  0  0  0  0
   -8.4670  -14.2210   17.4320 S   0  0  0  0  0
   -9.8780  -15.0050   17.0800 N   0  0  0  0  0
   -9.5940  -15.5950   19.3020 N   0  0  0  0  0
  -11.4150  -16.4110   18.1240 N   0  0  0  0  0
   -7.6128  -12.0407   19.3555 H   0  0  0  0  0
   -6.6566  -10.4993   16.9984 H   0  0  0  0  0
   -2.0630  -12.5820   17.1805 H   0  0  0  0  0
   -3.5622  -11.8264   16.4686 H   0  0  0  0  0
   -2.4787  -14.7091   20.3786 H   0  0  0  0  0
   -2.6828  -15.1464   18.6645 H   0  0  0  0  0
   -1.9631  -13.5779   19.1037 H   0  0  0  0  0
   -5.4879  -16.1032   21.0506 H   0  0  0  0  0
   -5.6496  -16.5130   19.3252 H   0  0  0  0  0
   -4.0384  -16.2138   20.0221 H   0  0  0  0  0
   -0.9763  -10.4117   18.1247 H   0  0  0  0  0
   -2.2970  -11.4372   19.1176 H   0  0  0  0  0
  -11.9606  -16.4666   17.2640 H   0  0  0  0  0
  -11.7212  -16.9159   18.9557 H   0  0  0  0  0
  1  2  4  0  0  0
 17  1  4  0  0  0
  2  3  4  0  0  0
  2 19  1  0  0  0
  3  8  1  0  0  0
  3 18  4  0  0  0
 15  4  1  0  0  0
  5  6  1  0  0  0
 13  5  1  0  0  0
  6 11  1  0  0  0
  6 12  2  0  0  0
 18  7  1  0  0  0
 19  9  1  0  0  0
  9 20  4  0  0  0
  9 22  4  0  0  0
 10 21  4  0  0  0
 22 10  4  0  0  0
 10 23  1  0  0  0
 14 13  1  0  0  0
 13 16  1  0  0  0
 15 14  1  0  0  0
 15 17  1  0  0  0
 16 17  4  0  0  0
 16 18  4  0  0  0
 20 21  4  0  0  0
  1 24  1  0  0  0
  4 25  1  0  0  0
  5 26  1  0  0  0
  5 27  1  0  0  0
  7 28  1  0  0  0
  7 29  1  0  0  0
  7 30  1  0  0  0
  8 31  1  0  0  0
  8 32  1  0  0  0
  8 33  1  0  0  0
 11 34  1  0  0  0
 13 35  1  0  0  0
 23 36  1  0  0  0
 23 37  1  0  0  0
M  END
$$$$
