4bky_ligand
  -I-interpret- 

 66 71  0  0  0  0  0  0  0  0999 V2000
   15.5470    9.6500    8.8210 O   0  0  0  0  0
   15.0570    9.8760    7.7200 C   0  0  0  0  0
   14.1390   10.8320    7.5760 N   0  0  0  0  0
   13.5530   11.5350    8.7050 C   0  0  0  0  0
   14.4290   12.6650    9.1020 C   0  0  0  0  0
   14.7710   13.6590    8.1750 C   0  0  0  0  0
   15.5670   14.7270    8.5810 C   0  0  0  0  0
   16.0260   14.8110    9.8970 C   0  0  0  0  0
   15.6830   13.8200   10.8210 C   0  0  0  0  0
   14.8770   12.7540   10.4230 C   0  0  0  0  0
   12.1830   12.0280    8.2350 C   0  0  0  0  0
   11.3770   12.7450    9.2310 N   0  3  0  0  0
   10.0690   12.2200    9.5920 C   0  0  0  0  0
    9.4070   13.4090   10.2790 C   0  0  0  0  0
   10.3600   14.6020   10.1690 C   0  0  0  0  0
   11.7310   14.0520    9.7890 C   0  0  0  0  0
   15.3600    9.1870    6.6120 N   0  0  0  0  0
   16.0770    7.8930    6.6130 C   0  0  0  0  0
   17.5000    8.0580    7.1760 C   0  0  0  0  0
   16.6830    6.8600    7.6270 C   0  0  0  0  0
   14.8250    9.5310    5.2560 C   0  0  0  0  0
   15.2920    8.3720    4.4120 C   0  0  0  0  0
   16.1060    7.5240    5.1910 C   0  0  0  0  0
   16.5060    6.4270    4.5290 N   0  0  0  0  0
   15.3460    7.7730    3.1630 C   0  0  0  0  0
   16.0410    6.6030    3.2030 N   0  0  0  0  0
   14.7310    8.1660    1.9980 N   0  0  0  0  0
   13.9170    9.2160    1.9060 C   0  0  0  0  0
   13.6860    9.9570    2.8430 O   0  0  0  0  0
   13.3030    9.5270    0.5870 C   0  0  0  0  0
   12.3820   10.5000    0.3530 N   0  0  0  0  0
   11.8010   11.4420    1.3430 C   0  0  0  0  0
   12.0400   10.5150   -0.9410 C   0  0  0  0  0
   12.7900    9.5110   -1.4730 C   0  0  0  0  0
   12.7110    9.0620   -3.3960 Br  0  0  0  0  0
   13.5970    8.8480   -0.5900 C   0  0  0  0  0
   13.8353   11.0803    6.6344 H   0  0  0  0  0
   13.4479   10.8925    9.5792 H   0  0  0  0  0
   14.4172   13.5966    7.1459 H   0  0  0  0  0
   15.8341   15.5043    7.8651 H   0  0  0  0  0
   16.6517   15.6492   10.2037 H   0  0  0  0  0
   16.0438   13.8801   11.8478 H   0  0  0  0  0
   14.5953   11.9873   11.1447 H   0  0  0  0  0
   11.6144   11.1378    7.9662 H   0  0  0  0  0
   12.3740   12.7371    7.4296 H   0  0  0  0  0
   12.2498   12.3967    9.6276 H   0  0  0  0  0
   10.1267   11.3386   10.2307 H   0  0  0  0  0
    9.5047   11.8579    8.7326 H   0  0  0  0  0
    9.2076   13.1788   11.3256 H   0  0  0  0  0
    8.4545   13.6399    9.8019 H   0  0  0  0  0
   10.4116   15.1401   11.1155 H   0  0  0  0  0
   10.0072   15.3064    9.4157 H   0  0  0  0  0
   12.2794   14.6887    9.0948 H   0  0  0  0  0
   12.4258   13.9950   10.6269 H   0  0  0  0  0
   18.0936    8.8457    7.6400 H   0  0  0  0  0
   18.5005    8.2471    6.7870 H   0  0  0  0  0
   16.7978    5.7807    7.7269 H   0  0  0  0  0
   16.4027    6.3619    8.5551 H   0  0  0  0  0
   15.1808   10.4941    4.8902 H   0  0  0  0  0
   13.7422    9.6560    5.2451 H   0  0  0  0  0
   14.9086    7.6212    1.1542 H   0  0  0  0  0
   11.2889   10.8778    2.1224 H   0  0  0  0  0
   12.5985   12.0370    1.7879 H   0  0  0  0  0
   11.0906   12.1003    0.8428 H   0  0  0  0  0
   11.3323   11.1720   -1.4465 H   0  0  0  0  0
   14.2813    8.0171   -0.7616 H   0  0  0  0  0
  1  2  2  0  0  0
  2  3  1  0  0  0
  2 17  1  0  0  0
  3  4  1  0  0  0
  4  5  1  0  0  0
  4 11  1  0  0  0
  5  6  4  0  0  0
  5 10  4  0  0  0
  6  7  4  0  0  0
  7  8  4  0  0  0
  8  9  4  0  0  0
  9 10  4  0  0  0
 11 12  1  0  0  0
 12 13  1  0  0  0
 12 16  1  0  0  0
 13 14  1  0  0  0
 14 15  1  0  0  0
 15 16  1  0  0  0
 17 18  1  0  0  0
 17 21  1  0  0  0
 18 19  1  0  0  0
 18 20  1  0  0  0
 18 23  1  0  0  0
 19 20  1  0  0  0
 21 22  1  0  0  0
 22 23  4  0  0  0
 22 25  4  0  0  0
 23 24  4  0  0  0
 24 26  4  0  0  0
 25 26  4  0  0  0
 25 27  1  0  0  0
 27 28  1  0  0  0
 28 29  2  0  0  0
 28 30  1  0  0  0
 30 31  4  0  0  0
 30 36  4  0  0  0
 31 32  1  0  0  0
 31 33  4  0  0  0
 33 34  4  0  0  0
 34 35  1  0  0  0
 34 36  4  0  0  0
  3 37  1  0  0  0
  4 38  1  0  0  0
  6 39  1  0  0  0
  7 40  1  0  0  0
  8 41  1  0  0  0
  9 42  1  0  0  0
 10 43  1  0  0  0
 11 44  1  0  0  0
 11 45  1  0  0  0
 12 46  1  0  0  0
 13 47  1  0  0  0
 13 48  1  0  0  0
 14 49  1  0  0  0
 14 50  1  0  0  0
 15 51  1  0  0  0
 15 52  1  0  0  0
 16 53  1  0  0  0
 16 54  1  0  0  0
 19 55  1  0  0  0
 19 56  1  0  0  0
 20 57  1  0  0  0
 20 58  1  0  0  0
 21 59  1  0  0  0
 21 60  1  0  0  0
 27 61  1  0  0  0
 32 62  1  0  0  0
 32 63  1  0  0  0
 32 64  1  0  0  0
 33 65  1  0  0  0
 36 66  1  0  0  0
M  END
$$$$
