1zd5_ligand
  -I-interpret- 

 45 45  0  0  0  0  0  0  0  0999 V2000
  -17.9510  -10.0790   67.0620 C   0  0  0  0  0
  -18.4930   -8.9740   66.2480 N   0  0  0  0  0
  -17.8940   -8.5860   65.0710 C   0  0  0  0  0
  -18.3350   -7.4330   64.4890 N   0  0  0  0  0
  -17.4680   -6.9930   63.4290 C   0  0  0  0  0
  -17.8250   -7.3860   61.9880 C   0  0  0  0  0
  -16.5710   -6.8340   61.3630 C   0  0  0  0  0
  -16.2610   -6.8480   59.8890 C   0  0  0  0  0
  -14.8580   -6.2520   60.0770 C   0  0  0  0  0
  -16.9180   -9.1450   64.6460 O   0  0  0  0  0
  -13.9420   -5.9930   58.9100 C   0  0  0  0  0
  -12.5890   -5.4870   59.4360 C   0  0  0  0  0
  -11.7690   -5.2300   58.4120 O   0  0  0  0  0
  -12.2380   -5.3120   60.6100 O   0  0  0  0  0
  -17.6440   -9.5840   68.4900 C   0  0  0  0  0
  -17.1070  -10.7260   69.3840 C   0  0  0  0  0
  -18.0920  -11.9230   69.4270 C   0  0  0  0  0
  -18.4540  -12.4130   68.0040 C   0  0  0  0  0
  -18.9870  -11.2460   67.1280 C   0  0  0  0  0
  -17.0303  -10.4363   66.6008 H   0  0  0  0  0
  -19.3310   -8.4864   66.5649 H   0  0  0  0  0
  -19.1817   -6.9402   64.7729 H   0  0  0  0  0
  -16.5078   -7.4693   63.6270 H   0  0  0  0  0
  -17.5178   -5.9044   63.4505 H   0  0  0  0  0
  -18.7717   -7.0112   61.5988 H   0  0  0  0  0
  -18.0394   -8.4392   61.8068 H   0  0  0  0  0
  -15.8012   -7.4906   61.7684 H   0  0  0  0  0
  -16.6575   -5.7677   61.5719 H   0  0  0  0  0
  -16.9484   -6.3321   59.2186 H   0  0  0  0  0
  -16.3450   -7.7970   59.3594 H   0  0  0  0  0
  -14.3309   -7.0114   60.6545 H   0  0  0  0  0
  -15.0524   -5.2571   60.4775 H   0  0  0  0  0
  -14.3850   -5.2425   58.2553 H   0  0  0  0  0
  -13.7953   -6.9148   58.3471 H   0  0  0  0  0
  -12.2182   -5.4267   57.5867 H   0  0  0  0  0
  -18.5671   -9.2067   68.9300 H   0  0  0  0  0
  -16.8824   -8.8066   68.4292 H   0  0  0  0  0
  -16.9835  -10.3432   70.3971 H   0  0  0  0  0
  -16.1597  -11.0723   68.9708 H   0  0  0  0  0
  -19.0068  -11.5990   69.9232 H   0  0  0  0  0
  -17.6146  -12.7433   69.9630 H   0  0  0  0  0
  -19.2323  -13.1719   68.0844 H   0  0  0  0  0
  -17.5566  -12.8180   67.5362 H   0  0  0  0  0
  -19.1609  -11.6174   66.1181 H   0  0  0  0  0
  -19.9101  -10.8702   67.5693 H   0  0  0  0  0
  1  2  1  0  0  0
  1 15  1  0  0  0
  1 19  1  0  0  0
  2  3  1  0  0  0
  3  4  1  0  0  0
  3 10  2  0  0  0
  4  5  1  0  0  0
  5  6  1  0  0  0
  6  7  1  0  0  0
  7  8  1  0  0  0
  8  9  1  0  0  0
  9 11  1  0  0  0
 11 12  1  0  0  0
 12 13  1  0  0  0
 12 14  2  0  0  0
 15 16  1  0  0  0
 16 17  1  0  0  0
 17 18  1  0  0  0
 18 19  1  0  0  0
  1 20  1  0  0  0
  2 21  1  0  0  0
  4 22  1  0  0  0
  5 23  1  0  0  0
  5 24  1  0  0  0
  6 25  1  0  0  0
  6 26  1  0  0  0
  7 27  1  0  0  0
  7 28  1  0  0  0
  8 29  1  0  0  0
  8 30  1  0  0  0
  9 31  1  0  0  0
  9 32  1  0  0  0
 11 33  1  0  0  0
 11 34  1  0  0  0
 13 35  1  0  0  0
 15 36  1  0  0  0
 15 37  1  0  0  0
 16 38  1  0  0  0
 16 39  1  0  0  0
 17 40  1  0  0  0
 17 41  1  0  0  0
 18 42  1  0  0  0
 18 43  1  0  0  0
 19 44  1  0  0  0
 19 45  1  0  0  0
M  END
$$$$
