4bo2_ligand
  -I-interpret- 

 41 43  0  0  0  0  0  0  0  0999 V2000
    9.6790  102.0330  183.2980 C   0  0  0  0  0
   10.1140  102.8690  182.0550 C   0  0  0  0  0
   11.0720  103.9870  182.4300 N   0  0  0  0  0
   12.3720  103.8540  182.1710 C   0  0  0  0  0
   13.0320  102.8810  181.6140 C   0  0  0  0  0
   14.3840  103.0300  181.4430 C   0  0  0  0  0
   15.0590  104.1400  181.8750 C   0  0  0  0  0
   14.3210  105.1110  182.4450 C   0  0  0  0  0
   13.0320  104.9460  182.5680 C   0  0  0  0  0
   12.1820  105.7740  183.0780 N   0  0  0  0  0
   10.9830  105.1820  183.0160 C   0  0  0  0  0
    9.9230  105.8420  183.4990 N   0  0  0  0  0
    8.7560  105.2200  183.7510 C   0  0  0  0  0
    8.5510  104.0200  183.5220 O   0  0  0  0  0
    7.8240  106.0230  184.2880 N   0  0  0  0  0
    8.1260  107.3120  184.4550 C   0  0  0  0  0
    9.3040  107.8840  184.0420 C   0  0  0  0  0
    9.5030  109.2340  184.2590 C   0  0  0  0  0
    8.5240  110.0140  184.8880 C   0  0  0  0  0
    7.3360  109.4460  185.3150 C   0  0  0  0  0
    7.1660  108.0850  185.0770 C   0  0  0  0  0
    6.0550  107.4230  185.4450 O   0  0  0  0  0
    6.3880  106.0190  185.5130 C   0  0  0  0  0
   10.5595  101.5875  183.7608 H   0  0  0  0  0
    9.1799  102.6842  184.0156 H   0  0  0  0  0
    8.9946  101.2453  182.9830 H   0  0  0  0  0
    9.2225  103.3164  181.6154 H   0  0  0  0  0
   10.6222  102.2037  181.3569 H   0  0  0  0  0
   12.5238  101.9721  181.2921 H   0  0  0  0  0
   14.9414  102.2365  180.9454 H   0  0  0  0  0
   16.1393  104.2329  181.7631 H   0  0  0  0  0
   14.7951  106.0259  182.8003 H   0  0  0  0  0
   10.0017  106.8426  183.6808 H   0  0  0  0  0
    6.9112  105.6584  184.5606 H   0  0  0  0  0
   10.0695  107.2830  183.5511 H   0  0  0  0  0
   10.4347  109.6986  183.9363 H   0  0  0  0  0
    8.6994  111.0786  185.0427 H   0  0  0  0  0
    6.5688  110.0374  185.8147 H   0  0  0  0  0
    6.7275  105.6796  184.5344 H   0  0  0  0  0
    7.1810  105.8701  186.2459 H   0  0  0  0  0
    5.5059  105.4516  185.8098 H   0  0  0  0  0
  1  2  1  0  0  0
  2  3  1  0  0  0
  3  4  4  0  0  0
  3 11  4  0  0  0
  4  5  4  0  0  0
  4  9  4  0  0  0
  5  6  4  0  0  0
  6  7  4  0  0  0
  7  8  4  0  0  0
  8  9  4  0  0  0
  9 10  4  0  0  0
 10 11  4  0  0  0
 11 12  1  0  0  0
 12 13  1  0  0  0
 13 14  2  0  0  0
 13 15  1  0  0  0
 15 16  1  0  0  0
 16 17  4  0  0  0
 16 21  4  0  0  0
 17 18  4  0  0  0
 18 19  4  0  0  0
 19 20  4  0  0  0
 20 21  4  0  0  0
 21 22  1  0  0  0
 22 23  1  0  0  0
  1 24  1  0  0  0
  1 25  1  0  0  0
  1 26  1  0  0  0
  2 27  1  0  0  0
  2 28  1  0  0  0
  5 29  1  0  0  0
  6 30  1  0  0  0
  7 31  1  0  0  0
  8 32  1  0  0  0
 12 33  1  0  0  0
 15 34  1  0  0  0
 17 35  1  0  0  0
 18 36  1  0  0  0
 19 37  1  0  0  0
 20 38  1  0  0  0
 23 39  1  0  0  0
 23 40  1  0  0  0
 23 41  1  0  0  0
M  END
$$$$
