4emv_ligand
  -I-interpret- 

 46 49  0  0  0  0  0  0  0  0999 V2000
   19.3020   34.4080    1.7060 C   0  0  0  0  0
   19.1460   32.9100    1.7140 C   0  0  0  0  0
   18.0210   32.5050    2.5230 N   0  0  0  0  0
   18.1310   31.3880    3.3110 C   0  0  0  0  0
   19.1160   30.6600    3.3010 O   0  0  0  0  0
   17.0040   31.1430    4.1680 C   0  0  0  0  0
   16.7720   30.0420    4.9680 C   0  0  0  0  0
   15.5430   30.2160    5.6570 C   0  0  0  0  0
   14.7890   29.4870    6.5670 C   0  0  0  0  0
   13.5940   30.0230    7.0240 C   0  0  0  0  0
   13.2400   31.2540    6.5240 C   0  0  0  0  0
   13.9170   32.0040    5.6490 N   0  0  0  0  0
   15.0540   31.4390    5.2500 C   0  0  0  0  0
   15.9390   31.9860    4.3590 N   0  0  0  0  0
   12.6860   29.3700    7.9540 C   0  0  0  0  0
   12.0730   30.0370    9.0020 C   0  0  0  0  0
   11.1950   29.3530    9.8230 C   0  0  0  0  0
   10.9700   28.0210    9.5560 C   0  0  0  0  0
   11.5330   27.3320    8.5620 N   0  0  0  0  0
   12.3670   28.0370    7.7900 C   0  0  0  0  0
   10.4890   29.9760   10.9660 C   0  0  0  0  0
   10.6020   31.2200   11.1350 O   0  0  0  0  0
    9.8040   29.1960   11.6870 O   0  0  0  0  0
   15.2480   28.2520    7.0210 N   0  0  0  0  0
   15.5640   27.1720    6.2460 C   0  0  0  0  0
   15.8980   26.1700    7.1260 C   0  0  0  0  0
   15.7540   26.7510    8.4080 C   0  0  0  0  0
   15.3580   28.0230    8.3400 N   0  0  0  0  0
   15.9800   26.1310    9.7180 C   0  0  0  0  0
   16.3130   24.8190    9.5880 F   0  0  0  0  0
   16.9730   26.7430   10.4120 F   0  0  0  0  0
   14.8670   26.1980   10.4970 F   0  0  0  0  0
   18.3993   34.8639    1.2994 H   0  0  0  0  0
   19.4615   34.7609    2.7249 H   0  0  0  0  0
   20.1578   34.6796    1.0880 H   0  0  0  0  0
   20.0509   32.4688    2.1318 H   0  0  0  0  0
   18.9776   32.5729    0.6912 H   0  0  0  0  0
   17.1547   33.0432    2.5087 H   0  0  0  0  0
   17.4284   29.1763    5.0566 H   0  0  0  0  0
   12.2971   31.6664    6.8832 H   0  0  0  0  0
   12.2810   31.0924    9.1781 H   0  0  0  0  0
   10.2778   27.4879   10.2077 H   0  0  0  0  0
   12.8364   27.5126    6.9576 H   0  0  0  0  0
    9.8819   28.3002   11.3508 H   0  0  0  0  0
   15.5535   27.1165    5.1575 H   0  0  0  0  0
   16.2060   25.1518    6.8883 H   0  0  0  0  0
  1  2  1  0  0  0
  2  3  1  0  0  0
  3  4  1  0  0  0
  4  5  2  0  0  0
  4  6  1  0  0  0
  6  7  4  0  0  0
  6 14  4  0  0  0
  7  8  4  0  0  0
  8  9  4  0  0  0
  8 13  4  0  0  0
  9 10  4  0  0  0
  9 24  1  0  0  0
 10 11  4  0  0  0
 10 15  1  0  0  0
 11 12  4  0  0  0
 12 13  4  0  0  0
 13 14  4  0  0  0
 15 16  4  0  0  0
 15 20  4  0  0  0
 16 17  4  0  0  0
 17 18  4  0  0  0
 17 21  1  0  0  0
 18 19  4  0  0  0
 19 20  4  0  0  0
 21 22  2  0  0  0
 21 23  1  0  0  0
 24 25  4  0  0  0
 24 28  4  0  0  0
 25 26  4  0  0  0
 26 27  4  0  0  0
 27 28  4  0  0  0
 27 29  1  0  0  0
 29 30  1  0  0  0
 29 31  1  0  0  0
 29 32  1  0  0  0
  1 33  1  0  0  0
  1 34  1  0  0  0
  1 35  1  0  0  0
  2 36  1  0  0  0
  2 37  1  0  0  0
  3 38  1  0  0  0
  7 39  1  0  0  0
 11 40  1  0  0  0
 16 41  1  0  0  0
 18 42  1  0  0  0
 20 43  1  0  0  0
 23 44  1  0  0  0
 25 45  1  0  0  0
 26 46  1  0  0  0
M  END
$$$$
