### 
### Created by X-TOOL on Mon Sep 10 21:13:32 2018
### 

@<TRIPOS>MOLECULE
5nxq_ligand
  266   268     1     0     0
SMALL
GAST_HUCK


@<TRIPOS>ATOM
      1 N          -6.7900   32.7270    0.0580 N.4       1 MET         0.2379
      2 CA         -5.8760   33.8630    0.0880 C.3       1 MET         0.0658
      3 C          -5.7370   34.5100   -1.2890 C.2       1 MET         0.2268
      4 O          -5.0880   33.9660   -2.1820 O.2       1 MET        -0.3907
      5 CB         -4.5020   33.4290    0.6120 C.3       1 MET         0.0168
      6 CG         -3.9770   32.1300    0.0120 C.3       1 MET         0.0007
      7 SD         -2.2010   31.9210    0.2400 S.3       1 MET        -0.1638
      8 CE         -1.5830   33.3660   -0.6190 C.3       1 MET        -0.0181
      9 N          -6.3590   35.6730   -1.4590 N.am      1 ASP        -0.2595
     10 CA         -6.2470   36.3960   -2.7170 C.3       1 ASP         0.1424
     11 C          -4.8330   36.9340   -2.8970 C.2       1 ASP         0.2056
     12 O          -4.2210   37.4530   -1.9590 O.2       1 ASP        -0.3943
     13 CB         -7.2600   37.5370   -2.7730 C.3       1 ASP         0.0406
     14 CG         -8.5640   37.1230   -3.4250 C.2       1 ASP         0.0393
     15 OD1        -8.6300   35.9930   -3.9550 O.co2     1 ASP        -0.5688
     16 OD2        -9.5190   37.9270   -3.4140 O.co2     1 ASP        -0.5688
     17 N          -4.3150   36.8030   -4.1130 N.am      1 ILE        -0.2634
     18 CA         -2.9490   37.2030   -4.4140 C.3       1 ILE         0.1335
     19 C          -2.9490   38.4630   -5.2690 C.2       1 ILE         0.2042
     20 O          -3.6800   38.5560   -6.2550 O.2       1 ILE        -0.3944
     21 CB         -2.1820   36.0670   -5.1140 C.3       1 ILE        -0.0037
     22 CG1        -2.2200   34.7950   -4.2650 C.3       1 ILE        -0.0491
     23 CG2        -0.7470   36.4820   -5.3990 C.3       1 ILE        -0.0582
     24 CD1        -1.7600   33.5580   -5.0030 C.3       1 ILE        -0.0648
     25 C7         -1.0200   47.1170   -6.8160 C.2       1 9FZ         0.0371
     26 C2         -0.6790   44.2020   -4.7300 C.3       1 9FZ         0.0756
     27 N          -2.1300   39.4340   -4.8790 N.am      1 9FZ        -0.2637
     28 CA         -1.9880   40.6950   -5.6550 C.3       1 9FZ         0.1311
     29 C          -1.1760   40.4660   -6.9070 C.2       1 9FZ         0.2039
     30 O           0.0100   40.1880   -6.8310 O.2       1 9FZ        -0.3944
     31 CB         -1.3370   41.7730   -4.7980 C.3       1 9FZ        -0.0097
     32 C1         -1.1440   43.0470   -5.6070 C.3       1 9FZ        -0.0183
     33 C8         -1.6340   45.9940   -6.2870 C.2       1 9FZ         0.0693
     34 C9         -1.9060   47.9500   -7.7050 C.3       1 9FZ        -0.0172
     35 N4         -0.6890   45.4130   -5.5450 N.pl3     1 9FZ        -0.1813
     36 N5          0.5150   46.1280   -5.5830 N.2       1 9FZ        -0.1020
     37 N6          0.2670   47.2320   -6.4180 N.2       1 9FZ        -0.2265
     38 N          -1.8200   40.5760   -8.0650 N.am      1 ILE        -0.2635
     39 CA         -1.1590   40.2960   -9.3350 C.3       1 ILE         0.1335
     40 C          -1.2950   41.4560  -10.3150 C.2       1 ILE         0.2042
     41 O          -0.6390   41.4710  -11.3560 O.2       1 ILE        -0.3944
     42 CB         -1.7100   39.0060   -9.9730 C.3       1 ILE        -0.0037
     43 CG1        -3.2090   39.1500  -10.2500 C.3       1 ILE        -0.0491
     44 CG2        -1.4320   37.8000   -9.0860 C.3       1 ILE        -0.0582
     45 CD1        -3.8130   37.9680  -10.9710 C.3       1 ILE        -0.0648
     46 N          -2.1480   42.4270   -9.9780 N.am      1 ASP        -0.2622
     47 CA         -2.4370   43.5160  -10.9070 C.3       1 ASP         0.1423
     48 C          -1.1920   44.3320  -11.2340 C.2       1 ASP         0.2057
     49 O          -1.0490   44.8180  -12.3610 O.2       1 ASP        -0.3943
     50 CB         -3.5310   44.4160  -10.3340 C.3       1 ASP         0.0406
     51 CG         -4.8890   43.7410  -10.3200 C.2       1 ASP         0.0393
     52 OD1        -5.1880   42.9850  -11.2690 O.co2     1 ASP        -0.5688
     53 OD2        -5.6570   43.9650   -9.3610 O.co2     1 ASP        -0.5688
     54 N          -0.2830   44.4940  -10.2700 N.am      1 ASP        -0.2621
     55 CA          0.9660   45.1940  -10.5510 C.3       1 ASP         0.1423
     56 C           1.8650   44.3680  -11.4620 C.2       1 ASP         0.2056
     57 O           2.5790   44.9210  -12.3080 O.2       1 ASP        -0.3943
     58 CB          1.6850   45.5360   -9.2450 C.3       1 ASP         0.0406
     59 CG          2.0430   44.3040   -8.4380 C.2       1 ASP         0.0393
     60 OD1         1.2480   43.3420   -8.4360 O.co2     1 ASP        -0.5688
     61 OD2         3.1210   44.2990   -7.8060 O.co2     1 ASP        -0.5688
     62 N           1.8460   43.0420  -11.3050 N.am      1 ILE        -0.2634
     63 CA          2.6580   42.1810  -12.1570 C.3       1 ILE         0.1335
     64 C           2.1050   42.1560  -13.5760 C.2       1 ILE         0.2042
     65 O           2.8670   42.0430  -14.5450 O.2       1 ILE        -0.3944
     66 CB          2.7480   40.7640  -11.5600 C.3       1 ILE        -0.0037
     67 CG1         3.1380   40.8320  -10.0830 C.3       1 ILE        -0.0491
     68 CG2         3.7510   39.9190  -12.3330 C.3       1 ILE        -0.0582
     69 CD1         3.4080   39.4800   -9.4580 C.3       1 ILE        -0.0648
     70 N           0.7890   42.2650  -13.7270 N.am      1 LEU        -0.2637
     71 CA          0.1690   42.2620  -15.0450 C.3       1 LEU         0.1312
     72 C           0.4910   43.5400  -15.8140 C.2       1 LEU         0.2039
     73 O           0.6770   43.5080  -17.0300 O.2       1 LEU        -0.3944
     74 CB         -1.3470   42.0920  -14.9250 C.3       1 LEU        -0.0101
     75 CG         -1.8250   40.8010  -14.2560 C.3       1 LEU        -0.0425
     76 CD1        -3.3460   40.7380  -14.2200 C.3       1 LEU        -0.0625
     77 CD2        -1.2410   39.5790  -14.9520 C.3       1 LEU        -0.0625
     78 C2         -1.1810   48.8650  -14.3230 C.3       1 9G2         0.0756
     79 C9         -0.1810   48.6540   -9.3590 C.3       1 9G2        -0.0172
     80 C8         -0.2310   48.7230  -11.9360 C.2       1 9G2         0.0693
     81 N6         -2.2060   48.8600  -10.8940 N.2       1 9G2        -0.2265
     82 N           0.5590   44.6620  -15.1030 N.am      1 9G2        -0.2637
     83 CA          0.9020   45.9620  -15.7430 C.3       1 9G2         0.1311
     84 C           2.3610   46.0130  -16.1270 C.2       1 9G2         0.2039
     85 O           2.7350   46.7110  -17.0550 O.2       1 9G2        -0.3944
     86 CB          0.5750   47.1300  -14.8210 C.3       1 9G2        -0.0097
     87 C1         -0.9060   47.4770  -14.8910 C.3       1 9G2        -0.0183
     88 C10        -1.1160   49.1290   -8.2680 C.3       1 9G2        -0.0394
     89 C7         -0.8690   48.7470  -10.6990 C.2       1 9G2         0.0371
     90 N4         -1.1860   48.8280  -12.8610 N.pl3     1 9G2        -0.1813
     91 N5         -2.4490   48.9160  -12.2750 N.2       1 9G2        -0.1020
     92 N           3.1900   45.2730  -15.3980 N.am      1 GLU        -0.2636
     93 CA          4.6070   45.1750  -15.7230 C.3       1 GLU         0.1325
     94 C           4.7750   44.3820  -17.0150 C.2       1 GLU         0.2040
     95 O           5.7230   44.5930  -17.7720 O.2       1 GLU        -0.3944
     96 CB          5.3820   44.5180  -14.5790 C.3       1 GLU        -0.0008
     97 CG          6.8880   44.4810  -14.7810 C.3       1 GLU         0.0044
     98 CD          7.6020   43.6920  -13.7000 C.2       1 GLU         0.0350
     99 OE1         6.9190   43.1440  -12.8090 O.co2     1 GLU        -0.5690
    100 OE2         8.8480   43.6180  -13.7440 O.co2     1 GLU        -0.5690
    101 N           3.8350   43.4670  -17.2580 N.am      1 LEU        -0.2637
    102 CA          3.8380   42.6820  -18.4860 C.3       1 LEU         0.1312
    103 C           3.3740   43.5050  -19.6830 C.2       1 LEU         0.2040
    104 O           3.7500   43.2050  -20.8220 O.2       1 LEU        -0.3944
    105 CB          2.9520   41.4460  -18.3140 C.3       1 LEU        -0.0101
    106 CG          2.9920   40.3860  -19.4150 C.3       1 LEU        -0.0425
    107 CD1         4.3840   39.7910  -19.5320 C.3       1 LEU        -0.0625
    108 CD2         1.9660   39.3000  -19.1470 C.3       1 LEU        -0.0625
    109 N           2.5720   44.5440  -19.4400 N.am      1 ASP        -0.2622
    110 CA          2.0760   45.3890  -20.5220 C.3       1 ASP         0.1423
    111 C           3.1740   46.2600  -21.1180 C.2       1 ASP         0.2056
    112 O           3.1120   46.6040  -22.3040 O.2       1 ASP        -0.3943
    113 CB          0.9250   46.2630  -20.0240 C.3       1 ASP         0.0406
    114 CG         -0.2350   45.4490  -19.4840 C.2       1 ASP         0.0393
    115 OD1        -0.4290   44.3070  -19.9500 O.co2     1 ASP        -0.5688
    116 OD2        -0.9540   45.9530  -18.5960 O.co2     1 ASP        -0.5688
    117 N           4.1730   46.6320  -20.3190 N.am      1 LYS        -0.2636
    118 CA          5.2130   47.5390  -20.7870 C.3       1 LYS         0.1309
    119 C           6.0150   46.9100  -21.9200 C.2       1 LYS         0.2033
    120 O           6.4080   45.7420  -21.8560 O.2       1 LYS        -0.3944
    121 CB          6.1490   47.9010  -19.6330 C.3       1 LYS        -0.0122
    122 CG          5.4560   48.4840  -18.4150 C.3       1 LYS        -0.0440
    123 CD          6.4480   48.6960  -17.2820 C.3       1 LYS        -0.0124
    124 CE          5.7650   49.2240  -16.0330 C.3       1 LYS        -0.0354
    125 NZ          6.7300   49.4040  -14.9130 N.4       1 LYS         0.2185
    126 N           6.2540   47.6990  -22.9630 N.am      1 GLU        -0.2694
    127 CA          6.9950   47.2380  -24.1310 C.3       1 GLU         0.0959
    128 C           8.3950   47.8440  -24.1610 C.2       1 GLU         0.0602
    129 O           8.9190   48.2750  -23.1330 O.co2     1 GLU        -0.5666
    130 CB          6.2410   47.5900  -25.4160 C.3       1 GLU        -0.0064
    131 CG          4.7710   47.1920  -25.4040 C.3       1 GLU         0.0038
    132 CD          4.5670   45.6890  -25.4120 C.2       1 GLU         0.0350
    133 OE1         5.4740   44.9640  -25.8750 O.co2     1 GLU        -0.5690
    134 OE2         3.4970   45.2310  -24.9570 O.co2     1 GLU        -0.5690
    135 OXT         9.0300   47.9150  -25.2140 O.co2     1 GLU        -0.5666
    136 H1         -6.8576   32.3257    0.9802 H         1 MET         0.2015
    137 H2         -6.4428   32.0333   -0.5856 H         1 MET         0.2015
    138 H3         -7.7014   33.0368   -0.2412 H         1 MET         0.2015
    139 H4         -6.2879   34.6140    0.7781 H         1 MET         0.1098
    140 H5         -4.5756   33.2987    1.7018 H         1 MET         0.0354
    141 H6         -3.7803   34.2278    0.3861 H         1 MET         0.0354
    142 H7         -4.1953   32.1276   -1.0661 H         1 MET         0.0380
    143 H8         -4.4944   31.2867    0.4928 H         1 MET         0.0380
    144 H9         -0.4843   33.3813   -0.5673 H         1 MET         0.0340
    145 H10        -1.9849   34.2739   -0.1455 H         1 MET         0.0340
    146 H11        -1.9001   33.3303   -1.6717 H         1 MET         0.0340
    147 H12        -6.9087   36.0542   -0.7157 H         1 ASP         0.1886
    148 H13        -6.4623   35.6984   -3.5397 H         1 ASP         0.0819
    149 H14        -6.8252   38.3669   -3.3493 H         1 ASP         0.0478
    150 H15        -7.4698   37.8734   -1.7469 H         1 ASP         0.0478
    151 H16        -4.8803   36.4183   -4.8427 H         1 ILE         0.1883
    152 H17        -2.4383   37.4280   -3.4661 H         1 ILE         0.0803
    153 H18        -2.6765   35.8565   -6.0738 H         1 ILE         0.0345
    154 H19        -3.2544   34.6335   -3.9274 H         1 ILE         0.0267
    155 H20        -1.5677   34.9409   -3.3914 H         1 ILE         0.0267
    156 H21        -0.7443   37.3970   -6.0096 H         1 ILE         0.0235
    157 H22        -0.2336   35.6761   -5.9439 H         1 ILE         0.0235
    158 H23        -0.2251   36.6732   -4.4497 H         1 ILE         0.0235
    159 H24        -1.8150   32.6886   -4.3313 H         1 ILE         0.0230
    160 H25        -0.7218   33.6964   -5.3392 H         1 ILE         0.0230
    161 H26        -2.4085   33.3890   -5.8753 H         1 ILE         0.0230
    162 H27         0.3393   44.0066   -4.3627 H         1 9FZ         0.0648
    163 H28        -1.3608   44.3208   -3.8750 H         1 9FZ         0.0648
    164 H29        -1.5955   39.3139   -4.0424 H         1 9FZ         0.1883
    165 H30        -2.9912   41.0383   -5.9478 H         1 9FZ         0.0800
    166 H31        -0.3582   41.4149   -4.4464 H         1 9FZ         0.0313
    167 H32        -1.9816   41.9870   -3.9328 H         1 9FZ         0.0313
    168 H33        -0.3896   42.8642   -6.3864 H         1 9FZ         0.0296
    169 H34        -2.0999   43.3189   -6.0784 H         1 9FZ         0.0296
    170 H35        -2.6588   45.6598   -6.4419 H         1 9FZ         0.0898
    171 H36        -2.7578   48.3277   -7.1203 H         1 9FZ         0.0381
    172 H37        -2.2767   47.3300   -8.5345 H         1 9FZ         0.0381
    173 H38        -2.7797   40.8572   -8.0654 H         1 ILE         0.1883
    174 H39        -0.0884   40.1474   -9.1305 H         1 ILE         0.0803
    175 H40        -1.1962   38.8498  -10.9330 H         1 ILE         0.0345
    176 H41        -3.3629   40.0477  -10.8667 H         1 ILE         0.0267
    177 H42        -3.7290   39.2721   -9.2884 H         1 ILE         0.0267
    178 H43        -0.3501   37.7207   -8.9035 H         1 ILE         0.0235
    179 H44        -1.7873   36.8871   -9.5864 H         1 ILE         0.0235
    180 H45        -1.9576   37.9210   -8.1273 H         1 ILE         0.0235
    181 H46        -4.8864   38.1464  -11.1324 H         1 ILE         0.0230
    182 H47        -3.6794   37.0606  -10.3637 H         1 ILE         0.0230
    183 H48        -3.3132   37.8363  -11.9420 H         1 ILE         0.0230
    184 H49        -2.5923   42.4081   -9.0823 H         1 ASP         0.1884
    185 H50        -2.8081   43.0746  -11.8437 H         1 ASP         0.0819
    186 H51        -3.5960   45.3268  -10.9474 H         1 ASP         0.0478
    187 H52        -3.2610   44.6869   -9.3027 H         1 ASP         0.0478
    188 H53        -0.4584   44.1349   -9.3533 H         1 ASP         0.1884
    189 H54         0.7249   46.1340  -11.0690 H         1 ASP         0.0819
    190 H55         1.0279   46.1762   -8.6381 H         1 ASP         0.0478
    191 H56         2.6097   46.0817   -9.4841 H         1 ASP         0.0478
    192 H57         1.2694   42.6355  -10.5963 H         1 ILE         0.1883
    193 H58         3.6751   42.5981  -12.1966 H         1 ILE         0.0803
    194 H59         1.7587   40.2895  -11.6387 H         1 ILE         0.0345
    195 H60         2.3173   41.3118   -9.5296 H         1 ILE         0.0267
    196 H61         4.0479   41.4434   -9.9926 H         1 ILE         0.0267
    197 H62         3.4576   39.8794  -13.3924 H         1 ILE         0.0235
    198 H63         3.7682   38.9000  -11.9190 H         1 ILE         0.0235
    199 H64         4.7519   40.3670  -12.2463 H         1 ILE         0.0235
    200 H65         3.6808   39.6128   -8.4007 H         1 ILE         0.0230
    201 H66         4.2350   38.9882   -9.9910 H         1 ILE         0.0230
    202 H67         2.5044   38.8566   -9.5280 H         1 ILE         0.0230
    203 H68         0.2104   42.3512  -12.9159 H         1 LEU         0.1883
    204 H69         0.5709   41.4086  -15.6109 H         1 LEU         0.0800
    205 H70        -1.7707   42.1224  -15.9396 H         1 LEU         0.0315
    206 H71        -1.7356   42.9384  -14.3398 H         1 LEU         0.0315
    207 H72        -1.4624   40.8036  -13.2175 H         1 LEU         0.0298
    208 H73        -3.6628   39.8027  -13.7354 H         1 LEU         0.0232
    209 H74        -3.7388   40.7701  -15.2470 H         1 LEU         0.0232
    210 H75        -3.7352   41.5956  -13.6516 H         1 LEU         0.0232
    211 H76        -0.1435   39.6526  -14.9626 H         1 LEU         0.0232
    212 H77        -1.6152   39.5317  -15.9853 H         1 LEU         0.0232
    213 H78        -1.5423   38.6699  -14.4109 H         1 LEU         0.0232
    214 H79        -2.1611   49.2145  -14.6796 H         1 9G2         0.0648
    215 H80        -0.3980   49.5578  -14.6649 H         1 9G2         0.0648
    216 H81         0.1036   47.6090   -9.1665 H         1 9G2         0.0381
    217 H82         0.7206   49.2841   -9.3671 H         1 9G2         0.0381
    218 H83         0.8398   48.6355  -12.1138 H         1 9G2         0.0898
    219 H84         0.3764   44.6320  -14.1203 H         1 9G2         0.1883
    220 H85         0.2989   46.0621  -16.6575 H         1 9G2         0.0800
    221 H86         1.1654   48.0065  -15.1263 H         1 9G2         0.0313
    222 H87         0.8326   46.8563  -13.7872 H         1 9G2         0.0313
    223 H88        -1.2304   47.4498  -15.9417 H         1 9G2         0.0296
    224 H89        -1.4750   46.7345  -14.3122 H         1 9G2         0.0296
    225 H90        -0.5286   49.5919   -7.4614 H         1 9G2         0.0298
    226 H91        -1.8146   49.8696   -8.6844 H         1 9G2         0.0298
    227 H92         2.8335   44.7725  -14.6091 H         1 GLU         0.1883
    228 H93         5.0053   46.1888  -15.8762 H         1 GLU         0.0801
    229 H94         5.0240   43.4836  -14.4703 H         1 GLU         0.0330
    230 H95         5.1724   45.0776  -13.6555 H         1 GLU         0.0330
    231 H96         7.2698   45.5126  -14.7746 H         1 GLU         0.0433
    232 H97         7.1016   44.0169  -15.7552 H         1 GLU         0.0433
    233 H98         3.1127   43.3165  -16.5830 H         1 LEU         0.1883
    234 H99         4.8684   42.3486  -18.6788 H         1 LEU         0.0800
    235 H100        1.9123   41.7956  -18.2318 H         1 LEU         0.0315
    236 H101        3.2495   40.9562  -17.3751 H         1 LEU         0.0315
    237 H102        2.7415   40.8699  -20.3705 H         1 LEU         0.0298
    238 H103        4.3925   39.0318  -20.3279 H         1 LEU         0.0232
    239 H104        4.6645   39.3237  -18.5766 H         1 LEU         0.0232
    240 H105        5.1034   40.5864  -19.7763 H         1 LEU         0.0232
    241 H106        0.9664   39.7519  -19.0659 H         1 LEU         0.0232
    242 H107        2.2133   38.7859  -18.2065 H         1 LEU         0.0232
    243 H108        1.9746   38.5752  -19.9743 H         1 LEU         0.0232
    244 H109        2.3056   44.7476  -18.4979 H         1 ASP         0.1884
    245 H110        1.6937   44.7324  -21.3174 H         1 ASP         0.0819
    246 H111        0.5635   46.8794  -20.8603 H         1 ASP         0.0478
    247 H112        1.3001   46.9162  -19.2224 H         1 ASP         0.0478
    248 H113        4.2098   46.2830  -19.3826 H         1 LYS         0.1883
    249 H114        4.7364   48.4575  -21.1602 H         1 LYS         0.0800
    250 H115        6.8762   48.6401  -20.0002 H         1 LYS         0.0312
    251 H116        6.6788   46.9885  -19.3220 H         1 LYS         0.0312
    252 H117        4.6693   47.7914  -18.0812 H         1 LYS         0.0269
    253 H118        5.0040   49.4499  -18.6846 H         1 LYS         0.0269
    254 H119        7.2100   49.4204  -17.6055 H         1 LYS         0.0317
    255 H120        6.9310   47.7363  -17.0461 H         1 LYS         0.0317
    256 H121        4.9877   48.5102  -15.7227 H         1 LYS         0.0813
    257 H122        5.3010   50.1944  -16.2634 H         1 LYS         0.0813
    258 H123        6.2431   49.7546  -14.1030 H         1 LYS         0.1994
    259 H124        7.4436   50.0613  -15.1866 H         1 LYS         0.1994
    260 H125        7.1565   48.5180  -14.6912 H         1 LYS         0.1994
    261 H126        5.9144   48.6394  -22.9459 H         1 GLU         0.1875
    262 H127        7.0909   46.1438  -24.0709 H         1 GLU         0.0727
    263 H128        6.7311   47.0758  -26.2559 H         1 GLU         0.0323
    264 H129        6.3029   48.6780  -25.5657 H         1 GLU         0.0323
    265 H130        4.2849   47.6170  -26.2945 H         1 GLU         0.0432
    266 H131        4.3028   47.6050  -24.4984 H         1 GLU         0.0432
@<TRIPOS>BOND
     1    2    1 1  
     2    3    2 1  
     3    2    5 1  
     4    3    4 2  
     5    9    3 am 
     6    5    6 1  
     7    6    7 1  
     8    7    8 1  
     9   10    9 1  
    10   11   10 1  
    11   10   13 1  
    12   11   12 2  
    13   17   11 am 
    14   13   14 1  
    15   14   15 ar 
    16   14   16 ar 
    17   18   17 1  
    18   19   18 1  
    19   18   21 1  
    20   19   20 2  
    21   27   19 am 
    22   21   22 1  
    23   21   23 1  
    24   22   24 1  
    25   25   33 2  
    26   34   25 1  
    27   25   37 1  
    28   26   32 1  
    29   35   26 1  
    30   28   27 1  
    31   28   29 1  
    32   31   28 1  
    33   29   30 2  
    34   29   38 am 
    35   32   31 1  
    36   33   35 1  
    37   88   34 1  
    38   36   35 1  
    39   37   36 2  
    40   38   39 1  
    41   39   40 1  
    42   39   42 1  
    43   40   41 2  
    44   40   46 am 
    45   42   43 1  
    46   42   44 1  
    47   43   45 1  
    48   46   47 1  
    49   47   48 1  
    50   47   50 1  
    51   48   49 2  
    52   48   54 am 
    53   50   51 1  
    54   51   52 ar 
    55   51   53 ar 
    56   54   55 1  
    57   55   56 1  
    58   55   58 1  
    59   56   57 2  
    60   56   62 am 
    61   58   59 1  
    62   59   60 ar 
    63   59   61 ar 
    64   62   63 1  
    65   63   64 1  
    66   63   66 1  
    67   64   65 2  
    68   64   70 am 
    69   66   67 1  
    70   66   68 1  
    71   67   69 1  
    72   70   71 1  
    73   71   72 1  
    74   71   74 1  
    75   72   73 2  
    76   72   82 am 
    77   74   75 1  
    78   75   76 1  
    79   75   77 1  
    80   78   87 1  
    81   90   78 1  
    82   79   88 1  
    83   89   79 1  
    84   80   89 2  
    85   80   90 1  
    86   89   81 1  
    87   81   91 2  
    88   82   83 1  
    89   83   84 1  
    90   83   86 1  
    91   84   85 2  
    92   84   92 am 
    93   86   87 1  
    94   90   91 1  
    95   92   93 1  
    96   93   94 1  
    97   93   96 1  
    98   94   95 2  
    99   94  101 am 
   100   96   97 1  
   101   97   98 1  
   102   98   99 ar 
   103   98  100 ar 
   104  101  102 1  
   105  102  103 1  
   106  102  105 1  
   107  103  104 2  
   108  103  109 am 
   109  105  106 1  
   110  106  107 1  
   111  106  108 1  
   112  109  110 1  
   113  110  111 1  
   114  110  113 1  
   115  111  112 2  
   116  111  117 am 
   117  113  114 1  
   118  114  115 ar 
   119  114  116 ar 
   120  117  118 1  
   121  118  119 1  
   122  118  121 1  
   123  119  120 2  
   124  119  126 am 
   125  121  122 1  
   126  122  123 1  
   127  123  124 1  
   128  124  125 1  
   129  126  127 1  
   130  127  128 1  
   131  127  130 1  
   132  128  129 ar 
   133  128  135 ar 
   134  130  131 1  
   135  131  132 1  
   136  132  133 ar 
   137  132  134 ar 
   138    1  136 1  
   139    1  137 1  
   140    1  138 1  
   141    2  139 1  
   142    5  140 1  
   143    5  141 1  
   144    6  142 1  
   145    6  143 1  
   146    8  144 1  
   147    8  145 1  
   148    8  146 1  
   149    9  147 1  
   150   10  148 1  
   151   13  149 1  
   152   13  150 1  
   153   17  151 1  
   154   18  152 1  
   155   21  153 1  
   156   22  154 1  
   157   22  155 1  
   158   23  156 1  
   159   23  157 1  
   160   23  158 1  
   161   24  159 1  
   162   24  160 1  
   163   24  161 1  
   164   26  162 1  
   165   26  163 1  
   166   27  164 1  
   167   28  165 1  
   168   31  166 1  
   169   31  167 1  
   170   32  168 1  
   171   32  169 1  
   172   33  170 1  
   173   34  171 1  
   174   34  172 1  
   175   38  173 1  
   176   39  174 1  
   177   42  175 1  
   178   43  176 1  
   179   43  177 1  
   180   44  178 1  
   181   44  179 1  
   182   44  180 1  
   183   45  181 1  
   184   45  182 1  
   185   45  183 1  
   186   46  184 1  
   187   47  185 1  
   188   50  186 1  
   189   50  187 1  
   190   54  188 1  
   191   55  189 1  
   192   58  190 1  
   193   58  191 1  
   194   62  192 1  
   195   63  193 1  
   196   66  194 1  
   197   67  195 1  
   198   67  196 1  
   199   68  197 1  
   200   68  198 1  
   201   68  199 1  
   202   69  200 1  
   203   69  201 1  
   204   69  202 1  
   205   70  203 1  
   206   71  204 1  
   207   74  205 1  
   208   74  206 1  
   209   75  207 1  
   210   76  208 1  
   211   76  209 1  
   212   76  210 1  
   213   77  211 1  
   214   77  212 1  
   215   77  213 1  
   216   78  214 1  
   217   78  215 1  
   218   79  216 1  
   219   79  217 1  
   220   80  218 1  
   221   82  219 1  
   222   83  220 1  
   223   86  221 1  
   224   86  222 1  
   225   87  223 1  
   226   87  224 1  
   227   88  225 1  
   228   88  226 1  
   229   92  227 1  
   230   93  228 1  
   231   96  229 1  
   232   96  230 1  
   233   97  231 1  
   234   97  232 1  
   235  101  233 1  
   236  102  234 1  
   237  105  235 1  
   238  105  236 1  
   239  106  237 1  
   240  107  238 1  
   241  107  239 1  
   242  107  240 1  
   243  108  241 1  
   244  108  242 1  
   245  108  243 1  
   246  109  244 1  
   247  110  245 1  
   248  113  246 1  
   249  113  247 1  
   250  117  248 1  
   251  118  249 1  
   252  121  250 1  
   253  121  251 1  
   254  122  252 1  
   255  122  253 1  
   256  123  254 1  
   257  123  255 1  
   258  124  256 1  
   259  124  257 1  
   260  125  258 1  
   261  125  259 1  
   262  125  260 1  
   263  126  261 1  
   264  127  262 1  
   265  130  263 1  
   266  130  264 1  
   267  131  265 1  
   268  131  266 1  
@<TRIPOS>SUBSTRUCTURE
     1 MET         1

