5nxq_ligand
  -I-interpret- 

273275  0  0  0  0  0  0  0  0999 V2000
   -6.7900   32.7270    0.0580 N   0  3  0  0  0
   -5.8760   33.8630    0.0880 C   0  0  0  0  0
   -5.7370   34.5100   -1.2890 C   0  0  0  0  0
   -5.0880   33.9660   -2.1820 O   0  0  0  0  0
   -4.5020   33.4290    0.6120 C   0  0  0  0  0
   -3.9770   32.1300    0.0120 C   0  0  0  0  0
   -2.2010   31.9210    0.2400 S   0  0  0  0  0
   -1.5830   33.3660   -0.6190 C   0  0  0  0  0
   -6.3590   35.6730   -1.4590 N   0  0  0  0  0
   -6.2470   36.3960   -2.7170 C   0  0  0  0  0
   -4.8330   36.9340   -2.8970 C   0  0  0  0  0
   -4.2210   37.4530   -1.9590 O   0  0  0  0  0
   -7.2600   37.5370   -2.7730 C   0  0  0  0  0
   -8.5640   37.1230   -3.4250 C   0  0  0  0  0
   -8.6300   35.9930   -3.9550 O   0  0  0  0  0
   -9.5190   37.9270   -3.4140 O   0  0  0  0  0
   -4.3150   36.8030   -4.1130 N   0  0  0  0  0
   -2.9490   37.2030   -4.4140 C   0  0  0  0  0
   -2.9490   38.4630   -5.2690 C   0  0  0  0  0
   -3.6800   38.5560   -6.2550 O   0  0  0  0  0
   -2.1820   36.0670   -5.1140 C   0  0  0  0  0
   -2.2200   34.7950   -4.2650 C   0  0  0  0  0
   -0.7470   36.4820   -5.3990 C   0  0  0  0  0
   -1.7600   33.5580   -5.0030 C   0  0  0  0  0
   -1.0200   47.1170   -6.8160 C   0  0  0  0  0
   -0.6790   44.2020   -4.7300 C   0  0  0  0  0
   -2.1300   39.4340   -4.8790 N   0  0  0  0  0
   -1.9880   40.6950   -5.6550 C   0  0  0  0  0
   -1.1760   40.4660   -6.9070 C   0  0  0  0  0
    0.0100   40.1880   -6.8310 O   0  0  0  0  0
   -1.3370   41.7730   -4.7980 C   0  0  0  0  0
   -1.1440   43.0470   -5.6070 C   0  0  0  0  0
   -1.6340   45.9940   -6.2870 C   0  0  0  0  0
   -1.9060   47.9500   -7.7050 C   0  0  0  0  0
   -0.6890   45.4130   -5.5450 N   0  0  0  0  0
    0.5150   46.1280   -5.5830 N   0  0  0  0  0
    0.2670   47.2320   -6.4180 N   0  0  0  0  0
   -1.8200   40.5760   -8.0650 N   0  0  0  0  0
   -1.1590   40.2960   -9.3350 C   0  0  0  0  0
   -1.2950   41.4560  -10.3150 C   0  0  0  0  0
   -0.6390   41.4710  -11.3560 O   0  0  0  0  0
   -1.7100   39.0060   -9.9730 C   0  0  0  0  0
   -3.2090   39.1500  -10.2500 C   0  0  0  0  0
   -1.4320   37.8000   -9.0860 C   0  0  0  0  0
   -3.8130   37.9680  -10.9710 C   0  0  0  0  0
   -2.1480   42.4270   -9.9780 N   0  0  0  0  0
   -2.4370   43.5160  -10.9070 C   0  0  0  0  0
   -1.1920   44.3320  -11.2340 C   0  0  0  0  0
   -1.0490   44.8180  -12.3610 O   0  0  0  0  0
   -3.5310   44.4160  -10.3340 C   0  0  0  0  0
   -4.8890   43.7410  -10.3200 C   0  0  0  0  0
   -5.1880   42.9850  -11.2690 O   0  0  0  0  0
   -5.6570   43.9650   -9.3610 O   0  0  0  0  0
   -0.2830   44.4940  -10.2700 N   0  0  0  0  0
    0.9660   45.1940  -10.5510 C   0  0  0  0  0
    1.8650   44.3680  -11.4620 C   0  0  0  0  0
    2.5790   44.9210  -12.3080 O   0  0  0  0  0
    1.6850   45.5360   -9.2450 C   0  0  0  0  0
    2.0430   44.3040   -8.4380 C   0  0  0  0  0
    1.2480   43.3420   -8.4360 O   0  0  0  0  0
    3.1210   44.2990   -7.8060 O   0  0  0  0  0
    1.8460   43.0420  -11.3050 N   0  0  0  0  0
    2.6580   42.1810  -12.1570 C   0  0  0  0  0
    2.1050   42.1560  -13.5760 C   0  0  0  0  0
    2.8670   42.0430  -14.5450 O   0  0  0  0  0
    2.7480   40.7640  -11.5600 C   0  0  0  0  0
    3.1380   40.8320  -10.0830 C   0  0  0  0  0
    3.7510   39.9190  -12.3330 C   0  0  0  0  0
    3.4080   39.4800   -9.4580 C   0  0  0  0  0
    0.7890   42.2650  -13.7270 N   0  0  0  0  0
    0.1690   42.2620  -15.0450 C   0  0  0  0  0
    0.4910   43.5400  -15.8140 C   0  0  0  0  0
    0.6770   43.5080  -17.0300 O   0  0  0  0  0
   -1.3470   42.0920  -14.9250 C   0  0  0  0  0
   -1.8250   40.8010  -14.2560 C   0  0  0  0  0
   -3.3460   40.7380  -14.2200 C   0  0  0  0  0
   -1.2410   39.5790  -14.9520 C   0  0  0  0  0
   -1.1810   48.8650  -14.3230 C   0  0  0  0  0
   -0.1810   48.6540   -9.3590 C   0  0  0  0  0
   -0.2310   48.7230  -11.9360 C   0  0  0  0  0
   -2.2060   48.8600  -10.8940 N   0  0  0  0  0
    0.5590   44.6620  -15.1030 N   0  0  0  0  0
    0.9020   45.9620  -15.7430 C   0  0  0  0  0
    2.3610   46.0130  -16.1270 C   0  0  0  0  0
    2.7350   46.7110  -17.0550 O   0  0  0  0  0
    0.5750   47.1300  -14.8210 C   0  0  0  0  0
   -0.9060   47.4770  -14.8910 C   0  0  0  0  0
   -1.1160   49.1290   -8.2680 C   0  0  0  0  0
   -0.8690   48.7470  -10.6990 C   0  0  0  0  0
   -1.1860   48.8280  -12.8610 N   0  0  0  0  0
   -2.4490   48.9160  -12.2750 N   0  0  0  0  0
    3.1900   45.2730  -15.3980 N   0  0  0  0  0
    4.6070   45.1750  -15.7230 C   0  0  0  0  0
    4.7750   44.3820  -17.0150 C   0  0  0  0  0
    5.7230   44.5930  -17.7720 O   0  0  0  0  0
    5.3820   44.5180  -14.5790 C   0  0  0  0  0
    6.8880   44.4810  -14.7810 C   0  0  0  0  0
    7.6020   43.6920  -13.7000 C   0  0  0  0  0
    6.9190   43.1440  -12.8090 O   0  0  0  0  0
    8.8480   43.6180  -13.7440 O   0  0  0  0  0
    3.8350   43.4670  -17.2580 N   0  0  0  0  0
    3.8380   42.6820  -18.4860 C   0  0  0  0  0
    3.3740   43.5050  -19.6830 C   0  0  0  0  0
    3.7500   43.2050  -20.8220 O   0  0  0  0  0
    2.9520   41.4460  -18.3140 C   0  0  0  0  0
    2.9920   40.3860  -19.4150 C   0  0  0  0  0
    4.3840   39.7910  -19.5320 C   0  0  0  0  0
    1.9660   39.3000  -19.1470 C   0  0  0  0  0
    2.5720   44.5440  -19.4400 N   0  0  0  0  0
    2.0760   45.3890  -20.5220 C   0  0  0  0  0
    3.1740   46.2600  -21.1180 C   0  0  0  0  0
    3.1120   46.6040  -22.3040 O   0  0  0  0  0
    0.9250   46.2630  -20.0240 C   0  0  0  0  0
   -0.2350   45.4490  -19.4840 C   0  0  0  0  0
   -0.4290   44.3070  -19.9500 O   0  0  0  0  0
   -0.9540   45.9530  -18.5960 O   0  0  0  0  0
    4.1730   46.6320  -20.3190 N   0  0  0  0  0
    5.2130   47.5390  -20.7870 C   0  0  0  0  0
    6.0150   46.9100  -21.9200 C   0  0  0  0  0
    6.4080   45.7420  -21.8560 O   0  0  0  0  0
    6.1490   47.9010  -19.6330 C   0  0  0  0  0
    5.4560   48.4840  -18.4150 C   0  0  0  0  0
    6.4480   48.6960  -17.2820 C   0  0  0  0  0
    5.7650   49.2240  -16.0330 C   0  0  0  0  0
    6.7300   49.4040  -14.9130 N   0  3  0  0  0
    6.2540   47.6990  -22.9630 N   0  0  0  0  0
    6.9950   47.2380  -24.1310 C   0  0  0  0  0
    8.3950   47.8440  -24.1610 C   0  0  0  0  0
    8.9190   48.2750  -23.1330 O   0  0  0  0  0
    6.2410   47.5900  -25.4160 C   0  0  0  0  0
    4.7710   47.1920  -25.4040 C   0  0  0  0  0
    4.5670   45.6890  -25.4120 C   0  0  0  0  0
    5.4740   44.9640  -25.8750 O   0  0  0  0  0
    3.4970   45.2310  -24.9570 O   0  0  0  0  0
    9.0300   47.9150  -25.2140 O   0  0  0  0  0
   -7.6981   33.0319   -0.2924 H   0  0  0  0  0
   -6.4127   32.0047   -0.5554 H   0  0  0  0  0
   -6.8963   32.3526    1.0009 H   0  0  0  0  0
   -6.2962   34.6074    0.7643 H   0  0  0  0  0
   -4.6073   33.2649    1.6844 H   0  0  0  0  0
   -3.7954   34.2135    0.3412 H   0  0  0  0  0
   -4.1750   32.1538   -1.0596 H   0  0  0  0  0
   -4.4774   31.3035    0.5167 H   0  0  0  0  0
   -1.8979   33.3295   -1.6619 H   0  0  0  0  0
   -1.9820   34.2648   -0.1489 H   0  0  0  0  0
   -0.4943   33.3800   -0.5671 H   0  0  0  0  0
   -6.9197   36.0618   -0.7008 H   0  0  0  0  0
   -6.4622   35.7037   -3.5309 H   0  0  0  0  0
   -6.8275   38.3422   -3.3669 H   0  0  0  0  0
   -7.4778   37.8442   -1.7501 H   0  0  0  0  0
   -7.7892   35.5418   -3.8498 H   0  0  0  0  0
   -4.8916   36.4106   -4.8573 H   0  0  0  0  0
   -2.4381   37.4182   -3.4755 H   0  0  0  0  0
   -2.6690   35.8591   -6.0667 H   0  0  0  0  0
   -3.2562   34.6315   -3.9689 H   0  0  0  0  0
   -1.5425   34.9439   -3.4242 H   0  0  0  0  0
   -0.7455   37.3593   -6.0459 H   0  0  0  0  0
   -0.2458   36.7199   -4.4608 H   0  0  0  0  0
   -0.2248   35.6632   -5.8939 H   0  0  0  0  0
   -2.4033   33.3917   -5.8670 H   0  0  0  0  0
   -0.7313   33.6964   -5.3356 H   0  0  0  0  0
   -1.8150   32.6973   -4.3364 H   0  0  0  0  0
    0.3246   44.0092   -4.3510 H   0  0  0  0  0
   -1.3423   44.3172   -3.8728 H   0  0  0  0  0
   -1.5848   39.3115   -4.0257 H   0  0  0  0  0
   -2.9836   41.0290   -5.9469 H   0  0  0  0  0
   -0.3646   41.4174   -4.4574 H   0  0  0  0  0
   -1.9819   41.9873   -3.9458 H   0  0  0  0  0
   -0.3831   42.8619   -6.3652 H   0  0  0  0  0
   -2.0994   43.3182   -6.0561 H   0  0  0  0  0
   -2.6597   45.6594   -6.4420 H   0  0  0  0  0
   -2.7475   48.3261   -7.1232 H   0  0  0  0  0
   -2.2696   47.3349   -8.5282 H   0  0  0  0  0
   -2.7989   40.8628   -8.0654 H   0  0  0  0  0
   -0.1000   40.1599   -9.1158 H   0  0  0  0  0
   -1.1993   38.8441  -10.9222 H   0  0  0  0  0
   -3.3385   40.0221  -10.8909 H   0  0  0  0  0
   -3.7108   39.2333   -9.2860 H   0  0  0  0  0
   -0.3561   37.6920   -8.9485 H   0  0  0  0  0
   -1.9106   37.9449   -8.1175 H   0  0  0  0  0
   -1.8310   36.9028   -9.5593 H   0  0  0  0  0
   -3.3169   37.8385  -11.9329 H   0  0  0  0  0
   -3.6799   37.0696  -10.3683 H   0  0  0  0  0
   -4.8765   38.1459  -11.1303 H   0  0  0  0  0
   -2.6012   42.4077   -9.0644 H   0  0  0  0  0
   -2.7868   43.0728  -11.8394 H   0  0  0  0  0
   -3.6022   45.3024  -10.9644 H   0  0  0  0  0
   -3.2641   44.6567   -9.3050 H   0  0  0  0  0
   -4.4597   42.9541  -11.8937 H   0  0  0  0  0
   -0.4619   44.1277   -9.3350 H   0  0  0  0  0
    0.7287   46.1216  -11.0719 H   0  0  0  0  0
    1.0141   46.1486   -8.6428 H   0  0  0  0  0
    2.6109   46.0531   -9.4969 H   0  0  0  0  0
    3.5758   45.1330   -7.9446 H   0  0  0  0  0
    1.2578   42.6274  -10.5821 H   0  0  0  0  0
    3.6685   42.5868  -12.2042 H   0  0  0  0  0
    1.7675   40.2948  -11.6409 H   0  0  0  0  0
    2.2997   41.2761   -9.5461 H   0  0  0  0  0
    4.0598   41.4099  -10.0171 H   0  0  0  0  0
    3.4359   39.8448  -13.3738 H   0  0  0  0  0
    4.7340   40.3871  -12.2822 H   0  0  0  0  0
    3.7987   38.9222  -11.8945 H   0  0  0  0  0
    2.5120   38.8633   -9.5281 H   0  0  0  0  0
    4.2276   38.9937   -9.9871 H   0  0  0  0  0
    3.6782   39.6129   -8.4104 H   0  0  0  0  0
    0.1988   42.3529  -12.8997 H   0  0  0  0  0
    0.5790   41.4183  -15.6001 H   0  0  0  0  0
   -1.7348   42.0714  -15.9435 H   0  0  0  0  0
   -1.6987   42.9109  -14.2975 H   0  0  0  0  0
   -1.4666   40.8015  -13.2266 H   0  0  0  0  0
   -3.7303   41.5882  -13.6565 H   0  0  0  0  0
   -3.7339   40.7700  -15.2381 H   0  0  0  0  0
   -3.6587   39.8109  -13.7396 H   0  0  0  0  0
   -1.5567   39.5711  -15.9952 H   0  0  0  0  0
   -0.1529   39.6186  -14.9007 H   0  0  0  0  0
   -1.5968   38.6756  -14.4566 H   0  0  0  0  0
   -2.1564   49.2038  -14.6721 H   0  0  0  0  0
   -0.3984   49.5461  -14.6575 H   0  0  0  0  0
    0.0978   47.6176   -9.1684 H   0  0  0  0  0
    0.7105   49.2811   -9.3676 H   0  0  0  0  0
    0.8408   48.6354  -12.1140 H   0  0  0  0  0
    0.3727   44.6314  -14.1006 H   0  0  0  0  0
    0.2983   46.0461  -16.6466 H   0  0  0  0  0
    1.1543   47.9982  -15.1351 H   0  0  0  0  0
    0.8218   46.8490  -13.7972 H   0  0  0  0  0
   -1.2151   47.4637  -15.9362 H   0  0  0  0  0
   -1.4604   46.7464  -14.3020 H   0  0  0  0  0
   -0.5312   49.5828   -7.4679 H   0  0  0  0  0
   -1.8102   49.8590   -8.6842 H   0  0  0  0  0
    2.8263   44.7625  -14.5933 H   0  0  0  0  0
    5.0114   46.1774  -15.8635 H   0  0  0  0  0
    5.0423   43.4843  -14.5147 H   0  0  0  0  0
    5.1938   45.1102  -13.6835 H   0  0  0  0  0
    7.2564   45.5063  -14.7468 H   0  0  0  0  0
    7.0865   43.9961  -15.7368 H   0  0  0  0  0
    5.9890   43.3260  -12.9628 H   0  0  0  0  0
    3.0983   43.3135  -16.5695 H   0  0  0  0  0
    4.8632   42.3685  -18.6829 H   0  0  0  0  0
    1.9280   41.8195  -18.3050 H   0  0  0  0  0
    3.3164   40.9480  -17.4155 H   0  0  0  0  0
    2.7439   40.8645  -20.3624 H   0  0  0  0  0
    5.0959   40.5801  -19.7741 H   0  0  0  0  0
    4.6608   39.3283  -18.5847 H   0  0  0  0  0
    4.3911   39.0389  -20.3209 H   0  0  0  0  0
    2.1830   38.8251  -18.1902 H   0  0  0  0  0
    0.9702   39.7422  -19.1171 H   0  0  0  0  0
    2.0107   38.5556  -19.9419 H   0  0  0  0  0
    2.3003   44.7516  -18.4790 H   0  0  0  0  0
    1.7164   44.7291  -21.3115 H   0  0  0  0  0
    0.5595   46.8485  -20.8676 H   0  0  0  0  0
    1.3035   46.8857  -19.2134 H   0  0  0  0  0
   -0.6308   46.8319  -18.3848 H   0  0  0  0  0
    4.2105   46.2760  -19.3639 H   0  0  0  0  0
    4.7327   48.4424  -21.1630 H   0  0  0  0  0
    6.8322   48.6642  -20.0055 H   0  0  0  0  0
    6.6306   46.9771  -19.3127 H   0  0  0  0  0
    4.6846   47.7894  -18.0825 H   0  0  0  0  0
    5.0187   49.4453  -18.6849 H   0  0  0  0  0
    7.1887   49.4276  -17.6050 H   0  0  0  0  0
    6.9087   47.7373  -17.0436 H   0  0  0  0  0
    5.0094   48.5021  -15.7231 H   0  0  0  0  0
    5.3240   50.1932  -16.2660 H   0  0  0  0  0
    6.2362   49.7588  -14.0940 H   0  0  0  0  0
    7.1609   48.5069  -14.6895 H   0  0  0  0  0
    7.4515   50.0692  -15.1911 H   0  0  0  0  0
    5.9076   48.6582  -22.9455 H   0  0  0  0  0
    7.0906   46.1542  -24.0644 H   0  0  0  0  0
    8.3171   48.1567  -22.3945 H   0  0  0  0  0
    6.7167   47.0418  -26.2292 H   0  0  0  0  0
    6.2806   48.6737  -25.5263 H   0  0  0  0  0
    4.3092   47.5957  -26.3050 H   0  0  0  0  0
    4.3273   47.5836  -24.4886 H   0  0  0  0  0
    6.2036   45.5145  -26.1687 H   0  0  0  0  0
  2  1  1  0  0  0
  3  2  1  0  0  0
  2  5  1  0  0  0
  3  4  2  0  0  0
  9  3  1  0  0  0
  5  6  1  0  0  0
  6  7  1  0  0  0
  7  8  1  0  0  0
 10  9  1  0  0  0
 11 10  1  0  0  0
 10 13  1  0  0  0
 11 12  2  0  0  0
 17 11  1  0  0  0
 13 14  1  0  0  0
 14 15  1  0  0  0
 14 16  2  0  0  0
 18 17  1  0  0  0
 19 18  1  0  0  0
 18 21  1  0  0  0
 19 20  2  0  0  0
 27 19  1  0  0  0
 21 22  1  0  0  0
 21 23  1  0  0  0
 22 24  1  0  0  0
 25 33  4  0  0  0
 34 25  1  0  0  0
 25 37  4  0  0  0
 26 32  1  0  0  0
 35 26  1  0  0  0
 28 27  1  0  0  0
 28 29  1  0  0  0
 31 28  1  0  0  0
 29 30  2  0  0  0
 29 38  1  0  0  0
 32 31  1  0  0  0
 33 35  4  0  0  0
 88 34  1  0  0  0
 36 35  4  0  0  0
 37 36  4  0  0  0
 38 39  1  0  0  0
 39 40  1  0  0  0
 39 42  1  0  0  0
 40 41  2  0  0  0
 40 46  1  0  0  0
 42 43  1  0  0  0
 42 44  1  0  0  0
 43 45  1  0  0  0
 46 47  1  0  0  0
 47 48  1  0  0  0
 47 50  1  0  0  0
 48 49  2  0  0  0
 48 54  1  0  0  0
 50 51  1  0  0  0
 51 52  1  0  0  0
 51 53  2  0  0  0
 54 55  1  0  0  0
 55 56  1  0  0  0
 55 58  1  0  0  0
 56 57  2  0  0  0
 56 62  1  0  0  0
 58 59  1  0  0  0
 59 60  2  0  0  0
 59 61  1  0  0  0
 62 63  1  0  0  0
 63 64  1  0  0  0
 63 66  1  0  0  0
 64 65  2  0  0  0
 64 70  1  0  0  0
 66 67  1  0  0  0
 66 68  1  0  0  0
 67 69  1  0  0  0
 70 71  1  0  0  0
 71 72  1  0  0  0
 71 74  1  0  0  0
 72 73  2  0  0  0
 72 82  1  0  0  0
 74 75  1  0  0  0
 75 76  1  0  0  0
 75 77  1  0  0  0
 78 87  1  0  0  0
 90 78  1  0  0  0
 79 88  1  0  0  0
 89 79  1  0  0  0
 80 89  4  0  0  0
 80 90  4  0  0  0
 89 81  4  0  0  0
 81 91  4  0  0  0
 82 83  1  0  0  0
 83 84  1  0  0  0
 83 86  1  0  0  0
 84 85  2  0  0  0
 84 92  1  0  0  0
 86 87  1  0  0  0
 90 91  4  0  0  0
 92 93  1  0  0  0
 93 94  1  0  0  0
 93 96  1  0  0  0
 94 95  2  0  0  0
 94101  1  0  0  0
 96 97  1  0  0  0
 97 98  1  0  0  0
 98 99  1  0  0  0
 98100  2  0  0  0
101102  1  0  0  0
102103  1  0  0  0
102105  1  0  0  0
103104  2  0  0  0
103109  1  0  0  0
105106  1  0  0  0
106107  1  0  0  0
106108  1  0  0  0
109110  1  0  0  0
110111  1  0  0  0
110113  1  0  0  0
111112  2  0  0  0
111117  1  0  0  0
113114  1  0  0  0
114115  2  0  0  0
114116  1  0  0  0
117118  1  0  0  0
118119  1  0  0  0
118121  1  0  0  0
119120  2  0  0  0
119126  1  0  0  0
121122  1  0  0  0
122123  1  0  0  0
123124  1  0  0  0
124125  1  0  0  0
126127  1  0  0  0
127128  1  0  0  0
127130  1  0  0  0
128129  1  0  0  0
128135  2  0  0  0
130131  1  0  0  0
131132  1  0  0  0
132133  1  0  0  0
132134  2  0  0  0
  1136  1  0  0  0
  1137  1  0  0  0
  1138  1  0  0  0
  2139  1  0  0  0
  5140  1  0  0  0
  5141  1  0  0  0
  6142  1  0  0  0
  6143  1  0  0  0
  8144  1  0  0  0
  8145  1  0  0  0
  8146  1  0  0  0
  9147  1  0  0  0
 10148  1  0  0  0
 13149  1  0  0  0
 13150  1  0  0  0
 15151  1  0  0  0
 17152  1  0  0  0
 18153  1  0  0  0
 21154  1  0  0  0
 22155  1  0  0  0
 22156  1  0  0  0
 23157  1  0  0  0
 23158  1  0  0  0
 23159  1  0  0  0
 24160  1  0  0  0
 24161  1  0  0  0
 24162  1  0  0  0
 26163  1  0  0  0
 26164  1  0  0  0
 27165  1  0  0  0
 28166  1  0  0  0
 31167  1  0  0  0
 31168  1  0  0  0
 32169  1  0  0  0
 32170  1  0  0  0
 33171  1  0  0  0
 34172  1  0  0  0
 34173  1  0  0  0
 38174  1  0  0  0
 39175  1  0  0  0
 42176  1  0  0  0
 43177  1  0  0  0
 43178  1  0  0  0
 44179  1  0  0  0
 44180  1  0  0  0
 44181  1  0  0  0
 45182  1  0  0  0
 45183  1  0  0  0
 45184  1  0  0  0
 46185  1  0  0  0
 47186  1  0  0  0
 50187  1  0  0  0
 50188  1  0  0  0
 52189  1  0  0  0
 54190  1  0  0  0
 55191  1  0  0  0
 58192  1  0  0  0
 58193  1  0  0  0
 61194  1  0  0  0
 62195  1  0  0  0
 63196  1  0  0  0
 66197  1  0  0  0
 67198  1  0  0  0
 67199  1  0  0  0
 68200  1  0  0  0
 68201  1  0  0  0
 68202  1  0  0  0
 69203  1  0  0  0
 69204  1  0  0  0
 69205  1  0  0  0
 70206  1  0  0  0
 71207  1  0  0  0
 74208  1  0  0  0
 74209  1  0  0  0
 75210  1  0  0  0
 76211  1  0  0  0
 76212  1  0  0  0
 76213  1  0  0  0
 77214  1  0  0  0
 77215  1  0  0  0
 77216  1  0  0  0
 78217  1  0  0  0
 78218  1  0  0  0
 79219  1  0  0  0
 79220  1  0  0  0
 80221  1  0  0  0
 82222  1  0  0  0
 83223  1  0  0  0
 86224  1  0  0  0
 86225  1  0  0  0
 87226  1  0  0  0
 87227  1  0  0  0
 88228  1  0  0  0
 88229  1  0  0  0
 92230  1  0  0  0
 93231  1  0  0  0
 96232  1  0  0  0
 96233  1  0  0  0
 97234  1  0  0  0
 97235  1  0  0  0
 99236  1  0  0  0
101237  1  0  0  0
102238  1  0  0  0
105239  1  0  0  0
105240  1  0  0  0
106241  1  0  0  0
107242  1  0  0  0
107243  1  0  0  0
107244  1  0  0  0
108245  1  0  0  0
108246  1  0  0  0
108247  1  0  0  0
109248  1  0  0  0
110249  1  0  0  0
113250  1  0  0  0
113251  1  0  0  0
116252  1  0  0  0
117253  1  0  0  0
118254  1  0  0  0
121255  1  0  0  0
121256  1  0  0  0
122257  1  0  0  0
122258  1  0  0  0
123259  1  0  0  0
123260  1  0  0  0
124261  1  0  0  0
124262  1  0  0  0
125263  1  0  0  0
125264  1  0  0  0
125265  1  0  0  0
126266  1  0  0  0
127267  1  0  0  0
129268  1  0  0  0
130269  1  0  0  0
130270  1  0  0  0
131271  1  0  0  0
131272  1  0  0  0
133273  1  0  0  0
M  END
$$$$
