4k6z_ligand
  -I-interpret- 

 38 41  0  0  0  0  0  0  0  0999 V2000
   26.5510    6.3990    1.9700 C   0  0  0  0  0
   27.8130    7.0090    1.9280 C   0  0  0  0  0
   28.9070    6.4210    1.3690 N   0  0  0  0  0
   28.8640    5.1080    0.7670 C   0  0  0  0  0
   29.9070    4.6280    0.3230 O   0  0  0  0  0
   27.5300    4.4170    0.7900 C   0  0  0  0  0
   26.3770    5.0720    1.3890 C   0  0  0  0  0
   25.2020    4.2420    1.3440 C   0  0  0  0  0
   25.2130    3.0190    0.8020 N   0  0  0  0  0
   26.3500    2.5300    0.3220 C   0  0  0  0  0
   27.5200    3.1710    0.2800 N   0  0  0  0  0
   26.1900    1.1600   -0.0770 C   0  0  0  0  0
   27.0850    0.2750   -0.6410 C   0  0  0  0  0
   26.4890   -0.9190   -0.7010 N   0  0  0  0  0
   25.2250   -0.8870   -0.2310 N   0  0  0  0  0
   25.0200    0.3660    0.1500 C   0  0  0  0  0
   23.9740    4.3540    1.8680 N   0  0  0  0  0
   23.2460    5.1820    2.7890 C   0  0  0  0  0
   21.7860    5.2230    2.3080 C   0  0  0  0  0
   21.0120    4.2540    3.2230 C   0  0  0  0  0
   22.0480    3.3580    3.8940 C   0  0  0  0  0
   23.0520    4.4390    4.1680 C   0  0  0  0  0
   24.2790    3.9320    4.7960 C   0  0  0  0  0
   25.2260    3.5860    5.3220 N   0  0  0  0  0
   25.7076    6.9116    2.4326 H   0  0  0  0  0
   27.9238    8.0019    2.3639 H   0  0  0  0  0
   29.7922    6.9278    1.3756 H   0  0  0  0  0
   28.0955    0.5077   -0.9769 H   0  0  0  0  0
   24.0896    0.7402    0.5770 H   0  0  0  0  0
   23.3664    3.6234    1.4973 H   0  0  0  0  0
   23.7732    6.1331    2.8638 H   0  0  0  0  0
   21.7059    4.9280    1.2617 H   0  0  0  0  0
   21.3786    6.2323    2.3662 H   0  0  0  0  0
   20.3021    3.6608    2.6466 H   0  0  0  0  0
   20.4341    4.8022    3.9670 H   0  0  0  0  0
   22.4004    2.5059    3.3127 H   0  0  0  0  0
   21.7067    2.7845    4.7558 H   0  0  0  0  0
   22.7065    5.1495    4.9189 H   0  0  0  0  0
  1  2  2  0  0  0
  1  7  1  0  0  0
  2  3  1  0  0  0
  3  4  1  0  0  0
  4  5  2  0  0  0
  4  6  1  0  0  0
  6  7  4  0  0  0
  6 11  4  0  0  0
  7  8  4  0  0  0
  8  9  4  0  0  0
  8 17  1  0  0  0
  9 10  4  0  0  0
 10 11  4  0  0  0
 10 12  1  0  0  0
 12 13  4  0  0  0
 12 16  4  0  0  0
 13 14  4  0  0  0
 14 15  4  0  0  0
 15 16  4  0  0  0
 17 18  1  0  0  0
 18 19  1  0  0  0
 18 22  1  0  0  0
 19 20  1  0  0  0
 20 21  1  0  0  0
 21 22  1  0  0  0
 22 23  1  0  0  0
 23 24  3  0  0  0
  1 25  1  0  0  0
  2 26  1  0  0  0
  3 27  1  0  0  0
 13 28  1  0  0  0
 16 29  1  0  0  0
 17 30  1  0  0  0
 18 31  1  0  0  0
 19 32  1  0  0  0
 19 33  1  0  0  0
 20 34  1  0  0  0
 20 35  1  0  0  0
 21 36  1  0  0  0
 21 37  1  0  0  0
 22 38  1  0  0  0
M  END
$$$$
