4j44_ligand
  -I-interpret- 

 59 58  0  0  0  0  0  0  0  0999 V2000
   25.2820   38.0240    7.2470 N   0  3  0  0  0
   25.7570   37.9000    8.6370 C   0  0  0  0  0
   26.8070   36.7880    8.6820 C   0  0  0  0  0
   26.8740   36.0040    7.7450 O   0  0  0  0  0
   24.5990   37.5810    9.5820 C   0  0  0  0  0
   27.5700   36.7350    9.7680 N   0  0  0  0  0
   28.5190   35.6440    9.9540 C   0  0  0  0  0
   28.1540   34.8360   11.1850 C   0  0  0  0  0
   27.6250   35.3490   12.1680 O   0  0  0  0  0
   29.9860   36.1050   10.0030 C   0  0  0  0  0
   30.2280   37.0100   11.1770 C   0  0  0  0  0
   30.3790   36.7820    8.6980 C   0  0  0  0  0
   31.6890   37.4260   11.3100 C   0  0  0  0  0
   28.4880   33.5520   11.1270 N   0  0  0  0  0
   28.3080   32.6580   12.2800 C   0  0  0  0  0
   29.4300   32.8240   13.2350 C   0  0  0  0  0
   30.5760   33.0020   12.8240 O   0  0  0  0  0
   28.2290   31.2010   11.8430 C   0  0  0  0  0
   29.1290   32.7630   14.5190 N   0  0  0  0  0
   30.1270   32.9070   15.5810 C   0  0  0  0  0
   30.5820   31.5120   15.9770 C   0  0  0  0  0
   29.7710   30.6850   16.4010 O   0  0  0  0  0
   29.5410   33.6650   16.7860 C   0  0  0  0  0
   30.5550   33.8300   17.9140 C   0  0  0  0  0
   29.0060   35.0240   16.3360 C   0  0  0  0  0
   31.7750   31.1650   15.8270 O   0  0  0  0  0
   26.0713   38.2366    6.6369 H   0  0  0  0  0
   24.8527   37.1457    6.9560 H   0  0  0  0  0
   24.5945   38.7753    7.1897 H   0  0  0  0  0
   26.1934   38.8437    8.9642 H   0  0  0  0  0
   24.1344   36.6420    9.2812 H   0  0  0  0  0
   24.9770   37.4910   10.6004 H   0  0  0  0  0
   23.8626   38.3833    9.5360 H   0  0  0  0  0
   27.4913   37.4635   10.4776 H   0  0  0  0  0
   28.4426   35.0086    9.0716 H   0  0  0  0  0
   30.6153   35.2241   10.1299 H   0  0  0  0  0
   29.9518   36.4663   12.0805 H   0  0  0  0  0
   29.6355   37.9131   11.0305 H   0  0  0  0  0
   30.2567   36.0788    7.8742 H   0  0  0  0  0
   29.7408   37.6503    8.5341 H   0  0  0  0  0
   31.4200   37.1001    8.7543 H   0  0  0  0  0
   32.3079   36.5382   11.4396 H   0  0  0  0  0
   31.9976   37.9573   10.4096 H   0  0  0  0  0
   31.8022   38.0789   12.1755 H   0  0  0  0  0
   28.8785   33.1774   10.2624 H   0  0  0  0  0
   27.3693   32.9263   12.7647 H   0  0  0  0  0
   27.3837   31.0710   11.1672 H   0  0  0  0  0
   29.1510   30.9262   11.3307 H   0  0  0  0  0
   28.0959   30.5668   12.7195 H   0  0  0  0  0
   28.1561   32.6084   14.7836 H   0  0  0  0  0
   30.9767   33.4905   15.2266 H   0  0  0  0  0
   28.7203   33.0688   17.1849 H   0  0  0  0  0
   30.8782   32.8471   18.2570 H   0  0  0  0  0
   31.4158   34.3897   17.5481 H   0  0  0  0  0
   30.0929   34.3706   18.7400 H   0  0  0  0  0
   29.8186   35.6080   15.9039 H   0  0  0  0  0
   28.2257   34.8767   15.5893 H   0  0  0  0  0
   28.5934   35.5532   17.1950 H   0  0  0  0  0
   32.2836   31.9077   15.4932 H   0  0  0  0  0
  1  2  1  0  0  0
  2  3  1  0  0  0
  2  5  1  0  0  0
  3  4  2  0  0  0
  3  6  1  0  0  0
  6  7  1  0  0  0
  7  8  1  0  0  0
  7 10  1  0  0  0
  8  9  2  0  0  0
  8 14  1  0  0  0
 10 11  1  0  0  0
 10 12  1  0  0  0
 11 13  1  0  0  0
 14 15  1  0  0  0
 15 16  1  0  0  0
 15 18  1  0  0  0
 16 17  2  0  0  0
 16 19  1  0  0  0
 19 20  1  0  0  0
 20 21  1  0  0  0
 20 23  1  0  0  0
 21 22  2  0  0  0
 21 26  1  0  0  0
 23 24  1  0  0  0
 23 25  1  0  0  0
  1 27  1  0  0  0
  1 28  1  0  0  0
  1 29  1  0  0  0
  2 30  1  0  0  0
  5 31  1  0  0  0
  5 32  1  0  0  0
  5 33  1  0  0  0
  6 34  1  0  0  0
  7 35  1  0  0  0
 10 36  1  0  0  0
 11 37  1  0  0  0
 11 38  1  0  0  0
 12 39  1  0  0  0
 12 40  1  0  0  0
 12 41  1  0  0  0
 13 42  1  0  0  0
 13 43  1  0  0  0
 13 44  1  0  0  0
 14 45  1  0  0  0
 15 46  1  0  0  0
 18 47  1  0  0  0
 18 48  1  0  0  0
 18 49  1  0  0  0
 19 50  1  0  0  0
 20 51  1  0  0  0
 23 52  1  0  0  0
 24 53  1  0  0  0
 24 54  1  0  0  0
 24 55  1  0  0  0
 25 56  1  0  0  0
 25 57  1  0  0  0
 25 58  1  0  0  0
 26 59  1  0  0  0
M  END
$$$$
