4mr4_ligand
  -I-interpret- 

 49 51  0  0  0  0  0  0  0  0999 V2000
   27.7130   15.8490    0.3550 O   0  0  0  0  0
   26.9460   14.9330   -0.4550 C   0  0  0  0  0
   29.0610   15.9900    0.0050 C   0  0  0  0  0
   29.8320   16.9060    0.6910 C   0  0  0  0  0
   31.1580   17.0890    0.3100 C   0  0  0  0  0
   33.5430   15.7430   -2.2280 N   0  0  0  0  0
   31.3240   19.0110    1.8890 C   0  0  0  0  0
   31.9440   18.0110    0.9710 O   0  0  0  0  0
   31.7270   16.3490   -0.7280 C   0  0  0  0  0
   35.0830   11.3140   -6.5850 O   0  0  0  0  0
   31.4230   14.6230   -2.4990 N   0  0  0  0  0
   33.1270   16.5650   -1.1180 C   0  0  0  0  0
   32.6930   14.8440   -2.8610 C   0  0  0  0  0
   36.6090    8.9220   -7.3050 O   0  0  0  0  0
   33.9610   17.3340   -0.6190 O   0  0  0  0  0
   33.2740   13.9980   -3.9810 C   0  0  0  0  0
   34.6570   13.9550   -4.1220 C   0  0  0  0  0
   35.2530   13.0860   -5.0440 C   0  0  0  0  0
   36.7620   13.0610   -5.1530 C   0  0  0  0  0
   34.4550   12.2610   -5.7850 C   0  0  0  0  0
   35.1730   10.0580   -5.8760 C   0  0  0  0  0
   36.6450    9.6070   -6.0750 C   0  0  0  0  0
   33.0440   12.2600   -5.6830 C   0  0  0  0  0
   32.2090   11.2790   -6.4740 C   0  0  0  0  0
   32.4370   13.1600   -4.7740 C   0  0  0  0  0
   30.9500   15.3960   -1.4110 C   0  0  0  0  0
   29.6000   15.1900   -1.0460 C   0  0  0  0  0
   26.9586   15.2689   -1.4919 H   0  0  0  0  0
   27.3842   13.9372   -0.3890 H   0  0  0  0  0
   25.9181   14.9037   -0.0937 H   0  0  0  0  0
   29.4094   17.4769    1.5178 H   0  0  0  0  0
   34.5029   15.8252   -2.5629 H   0  0  0  0  0
   30.6162   19.6243    1.3314 H   0  0  0  0  0
   30.8020   18.4906    2.6919 H   0  0  0  0  0
   32.1026   19.6459    2.3118 H   0  0  0  0  0
   37.4884    8.6003   -7.5167 H   0  0  0  0  0
   35.2827   14.6038   -3.5091 H   0  0  0  0  0
   37.1211   14.0508   -5.4350 H   0  0  0  0  0
   37.1898   12.7783   -4.1912 H   0  0  0  0  0
   37.0583   12.3360   -5.9111 H   0  0  0  0  0
   34.4643    9.3219   -6.2555 H   0  0  0  0  0
   34.9160   10.1634   -4.8220 H   0  0  0  0  0
   37.3437   10.4436   -6.0802 H   0  0  0  0  0
   37.0077    8.9839   -5.2575 H   0  0  0  0  0
   32.3877   11.4277   -7.5389 H   0  0  0  0  0
   32.4855   10.2619   -6.1964 H   0  0  0  0  0
   31.1538   11.4426   -6.2550 H   0  0  0  0  0
   31.3520   13.2110   -4.6825 H   0  0  0  0  0
   28.9893   14.4425   -1.5523 H   0  0  0  0  0
  1  2  1  0  0  0
  3  1  1  0  0  0
  4  3  4  0  0  0
  3 27  4  0  0  0
  5  4  4  0  0  0
  5  8  1  0  0  0
  9  5  4  0  0  0
  6 12  1  0  0  0
 13  6  1  0  0  0
  8  7  1  0  0  0
 12  9  1  0  0  0
 26  9  4  0  0  0
 10 20  1  0  0  0
 21 10  1  0  0  0
 13 11  2  0  0  0
 11 26  1  0  0  0
 12 15  2  0  0  0
 16 13  1  0  0  0
 22 14  1  0  0  0
 17 16  4  0  0  0
 16 25  4  0  0  0
 18 17  4  0  0  0
 18 19  1  0  0  0
 20 18  4  0  0  0
 20 23  4  0  0  0
 21 22  1  0  0  0
 23 24  1  0  0  0
 23 25  4  0  0  0
 26 27  4  0  0  0
  2 28  1  0  0  0
  2 29  1  0  0  0
  2 30  1  0  0  0
  4 31  1  0  0  0
  6 32  1  0  0  0
  7 33  1  0  0  0
  7 34  1  0  0  0
  7 35  1  0  0  0
 14 36  1  0  0  0
 17 37  1  0  0  0
 19 38  1  0  0  0
 19 39  1  0  0  0
 19 40  1  0  0  0
 21 41  1  0  0  0
 21 42  1  0  0  0
 22 43  1  0  0  0
 22 44  1  0  0  0
 24 45  1  0  0  0
 24 46  1  0  0  0
 24 47  1  0  0  0
 25 48  1  0  0  0
 27 49  1  0  0  0
M  END
$$$$
