1uxb_ligand
  -I-interpret- 

 61 62  0  0  0  0  0  0  0  0999 V2000
   45.6930   53.0680   66.2750 C   0  0  0  0  0
   46.6500   52.5170   65.1700 C   0  0  0  0  0
   46.6390   50.9720   65.1590 C   0  0  0  0  0
   45.3830   50.3490   64.4770 C   0  0  0  0  0
   45.0290   51.0510   63.1630 C   0  0  0  0  0
   44.9680   52.5450   63.4530 C   0  0  0  0  0
   44.5060   53.3710   62.2490 C   0  0  0  0  0
   44.5630   54.8230   62.6530 C   0  0  0  0  0
   43.8180   55.6620   61.6380 C   0  0  0  0  0
   43.4990   49.8990   61.6470 C   0  0  0  0  0
   42.0420   49.6190   61.3380 C   0  0  0  0  0
   43.7070   50.6150   62.7480 N   0  0  0  0  0
   45.7120   52.5420   67.4080 O   0  0  0  0  0
   44.9670   54.0510   66.0200 O   0  0  0  0  0
   45.6650   49.0070   64.1860 O   0  0  0  0  0
   46.2550   53.0280   63.8850 O   0  0  0  0  0
   45.3800   53.1430   61.1480 O   0  0  0  0  0
   43.9660   54.9820   63.9340 O   0  0  0  0  0
   44.2220   57.0120   61.7970 O   0  0  0  0  0
   44.3920   49.4540   60.9030 O   0  0  0  0  0
   49.4100   56.3700   64.6080 C   0  0  0  0  0
   49.1680   54.8630   64.4370 C   0  0  0  0  0
   48.0820   54.4020   65.4330 C   0  0  0  0  0
   48.4380   54.8150   66.8570 C   0  0  0  0  0
   48.6840   56.3170   66.8780 C   0  0  0  0  0
   49.0550   56.8470   68.2390 C   0  0  0  0  0
   50.4490   56.8040   63.7850 O   0  0  0  0  0
   48.7520   54.6010   63.1010 O   0  0  0  0  0
   47.9460   52.9680   65.3980 O   0  0  0  0  0
   49.6120   54.1050   67.2430 O   0  0  0  0  0
   49.7590   56.6480   65.9660 O   0  0  0  0  0
   49.0660   58.2700   68.2450 O   0  0  0  0  0
   46.6387   50.6422   66.1979 H   0  0  0  0  0
   47.5096   50.6474   64.5891 H   0  0  0  0  0
   44.5402   50.4569   65.1597 H   0  0  0  0  0
   45.7603   50.8249   62.3870 H   0  0  0  0  0
   44.2292   52.6694   64.2447 H   0  0  0  0  0
   43.4953   53.0919   61.9511 H   0  0  0  0  0
   45.6028   55.1474   62.6946 H   0  0  0  0  0
   42.7430   55.5717   61.7938 H   0  0  0  0  0
   44.0458   55.3191   60.6287 H   0  0  0  0  0
   41.7949   50.0267   60.3578 H   0  0  0  0  0
   41.8722   48.5423   61.3384 H   0  0  0  0  0
   41.4146   50.0873   62.0964 H   0  0  0  0  0
   42.9050   50.8686   63.3250 H   0  0  0  0  0
   46.3274   51.8052   67.4072 H   0  0  0  0  0
   45.8903   48.5454   64.9970 H   0  0  0  0  0
   45.3397   52.2178   60.8952 H   0  0  0  0  0
   44.0027   55.9064   64.1904 H   0  0  0  0  0
   43.7587   57.5607   61.1599 H   0  0  0  0  0
   48.4941   56.8938   64.3342 H   0  0  0  0  0
   50.0888   54.3151   64.6370 H   0  0  0  0  0
   47.1453   54.8755   65.1389 H   0  0  0  0  0
   47.6322   54.5816   67.5529 H   0  0  0  0  0
   47.7424   56.7798   66.5825 H   0  0  0  0  0
   50.0519   56.4880   68.4948 H   0  0  0  0  0
   48.3181   56.4994   68.9630 H   0  0  0  0  0
   50.5815   57.7467   63.9090 H   0  0  0  0  0
   48.6005   53.6592   62.9931 H   0  0  0  0  0
   49.8536   54.3514   68.1388 H   0  0  0  0  0
   49.3045   58.5834   69.1205 H   0  0  0  0  0
  2  1  1  0  0  0
  1 13  1  0  0  0
  1 14  2  0  0  0
  2  3  1  0  0  0
  2 16  1  0  0  0
 29  2  1  0  0  0
  3  4  1  0  0  0
  4  5  1  0  0  0
  4 15  1  0  0  0
  6  5  1  0  0  0
  5 12  1  0  0  0
  6  7  1  0  0  0
 16  6  1  0  0  0
  7  8  1  0  0  0
  7 17  1  0  0  0
  8  9  1  0  0  0
  8 18  1  0  0  0
  9 19  1  0  0  0
 10 11  1  0  0  0
 12 10  1  0  0  0
 10 20  2  0  0  0
 22 21  1  0  0  0
 21 27  1  0  0  0
 21 31  1  0  0  0
 23 22  1  0  0  0
 22 28  1  0  0  0
 23 24  1  0  0  0
 23 29  1  0  0  0
 24 25  1  0  0  0
 24 30  1  0  0  0
 25 26  1  0  0  0
 25 31  1  0  0  0
 26 32  1  0  0  0
  3 33  1  0  0  0
  3 34  1  0  0  0
  4 35  1  0  0  0
  5 36  1  0  0  0
  6 37  1  0  0  0
  7 38  1  0  0  0
  8 39  1  0  0  0
  9 40  1  0  0  0
  9 41  1  0  0  0
 11 42  1  0  0  0
 11 43  1  0  0  0
 11 44  1  0  0  0
 12 45  1  0  0  0
 13 46  1  0  0  0
 15 47  1  0  0  0
 17 48  1  0  0  0
 18 49  1  0  0  0
 19 50  1  0  0  0
 21 51  1  0  0  0
 22 52  1  0  0  0
 23 53  1  0  0  0
 24 54  1  0  0  0
 25 55  1  0  0  0
 26 56  1  0  0  0
 26 57  1  0  0  0
 27 58  1  0  0  0
 28 59  1  0  0  0
 30 60  1  0  0  0
 32 61  1  0  0  0
M  END
$$$$
