6o0o_ligand
  -I-interpret- 

 96104  0  0  0  0  0  0  0  0999 V2000
    8.5710   -8.0890   -1.0330 C   0  0  0  0  0
    8.7800   -7.5980   -2.4570 C   0  0  0  0  0
    7.4390   -5.5210   -2.1230 C   0  0  0  0  0
    7.5980   -6.7810   -2.9400 C   0  0  0  0  0
    8.0300   -7.0010   -0.1610 C   0  0  0  0  0
    7.5210   -5.8240   -0.6830 N   0  0  0  0  0
    7.1040   -5.0000    0.3560 C   0  0  0  0  0
    7.3500   -5.6660    1.5330 C   0  0  0  0  0
    7.9300   -6.9330    1.2220 C   0  0  0  0  0
    8.3380   -8.0420    2.1430 C   0  0  0  0  0
    8.0610   -9.1990    1.8520 O   0  0  0  0  0
    9.0360   -7.7810    3.3480 N   0  0  0  0  0
    6.4970   -3.6710    0.1380 C   0  0  0  0  0
    7.2940   -2.6300   -0.3500 C   0  0  0  0  0
    5.1350   -3.4460    0.4240 C   0  0  0  0  0
    5.3900   -1.1730   -0.2450 C   0  0  0  0  0
    6.7130   -1.3950   -0.5310 C   0  0  0  0  0
    7.2970   -0.2380   -0.9940 O   0  0  0  0  0
    6.2630    0.7480   -0.9810 C   0  0  0  0  0
    5.0620    0.1380   -0.5050 O   0  0  0  0  0
    4.2420   -4.5600    0.8900 C   0  0  0  0  0
    4.0440   -4.7190    2.2140 N   0  0  0  0  0
    3.7280   -5.3040    0.0750 O   0  0  0  0  0
    3.1720   -5.7870    2.7150 C   0  0  0  0  0
    3.9680   -6.7210    3.6170 C   0  0  0  0  0
    4.6660   -3.8690    3.2340 C   0  0  0  0  0
    5.0170   -4.6040    4.5090 C   0  0  0  0  0
    4.7000   -5.9590    4.6920 C   0  0  0  0  0
    5.0580   -6.5840    5.8840 C   0  0  0  0  0
    5.7130   -5.8860    6.8830 C   0  0  0  0  0
    6.0190   -4.5580    6.7060 C   0  0  0  0  0
    5.6750   -3.9190    5.5280 C   0  0  0  0  0
    1.9130   -5.2180    3.3800 C   0  0  0  0  0
    4.5770   -2.1770    0.2330 C   0  0  0  0  0
    0.6470   -5.6690    2.7860 N   0  3  0  0  0
    0.8250   -6.7710    1.8300 C   0  0  0  0  0
   -0.2790   -6.7560    0.8010 C   0  0  0  0  0
   -0.1960   -5.6090   -0.0480 O   0  0  0  0  0
    0.3030   -4.4850    0.6770 C   0  0  0  0  0
   -0.0580   -4.5550    2.1390 C   0  0  0  0  0
    9.5270   -6.4700    3.6850 C   0  0  0  0  0
    9.2800   -8.8390    4.2940 C   0  0  0  0  0
    9.0250   -5.8020    4.7930 C   0  0  0  0  0
    9.4910   -4.5410    5.1170 C   0  0  0  0  0
   10.4630   -3.9360    4.3290 C   0  0  0  0  0
   10.9700   -4.6040    3.2230 C   0  0  0  0  0
   10.5040   -5.8670    2.9040 C   0  0  0  0  0
   10.5840   -9.2000    4.6110 C   0  0  0  0  0
   10.8110  -10.2260    5.5140 C   0  0  0  0  0
    9.7500  -10.8910    6.0970 C   0  0  0  0  0
    8.4550  -10.5310    5.7820 C   0  0  0  0  0
    8.2120   -9.5050    4.8840 C   0  0  0  0  0
   10.9060   -2.6790    4.6340 O   0  0  0  0  0
    9.5314   -8.4121   -0.6314 H   0  0  0  0  0
    7.8550   -8.9107   -1.0494 H   0  0  0  0  0
    8.8912   -8.4645   -3.1089 H   0  0  0  0  0
    9.6686   -6.9671   -2.4785 H   0  0  0  0  0
    6.4648   -5.0815   -2.3369 H   0  0  0  0  0
    8.2378   -4.8270   -2.3843 H   0  0  0  0  0
    6.6936   -7.3806   -2.8366 H   0  0  0  0  0
    7.7672   -6.5034   -3.9804 H   0  0  0  0  0
    7.1382   -5.2905    2.5341 H   0  0  0  0  0
    8.3469   -2.7923   -0.5808 H   0  0  0  0  0
    6.1087    1.1391   -1.9867 H   0  0  0  0  0
    6.5448    1.5745   -0.3286 H   0  0  0  0  0
    2.8095   -6.3820    1.8768 H   0  0  0  0  0
    4.7014   -7.2483    3.0070 H   0  0  0  0  0
    3.2749   -7.4132    4.0952 H   0  0  0  0  0
    3.9463   -3.0927    3.4936 H   0  0  0  0  0
    5.5952   -3.4839    2.8141 H   0  0  0  0  0
    4.8190   -7.6371    6.0319 H   0  0  0  0  0
    5.9863   -6.3894    7.8104 H   0  0  0  0  0
    6.5330   -4.0078    7.4941 H   0  0  0  0  0
    5.9221   -2.8657    5.3955 H   0  0  0  0  0
    1.9522   -4.1355    3.2589 H   0  0  0  0  0
    1.9180   -5.5615    4.4144 H   0  0  0  0  0
    3.5270   -1.9880    0.4565 H   0  0  0  0  0
    0.0822   -6.0237    3.5577 H   0  0  0  0  0
    0.7957   -7.7178    2.3692 H   0  0  0  0  0
    1.7836   -6.6523    1.3249 H   0  0  0  0  0
   -1.2350   -6.7274    1.3238 H   0  0  0  0  0
   -0.1836   -7.6484    0.1824 H   0  0  0  0  0
   -0.1417   -3.5825    0.2576 H   0  0  0  0  0
    1.3897   -4.4787    0.5929 H   0  0  0  0  0
    0.2323   -3.6220    2.6220 H   0  0  0  0  0
   -1.1326   -4.7118    2.2328 H   0  0  0  0  0
    8.2602   -6.2732    5.4104 H   0  0  0  0  0
    9.0961   -4.0216    5.9902 H   0  0  0  0  0
   11.7353   -4.1335    2.6057 H   0  0  0  0  0
   10.9053   -6.3907    2.0363 H   0  0  0  0  0
   11.4238   -8.6787    4.1516 H   0  0  0  0  0
   11.8328  -10.5100    5.7658 H   0  0  0  0  0
    9.9350  -11.6990    6.8049 H   0  0  0  0  0
    7.6190  -11.0573    6.2427 H   0  0  0  0  0
    7.1881   -9.2211    4.6410 H   0  0  0  0  0
   11.5712   -2.4117    3.9955 H   0  0  0  0  0
  1  2  1  0  0  0
  1  5  1  0  0  0
  2  4  1  0  0  0
  4  3  1  0  0  0
  3  6  1  0  0  0
  5  6  4  0  0  0
  5  9  4  0  0  0
  6  7  4  0  0  0
  7  8  4  0  0  0
  7 13  1  0  0  0
  8  9  4  0  0  0
  9 10  1  0  0  0
 10 11  2  0  0  0
 10 12  1  0  0  0
 12 41  1  0  0  0
 12 42  1  0  0  0
 13 14  4  0  0  0
 13 15  4  0  0  0
 14 17  4  0  0  0
 15 21  1  0  0  0
 15 34  4  0  0  0
 17 16  4  0  0  0
 16 20  1  0  0  0
 16 34  4  0  0  0
 17 18  1  0  0  0
 18 19  1  0  0  0
 19 20  1  0  0  0
 21 22  1  0  0  0
 21 23  2  0  0  0
 22 24  1  0  0  0
 22 26  1  0  0  0
 24 25  1  0  0  0
 24 33  1  0  0  0
 25 28  1  0  0  0
 26 27  1  0  0  0
 27 28  4  0  0  0
 27 32  4  0  0  0
 28 29  4  0  0  0
 29 30  4  0  0  0
 30 31  4  0  0  0
 31 32  4  0  0  0
 33 35  1  0  0  0
 35 36  1  0  0  0
 35 40  1  0  0  0
 36 37  1  0  0  0
 37 38  1  0  0  0
 38 39  1  0  0  0
 39 40  1  0  0  0
 41 43  4  0  0  0
 41 47  4  0  0  0
 42 48  4  0  0  0
 42 52  4  0  0  0
 43 44  4  0  0  0
 44 45  4  0  0  0
 45 46  4  0  0  0
 45 53  1  0  0  0
 46 47  4  0  0  0
 48 49  4  0  0  0
 49 50  4  0  0  0
 50 51  4  0  0  0
 51 52  4  0  0  0
  1 54  1  0  0  0
  1 55  1  0  0  0
  2 56  1  0  0  0
  2 57  1  0  0  0
  3 58  1  0  0  0
  3 59  1  0  0  0
  4 60  1  0  0  0
  4 61  1  0  0  0
  8 62  1  0  0  0
 14 63  1  0  0  0
 19 64  1  0  0  0
 19 65  1  0  0  0
 24 66  1  0  0  0
 25 67  1  0  0  0
 25 68  1  0  0  0
 26 69  1  0  0  0
 26 70  1  0  0  0
 29 71  1  0  0  0
 30 72  1  0  0  0
 31 73  1  0  0  0
 32 74  1  0  0  0
 33 75  1  0  0  0
 33 76  1  0  0  0
 34 77  1  0  0  0
 35 78  1  0  0  0
 36 79  1  0  0  0
 36 80  1  0  0  0
 37 81  1  0  0  0
 37 82  1  0  0  0
 39 83  1  0  0  0
 39 84  1  0  0  0
 40 85  1  0  0  0
 40 86  1  0  0  0
 43 87  1  0  0  0
 44 88  1  0  0  0
 46 89  1  0  0  0
 47 90  1  0  0  0
 48 91  1  0  0  0
 49 92  1  0  0  0
 50 93  1  0  0  0
 51 94  1  0  0  0
 52 95  1  0  0  0
 53 96  1  0  0  0
M  END
$$$$
