1tl3_ligand
  -I-interpret- 

 44 46  0  0  0  0  0  0  0  0999 V2000
    1.7470  -36.2970   22.9900 C   0  0  0  0  0
    3.2980  -36.2200   23.4220 C   0  0  0  0  0
    3.6290  -35.0170   24.2910 C   0  0  0  0  0
    2.8810  -35.1160   25.5880 C   0  0  0  0  0
    1.3810  -34.9300   25.3560 C   0  0  0  0  0
    0.7790  -35.9160   24.2690 C   0  0  0  0  0
    0.7080  -37.0310   18.0430 N   0  0  0  0  0
    1.8470  -37.6930   18.4820 C   0  0  0  0  0
    2.6940  -38.0800   17.6570 O   0  0  0  0  0
    2.0490  -37.8820   19.9320 C   0  0  0  0  0
    1.1080  -37.3450   20.8310 C   0  0  0  0  0
    1.3080  -37.4730   22.2570 O   0  0  0  0  0
   -0.2180  -36.5540   18.9210 C   0  0  0  0  0
   -0.0300  -36.7040   20.3290 C   0  0  0  0  0
   -1.0810  -36.2930   21.1840 C   0  0  0  0  0
   -2.2680  -35.7640   20.6700 C   0  0  0  0  0
   -2.4410  -35.6230   19.2960 C   0  0  0  0  0
   -1.4090  -36.0190   18.4150 C   0  0  0  0  0
   -3.4920  -35.2840   21.7150 Cl  0  0  0  0  0
    3.1660  -38.8600   20.3430 C   0  0  0  0  0
    4.5290  -38.2030   20.6020 C   0  0  0  0  0
    2.7580  -39.9620   21.3560 C   0  0  0  0  0
    1.6422  -35.5366   22.2161 H   0  0  0  0  0
    3.8877  -36.1358   22.5091 H   0  0  0  0  0
    3.5199  -37.1145   24.0040 H   0  0  0  0  0
    3.3382  -34.1033   23.7727 H   0  0  0  0  0
    4.7005  -34.9964   24.4901 H   0  0  0  0  0
    3.2348  -34.3355   26.2616 H   0  0  0  0  0
    3.0530  -36.1010   26.0219 H   0  0  0  0  0
    1.2301  -33.9131   24.9938 H   0  0  0  0  0
    0.8764  -35.1368   26.2998 H   0  0  0  0  0
    0.5895  -36.8546   24.7898 H   0  0  0  0  0
   -0.0852  -35.4031   23.8468 H   0  0  0  0  0
    0.5616  -36.8991   17.0422 H   0  0  0  0  0
   -0.9621  -36.3910   22.2631 H   0  0  0  0  0
   -3.3687  -35.2088   18.9010 H   0  0  0  0  0
   -1.5407  -35.9076   17.3387 H   0  0  0  0  0
    3.3302  -39.4379   19.4335 H   0  0  0  0  0
    4.8666  -37.7002   19.6957 H   0  0  0  0  0
    4.4330  -37.4758   21.4082 H   0  0  0  0  0
    5.2518  -38.9682   20.8853 H   0  0  0  0  0
    2.4062  -39.4956   22.2762 H   0  0  0  0  0
    1.9613  -40.5703   20.9279 H   0  0  0  0  0
    3.6209  -40.5916   21.5731 H   0  0  0  0  0
  1  2  1  0  0  0
  1  6  1  0  0  0
 12  1  1  0  0  0
  2  3  1  0  0  0
  3  4  1  0  0  0
  5  4  1  0  0  0
  6  5  1  0  0  0
  8  7  1  0  0  0
  7 13  1  0  0  0
  8  9  2  0  0  0
 10  8  1  0  0  0
 11 10  2  0  0  0
 10 20  1  0  0  0
 11 12  1  0  0  0
 11 14  1  0  0  0
 13 14  4  0  0  0
 13 18  4  0  0  0
 14 15  4  0  0  0
 15 16  4  0  0  0
 16 17  4  0  0  0
 16 19  1  0  0  0
 17 18  4  0  0  0
 20 21  1  0  0  0
 20 22  1  0  0  0
  1 23  1  0  0  0
  2 24  1  0  0  0
  2 25  1  0  0  0
  3 26  1  0  0  0
  3 27  1  0  0  0
  4 28  1  0  0  0
  4 29  1  0  0  0
  5 30  1  0  0  0
  5 31  1  0  0  0
  6 32  1  0  0  0
  6 33  1  0  0  0
  7 34  1  0  0  0
 15 35  1  0  0  0
 17 36  1  0  0  0
 18 37  1  0  0  0
 20 38  1  0  0  0
 21 39  1  0  0  0
 21 40  1  0  0  0
 21 41  1  0  0  0
 22 42  1  0  0  0
 22 43  1  0  0  0
 22 44  1  0  0  0
M  END
$$$$
