2c4g_ligand
  -I-interpret- 

 33 35  0  0  0  0  0  0  0  0999 V2000
  -19.1710  212.4470  104.5130 O   0  0  0  0  0
  -13.8820  214.3400  102.4660 C   0  0  0  0  0
  -15.2750  213.9600  100.8790 N   0  0  0  0  0
  -14.1680  214.3270  101.1020 N   0  0  0  0  0
  -11.0000  215.1880  104.7670 C   0  0  0  0  0
   -9.8100  214.7010  104.1120 C   0  0  0  0  0
  -10.8550  216.1190  105.8580 C   0  0  0  0  0
  -12.2840  214.7680  104.3640 C   0  0  0  0  0
   -8.5240  215.1310  104.5340 C   0  0  0  0  0
   -9.5650  216.5440  106.2740 C   0  0  0  0  0
  -13.0810  214.4310  105.2350 O   0  0  0  0  0
  -12.5930  214.7480  103.0430 N   0  0  0  0  0
   -8.3970  216.0490  105.6110 C   0  0  0  0  0
  -15.9330  213.6620  102.0700 C   0  0  0  0  0
  -15.1430  213.8710  103.0870 C   0  0  0  0  0
  -15.7080  213.6000  104.4140 C   0  0  0  0  0
  -17.0700  213.1670  103.9860 N   0  0  0  0  0
  -17.2660  213.1820  102.5010 C   0  0  0  0  0
  -18.0430  212.7970  104.8820 C   0  0  0  0  0
  -17.7330  212.8240  106.3840 C   0  0  0  0  0
   -9.8990  213.9962  103.2853 H   0  0  0  0  0
  -11.7408  216.4992  106.3669 H   0  0  0  0  0
   -7.6328  214.7561  104.0308 H   0  0  0  0  0
   -9.4644  217.2484  107.0997 H   0  0  0  0  0
  -11.8654  215.0426  102.3917 H   0  0  0  0  0
   -7.4085  216.3768  105.9329 H   0  0  0  0  0
  -15.6833  214.4380  105.1106 H   0  0  0  0  0
  -15.1573  212.8771  105.0158 H   0  0  0  0  0
  -17.5579  212.2218  102.0757 H   0  0  0  0  0
  -18.0979  213.7999  102.1629 H   0  0  0  0  0
  -18.4134  213.5149  106.8818 H   0  0  0  0  0
  -17.8614  211.8240  106.7982 H   0  0  0  0  0
  -16.7047  213.1522  106.5356 H   0  0  0  0  0
 19  1  2  0  0  0
  2  4  4  0  0  0
  2 12  1  0  0  0
 15  2  4  0  0  0
  3  4  4  0  0  0
 14  3  4  0  0  0
  5  6  4  0  0  0
  5  7  4  0  0  0
  8  5  1  0  0  0
  6  9  4  0  0  0
  7 10  4  0  0  0
  8 11  2  0  0  0
 12  8  1  0  0  0
  9 13  4  0  0  0
 10 13  4  0  0  0
 14 15  4  0  0  0
 18 14  1  0  0  0
 16 15  1  0  0  0
 17 16  1  0  0  0
 17 18  1  0  0  0
 17 19  1  0  0  0
 19 20  1  0  0  0
  6 21  1  0  0  0
  7 22  1  0  0  0
  9 23  1  0  0  0
 10 24  1  0  0  0
 12 25  1  0  0  0
 13 26  1  0  0  0
 16 27  1  0  0  0
 16 28  1  0  0  0
 18 29  1  0  0  0
 18 30  1  0  0  0
 20 31  1  0  0  0
 20 32  1  0  0  0
 20 33  1  0  0  0
M  END
$$$$
