3drg_ligand
  -I-interpret- 

137141  0  0  0  0  0  0  0  0999 V2000
  -15.2920   -4.4520   24.6480 N   0  3  0  0  0
  -15.6150   -3.4110   23.6270 C   0  0  0  0  0
  -15.0980   -3.7860   22.2270 C   0  0  0  0  0
  -15.9050   -4.1050   21.3590 O   0  0  0  0  0
  -15.1210   -2.0230   24.0750 C   0  0  0  0  0
  -15.0830   -0.9510   22.9770 C   0  0  0  0  0
  -14.0650    0.1490   23.2800 C   0  0  0  0  0
  -12.6900   -0.3410   23.3860 N   0  0  0  0  0
  -11.9850   -0.3980   24.5160 C   0  0  0  0  0
  -10.7440   -0.8690   24.4970 N   0  0  0  0  0
  -12.5100    0.0160   25.6630 N   0  0  0  0  0
  -13.7630   -3.7600   22.0020 N   0  0  0  0  0
  -13.2960   -3.9720   20.6340 C   0  0  0  0  0
  -13.0990   -5.4580   20.3120 C   0  0  0  0  0
  -13.0210   -6.2750   21.2340 O   0  0  0  0  0
  -11.9530   -3.2340   20.6140 C   0  0  0  0  0
  -11.4700   -3.2560   22.0450 C   0  0  0  0  0
  -12.6260   -3.6540   22.9390 C   0  0  0  0  0
  -13.0300   -5.8150   19.0130 N   0  0  0  0  0
  -12.7300   -7.2080   18.6740 C   0  0  0  0  0
  -11.3410   -7.6230   19.1690 C   0  0  0  0  0
  -10.4200   -6.8040   19.1910 O   0  0  0  0  0
  -12.7870   -7.2230   17.1410 C   0  0  0  0  0
  -12.6200   -5.8010   16.7290 C   0  0  0  0  0
  -13.2620   -4.9960   17.8090 C   0  0  0  0  0
  -11.2090   -8.8810   19.5810 N   0  0  0  0  0
   -9.9350   -9.4080   20.0650 C   0  0  0  0  0
   -9.7360  -10.8730   19.7310 C   0  0  0  0  0
  -10.6910  -11.6520   19.7310 O   0  0  0  0  0
   -8.4920  -11.2440   19.4380 N   0  0  0  0  0
   -8.1320  -12.6390   19.1960 C   0  0  0  0  0
   -8.2160  -13.4360   20.4970 C   0  0  0  0  0
   -7.6260  -13.0540   21.5090 O   0  0  0  0  0
   -6.7210  -12.7450   18.6070 C   0  0  0  0  0
   -6.6040  -12.2360   17.1940 C   0  0  0  0  0
   -6.7680  -13.1000   16.1160 C   0  0  0  0  0
   -6.3160  -10.8990   16.9400 C   0  0  0  0  0
   -6.6560  -12.6400   14.8080 C   0  0  0  0  0
   -6.2060  -10.4300   15.6370 C   0  0  0  0  0
   -6.3740  -11.3030   14.5680 C   0  0  0  0  0
   -8.9670  -14.5330   20.4650 N   0  0  0  0  0
   -9.1120  -15.4060   21.6240 C   0  0  0  0  0
   -8.4080  -16.7380   21.3620 C   0  0  0  0  0
   -8.2520  -17.1250   20.2020 O   0  0  0  0  0
  -10.5930  -15.6250   21.9500 C   0  0  0  0  0
  -11.2820  -16.2050   20.8560 O   0  0  0  0  0
   -7.9640  -17.4290   22.4350 N   0  0  0  0  0
   -7.2730  -18.7250   22.3290 C   0  0  0  0  0
   -8.0390  -19.8250   21.5730 C   0  0  0  0  0
   -7.4210  -20.5630   20.8030 O   0  0  0  0  0
   -7.0410  -19.1320   23.7950 C   0  0  0  0  0
   -7.8630  -18.1860   24.6160 C   0  0  0  0  0
   -7.9550  -16.9320   23.8210 C   0  0  0  0  0
   -9.3530  -19.9300   21.7980 N   0  0  0  0  0
  -10.2380  -20.9010   21.1130 C   0  0  0  0  0
  -11.3230  -21.4380   22.0610 C   0  0  0  0  0
  -11.6480  -22.6300   22.0440 O   0  0  0  0  0
   -9.4420  -22.0670   20.4970 C   0  0  0  0  0
  -10.0270  -22.6020   19.2120 C   0  0  0  0  0
   -9.7590  -21.9770   17.9960 C   0  0  0  0  0
  -10.8290  -23.7450   19.2140 C   0  0  0  0  0
  -10.2910  -22.4710   16.8040 C   0  0  0  0  0
  -11.3660  -24.2480   18.0260 C   0  0  0  0  0
  -11.0950  -23.6090   16.8190 C   0  0  0  0  0
  -11.8750  -20.5460   22.8840 N   0  0  0  0  0
  -12.9000  -20.9030   23.8700 C   0  0  0  0  0
  -13.7880  -19.7040   24.2210 C   0  0  0  0  0
  -13.5880  -19.0182   25.2589 O   0  0  0  0  0
  -12.2550  -21.4910   25.1280 C   0  0  0  0  0
  -14.7396  -19.3972   23.4543 O   0  0  0  0  0
  -15.6298   -5.3589   24.3258 H   0  0  0  0  0
  -14.2817   -4.4925   24.7827 H   0  0  0  0  0
  -15.7446   -4.2131   25.5303 H   0  0  0  0  0
  -16.7009   -3.3620   23.5464 H   0  0  0  0  0
  -14.0945   -2.1538   24.4176 H   0  0  0  0  0
  -15.8248   -1.6709   24.8292 H   0  0  0  0  0
  -16.0700   -0.4926   22.9158 H   0  0  0  0  0
  -14.7947   -1.4323   22.0425 H   0  0  0  0  0
  -14.3319    0.5864   24.2420 H   0  0  0  0  0
  -14.0964    0.8607   22.4550 H   0  0  0  0  0
  -12.2370   -0.6632   22.5308 H   0  0  0  0  0
  -10.3322   -1.1861   23.6193 H   0  0  0  0  0
  -11.9605   -0.0292   26.5211 H   0  0  0  0  0
  -13.4629    0.3792   25.6861 H   0  0  0  0  0
  -14.0095   -3.6153   19.8912 H   0  0  0  0  0
  -12.0585   -2.2156   20.2401 H   0  0  0  0  0
  -11.2409   -3.7116   19.9411 H   0  0  0  0  0
  -11.1042   -2.2691   22.3285 H   0  0  0  0  0
  -10.6553   -3.9723   22.1508 H   0  0  0  0  0
  -12.4386   -4.5835   23.4767 H   0  0  0  0  0
  -12.8063   -2.9328   23.7361 H   0  0  0  0  0
  -13.4244   -7.9082   19.1385 H   0  0  0  0  0
  -13.7269   -7.6387   16.7780 H   0  0  0  0  0
  -12.0097   -7.8583   16.7163 H   0  0  0  0  0
  -13.0804   -5.6089   15.7598 H   0  0  0  0  0
  -11.5685   -5.5408   16.6078 H   0  0  0  0  0
  -12.8452   -3.9923   17.8932 H   0  0  0  0  0
  -14.3192   -4.8062   17.6237 H   0  0  0  0  0
  -12.0220   -9.4965   19.5583 H   0  0  0  0  0
   -9.9258   -9.3103   21.1506 H   0  0  0  0  0
   -9.1370   -8.8453   19.5807 H   0  0  0  0  0
   -7.7655  -10.5304   19.3805 H   0  0  0  0  0
   -8.8370  -13.0536   18.4755 H   0  0  0  0  0
   -6.4567  -13.8024   18.5916 H   0  0  0  0  0
   -6.0664  -12.1313   19.2259 H   0  0  0  0  0
   -6.9873  -14.1519   16.2989 H   0  0  0  0  0
   -6.1749  -10.2109   17.7735 H   0  0  0  0  0
   -6.7895  -13.3284   13.9735 H   0  0  0  0  0
   -5.9881   -9.3780   15.4528 H   0  0  0  0  0
   -6.2844  -10.9382   13.5448 H   0  0  0  0  0
   -9.4570  -14.7713   19.6027 H   0  0  0  0  0
   -8.6460  -14.9303   22.4869 H   0  0  0  0  0
  -11.0456  -14.6585   22.1715 H   0  0  0  0  0
  -10.6639  -16.3012   22.8020 H   0  0  0  0  0
  -12.2047  -16.3295   21.0901 H   0  0  0  0  0
   -6.3652  -18.6148   21.7359 H   0  0  0  0  0
   -5.9855  -19.0734   24.0606 H   0  0  0  0  0
   -7.3342  -20.1671   23.9704 H   0  0  0  0  0
   -7.4056  -18.0055   25.5888 H   0  0  0  0  0
   -8.8511  -18.5970   24.8230 H   0  0  0  0  0
   -8.8346  -16.3365   24.0654 H   0  0  0  0  0
   -7.1361  -16.2407   24.0201 H   0  0  0  0  0
   -9.7722  -19.3024   22.4841 H   0  0  0  0  0
  -10.7264  -20.3619   20.3012 H   0  0  0  0  0
   -9.4528  -22.8824   21.2203 H   0  0  0  0  0
   -8.4456  -21.6905   20.2655 H   0  0  0  0  0
   -9.1254  -21.0903   17.9753 H   0  0  0  0  0
  -11.0392  -24.2521   20.1557 H   0  0  0  0  0
  -10.0776  -21.9667   15.8615 H   0  0  0  0  0
  -11.9951  -25.1379   18.0442 H   0  0  0  0  0
  -11.5103  -23.9976   15.8891 H   0  0  0  0  0
  -11.5714  -19.5740   22.8253 H   0  0  0  0  0
  -13.5405  -21.6628   23.4222 H   0  0  0  0  0
  -12.8341  -19.3733   25.7354 H   0  0  0  0  0
  -11.6927  -22.3861   24.8620 H   0  0  0  0  0
  -11.5820  -20.7549   25.5677 H   0  0  0  0  0
  -13.0327  -21.7492   25.8467 H   0  0  0  0  0
  1  2  1  0  0  0
  2  3  1  0  0  0
  2  5  1  0  0  0
  3  4  2  0  0  0
  3 12  1  0  0  0
  5  6  1  0  0  0
  6  7  1  0  0  0
  7  8  1  0  0  0
  8  9  1  0  0  0
  9 10  2  0  0  0
  9 11  1  0  0  0
 12 13  1  0  0  0
 12 18  1  0  0  0
 13 14  1  0  0  0
 13 16  1  0  0  0
 14 15  2  0  0  0
 14 19  1  0  0  0
 16 17  1  0  0  0
 17 18  1  0  0  0
 19 20  1  0  0  0
 19 25  1  0  0  0
 20 21  1  0  0  0
 20 23  1  0  0  0
 21 22  2  0  0  0
 21 26  1  0  0  0
 23 24  1  0  0  0
 24 25  1  0  0  0
 26 27  1  0  0  0
 27 28  1  0  0  0
 28 29  2  0  0  0
 28 30  1  0  0  0
 30 31  1  0  0  0
 31 32  1  0  0  0
 31 34  1  0  0  0
 32 33  2  0  0  0
 32 41  1  0  0  0
 34 35  1  0  0  0
 35 36  4  0  0  0
 35 37  4  0  0  0
 36 38  4  0  0  0
 37 39  4  0  0  0
 38 40  4  0  0  0
 39 40  4  0  0  0
 41 42  1  0  0  0
 42 43  1  0  0  0
 42 45  1  0  0  0
 43 44  2  0  0  0
 43 47  1  0  0  0
 45 46  1  0  0  0
 47 48  1  0  0  0
 47 53  1  0  0  0
 48 49  1  0  0  0
 48 51  1  0  0  0
 49 50  2  0  0  0
 49 54  1  0  0  0
 51 52  1  0  0  0
 52 53  1  0  0  0
 54 55  1  0  0  0
 55 56  1  0  0  0
 55 58  1  0  0  0
 56 57  2  0  0  0
 56 65  1  0  0  0
 58 59  1  0  0  0
 59 60  4  0  0  0
 59 61  4  0  0  0
 60 62  4  0  0  0
 61 63  4  0  0  0
 62 64  4  0  0  0
 63 64  4  0  0  0
 65 66  1  0  0  0
 66 67  1  0  0  0
 66 69  1  0  0  0
 67 68  1  0  0  0
 67 70  2  0  0  0
  1 71  1  0  0  0
  1 72  1  0  0  0
  1 73  1  0  0  0
  2 74  1  0  0  0
  5 75  1  0  0  0
  5 76  1  0  0  0
  6 77  1  0  0  0
  6 78  1  0  0  0
  7 79  1  0  0  0
  7 80  1  0  0  0
  8 81  1  0  0  0
 10 82  1  0  0  0
 11 83  1  0  0  0
 11 84  1  0  0  0
 13 85  1  0  0  0
 16 86  1  0  0  0
 16 87  1  0  0  0
 17 88  1  0  0  0
 17 89  1  0  0  0
 18 90  1  0  0  0
 18 91  1  0  0  0
 20 92  1  0  0  0
 23 93  1  0  0  0
 23 94  1  0  0  0
 24 95  1  0  0  0
 24 96  1  0  0  0
 25 97  1  0  0  0
 25 98  1  0  0  0
 26 99  1  0  0  0
 27100  1  0  0  0
 27101  1  0  0  0
 30102  1  0  0  0
 31103  1  0  0  0
 34104  1  0  0  0
 34105  1  0  0  0
 36106  1  0  0  0
 37107  1  0  0  0
 38108  1  0  0  0
 39109  1  0  0  0
 40110  1  0  0  0
 41111  1  0  0  0
 42112  1  0  0  0
 45113  1  0  0  0
 45114  1  0  0  0
 46115  1  0  0  0
 48116  1  0  0  0
 51117  1  0  0  0
 51118  1  0  0  0
 52119  1  0  0  0
 52120  1  0  0  0
 53121  1  0  0  0
 53122  1  0  0  0
 54123  1  0  0  0
 55124  1  0  0  0
 58125  1  0  0  0
 58126  1  0  0  0
 60127  1  0  0  0
 61128  1  0  0  0
 62129  1  0  0  0
 63130  1  0  0  0
 64131  1  0  0  0
 65132  1  0  0  0
 66133  1  0  0  0
 68134  1  0  0  0
 69135  1  0  0  0
 69136  1  0  0  0
 69137  1  0  0  0
M  END
$$$$
