3vfb_ligand
  -I-interpret- 

 81 85  0  0  0  0  0  0  0  0999 V2000
    7.7930   14.2590   14.4240 O   0  0  0  0  0
    6.4080   14.1270   14.6630 C   0  0  0  0  0
    8.3800   15.4480   14.7280 C   0  0  0  0  0
    7.7370   16.5720   15.2430 C   0  0  0  0  0
    8.4810   17.7210   15.5410 C   0  0  0  0  0
    9.8510   17.7550   15.3460 C   0  0  0  0  0
   10.4390   16.6690   14.7490 C   0  0  0  0  0
    9.7220   15.5600   14.3700 C   0  0  0  0  0
   10.8730   19.1060   15.8520 S   0  0  0  0  0
   11.9470   19.3090   14.8650 O   0  0  0  0  0
    9.9650   20.2810   16.0510 O   0  0  0  0  0
   11.5220   18.7170   17.3150 N   0  0  0  0  0
   10.6060   18.3100   18.3250 C   0  0  0  0  0
   11.0990   18.6470   19.7350 C   0  0  0  0  0
   11.0450   20.1310   20.0250 C   0  0  0  0  0
   10.1030   18.0310   20.6140 N   0  0  0  0  0
    9.3120   18.8950   21.1410 C   0  0  0  0  0
    8.4090   18.4860   21.8590 O   0  0  0  0  0
    9.7010   20.3000   20.7630 C   0  0  0  0  0
   12.8200   18.0740   17.3300 C   0  0  0  0  0
   13.9090   18.9610   17.9410 C   0  0  0  0  0
   15.0070   18.1580   18.3250 O   0  0  0  0  0
   14.3450   20.1300   17.0620 C   0  0  0  0  0
   15.1310   21.0830   17.8070 N   0  0  0  0  0
   14.7680   22.2710   18.2920 C   0  0  0  0  0
   13.6480   22.7340   18.1890 O   0  0  0  0  0
   15.7880   22.9380   18.9320 O   0  0  0  0  0
   15.5270   25.1870   18.1160 C   0  0  0  0  0
   15.4920   24.2730   19.3320 C   0  0  0  0  0
   16.6490   24.8180   20.1830 C   0  0  0  0  0
   17.7200   25.2040   19.1860 C   0  0  0  0  0
   18.4800   24.0710   18.7550 O   0  0  0  0  0
   18.5390   23.9520   17.3540 C   0  0  0  0  0
   17.7030   25.1020   16.7790 C   0  0  0  0  0
   16.9610   25.7000   17.9900 C   0  0  0  0  0
   15.0790   19.7460   15.7700 C   0  0  0  0  0
   16.7150   21.3790   14.7700 C   0  0  0  0  0
   16.9760   22.5500   14.0560 C   0  0  0  0  0
   15.9740   23.2120   13.3520 C   0  0  0  0  0
   14.6800   22.7100   13.4360 C   0  0  0  0  0
   14.3860   21.5910   14.2080 C   0  0  0  0  0
   15.3940   20.9480   14.8970 C   0  0  0  0  0
    6.2072   14.2816   15.7231 H   0  0  0  0  0
    5.8671   14.8703   14.0773 H   0  0  0  0  0
    6.0841   13.1276   14.3725 H   0  0  0  0  0
    6.6605   16.5572   15.4131 H   0  0  0  0  0
    7.9730   18.6023   15.9327 H   0  0  0  0  0
   11.5139   16.6865   14.5688 H   0  0  0  0  0
   10.2013   14.7704   13.7912 H   0  0  0  0  0
   10.4915   17.2281   18.2587 H   0  0  0  0  0
    9.6679   18.8403   18.1613 H   0  0  0  0  0
   12.1277   18.3100   19.8627 H   0  0  0  0  0
   11.1066   20.7375   19.1214 H   0  0  0  0  0
   11.8942   20.4741   20.6160 H   0  0  0  0  0
   10.0439   17.0278   20.7884 H   0  0  0  0  0
    8.9472   20.7839   20.1419 H   0  0  0  0  0
    9.7866   20.9524   21.6320 H   0  0  0  0  0
   13.1006   17.8603   16.2987 H   0  0  0  0  0
   12.7411   17.1727   17.9378 H   0  0  0  0  0
   13.4705   19.4366   18.8182 H   0  0  0  0  0
   15.6898   18.7136   18.7080 H   0  0  0  0  0
   13.4061   20.5826   16.7430 H   0  0  0  0  0
   16.0972   20.8107   17.9876 H   0  0  0  0  0
   14.8282   26.0152   18.2336 H   0  0  0  0  0
   15.2281   24.6476   17.2172 H   0  0  0  0  0
   14.5308   24.2550   19.8458 H   0  0  0  0  0
   17.0095   24.0772   20.8968 H   0  0  0  0  0
   16.3381   25.6674   20.7912 H   0  0  0  0  0
   18.4070   25.9254   19.6283 H   0  0  0  0  0
   18.1486   22.9876   17.0291 H   0  0  0  0  0
   19.5693   24.0069   17.0024 H   0  0  0  0  0
   17.0105   24.7540   16.0125 H   0  0  0  0  0
   18.3261   25.8443   16.2802 H   0  0  0  0  0
   16.9107   26.7846   17.8938 H   0  0  0  0  0
   14.4303   19.0797   15.2014 H   0  0  0  0  0
   16.0229   19.2769   16.0476 H   0  0  0  0  0
   17.5291   20.8112   15.2205 H   0  0  0  0  0
   17.9878   22.9553   14.0496 H   0  0  0  0  0
   16.1967   24.0957   12.7540 H   0  0  0  0  0
   13.8793   23.2037   12.8853 H   0  0  0  0  0
   13.3618   21.2229   14.2686 H   0  0  0  0  0
  1  2  1  0  0  0
  3  1  1  0  0  0
  4  3  4  0  0  0
  8  3  4  0  0  0
  5  4  4  0  0  0
  6  5  4  0  0  0
  6  7  4  0  0  0
  9  6  1  0  0  0
  7  8  4  0  0  0
  9 10  2  0  0  0
  9 11  2  0  0  0
 12  9  1  0  0  0
 12 13  1  0  0  0
 20 12  1  0  0  0
 13 14  1  0  0  0
 14 15  1  0  0  0
 14 16  1  0  0  0
 15 19  1  0  0  0
 16 17  1  0  0  0
 17 18  2  0  0  0
 17 19  1  0  0  0
 21 20  1  0  0  0
 21 22  1  0  0  0
 23 21  1  0  0  0
 23 24  1  0  0  0
 36 23  1  0  0  0
 24 25  1  0  0  0
 25 26  2  0  0  0
 25 27  1  0  0  0
 27 29  1  0  0  0
 29 28  1  0  0  0
 28 35  1  0  0  0
 29 30  1  0  0  0
 30 31  1  0  0  0
 31 32  1  0  0  0
 31 35  1  0  0  0
 32 33  1  0  0  0
 34 33  1  0  0  0
 35 34  1  0  0  0
 42 36  1  0  0  0
 37 38  4  0  0  0
 37 42  4  0  0  0
 38 39  4  0  0  0
 39 40  4  0  0  0
 40 41  4  0  0  0
 41 42  4  0  0  0
  2 43  1  0  0  0
  2 44  1  0  0  0
  2 45  1  0  0  0
  4 46  1  0  0  0
  5 47  1  0  0  0
  7 48  1  0  0  0
  8 49  1  0  0  0
 13 50  1  0  0  0
 13 51  1  0  0  0
 14 52  1  0  0  0
 15 53  1  0  0  0
 15 54  1  0  0  0
 16 55  1  0  0  0
 19 56  1  0  0  0
 19 57  1  0  0  0
 20 58  1  0  0  0
 20 59  1  0  0  0
 21 60  1  0  0  0
 22 61  1  0  0  0
 23 62  1  0  0  0
 24 63  1  0  0  0
 28 64  1  0  0  0
 28 65  1  0  0  0
 29 66  1  0  0  0
 30 67  1  0  0  0
 30 68  1  0  0  0
 31 69  1  0  0  0
 33 70  1  0  0  0
 33 71  1  0  0  0
 34 72  1  0  0  0
 34 73  1  0  0  0
 35 74  1  0  0  0
 36 75  1  0  0  0
 36 76  1  0  0  0
 37 77  1  0  0  0
 38 78  1  0  0  0
 39 79  1  0  0  0
 40 80  1  0  0  0
 41 81  1  0  0  0
M  END
$$$$
