1m0b_ligand
  -I-interpret- 

100102  0  0  0  0  0  0  0  0999 V2000
   -8.3880   15.5290   -2.5950 O   0  0  0  0  0
   -8.2370   16.5330   -3.2540 C   0  0  0  0  0
   -8.3700   16.6440   -4.6150 O   0  0  0  0  0
   -9.0020   15.5950   -5.4930 C   0  0  0  0  0
   -8.9150   16.1400   -6.9140 C   0  0  0  0  0
  -10.4790   15.3880   -5.0860 C   0  0  0  0  0
   -8.1980   14.2870   -5.3690 C   0  0  0  0  0
   -7.9010   17.7520   -2.7510 N   0  0  0  0  0
   -7.6340   17.9260   -1.3270 C   0  0  0  0  0
   -8.8060   18.6250   -0.6340 C   0  0  0  0  0
   -6.3200   18.6940   -1.1310 C   0  0  0  0  0
   -5.1400   18.0280   -1.7760 C   0  0  0  0  0
   -4.6920   18.4390   -3.0330 C   0  0  0  0  0
   -4.5230   16.9350   -1.1660 C   0  0  0  0  0
   -3.6530   17.7710   -3.6760 C   0  0  0  0  0
   -3.4830   16.2590   -1.8020 C   0  0  0  0  0
   -3.0490   16.6780   -3.0590 C   0  0  0  0  0
   -9.5760   17.7220    0.3270 C   0  0  0  0  0
  -10.6760   17.0270   -0.3340 N   0  3  0  0  0
  -11.2620   15.9140    0.4180 C   0  0  0  0  0
  -10.4190   15.2950    1.5460 C   0  0  0  0  0
   -9.3730   14.6980    1.2960 O   0  0  0  0  0
  -11.6570   14.7930   -0.5430 C   0  0  0  0  0
  -12.3830   13.6630    0.1200 C   0  0  0  0  0
  -12.1080   12.3500   -0.2290 C   0  0  0  0  0
  -13.3250   13.9120    1.1130 C   0  0  0  0  0
  -12.7520   11.2930    0.3990 C   0  0  0  0  0
  -13.9790   12.8590    1.7520 C   0  0  0  0  0
  -13.6910   11.5490    1.3950 C   0  0  0  0  0
  -10.9030   15.4250    2.7800 N   0  0  0  0  0
  -10.2460   14.8750    3.9650 C   0  0  0  0  0
  -11.3350   14.6100    5.0010 C   0  0  0  0  0
  -12.1910   15.4600    5.2250 O   0  0  0  0  0
   -9.2210   15.8670    4.5270 C   0  0  0  0  0
   -8.4970   15.3860    5.7830 C   0  0  0  0  0
   -9.3760   15.4210    7.0340 C   0  0  0  0  0
   -8.9920   14.8270    8.0690 O   0  0  0  0  0
  -10.4510   16.0560    6.9880 O   0  0  0  0  0
  -11.3100   13.4390    5.6310 N   0  0  0  0  0
  -12.3090   13.1080    6.6370 C   0  0  0  0  0
  -11.7400   12.4240    7.8820 C   0  0  0  0  0
  -10.6190   11.9180    7.8780 O   0  0  0  0  0
  -13.4140   12.2430    6.0110 C   0  0  0  0  0
  -12.9260   10.9370    5.4420 C   0  0  0  0  0
  -13.0590    9.7580    6.1590 C   0  0  0  0  0
  -12.3430   10.8860    4.1760 C   0  0  0  0  0
  -12.6220    8.5450    5.6230 C   0  0  0  0  0
  -11.9020    9.6750    3.6310 C   0  0  0  0  0
  -12.0430    8.5060    4.3560 C   0  0  0  0  0
  -12.5220   12.4160    8.9550 N   0  0  0  0  0
   -7.8724   16.3387   -7.1624 H   0  0  0  0  0
   -9.3218   15.4055   -7.6090 H   0  0  0  0  0
   -9.4888   17.0642   -6.9831 H   0  0  0  0  0
  -10.9320   14.6392   -5.7357 H   0  0  0  0  0
  -10.5253   15.0489   -4.0511 H   0  0  0  0  0
  -11.0174   16.3305   -5.1852 H   0  0  0  0  0
   -8.2281   13.9401   -4.3361 H   0  0  0  0  0
   -8.6349   13.5303   -6.0207 H   0  0  0  0  0
   -7.1641   14.4683   -5.6628 H   0  0  0  0  0
   -7.8349   18.5543   -3.3774 H   0  0  0  0  0
   -7.5258   16.9451   -0.8642 H   0  0  0  0  0
   -9.5014   18.9436   -1.4105 H   0  0  0  0  0
   -8.3956   19.4487   -0.0499 H   0  0  0  0  0
   -6.1247   18.7439   -0.0598 H   0  0  0  0  0
   -6.4390   19.6733   -1.5945 H   0  0  0  0  0
   -5.1621   19.2947   -3.5177 H   0  0  0  0  0
   -4.8578   16.6065   -0.1821 H   0  0  0  0  0
   -3.3139   18.1019   -4.6576 H   0  0  0  0  0
   -3.0101   15.4047   -1.3177 H   0  0  0  0  0
   -2.2369   16.1501   -3.5590 H   0  0  0  0  0
   -9.9941   18.3452    1.1175 H   0  0  0  0  0
   -8.8860   16.9733    0.7161 H   0  0  0  0  0
  -10.2941   16.6287   -1.1918 H   0  0  0  0  0
  -11.4188   17.7143   -0.4615 H   0  0  0  0  0
  -12.1108   16.3773    0.9210 H   0  0  0  0  0
  -10.7385   14.3873   -0.9671 H   0  0  0  0  0
  -12.3289   15.2216   -1.2867 H   0  0  0  0  0
  -11.3746   12.1444   -1.0087 H   0  0  0  0  0
  -13.5541   14.9399    1.3942 H   0  0  0  0  0
  -12.5236   10.2661    0.1136 H   0  0  0  0  0
  -14.7145   13.0642    2.5298 H   0  0  0  0  0
  -14.1985   10.7228    1.8929 H   0  0  0  0  0
  -11.7776   15.9348    2.9050 H   0  0  0  0  0
   -9.7129   13.9587    3.7115 H   0  0  0  0  0
   -9.7672   16.7700    4.7996 H   0  0  0  0  0
   -8.4627   16.0125    3.7576 H   0  0  0  0  0
   -7.6520   16.0530    5.9537 H   0  0  0  0  0
   -8.1989   14.3508    5.6170 H   0  0  0  0  0
   -8.1478   14.4028    7.8986 H   0  0  0  0  0
  -10.5802   12.7629    5.4061 H   0  0  0  0  0
  -12.7199   14.0567    6.9823 H   0  0  0  0  0
  -13.8415   12.8137    5.1866 H   0  0  0  0  0
  -14.1235   12.0040    6.8032 H   0  0  0  0  0
  -13.5094    9.7781    7.1514 H   0  0  0  0  0
  -12.2290   11.8052    3.6013 H   0  0  0  0  0
  -12.7341    7.6255    6.1975 H   0  0  0  0  0
  -11.4495    9.6533    2.6396 H   0  0  0  0  0
  -11.7028    7.5584    3.9384 H   0  0  0  0  0
  -12.1991   11.9787    9.8181 H   0  0  0  0  0
  -13.4456   12.8471    8.9162 H   0  0  0  0  0
  1  2  2  0  0  0
  2  3  1  0  0  0
  2  8  1  0  0  0
  3  4  1  0  0  0
  4  5  1  0  0  0
  4  6  1  0  0  0
  4  7  1  0  0  0
  8  9  1  0  0  0
  9 10  1  0  0  0
  9 11  1  0  0  0
 10 18  1  0  0  0
 11 12  1  0  0  0
 12 13  4  0  0  0
 12 14  4  0  0  0
 13 15  4  0  0  0
 14 16  4  0  0  0
 15 17  4  0  0  0
 16 17  4  0  0  0
 18 19  1  0  0  0
 19 20  1  0  0  0
 20 21  1  0  0  0
 20 23  1  0  0  0
 21 22  2  0  0  0
 21 30  1  0  0  0
 23 24  1  0  0  0
 24 25  4  0  0  0
 24 26  4  0  0  0
 25 27  4  0  0  0
 26 28  4  0  0  0
 27 29  4  0  0  0
 28 29  4  0  0  0
 30 31  1  0  0  0
 31 32  1  0  0  0
 31 34  1  0  0  0
 32 33  2  0  0  0
 32 39  1  0  0  0
 34 35  1  0  0  0
 35 36  1  0  0  0
 36 37  1  0  0  0
 36 38  2  0  0  0
 39 40  1  0  0  0
 40 41  1  0  0  0
 40 43  1  0  0  0
 41 42  2  0  0  0
 41 50  1  0  0  0
 43 44  1  0  0  0
 44 45  4  0  0  0
 44 46  4  0  0  0
 45 47  4  0  0  0
 46 48  4  0  0  0
 47 49  4  0  0  0
 48 49  4  0  0  0
  5 51  1  0  0  0
  5 52  1  0  0  0
  5 53  1  0  0  0
  6 54  1  0  0  0
  6 55  1  0  0  0
  6 56  1  0  0  0
  7 57  1  0  0  0
  7 58  1  0  0  0
  7 59  1  0  0  0
  8 60  1  0  0  0
  9 61  1  0  0  0
 10 62  1  0  0  0
 10 63  1  0  0  0
 11 64  1  0  0  0
 11 65  1  0  0  0
 13 66  1  0  0  0
 14 67  1  0  0  0
 15 68  1  0  0  0
 16 69  1  0  0  0
 17 70  1  0  0  0
 18 71  1  0  0  0
 18 72  1  0  0  0
 19 73  1  0  0  0
 19 74  1  0  0  0
 20 75  1  0  0  0
 23 76  1  0  0  0
 23 77  1  0  0  0
 25 78  1  0  0  0
 26 79  1  0  0  0
 27 80  1  0  0  0
 28 81  1  0  0  0
 29 82  1  0  0  0
 30 83  1  0  0  0
 31 84  1  0  0  0
 34 85  1  0  0  0
 34 86  1  0  0  0
 35 87  1  0  0  0
 35 88  1  0  0  0
 37 89  1  0  0  0
 39 90  1  0  0  0
 40 91  1  0  0  0
 43 92  1  0  0  0
 43 93  1  0  0  0
 45 94  1  0  0  0
 46 95  1  0  0  0
 47 96  1  0  0  0
 48 97  1  0  0  0
 49 98  1  0  0  0
 50 99  1  0  0  0
 50100  1  0  0  0
M  END
$$$$
