3sm2_ligand
  -I-interpret- 

 70 72  0  0  0  0  0  0  0  0999 V2000
   -2.6620    1.3630   16.0670 C   0  0  0  0  0
   -4.6390    1.2380   14.7350 C   0  0  0  0  0
   -2.9240    2.7800   12.6580 C   0  0  0  0  0
   -3.3930    2.0530   14.9290 C   0  0  0  0  0
   -2.4950    3.1570   10.2390 C   0  0  0  0  0
   -3.2700    2.2460    9.2490 C   0  0  0  0  0
   -1.1280    3.7010    9.7720 C   0  0  0  0  0
   -0.4530    4.4740   10.8970 C   0  0  0  0  0
    0.6890    3.9330   11.5090 C   0  0  0  0  0
   -0.9390    5.7200   11.3510 C   0  0  0  0  0
    1.3410    4.5870   12.5630 C   0  0  0  0  0
   -0.2850    6.3630   12.4130 C   0  0  0  0  0
    0.8290    5.7990   13.0210 C   0  0  0  0  0
   -3.7390    2.9320    7.9510 C   0  0  0  0  0
   -6.1960    3.2670    7.7960 C   0  0  0  0  0
   -6.8620    2.3120    8.8180 C   0  0  0  0  0
   -4.6780    5.8180    6.4790 C   0  0  0  0  0
   -3.5070    5.9290    5.7220 C   0  0  0  0  0
   -3.5800    6.3140    4.3760 C   0  0  0  0  0
   -4.8250    6.5590    3.7970 C   0  0  0  0  0
   -5.9830    6.4460    4.5520 C   0  0  0  0  0
   -5.9140    6.0730    5.8960 C   0  0  0  0  0
   -7.0530    2.9420   10.1890 C   0  0  0  0  0
   -8.2310    1.8280    8.3490 C   0  0  0  0  0
   -4.4800    0.0600   15.6950 C   0  0  0  0  0
   -2.2760    2.4850   11.5190 N   0  0  0  0  0
   -4.8990    3.7890    8.2890 N   0  0  0  0  0
   -4.9270    6.9220    2.4880 N   0  0  0  0  0
   -2.5610    1.9330   13.7820 O   0  0  0  0  0
   -3.7670    3.6550   12.7940 O   0  0  0  0  0
   -2.5190    1.0630    8.9000 O   0  0  0  0  0
   -3.2230    5.6300    8.4100 O   0  0  0  0  0
   -5.5280    6.0800    8.8380 O   0  0  0  0  0
   -3.0950    0.0100   16.0000 O   0  0  0  0  0
   -4.5770    5.3690    8.0220 S   0  0  0  0  0
   -2.8875    1.8168   17.0321 H   0  0  0  0  0
   -1.5799    1.4509   15.9702 H   0  0  0  0  0
   -4.7556    0.9100   13.7021 H   0  0  0  0  0
   -5.5404    1.8147   14.9422 H   0  0  0  0  0
   -3.6227    3.1031   15.1099 H   0  0  0  0  0
   -3.1597    4.0172   10.3193 H   0  0  0  0  0
   -4.1666    1.9793    9.8086 H   0  0  0  0  0
   -1.2820    4.3689    8.9245 H   0  0  0  0  0
   -0.4918    2.8639    9.4845 H   0  0  0  0  0
    1.0789    2.9787   11.1548 H   0  0  0  0  0
   -1.8110    6.1763   10.8824 H   0  0  0  0  0
    2.2331    4.1550   13.0165 H   0  0  0  0  0
   -0.6585    7.3237   12.7676 H   0  0  0  0  0
    1.3047    6.3067   13.8600 H   0  0  0  0  0
   -4.0219    2.1860    7.2083 H   0  0  0  0  0
   -2.9342    3.5325    7.5270 H   0  0  0  0  0
   -6.8644    4.1124    7.6331 H   0  0  0  0  0
   -6.0126    2.7097    6.8774 H   0  0  0  0  0
   -6.1671    1.4757    8.8949 H   0  0  0  0  0
   -2.5399    5.7166    6.1777 H   0  0  0  0  0
   -2.6699    6.4212    3.7859 H   0  0  0  0  0
   -6.9511    6.6492    4.0943 H   0  0  0  0  0
   -6.8261    5.9821    6.4859 H   0  0  0  0  0
   -6.0829    3.2327   10.5922 H   0  0  0  0  0
   -7.6885    3.8228   10.0973 H   0  0  0  0  0
   -7.5240    2.2205   10.8566 H   0  0  0  0  0
   -8.8892    2.6853    8.2076 H   0  0  0  0  0
   -8.1221    1.2924    7.4059 H   0  0  0  0  0
   -8.6562    1.1618    9.0997 H   0  0  0  0  0
   -4.8262   -0.8717   15.2477 H   0  0  0  0  0
   -5.0842    0.1898   16.5929 H   0  0  0  0  0
   -1.5814    1.7387   11.5492 H   0  0  0  0  0
   -4.0864    7.0177    1.9183 H   0  0  0  0  0
   -5.8440    7.0981    2.0776 H   0  0  0  0  0
   -2.2211    0.6265    9.7014 H   0  0  0  0  0
  4  1  1  0  0  0
  1 34  1  0  0  0
  4  2  1  0  0  0
  2 25  1  0  0  0
 26  3  1  0  0  0
  3 29  1  0  0  0
  3 30  2  0  0  0
 29  4  1  0  0  0
  6  5  1  0  0  0
  5  7  1  0  0  0
  5 26  1  0  0  0
 14  6  1  0  0  0
  6 31  1  0  0  0
  7  8  1  0  0  0
  8  9  4  0  0  0
  8 10  4  0  0  0
  9 11  4  0  0  0
 10 12  4  0  0  0
 11 13  4  0  0  0
 12 13  4  0  0  0
 27 14  1  0  0  0
 15 16  1  0  0  0
 27 15  1  0  0  0
 16 23  1  0  0  0
 16 24  1  0  0  0
 17 18  4  0  0  0
 17 22  4  0  0  0
 35 17  1  0  0  0
 18 19  4  0  0  0
 19 20  4  0  0  0
 21 20  4  0  0  0
 20 28  1  0  0  0
 22 21  4  0  0  0
 25 34  1  0  0  0
 27 35  1  0  0  0
 35 32  2  0  0  0
 35 33  2  0  0  0
  1 36  1  0  0  0
  1 37  1  0  0  0
  2 38  1  0  0  0
  2 39  1  0  0  0
  4 40  1  0  0  0
  5 41  1  0  0  0
  6 42  1  0  0  0
  7 43  1  0  0  0
  7 44  1  0  0  0
  9 45  1  0  0  0
 10 46  1  0  0  0
 11 47  1  0  0  0
 12 48  1  0  0  0
 13 49  1  0  0  0
 14 50  1  0  0  0
 14 51  1  0  0  0
 15 52  1  0  0  0
 15 53  1  0  0  0
 16 54  1  0  0  0
 18 55  1  0  0  0
 19 56  1  0  0  0
 21 57  1  0  0  0
 22 58  1  0  0  0
 23 59  1  0  0  0
 23 60  1  0  0  0
 23 61  1  0  0  0
 24 62  1  0  0  0
 24 63  1  0  0  0
 24 64  1  0  0  0
 25 65  1  0  0  0
 25 66  1  0  0  0
 26 67  1  0  0  0
 28 68  1  0  0  0
 28 69  1  0  0  0
 31 70  1  0  0  0
M  END
$$$$
