3vry_ligand
  -I-interpret- 

 50 54  0  0  0  0  0  0  0  0999 V2000
    3.6810   -7.4130   12.3810 N   0  0  0  0  0
    4.4150   -8.4770   11.9780 C   0  0  0  0  0
    5.5920   -8.2980   11.3290 N   0  0  0  0  0
    6.3330   -9.3380   10.9240 C   0  0  0  0  0
    5.9230  -10.5960   11.1660 N   0  0  0  0  0
    4.7490  -10.8450   11.8180 C   0  0  0  0  0
    3.9680   -9.7610   12.2430 C   0  0  0  0  0
    4.1200  -11.9810   12.2030 N   0  0  0  0  0
    4.4160  -13.4330   12.0600 C   0  0  0  0  0
    4.6650  -13.9460   10.6600 C   0  0  0  0  0
    5.1480  -15.3670   10.9410 C   0  0  0  0  0
    5.8400  -15.3390   12.3100 C   0  0  0  0  0
    5.6010  -13.9490   12.8850 C   0  0  0  0  0
    2.9950  -11.6650   12.8200 C   0  0  0  0  0
    2.8560  -10.3030   12.9010 C   0  0  0  0  0
    1.6070   -9.7830   13.5170 C   0  0  0  0  0
    1.1270  -10.3220   14.7160 C   0  0  0  0  0
   -0.1050   -9.8910   15.2340 C   0  0  0  0  0
   -0.8630   -8.9490   14.5390 C   0  0  0  0  0
   -0.3890   -8.4640   13.3200 C   0  0  0  0  0
    0.8310   -8.8790   12.7960 C   0  0  0  0  0
   -2.0790   -8.4950   15.0140 O   0  0  0  0  0
   -2.2930   -8.1540   16.3270 C   0  0  0  0  0
   -3.4400   -8.5870   17.0050 C   0  0  0  0  0
   -3.6570   -8.2160   18.3380 C   0  0  0  0  0
   -2.7250   -7.3950   18.9880 C   0  0  0  0  0
   -1.5860   -6.9530   18.3080 C   0  0  0  0  0
   -1.3780   -7.3300   16.9820 C   0  0  0  0  0
    4.0121   -6.4659   12.1971 H   0  0  0  0  0
    2.7969   -7.5585   12.8685 H   0  0  0  0  0
    7.2710   -9.1642   10.3968 H   0  0  0  0  0
    3.4675  -13.8175   12.4350 H   0  0  0  0  0
    5.3776  -13.3456   10.0945 H   0  0  0  0  0
    3.7871  -13.9019   10.0154 H   0  0  0  0  0
    5.8372  -15.7019   10.1658 H   0  0  0  0  0
    4.3120  -16.0664   10.9442 H   0  0  0  0  0
    6.9062  -15.5440   12.2133 H   0  0  0  0  0
    5.4365  -16.1088   12.9678 H   0  0  0  0  0
    5.3955  -13.9644   13.9553 H   0  0  0  0  0
    6.4779  -13.3056   12.8126 H   0  0  0  0  0
    2.2773  -12.3865   13.2103 H   0  0  0  0  0
    1.7087  -11.0754   15.2471 H   0  0  0  0  0
   -0.4690  -10.2928   16.1796 H   0  0  0  0  0
   -0.9888   -7.7427   12.7649 H   0  0  0  0  0
    1.1752   -8.5013   11.8332 H   0  0  0  0  0
   -4.1676   -9.2161   16.4922 H   0  0  0  0  0
   -4.5447   -8.5634   18.8665 H   0  0  0  0  0
   -2.8884   -7.1008   20.0248 H   0  0  0  0  0
   -0.8617   -6.3146   18.8139 H   0  0  0  0  0
   -0.4927   -6.9778   16.4526 H   0  0  0  0  0
  1  2  1  0  0  0
  2  3  4  0  0  0
  2  7  4  0  0  0
  3  4  4  0  0  0
  4  5  4  0  0  0
  5  6  4  0  0  0
  6  7  4  0  0  0
  6  8  4  0  0  0
  7 15  4  0  0  0
  8  9  1  0  0  0
  8 14  4  0  0  0
  9 10  1  0  0  0
  9 13  1  0  0  0
 10 11  1  0  0  0
 11 12  1  0  0  0
 12 13  1  0  0  0
 14 15  4  0  0  0
 15 16  1  0  0  0
 16 17  4  0  0  0
 16 21  4  0  0  0
 17 18  4  0  0  0
 18 19  4  0  0  0
 19 20  4  0  0  0
 19 22  1  0  0  0
 20 21  4  0  0  0
 22 23  1  0  0  0
 23 24  4  0  0  0
 23 28  4  0  0  0
 24 25  4  0  0  0
 25 26  4  0  0  0
 26 27  4  0  0  0
 27 28  4  0  0  0
  1 29  1  0  0  0
  1 30  1  0  0  0
  4 31  1  0  0  0
  9 32  1  0  0  0
 10 33  1  0  0  0
 10 34  1  0  0  0
 11 35  1  0  0  0
 11 36  1  0  0  0
 12 37  1  0  0  0
 12 38  1  0  0  0
 13 39  1  0  0  0
 13 40  1  0  0  0
 14 41  1  0  0  0
 17 42  1  0  0  0
 18 43  1  0  0  0
 20 44  1  0  0  0
 21 45  1  0  0  0
 24 46  1  0  0  0
 25 47  1  0  0  0
 26 48  1  0  0  0
 27 49  1  0  0  0
 28 50  1  0  0  0
M  END
$$$$
