6ma3_ligand
  -I-interpret- 

 69 72  0  0  0  0  0  0  0  0999 V2000
    2.1330  -43.9540   16.2080 N   0  0  0  0  0
    0.9170  -44.5020   16.7600 C   0  0  0  0  0
    0.1060  -43.4540   18.8970 C   0  0  0  0  0
   -1.8570  -42.1100   18.7940 C   0  0  0  0  0
   -2.8290  -39.7460   15.8750 C   0  0  0  0  0
    1.1090  -43.9830   21.0120 C   0  0  0  0  0
    1.9230  -45.0200   19.0110 C   0  0  0  0  0
   -0.0850  -49.1720    9.4470 O   0  0  0  0  0
    0.0360  -48.2400   10.1600 C   0  0  0  0  0
    1.2820  -48.0750   10.8920 N   0  0  0  0  0
    1.4660  -46.8830   11.8170 C   0  0  0  0  0
    0.4360  -45.9340   11.9650 C   0  0  0  0  0
   -0.8810  -46.0990   11.2000 C   0  0  0  0  0
   -1.0610  -47.2500   10.3110 C   0  0  0  0  0
    0.6190  -44.8500   12.8230 C   0  0  0  0  0
    1.8240  -44.7140   13.5100 C   0  0  0  0  0
    2.0620  -43.3190   14.6350 S   0  0  0  0  0
    0.9600  -42.3630   14.5090 O   0  0  0  0  0
    0.9810  -44.3260   18.2740 C   0  0  0  0  0
   -0.8260  -42.7630   18.1120 O   0  0  0  0  0
   -2.7120  -41.3790   17.7670 C   0  0  0  0  0
   -1.8990  -40.4910   16.8280 C   0  0  0  0  0
   -4.0120  -40.1600   15.7300 O   0  0  0  0  0
   -2.4310  -38.7240   15.2520 O   0  0  0  0  0
    0.1710  -43.2850   20.2720 C   0  0  0  0  0
    1.9870  -44.8470   20.3870 C   0  0  0  0  0
    0.8160  -45.9860   16.3780 C   0  0  0  0  0
   -0.4790  -46.6610   16.3030 N   0  0  0  0  0
   -0.5330  -48.0650   15.9260 C   0  0  0  0  0
   -0.2160  -48.9650   17.1190 C   0  0  0  0  0
   -0.2220  -48.4940   18.2860 O   0  0  0  0  0
    0.0600  -50.1780   16.9240 O   0  0  0  0  0
   -1.7180  -45.9560   16.5890 C   0  0  0  0  0
   -2.4120  -45.4910   15.3120 C   0  0  0  0  0
   -2.5390  -44.1700   14.8580 C   0  0  0  0  0
   -3.2600  -44.0640   13.6230 C   0  0  0  0  0
   -3.7110  -45.2820   13.0980 C   0  0  0  0  0
   -3.2030  -46.4710   14.1830 S   0  0  0  0  0
    1.8050  -46.5910   16.1350 O   0  0  0  0  0
    3.2530  -42.5410   14.2980 O   0  0  0  0  0
    2.8540  -45.6590   13.3620 C   0  0  0  0  0
    2.6680  -46.7460   12.5130 C   0  0  0  0  0
    3.0017  -43.9485   16.7425 H   0  0  0  0  0
    0.0347  -43.9940   16.3706 H   0  0  0  0  0
   -1.4439  -41.4020   19.5124 H   0  0  0  0  0
   -2.4621  -42.8320   19.3423 H   0  0  0  0  0
    1.1553  -43.8505   22.0929 H   0  0  0  0  0
    2.6133  -45.7009   18.5130 H   0  0  0  0  0
    2.0315  -48.7585   10.7847 H   0  0  0  0  0
   -1.6787  -45.3653   11.3161 H   0  0  0  0  0
   -1.9947  -47.3789    9.7636 H   0  0  0  0  0
   -0.1745  -44.1145   12.9554 H   0  0  0  0  0
   -3.4042  -40.7367   18.3114 H   0  0  0  0  0
   -3.2120  -42.1322   17.1581 H   0  0  0  0  0
   -1.3365  -39.7672   17.4178 H   0  0  0  0  0
   -1.2167  -41.1131   16.2487 H   0  0  0  0  0
   -4.1453  -40.9408   16.2724 H   0  0  0  0  0
   -0.5172  -42.6020   20.7700 H   0  0  0  0  0
    2.7279  -45.3914   20.9724 H   0  0  0  0  0
    0.2059  -48.2461   15.1454 H   0  0  0  0  0
   -1.5385  -48.2938   15.5729 H   0  0  0  0  0
    0.0187  -50.3673   15.9837 H   0  0  0  0  0
   -1.4821  -45.0780   17.1903 H   0  0  0  0  0
   -2.3871  -46.6376   17.1142 H   0  0  0  0  0
   -2.1309  -43.3108   15.3902 H   0  0  0  0  0
   -3.4431  -43.1090   13.1305 H   0  0  0  0  0
   -4.2747  -45.4313   12.1771 H   0  0  0  0  0
    3.7903  -45.5415   13.9075 H   0  0  0  0  0
    3.4579  -47.4873   12.3921 H   0  0  0  0  0
  2  1  1  0  0  0
  1 17  1  0  0  0
 19  2  1  0  0  0
  2 27  1  0  0  0
  3 19  4  0  0  0
 20  3  1  0  0  0
  3 25  4  0  0  0
  4 20  1  0  0  0
 21  4  1  0  0  0
 22  5  1  0  0  0
  5 23  1  0  0  0
  5 24  2  0  0  0
 25  6  4  0  0  0
  6 26  4  0  0  0
 19  7  4  0  0  0
  7 26  4  0  0  0
  9  8  2  0  0  0
 10  9  1  0  0  0
 14  9  1  0  0  0
 11 10  1  0  0  0
 12 11  4  0  0  0
 11 42  4  0  0  0
 12 13  1  0  0  0
 15 12  4  0  0  0
 13 14  2  0  0  0
 16 15  4  0  0  0
 17 16  1  0  0  0
 16 41  4  0  0  0
 17 18  2  0  0  0
 17 40  2  0  0  0
 21 22  1  0  0  0
 27 28  1  0  0  0
 27 39  2  0  0  0
 28 29  1  0  0  0
 28 33  1  0  0  0
 29 30  1  0  0  0
 30 31  2  0  0  0
 30 32  1  0  0  0
 33 34  1  0  0  0
 34 35  4  0  0  0
 34 38  4  0  0  0
 35 36  4  0  0  0
 36 37  4  0  0  0
 37 38  4  0  0  0
 41 42  4  0  0  0
  1 43  1  0  0  0
  2 44  1  0  0  0
  4 45  1  0  0  0
  4 46  1  0  0  0
  6 47  1  0  0  0
  7 48  1  0  0  0
 10 49  1  0  0  0
 13 50  1  0  0  0
 14 51  1  0  0  0
 15 52  1  0  0  0
 21 53  1  0  0  0
 21 54  1  0  0  0
 22 55  1  0  0  0
 22 56  1  0  0  0
 23 57  1  0  0  0
 25 58  1  0  0  0
 26 59  1  0  0  0
 29 60  1  0  0  0
 29 61  1  0  0  0
 32 62  1  0  0  0
 33 63  1  0  0  0
 33 64  1  0  0  0
 35 65  1  0  0  0
 36 66  1  0  0  0
 37 67  1  0  0  0
 41 68  1  0  0  0
 42 69  1  0  0  0
M  END
$$$$
