3wtm_ligand
  -I-interpret- 

 28 29  0  0  0  0  0  0  0  0999 V2000
   54.7250  -14.4970  -31.2900 Cl  0  0  0  0  0
   55.8070  -13.9150  -30.1290 C   0  0  0  0  0
   55.3040  -12.9300  -29.3190 N   0  0  0  0  0
   56.1420  -12.4160  -28.3630 C   0  0  0  0  0
   57.4820  -12.8470  -28.1720 C   0  0  0  0  0
   58.3920  -12.2460  -27.1090 C   0  0  0  0  0
   57.9580  -12.4590  -25.7310 N   0  0  0  0  0
   57.9550  -13.8760  -29.0390 C   0  0  0  0  0
   57.1130  -14.4270  -30.0370 C   0  0  0  0  0
   58.0190  -13.6050  -24.9170 C   0  0  0  0  0
   58.5240  -14.8070  -25.2800 C   0  0  0  0  0
   57.4810  -13.2740  -23.7020 N   0  0  0  0  0
   57.0240  -11.9050  -23.6080 C   0  0  0  0  0
   57.3460  -11.3250  -25.0060 C   0  0  0  0  0
   58.5730  -15.9800  -24.4260 N   0  0  0  0  0
   58.1300  -15.9560  -23.2620 O   0  0  0  0  0
   59.0820  -16.9770  -24.9570 O   0  0  0  0  0
   55.7575  -11.6310  -27.7118 H   0  0  0  0  0
   58.3983  -11.1685  -27.2734 H   0  0  0  0  0
   59.3610  -12.7344  -27.2123 H   0  0  0  0  0
   58.9759  -14.2429  -28.9328 H   0  0  0  0  0
   57.4631  -15.2142  -30.7047 H   0  0  0  0  0
   58.9240  -14.9015  -26.2895 H   0  0  0  0  0
   57.4088  -13.9362  -22.9295 H   0  0  0  0  0
   57.5111  -11.3545  -22.8031 H   0  0  0  0  0
   55.9657  -11.8323  -23.3573 H   0  0  0  0  0
   56.4579  -10.9434  -25.5097 H   0  0  0  0  0
   58.0098  -10.4621  -24.9526 H   0  0  0  0  0
  1  2  1  0  0  0
  2  3  4  0  0  0
  2  9  4  0  0  0
  3  4  4  0  0  0
  4  5  4  0  0  0
  5  6  1  0  0  0
  5  8  4  0  0  0
  6  7  1  0  0  0
  7 10  1  0  0  0
  7 14  1  0  0  0
  8  9  4  0  0  0
 10 11  2  0  0  0
 10 12  1  0  0  0
 11 15  1  0  0  0
 12 13  1  0  0  0
 13 14  1  0  0  0
 15 16  2  0  0  0
 15 17  2  0  0  0
  4 18  1  0  0  0
  6 19  1  0  0  0
  6 20  1  0  0  0
  8 21  1  0  0  0
  9 22  1  0  0  0
 11 23  1  0  0  0
 12 24  1  0  0  0
 13 25  1  0  0  0
 13 26  1  0  0  0
 14 27  1  0  0  0
 14 28  1  0  0  0
M  END
$$$$
