2pq9_ligand
  -I-interpret- 

 42 42  0  0  0  0  0  0  0  0999 V2000
   56.6600   12.0160   28.0470 C   0  0  0  0  0
   55.5100   11.2380   28.3940 C   0  0  0  0  0
   55.6810    9.9660   29.2220 C   0  0  0  0  0
   57.0390    9.9660   30.0570 C   0  0  0  0  0
   58.2410   10.1970   29.0960 C   0  0  0  0  0
   58.0540   11.6390   28.4800 C   0  0  0  0  0
   56.4650   13.2670   27.2440 C   0  0  0  0  0
   55.5560    8.7450   28.2650 O   0  0  0  0  0
   57.1100    8.7040   30.7390 O   0  0  0  0  0
   59.4620   10.1370   29.8440 O   0  0  0  0  0
   55.5690   13.2790   26.4210 O   0  0  0  0  0
   57.1910   14.1860   27.4910 O   0  0  0  0  0
   54.1380    7.9340   27.9670 P   0  0  0  0  0
   53.1900    8.9600   27.3390 O   0  0  0  0  0
   53.6550    7.4020   29.3820 O   0  0  0  0  0
   54.6280    6.8620   26.9600 O   0  0  0  0  0
   60.4060    9.0420   29.7360 C   0  0  0  0  0
   59.8280    7.5510   29.6520 C   0  0  0  0  0
   61.3200    9.1100   30.9340 C   0  0  0  0  0
   61.8590   10.2660   31.0070 O   0  0  0  0  0
   61.5080    8.1900   31.7530 O   0  0  0  0  0
   61.0700    9.4370   26.9350 P   0  0  0  0  0
   62.3110    8.8530   26.2260 O   0  0  0  0  0
   60.9740   10.9220   26.7400 O   0  0  0  0  0
   59.7920    8.6940   26.4730 O   0  0  0  0  0
   61.2860    9.2650   28.5590 O   0  0  0  0  0
   58.9060    7.4070   28.7640 F   0  0  0  0  0
   60.7910    6.6640   29.5050 F   0  0  0  0  0
   54.5178   11.5514   28.0693 H   0  0  0  0  0
   54.8958    9.9085   29.9758 H   0  0  0  0  0
   57.0721   10.7707   30.7915 H   0  0  0  0  0
   58.2817    9.4408   28.3120 H   0  0  0  0  0
   58.3222   12.3398   29.2706 H   0  0  0  0  0
   58.6646   11.6609   27.5773 H   0  0  0  0  0
   56.3491    8.6105   31.3168 H   0  0  0  0  0
   55.1339   12.4233   26.4108 H   0  0  0  0  0
   54.2909    6.7659   29.7175 H   0  0  0  0  0
   55.2160    6.2492   27.4076 H   0  0  0  0  0
   59.3458    7.3638   30.6115 H   0  0  0  0  0
   61.5648   10.8023   30.2671 H   0  0  0  0  0
   62.3433    7.9043   26.3695 H   0  0  0  0  0
   59.9015    7.7512   26.6173 H   0  0  0  0  0
  1  2  2  0  0  0
  6  1  1  0  0  0
  1  7  1  0  0  0
  3  2  1  0  0  0
  4  3  1  0  0  0
  3  8  1  0  0  0
  5  4  1  0  0  0
  4  9  1  0  0  0
  5  6  1  0  0  0
 10  5  1  0  0  0
  7 11  1  0  0  0
  7 12  2  0  0  0
  8 13  1  0  0  0
 17 10  1  0  0  0
 13 14  2  0  0  0
 13 15  1  0  0  0
 13 16  1  0  0  0
 17 18  1  0  0  0
 17 19  1  0  0  0
 26 17  1  0  0  0
 18 27  1  0  0  0
 18 28  1  0  0  0
 19 20  1  0  0  0
 19 21  2  0  0  0
 22 23  1  0  0  0
 22 24  2  0  0  0
 22 25  1  0  0  0
 22 26  1  0  0  0
  2 29  1  0  0  0
  3 30  1  0  0  0
  4 31  1  0  0  0
  5 32  1  0  0  0
  6 33  1  0  0  0
  6 34  1  0  0  0
  9 35  1  0  0  0
 11 36  1  0  0  0
 15 37  1  0  0  0
 16 38  1  0  0  0
 18 39  1  0  0  0
 20 40  1  0  0  0
 23 41  1  0  0  0
 25 42  1  0  0  0
M  END
$$$$
