3qo3_ligand
  -I-interpret- 

 47 49  0  0  0  0  0  0  0  0999 V2000
  -41.5660  -15.0600  -21.6770 P   0  0  0  0  0
  -42.6320  -16.1620  -21.5600 O   0  0  0  0  0
  -40.2720  -15.5530  -22.2790 O   0  0  0  0  0
  -42.0970  -13.7920  -22.3010 O   0  0  0  0  0
  -41.5790  -15.5960  -18.9640 P   0  0  0  0  0
  -43.0320  -15.3430  -18.6270 O   0  0  0  0  0
  -41.0840  -16.9770  -19.3430 O   0  0  0  0  0
  -41.1810  -14.6250  -20.1730 O   0  0  0  0  0
  -39.9800  -16.1070  -16.7890 P   0  0  0  0  0
  -39.8680  -15.4670  -15.4090 O   0  0  0  0  0
  -40.6630  -17.4810  -16.9280 O   0  0  0  0  0
  -40.6910  -15.0360  -17.7530 O   0  0  0  0  0
  -38.4850  -16.2400  -17.4120 O   0  0  0  0  0
  -38.1610  -15.7850  -18.7440 C   0  0  0  0  0
  -37.1700  -14.6290  -18.6670 C   0  0  0  0  0
  -37.6680  -13.4960  -19.3900 O   0  0  0  0  0
  -36.9470  -14.1850  -17.2300 C   0  0  0  0  0
  -35.5400  -14.1920  -16.9490 O   0  0  0  0  0
  -37.5060  -12.7780  -17.1610 C   0  0  0  0  0
  -36.6710  -11.9180  -16.3820 O   0  0  0  0  0
  -37.5680  -12.3080  -18.6060 C   0  0  0  0  0
  -38.7640  -11.4580  -18.8130 N   0  0  0  0  0
  -40.0270  -11.8090  -18.5050 C   0  0  0  0  0
  -40.9010  -10.8190  -18.8060 N   0  0  0  0  0
  -40.1900   -9.8030  -19.3230 C   0  0  0  0  0
  -40.5020   -8.4540  -19.8480 C   0  0  0  0  0
  -41.7800   -7.9980  -19.8760 N   0  0  0  0  0
  -39.4710   -7.7000  -20.2970 N   0  0  0  0  0
  -38.2010   -8.1470  -20.2710 C   0  0  0  0  0
  -37.8450   -9.3630  -19.8080 N   0  0  0  0  0
  -38.7780  -10.2250  -19.3280 C   0  0  0  0  0
  -42.2418  -16.9418  -21.1585 H   0  0  0  0  0
  -39.9991  -16.3581  -21.8329 H   0  0  0  0  0
  -40.1413  -16.9402  -19.5206 H   0  0  0  0  0
  -40.6559  -17.7488  -17.8499 H   0  0  0  0  0
  -39.0705  -15.4479  -19.2413 H   0  0  0  0  0
  -37.7155  -16.6052  -19.3070 H   0  0  0  0  0
  -36.2338  -14.9858  -19.0963 H   0  0  0  0  0
  -37.4281  -14.8382  -16.5020 H   0  0  0  0  0
  -35.3945  -13.9122  -16.0423 H   0  0  0  0  0
  -38.4830  -12.7590  -16.6782 H   0  0  0  0  0
  -37.0531  -11.0376  -16.3591 H   0  0  0  0  0
  -36.6949  -11.7151  -18.8785 H   0  0  0  0  0
  -40.3098  -12.7672  -18.0692 H   0  0  0  0  0
  -42.5391   -8.5865  -19.5328 H   0  0  0  0  0
  -41.9814   -7.0668  -20.2402 H   0  0  0  0  0
  -37.4165   -7.4892  -20.6451 H   0  0  0  0  0
  1  2  1  0  0  0
  1  3  1  0  0  0
  1  4  2  0  0  0
  8  1  1  0  0  0
  5  6  2  0  0  0
  5  7  1  0  0  0
  5  8  1  0  0  0
 12  5  1  0  0  0
  9 10  2  0  0  0
  9 11  1  0  0  0
  9 12  1  0  0  0
  9 13  1  0  0  0
 13 14  1  0  0  0
 14 15  1  0  0  0
 15 16  1  0  0  0
 15 17  1  0  0  0
 16 21  1  0  0  0
 17 18  1  0  0  0
 17 19  1  0  0  0
 19 20  1  0  0  0
 19 21  1  0  0  0
 21 22  1  0  0  0
 22 23  4  0  0  0
 22 31  4  0  0  0
 23 24  4  0  0  0
 24 25  4  0  0  0
 25 26  4  0  0  0
 25 31  4  0  0  0
 26 27  1  0  0  0
 26 28  4  0  0  0
 28 29  4  0  0  0
 29 30  4  0  0  0
 30 31  4  0  0  0
  2 32  1  0  0  0
  3 33  1  0  0  0
  7 34  1  0  0  0
 11 35  1  0  0  0
 14 36  1  0  0  0
 14 37  1  0  0  0
 15 38  1  0  0  0
 17 39  1  0  0  0
 18 40  1  0  0  0
 19 41  1  0  0  0
 20 42  1  0  0  0
 21 43  1  0  0  0
 23 44  1  0  0  0
 27 45  1  0  0  0
 27 46  1  0  0  0
 29 47  1  0  0  0
M  END
$$$$
