### 
### Created by X-TOOL on Mon Sep 10 21:13:11 2018
### 

@<TRIPOS>MOLECULE
3qo3_ligand
   43    45     1     0     0
SMALL
GAST_HUCK


@<TRIPOS>ATOM
      1 PG        -41.5660  -15.0600  -21.6770 P.3       1 ATP         0.1879
      2 O1G       -42.6320  -16.1620  -21.5600 O.co2     1 ATP        -0.6091
      3 O2G       -40.2720  -15.5530  -22.2790 O.co2     1 ATP        -0.6091
      4 O3G       -42.0970  -13.7920  -22.3010 O.co2     1 ATP        -0.6091
      5 PB        -41.5790  -15.5960  -18.9640 P.3       1 ATP         0.3553
      6 O1B       -43.0320  -15.3430  -18.6270 O.co2     1 ATP        -0.5652
      7 O2B       -41.0840  -16.9770  -19.3430 O.co2     1 ATP        -0.5652
      8 O3B       -41.1810  -14.6250  -20.1730 O.3       1 ATP        -0.1546
      9 PA        -39.9800  -16.1070  -16.7890 P.3       1 ATP         0.3266
     10 O1A       -39.8680  -15.4670  -15.4090 O.co2     1 ATP        -0.5692
     11 O2A       -40.6630  -17.4810  -16.9280 O.co2     1 ATP        -0.5692
     12 O3A       -40.6910  -15.0360  -17.7530 O.3       1 ATP        -0.1171
     13 O5'       -38.4850  -16.2400  -17.4120 O.3       1 ATP        -0.2441
     14 C5'       -38.1610  -15.7850  -18.7440 C.3       1 ATP         0.1131
     15 C4'       -37.1700  -14.6290  -18.6670 C.3       1 ATP         0.1189
     16 O4'       -37.6680  -13.4960  -19.3900 O.3       1 ATP        -0.3364
     17 C3'       -36.9470  -14.1850  -17.2300 C.3       1 ATP         0.1149
     18 O3'       -35.5400  -14.1920  -16.9490 O.3       1 ATP        -0.3864
     19 C2'       -37.5060  -12.7780  -17.1610 C.3       1 ATP         0.1385
     20 O2'       -36.6710  -11.9180  -16.3820 O.3       1 ATP        -0.3836
     21 C1'       -37.5680  -12.3080  -18.6060 C.3       1 ATP         0.2010
     22 N9        -38.7640  -11.4580  -18.8130 N.pl3     1 ATP        -0.1919
     23 C8        -40.0270  -11.8090  -18.5050 C.2       1 ATP         0.1123
     24 N7        -40.9010  -10.8190  -18.8060 N.2       1 ATP        -0.2958
     25 C5        -40.1900   -9.8030  -19.3230 C.ar      1 ATP         0.1045
     26 C6        -40.5020   -8.4540  -19.8480 C.ar      1 ATP         0.1298
     27 N6        -41.7800   -7.9980  -19.8760 N.pl3     1 ATP        -0.3152
     28 N1        -39.4710   -7.7000  -20.2970 N.ar      1 ATP        -0.2698
     29 C2        -38.2010   -8.1470  -20.2710 C.ar      1 ATP         0.0533
     30 N3        -37.8450   -9.3630  -19.8080 N.ar      1 ATP        -0.2714
     31 C4        -38.7780  -10.2250  -19.3280 C.ar      1 ATP         0.1613
     32 H1        -39.0784  -15.4467  -19.2478 H         1 ATP         0.0648
     33 H2        -37.7134  -16.6125  -19.3140 H         1 ATP         0.0648
     34 H3        -36.2130  -14.9530  -19.1020 H         1 ATP         0.0651
     35 H4        -37.4725  -14.8467  -16.5257 H         1 ATP         0.0648
     36 H5        -35.3960  -13.9151  -16.0518 H         1 ATP         0.2100
     37 H6        -38.5141  -12.7923  -16.7211 H         1 ATP         0.0676
     38 H7        -35.8061  -11.8789  -16.7731 H         1 ATP         0.2101
     39 H8        -36.6612  -11.7441  -18.8701 H         1 ATP         0.0996
     40 H9        -40.3096  -12.7664  -18.0696 H         1 ATP         0.1349
     41 H10       -41.9833   -7.0576  -20.2438 H         1 ATP         0.1820
     42 H11       -42.5466   -8.5923  -19.5295 H         1 ATP         0.1820
     43 H12       -37.4208   -7.4928  -20.6431 H         1 ATP         0.0996
@<TRIPOS>BOND
     1    1    2 ar 
     2    1    3 ar 
     3    1    4 ar 
     4    8    1 1  
     5    5    6 ar 
     6    5    7 ar 
     7    5    8 1  
     8   12    5 1  
     9    9   10 ar 
    10    9   11 ar 
    11    9   12 1  
    12    9   13 1  
    13   13   14 1  
    14   14   15 1  
    15   15   16 1  
    16   15   17 1  
    17   16   21 1  
    18   17   18 1  
    19   17   19 1  
    20   19   20 1  
    21   19   21 1  
    22   21   22 1  
    23   22   23 1  
    24   22   31 1  
    25   23   24 2  
    26   24   25 1  
    27   25   26 ar 
    28   25   31 ar 
    29   26   27 1  
    30   26   28 ar 
    31   28   29 ar 
    32   29   30 ar 
    33   30   31 ar 
    34   14   32 1  
    35   14   33 1  
    36   15   34 1  
    37   17   35 1  
    38   18   36 1  
    39   19   37 1  
    40   20   38 1  
    41   21   39 1  
    42   23   40 1  
    43   27   41 1  
    44   27   42 1  
    45   29   43 1  
@<TRIPOS>SUBSTRUCTURE
     1 ATP         1

