6stl_ligand
  -I-interpret- 

 15 14  0  0  0  0  0  0  0  0999 V2000
   23.9280  -23.7040  104.0210 C   0  0  0  0  0
   25.2940  -24.0400  104.6060 C   0  0  0  0  0
   23.3910  -24.8700  103.3380 N   0  3  0  0  0
   25.1900  -24.8270  106.0730 S   0  0  0  0  0
   26.7060  -25.0310  106.5520 O   0  0  0  0  0
   24.5080  -24.0290  107.0420 O   0  0  0  0  0
   24.5440  -26.0860  105.8830 O   0  0  0  0  0
   24.0294  -22.8828  103.3114 H   0  0  0  0  0
   23.2518  -23.4107  104.8240 H   0  0  0  0  0
   25.8292  -23.1040  104.7655 H   0  0  0  0  0
   25.8041  -24.7022  103.9064 H   0  0  0  0  0
   22.4767  -24.6426  102.9473 H   0  0  0  0  0
   24.0243  -25.1443  102.5869 H   0  0  0  0  0
   23.2967  -25.6382  104.0023 H   0  0  0  0  0
   27.1747  -25.5665  105.9077 H   0  0  0  0  0
  1  2  1  0  0  0
  1  3  1  0  0  0
  2  4  1  0  0  0
  4  5  1  0  0  0
  4  6  2  0  0  0
  4  7  2  0  0  0
  1  8  1  0  0  0
  1  9  1  0  0  0
  2 10  1  0  0  0
  2 11  1  0  0  0
  3 12  1  0  0  0
  3 13  1  0  0  0
  3 14  1  0  0  0
  5 15  1  0  0  0
M  END
$$$$
