6mep_ligand
  -I-interpret- 

 93 99  0  0  0  0  0  0  0  0999 V2000
  -13.2370   11.1170  -16.9030 O   0  0  0  0  0
  -14.1560   10.6940  -15.9140 C   0  0  0  0  0
  -13.6640    9.3980  -15.3350 C   0  0  0  0  0
  -13.8910    8.1780  -16.2470 C   0  0  0  0  0
  -15.5610   10.6220  -16.5590 C   0  0  0  0  0
  -15.7890    9.3820  -17.4480 C   0  0  0  0  0
  -15.3230    8.0970  -16.8260 C   0  0  0  0  0
  -15.3610    7.0450  -17.8760 N   0  0  0  0  0
  -15.7840    5.6520  -17.5510 C   0  0  0  0  0
  -16.2910    4.7900  -18.5440 C   0  0  0  0  0
  -16.4550    5.1650  -20.0460 C   0  0  0  0  0
  -15.3120    5.4070  -20.8260 C   0  0  0  0  0
  -15.4500    5.7220  -22.1900 C   0  0  0  0  0
  -16.7240    5.7760  -22.7740 C   0  0  0  0  0
  -16.8340    6.1140  -24.2950 C   0  0  0  0  0
  -15.9600    5.3630  -24.9370 N   0  3  0  0  0
  -15.8220    5.7120  -26.2340 C   0  0  0  0  0
  -14.6290    4.9480  -26.8070 C   0  0  0  0  0
  -14.7940    3.5760  -26.7610 N   0  3  0  0  0
  -14.8530    3.0880  -27.9440 C   0  0  0  0  0
  -15.8590    3.1560  -26.0180 C   0  0  0  0  0
  -16.1370    3.9970  -24.7630 C   0  0  0  0  0
  -17.8610    5.5190  -22.0080 C   0  0  0  0  0
  -17.7170    5.2030  -20.6170 C   0  0  0  0  0
  -16.6670    3.4830  -18.2080 C   0  0  0  0  0
  -16.5400    3.0870  -16.9200 N   0  0  0  0  0
  -16.0790    3.8930  -16.0120 C   0  0  0  0  0
  -15.9900    3.3330  -14.6370 N   0  0  0  0  0
  -15.1970    4.0270  -13.5410 C   0  0  0  0  0
  -13.9940    4.6860  -13.7900 C   0  0  0  0  0
  -13.3010    5.3070  -12.7330 C   0  0  0  0  0
  -13.8470    5.2580  -11.4420 C   0  0  0  0  0
  -13.2350    5.8230  -10.2440 C   0  0  0  0  0
  -12.8250    4.8530   -9.4350 C   0  0  0  0  0
  -12.1990    4.9220   -8.0440 C   0  0  0  0  0
  -11.2120    5.6850   -7.5720 N   0  0  0  0  0
  -10.8120    5.5770   -6.3110 C   0  0  0  0  0
  -11.4220    4.6460   -5.4390 C   0  0  0  0  0
  -12.4590    3.8390   -5.9340 C   0  0  0  0  0
  -13.2730    2.7690   -5.2290 C   0  0  0  0  0
  -13.1050    1.4850   -5.4740 O   0  0  0  0  0
  -13.9980    0.7950   -4.7450 C   0  0  0  0  0
  -14.7600    1.7490   -4.0410 C   0  0  0  0  0
  -14.2710    2.9630   -4.3990 O   0  0  0  0  0
  -12.8250    3.9930   -7.2320 C   0  0  0  0  0
  -15.0420    4.5780  -11.2040 C   0  0  0  0  0
  -15.7250    3.9670  -12.2430 C   0  0  0  0  0
  -15.6950    5.1710  -16.3020 N   0  0  0  0  0
  -12.3579   11.1677  -16.5206 H   0  0  0  0  0
  -14.2351   11.3910  -15.0797 H   0  0  0  0  0
  -14.2220    9.2223  -14.4153 H   0  0  0  0  0
  -12.5883    9.4968  -15.1891 H   0  0  0  0  0
  -13.7309    7.2843  -15.6439 H   0  0  0  0  0
  -13.2026    8.2653  -17.0876 H   0  0  0  0  0
  -15.6655   11.4985  -17.1984 H   0  0  0  0  0
  -16.2849   10.5709  -15.7457 H   0  0  0  0  0
  -15.2145    9.5276  -18.3628 H   0  0  0  0  0
  -16.8628    9.2929  -17.6128 H   0  0  0  0  0
  -15.9846    7.8722  -15.9894 H   0  0  0  0  0
  -15.0940    7.2792  -18.8322 H   0  0  0  0  0
  -14.3210    5.3508  -20.3756 H   0  0  0  0  0
  -14.5655    5.9244  -22.7940 H   0  0  0  0  0
  -16.6240    7.1700  -24.4650 H   0  0  0  0  0
  -17.8430    5.9145  -24.6559 H   0  0  0  0  0
  -15.0682    5.5654  -24.4851 H   0  0  0  0  0
  -15.6559    6.7860  -26.3184 H   0  0  0  0  0
  -16.7276    5.4647  -26.7879 H   0  0  0  0  0
  -13.7548    5.1978  -26.2058 H   0  0  0  0  0
  -14.5222    5.2349  -27.8531 H   0  0  0  0  0
  -13.9679    3.2212  -26.2792 H   0  0  0  0  0
  -15.6970    3.5277  -28.4754 H   0  0  0  0  0
  -13.9290    3.3151  -28.4758 H   0  0  0  0  0
  -14.9829    2.0074  -27.8838 H   0  0  0  0  0
  -15.6307    2.1456  -25.6789 H   0  0  0  0  0
  -16.7406    3.2342  -26.6543 H   0  0  0  0  0
  -17.1830    3.8411  -24.4988 H   0  0  0  0  0
  -15.4273    3.6772  -24.0000 H   0  0  0  0  0
  -18.8507    5.5581  -22.4631 H   0  0  0  0  0
  -18.5979    4.9932  -20.0102 H   0  0  0  0  0
  -17.0527    2.8011  -18.9659 H   0  0  0  0  0
  -16.4736    2.4606  -14.4237 H   0  0  0  0  0
  -13.5902    4.7206  -14.8019 H   0  0  0  0  0
  -12.3554    5.8176  -12.9152 H   0  0  0  0  0
  -13.1294    6.8889  -10.0420 H   0  0  0  0  0
  -12.9566    3.8446   -9.8273 H   0  0  0  0  0
  -10.0056    6.2120   -5.9442 H   0  0  0  0  0
  -11.0939    4.5566   -4.4034 H   0  0  0  0  0
  -12.5989    3.6165   -5.1042 H   0  0  0  0  0
  -14.1109   -0.2884   -4.7058 H   0  0  0  0  0
  -15.5779    1.5513   -3.3481 H   0  0  0  0  0
  -13.6245    3.3752   -7.6410 H   0  0  0  0  0
  -15.4418    4.5271  -10.1913 H   0  0  0  0  0
  -16.6630    3.4451  -12.0537 H   0  0  0  0  0
  1  2  1  0  0  0
  2  3  1  0  0  0
  2  5  1  0  0  0
  3  4  1  0  0  0
  4  7  1  0  0  0
  5  6  1  0  0  0
  6  7  1  0  0  0
  7  8  1  0  0  0
  8  9  1  0  0  0
  9 10  4  0  0  0
  9 48  4  0  0  0
 10 11  1  0  0  0
 10 25  4  0  0  0
 11 12  4  0  0  0
 11 24  4  0  0  0
 12 13  4  0  0  0
 13 14  4  0  0  0
 14 15  1  0  0  0
 14 23  4  0  0  0
 15 16  1  0  0  0
 16 17  1  0  0  0
 16 22  1  0  0  0
 17 18  1  0  0  0
 18 19  1  0  0  0
 19 20  1  0  0  0
 19 21  1  0  0  0
 21 22  1  0  0  0
 23 24  4  0  0  0
 25 26  4  0  0  0
 26 27  4  0  0  0
 27 28  1  0  0  0
 27 48  4  0  0  0
 28 29  1  0  0  0
 29 30  4  0  0  0
 29 47  4  0  0  0
 30 31  4  0  0  0
 31 32  4  0  0  0
 32 33  1  0  0  0
 32 46  4  0  0  0
 33 34  2  0  0  0
 34 35  1  0  0  0
 35 36  4  0  0  0
 35 45  4  0  0  0
 36 37  4  0  0  0
 37 38  4  0  0  0
 38 39  4  0  0  0
 39 40  1  0  0  0
 39 45  4  0  0  0
 40 41  1  0  0  0
 40 44  1  0  0  0
 41 42  1  0  0  0
 42 43  2  0  0  0
 43 44  1  0  0  0
 46 47  4  0  0  0
  1 49  1  0  0  0
  2 50  1  0  0  0
  3 51  1  0  0  0
  3 52  1  0  0  0
  4 53  1  0  0  0
  4 54  1  0  0  0
  5 55  1  0  0  0
  5 56  1  0  0  0
  6 57  1  0  0  0
  6 58  1  0  0  0
  7 59  1  0  0  0
  8 60  1  0  0  0
 12 61  1  0  0  0
 13 62  1  0  0  0
 15 63  1  0  0  0
 15 64  1  0  0  0
 16 65  1  0  0  0
 17 66  1  0  0  0
 17 67  1  0  0  0
 18 68  1  0  0  0
 18 69  1  0  0  0
 19 70  1  0  0  0
 20 71  1  0  0  0
 20 72  1  0  0  0
 20 73  1  0  0  0
 21 74  1  0  0  0
 21 75  1  0  0  0
 22 76  1  0  0  0
 22 77  1  0  0  0
 23 78  1  0  0  0
 24 79  1  0  0  0
 25 80  1  0  0  0
 28 81  1  0  0  0
 30 82  1  0  0  0
 31 83  1  0  0  0
 33 84  1  0  0  0
 34 85  1  0  0  0
 37 86  1  0  0  0
 38 87  1  0  0  0
 40 88  1  0  0  0
 42 89  1  0  0  0
 43 90  1  0  0  0
 45 91  1  0  0  0
 46 92  1  0  0  0
 47 93  1  0  0  0
M  END
$$$$
