3ekv_ligand
  -I-interpret- 

 70 72  0  0  0  0  0  0  0  0999 V2000
   23.4000   25.8700   10.7830 C   0  0  0  0  0
   24.4520   27.7830   11.7810 C   0  0  0  0  0
   21.4400   28.2740   12.7340 C   0  0  0  0  0
   23.1200   27.2820   11.2620 C   0  0  0  0  0
   19.5870   28.8070   14.2580 C   0  0  0  0  0
   19.9690   29.1940   15.6810 C   0  0  0  0  0
   18.2760   28.0360   14.1060 C   0  0  0  0  0
   18.0450   27.6520   12.6600 C   0  0  0  0  0
   18.4240   26.3950   12.1820 C   0  0  0  0  0
   17.4570   28.5580   11.7890 C   0  0  0  0  0
   18.2320   26.0650   10.8410 C   0  0  0  0  0
   17.2640   28.2280   10.4520 C   0  0  0  0  0
   17.6400   26.9730    9.9760 C   0  0  0  0  0
   19.0380   30.2540   16.2520 C   0  0  0  0  0
   20.1020   32.4520   16.4680 C   0  0  0  0  0
   21.6130   32.2010   16.4280 C   0  0  0  0  0
   17.1060   33.0120   15.7110 C   0  0  0  0  0
   16.0720   32.3350   16.3650 C   0  0  0  0  0
   15.1760   32.9770   17.2100 C   0  0  0  0  0
   15.2810   34.3520   17.3990 C   0  0  0  0  0
   16.2840   35.0510   16.7400 C   0  0  0  0  0
   17.1860   34.3810   15.9070 C   0  0  0  0  0
   22.2520   32.2430   15.0420 C   0  0  0  0  0
   22.3240   33.2540   17.2740 C   0  0  0  0  0
   25.2870   26.5250   11.9820 C   0  0  0  0  0
   20.6520   27.9610   13.7600 N   0  0  0  0  0
   19.3690   31.5270   15.5820 N   0  0  0  0  0
   14.4000   34.9810   18.2110 N   0  0  0  0  0
   22.2460   27.1400   12.3730 O   0  0  0  0  0
   21.4990   29.3460   12.1360 O   0  0  0  0  0
   19.9580   28.0360   16.5280 O   0  0  0  0  0
   17.4210   31.1750   14.0660 O   0  0  0  0  0
   18.7150   33.0920   13.7920 O   0  0  0  0  0
   24.4480   25.4180   11.6380 O   0  0  0  0  0
   18.1350   32.1960   14.7720 S   0  0  0  0  0
   23.6824   25.8387    9.7307 H   0  0  0  0  0
   22.5177   25.2323   10.8376 H   0  0  0  0  0
   24.3410   28.3493   12.7057 H   0  0  0  0  0
   24.9239   28.4774   11.0859 H   0  0  0  0  0
   22.6984   27.9397   10.5019 H   0  0  0  0  0
   19.4438   29.7384   13.7101 H   0  0  0  0  0
   20.9737   29.6151   15.6447 H   0  0  0  0  0
   17.4539   28.6703   14.4376 H   0  0  0  0  0
   18.3295   27.1284   14.7072 H   0  0  0  0  0
   18.8718   25.6690   12.8606 H   0  0  0  0  0
   17.1440   29.5357   12.1555 H   0  0  0  0  0
   18.5484   25.0897   10.4712 H   0  0  0  0  0
   16.8167   28.9540    9.7731 H   0  0  0  0  0
   17.4701   26.7075    8.9326 H   0  0  0  0  0
   19.1688   30.3410   17.3306 H   0  0  0  0  0
   17.9960   29.9862   16.0771 H   0  0  0  0  0
   19.9149   33.4711   16.1294 H   0  0  0  0  0
   19.7555   32.2947   17.4894 H   0  0  0  0  0
   21.7304   31.1852   16.8055 H   0  0  0  0  0
   15.9650   31.2621   16.2055 H   0  0  0  0  0
   14.3979   32.4094   17.7204 H   0  0  0  0  0
   16.3689   36.1295   16.8729 H   0  0  0  0  0
   17.9680   34.9478   15.4017 H   0  0  0  0  0
   21.7970   31.4801   14.4103 H   0  0  0  0  0
   22.0920   33.2261   14.5992 H   0  0  0  0  0
   23.3216   32.0527   15.1305 H   0  0  0  0  0
   22.1082   34.2451   16.8750 H   0  0  0  0  0
   21.9708   33.1904   18.3032 H   0  0  0  0  0
   23.3989   33.0757   17.2458 H   0  0  0  0  0
   25.6311   26.4469   13.0133 H   0  0  0  0  0
   26.1795   26.5461   11.3566 H   0  0  0  0  0
   20.8083   27.0672   14.2259 H   0  0  0  0  0
   13.6668   34.4478   18.6785 H   0  0  0  0  0
   14.4691   35.9883   18.3556 H   0  0  0  0  0
   20.5461   27.3697   16.1649 H   0  0  0  0  0
  4  1  1  0  0  0
  1 34  1  0  0  0
  4  2  1  0  0  0
  2 25  1  0  0  0
 26  3  1  0  0  0
  3 29  1  0  0  0
  3 30  2  0  0  0
 29  4  1  0  0  0
  6  5  1  0  0  0
  5  7  1  0  0  0
  5 26  1  0  0  0
 14  6  1  0  0  0
  6 31  1  0  0  0
  7  8  1  0  0  0
  8  9  4  0  0  0
  8 10  4  0  0  0
  9 11  4  0  0  0
 10 12  4  0  0  0
 11 13  4  0  0  0
 12 13  4  0  0  0
 27 14  1  0  0  0
 15 16  1  0  0  0
 27 15  1  0  0  0
 16 23  1  0  0  0
 16 24  1  0  0  0
 17 18  4  0  0  0
 17 22  4  0  0  0
 35 17  1  0  0  0
 18 19  4  0  0  0
 19 20  4  0  0  0
 21 20  4  0  0  0
 20 28  1  0  0  0
 22 21  4  0  0  0
 25 34  1  0  0  0
 27 35  1  0  0  0
 35 32  2  0  0  0
 35 33  2  0  0  0
  1 36  1  0  0  0
  1 37  1  0  0  0
  2 38  1  0  0  0
  2 39  1  0  0  0
  4 40  1  0  0  0
  5 41  1  0  0  0
  6 42  1  0  0  0
  7 43  1  0  0  0
  7 44  1  0  0  0
  9 45  1  0  0  0
 10 46  1  0  0  0
 11 47  1  0  0  0
 12 48  1  0  0  0
 13 49  1  0  0  0
 14 50  1  0  0  0
 14 51  1  0  0  0
 15 52  1  0  0  0
 15 53  1  0  0  0
 16 54  1  0  0  0
 18 55  1  0  0  0
 19 56  1  0  0  0
 21 57  1  0  0  0
 22 58  1  0  0  0
 23 59  1  0  0  0
 23 60  1  0  0  0
 23 61  1  0  0  0
 24 62  1  0  0  0
 24 63  1  0  0  0
 24 64  1  0  0  0
 25 65  1  0  0  0
 25 66  1  0  0  0
 26 67  1  0  0  0
 28 68  1  0  0  0
 28 69  1  0  0  0
 31 70  1  0  0  0
M  END
$$$$
