3c1x_ligand
  -I-interpret- 

 68 72  0  0  0  0  0  0  0  0999 V2000
   -0.3370    6.2240   52.3960 N   0  0  0  0  0
   -0.1970    9.8880   52.7960 C   0  0  0  0  0
   -0.3340    8.6370   52.2520 C   0  0  0  0  0
   -0.1760    7.4850   53.0140 C   0  0  0  0  0
    0.1460    7.6040   54.3940 C   0  0  0  0  0
    0.2930    8.8940   54.9560 C   0  0  0  0  0
    0.1090   10.0230   54.1320 C   0  0  0  0  0
   -0.8400   11.6800   55.3780 C   0  0  0  0  0
   -0.6790    6.0220   51.1150 C   0  0  0  0  0
   -0.4750   12.6030   56.3860 C   0  0  0  0  0
    2.9000   11.1190   56.7100 C   0  0  0  0  0
   -1.3010   -1.4800   54.8740 F   0  0  0  0  0
   -1.3200   -0.5210   53.9730 C   0  0  0  0  0
   -0.2420   -0.4560   53.1420 C   0  0  0  0  0
   -0.1690    0.5370   52.1600 C   0  0  0  0  0
   -2.4030    0.3500   53.9310 C   0  0  0  0  0
   -2.3470    1.3370   52.9470 C   0  0  0  0  0
   -1.2400    1.4180   52.0620 C   0  0  0  0  0
   -1.1830    2.4440   51.0350 C   0  0  0  0  0
   -0.9900    3.7690   51.6900 C   0  0  0  0  0
   -0.8150    3.9800   52.8940 O   0  0  0  0  0
   -0.9530    4.7710   50.7900 N   0  0  0  0  0
   -0.7710    6.8260   50.2270 O   0  0  0  0  0
   -0.3680   10.9600   52.0170 F   0  0  0  0  0
    0.2170   11.3310   54.5870 O   0  0  0  0  0
   -2.0240   11.2190   55.2410 N   0  0  0  0  0
   -2.9440   11.6500   56.1400 C   0  0  0  0  0
   -2.7460   12.4990   57.0980 N   0  0  0  0  0
   -1.5020   12.9730   57.2050 N   0  0  0  0  0
   -1.0630   13.8580   58.1250 C   0  0  0  0  0
    0.2920   14.0430   57.9310 C   0  0  0  0  0
    0.6920   13.2620   56.7790 C   0  0  0  0  0
    2.0690   13.2420   56.1810 C   0  0  0  0  0
    3.0260   12.5470   57.0480 N   0  3  0  0  0
    4.4170   13.0480   56.8310 C   0  0  0  0  0
    5.5070   12.1850   57.4940 C   0  0  0  0  0
    5.2760   10.6960   57.1810 C   0  0  0  0  0
    3.8620   10.2750   57.5090 C   0  0  0  0  0
    6.1510    9.8070   57.9820 N   0  3  0  0  0
   -0.1798    5.3978   52.9731 H   0  0  0  0  0
   -0.5734    8.5430   51.1928 H   0  0  0  0  0
    0.2776    6.7143   55.0098 H   0  0  0  0  0
    0.5446    9.0131   56.0098 H   0  0  0  0  0
    3.1273   10.9933   55.6514 H   0  0  0  0  0
    1.8844   10.7977   56.9412 H   0  0  0  0  0
    0.5661   -1.1804   53.2430 H   0  0  0  0  0
    0.6932    0.6170   51.4979 H   0  0  0  0  0
   -3.2416    0.2669   54.6224 H   0  0  0  0  0
   -3.1626    2.0544   52.8565 H   0  0  0  0  0
   -2.1110    2.4463   50.4632 H   0  0  0  0  0
   -0.3534    2.2426   50.3573 H   0  0  0  0  0
   -1.1455    4.5537   49.8122 H   0  0  0  0  0
   -3.9501   11.2411   56.0469 H   0  0  0  0  0
   -1.6720   14.3424   58.8883 H   0  0  0  0  0
    0.9462   14.6679   58.5390 H   0  0  0  0  0
    2.4040   14.2716   56.0551 H   0  0  0  0  0
    2.0223   12.7145   55.2283 H   0  0  0  0  0
    2.8290   12.7109   58.0353 H   0  0  0  0  0
    4.4756   14.0406   57.2776 H   0  0  0  0  0
    4.6017   13.0316   55.7569 H   0  0  0  0  0
    5.4681   12.3312   58.5734 H   0  0  0  0  0
    6.4809   12.4827   57.1054 H   0  0  0  0  0
    5.4922   10.5972   56.1172 H   0  0  0  0  0
    3.7241    9.2233   57.2579 H   0  0  0  0  0
    3.6751   10.4133   58.5739 H   0  0  0  0  0
    5.9602    8.8350   57.7387 H   0  0  0  0  0
    7.1276   10.0233   57.7823 H   0  0  0  0  0
    5.9652    9.9531   58.9742 H   0  0  0  0  0
  4  1  1  0  0  0
  1  9  1  0  0  0
  2  3  4  0  0  0
  7  2  4  0  0  0
  2 24  1  0  0  0
  3  4  4  0  0  0
  5  4  4  0  0  0
  6  5  4  0  0  0
  7  6  4  0  0  0
 25  7  1  0  0  0
 10  8  4  0  0  0
  8 25  1  0  0  0
  8 26  4  0  0  0
  9 22  1  0  0  0
  9 23  2  0  0  0
 10 29  4  0  0  0
 32 10  4  0  0  0
 34 11  1  0  0  0
 11 38  1  0  0  0
 13 12  1  0  0  0
 14 13  4  0  0  0
 16 13  4  0  0  0
 15 14  4  0  0  0
 18 15  4  0  0  0
 17 16  4  0  0  0
 18 17  4  0  0  0
 19 18  1  0  0  0
 20 19  1  0  0  0
 20 21  2  0  0  0
 22 20  1  0  0  0
 26 27  4  0  0  0
 28 27  4  0  0  0
 29 28  4  0  0  0
 30 29  4  0  0  0
 31 30  4  0  0  0
 32 31  4  0  0  0
 33 32  1  0  0  0
 33 34  1  0  0  0
 34 35  1  0  0  0
 35 36  1  0  0  0
 36 37  1  0  0  0
 37 38  1  0  0  0
 37 39  1  0  0  0
  1 40  1  0  0  0
  3 41  1  0  0  0
  5 42  1  0  0  0
  6 43  1  0  0  0
 11 44  1  0  0  0
 11 45  1  0  0  0
 14 46  1  0  0  0
 15 47  1  0  0  0
 16 48  1  0  0  0
 17 49  1  0  0  0
 19 50  1  0  0  0
 19 51  1  0  0  0
 22 52  1  0  0  0
 27 53  1  0  0  0
 30 54  1  0  0  0
 31 55  1  0  0  0
 33 56  1  0  0  0
 33 57  1  0  0  0
 34 58  1  0  0  0
 35 59  1  0  0  0
 35 60  1  0  0  0
 36 61  1  0  0  0
 36 62  1  0  0  0
 37 63  1  0  0  0
 38 64  1  0  0  0
 38 65  1  0  0  0
 39 66  1  0  0  0
 39 67  1  0  0  0
 39 68  1  0  0  0
M  END
$$$$
