### 
### Created by X-TOOL on Mon Sep 10 21:12:58 2018
### 

@<TRIPOS>MOLECULE
2zlf_ligand
  110   111     1     0     0
SMALL
GAST_HUCK


@<TRIPOS>ATOM
      1 N          10.6210   22.3470   -1.5420 N.4       1 PHE         0.2394
      2 CA         11.2600   22.6180   -0.2560 C.3       1 PHE         0.0744
      3 C          12.5170   21.7630   -0.0510 C.2       1 PHE         0.2289
      4 O          12.4480   20.5310   -0.0250 O.2       1 PHE        -0.3905
      5 CB         10.2640   22.3960    0.8850 C.3       1 PHE         0.0416
      6 CG         10.8620   22.5380    2.2570 C.ar      1 PHE        -0.0353
      7 CD1        10.7070   23.7130    2.9710 C.ar      1 PHE        -0.0600
      8 CD2        11.5660   21.4920    2.8370 C.ar      1 PHE        -0.0600
      9 CE1        11.2460   23.8420    4.2370 C.ar      1 PHE        -0.0686
     10 CE2        12.1090   21.6160    4.0960 C.ar      1 PHE        -0.0686
     11 CZ         11.9520   22.7920    4.7980 C.ar      1 PHE        -0.0687
     12 N          13.6600   22.4290    0.1040 N.am      1 THR        -0.2585
     13 CA         14.9440   21.7350    0.2420 C.3       1 THR         0.1566
     14 C          15.8510   22.3100    1.3400 C.2       1 THR         0.2065
     15 O          15.9870   23.5270    1.4740 O.2       1 THR        -0.3943
     16 CB         15.7290   21.6940   -1.1000 C.3       1 THR         0.0924
     17 OG1        17.0780   21.2730   -0.8510 O.3       1 THR        -0.3874
     18 CG2        15.7460   23.0670   -1.7730 C.3       1 THR        -0.0346
     19 N          16.4620   21.4180    2.1180 N.am      1 LEU        -0.2636
     20 CA         17.4230   21.8050    3.1460 C.3       1 LEU         0.1312
     21 C          18.8440   21.4940    2.6770 C.2       1 LEU         0.2040
     22 O          19.8270   21.8610    3.3350 O.2       1 LEU        -0.3944
     23 CB         17.1420   21.0920    4.4800 C.3       1 LEU        -0.0101
     24 CG         15.7670   21.2170    5.1560 C.3       1 LEU        -0.0425
     25 CD1        15.8330   20.7480    6.6030 C.3       1 LEU        -0.0625
     26 CD2        15.2350   22.6310    5.0930 C.3       1 LEU        -0.0625
     27 N          18.9530   20.8220    1.5320 N.am      1 ASP        -0.2622
     28 CA         20.2650   20.4820    0.9690 C.3       1 ASP         0.1423
     29 C          20.5490   21.2540   -0.3200 C.2       1 ASP         0.2056
     30 O          20.2650   20.7720   -1.4210 O.2       1 ASP        -0.3943
     31 CB         20.3730   18.9740    0.7170 C.3       1 ASP         0.0406
     32 CG         19.5540   18.1630    1.7030 C.2       1 ASP         0.0393
     33 OD1        18.3470   17.9520    1.4390 O.co2     1 ASP        -0.5688
     34 OD2        20.1170   17.7360    2.7370 O.co2     1 ASP        -0.5688
     35 N          21.1070   22.4510   -0.1740 N.am      1 ALA        -0.2639
     36 CA         21.4520   23.2830   -1.3210 C.3       1 ALA         0.1282
     37 C          22.8020   23.9870   -1.1060 C.2       1 ALA         0.2037
     38 O          23.2310   24.1780    0.0330 O.2       1 ALA        -0.3944
     39 CB         20.3400   24.2910   -1.5940 C.3       1 ALA        -0.0244
     40 N          23.4720   24.3480   -2.2020 N.am      1 ASP        -0.2622
     41 CA         24.7840   25.0020   -2.1370 C.3       1 ASP         0.1423
     42 C          24.6470   26.4580   -1.7070 C.2       1 ASP         0.2052
     43 O          24.1530   27.2980   -2.4670 O.2       1 ASP        -0.3943
     44 CB         25.5100   24.9380   -3.4910 C.3       1 ASP         0.0406
     45 CG         26.2400   23.6100   -3.7130 C.2       1 ASP         0.0393
     46 OD1        26.4790   23.2510   -4.8920 O.co2     1 ASP        -0.5688
     47 OD2        26.5780   22.9270   -2.7160 O.co2     1 ASP        -0.5688
     48 N          25.0710   26.7670   -0.4870 N.am      1 PHE        -0.2676
     49 CA         24.9760   28.1480   -0.0180 C.3       1 PHE         0.1039
     50 C          26.2370   28.5990    0.7260 C.2       1 PHE         0.0621
     51 O          26.4180   29.8010    0.9490 O.co2     1 PHE        -0.5664
     52 CB         23.6960   28.3780    0.8140 C.3       1 PHE         0.0159
     53 CG         23.7330   27.7600    2.1880 C.ar      1 PHE        -0.0392
     54 CD1        24.2710   28.4550    3.2620 C.ar      1 PHE        -0.0602
     55 CD2        23.2210   26.4950    2.4070 C.ar      1 PHE        -0.0602
     56 CE1        24.3030   27.8950    4.5210 C.ar      1 PHE        -0.0686
     57 CE2        23.2540   25.9290    3.6650 C.ar      1 PHE        -0.0686
     58 CZ         23.7970   26.6320    4.7250 C.ar      1 PHE        -0.0687
     59 OXT        27.0910   27.7830    1.1020 O.co2     1 PHE        -0.5664
     60 H1          9.8017   22.9262   -1.6388 H         1 PHE         0.2017
     61 H2         10.3532   21.3762   -1.5862 H         1 PHE         0.2017
     62 H3         11.2672   22.5517   -2.2881 H         1 PHE         0.2017
     63 H4         11.5652   23.6747   -0.2449 H         1 PHE         0.1122
     64 H5          9.8517   21.3805    0.7912 H         1 PHE         0.0507
     65 H6          9.4528   23.1320    0.7838 H         1 PHE         0.0507
     66 H7         10.1582   24.5392    2.5337 H         1 PHE         0.0557
     67 H8         11.6901   20.5639    2.2908 H         1 PHE         0.0557
     68 H9         11.1159   24.7650    4.7903 H         1 PHE         0.0599
     69 H10        12.6587   20.7909    4.5343 H         1 PHE         0.0599
     70 H11        12.3810   22.8942    5.7882 H         1 PHE         0.0559
     71 H12        13.6419   23.4286    0.1268 H         1 THR         0.1885
     72 H13        14.7122   20.6971    0.5231 H         1 THR         0.0826
     73 H14        15.2430   20.9733   -1.7740 H         1 THR         0.0639
     74 H15        17.5572   21.2481   -1.6709 H         1 THR         0.2101
     75 H16        16.3071   23.0056   -2.7172 H         1 THR         0.0257
     76 H17        16.2292   23.7963   -1.1062 H         1 THR         0.0257
     77 H18        14.7141   23.3868   -1.9799 H         1 THR         0.0257
     78 H19        16.2547   20.4477    1.9932 H         1 LEU         0.1883
     79 H20        17.3365   22.8894    3.3090 H         1 LEU         0.0800
     80 H21        17.8830   21.4680    5.2008 H         1 LEU         0.0315
     81 H22        17.3114   20.0192    4.3059 H         1 LEU         0.0315
     82 H23        15.0648   20.5655    4.6151 H         1 LEU         0.0298
     83 H24        14.8400   20.8462    7.0659 H         1 LEU         0.0232
     84 H25        16.5576   21.3642    7.1555 H         1 LEU         0.0232
     85 H26        16.1490   19.6948    6.6331 H         1 LEU         0.0232
     86 H27        15.1913   22.9599    4.0442 H         1 LEU         0.0232
     87 H28        15.9008   23.2989    5.6593 H         1 LEU         0.0232
     88 H29        14.2258   22.6629    5.5295 H         1 LEU         0.0232
     89 H30        18.1243   20.5436    1.0464 H         1 ASP         0.1884
     90 H31        21.0310   20.7619    1.7072 H         1 ASP         0.0819
     91 H32        21.4282   18.6758    0.8048 H         1 ASP         0.0478
     92 H33        20.0147   18.7593   -0.3006 H         1 ASP         0.0478
     93 H34        21.2955   22.7906    0.7475 H         1 ALA         0.1883
     94 H35        21.5462   22.6308   -2.2017 H         1 ALA         0.0797
     95 H36        20.6123   24.9116   -2.4605 H         1 ALA         0.0277
     96 H37        20.2026   24.9333   -0.7117 H         1 ALA         0.0277
     97 H38        19.4033   23.7550   -1.8068 H         1 ALA         0.0277
     98 H39        23.0664   24.1668   -3.0979 H         1 ASP         0.1884
     99 H40        25.3936   24.4727   -1.3899 H         1 ASP         0.0819
    100 H41        26.2458   25.7545   -3.5338 H         1 ASP         0.0478
    101 H42        24.7691   25.0697   -4.2933 H         1 ASP         0.0478
    102 H43        25.4529   26.0591    0.1071 H         1 PHE         0.1877
    103 H44        24.8930   28.7827   -0.9126 H         1 PHE         0.0749
    104 H45        22.8456   27.9475    0.2649 H         1 PHE         0.0467
    105 H46        23.5483   29.4621    0.9273 H         1 PHE         0.0467
    106 H47        24.6711   29.4508    3.1088 H         1 PHE         0.0557
    107 H48        22.7887   25.9414    1.5813 H         1 PHE         0.0557
    108 H49        24.7268   28.4496    5.3504 H         1 PHE         0.0599
    109 H50        22.8545   24.9337    3.8224 H         1 PHE         0.0599
    110 H51        23.8239   26.1890    5.7140 H         1 PHE         0.0559
@<TRIPOS>BOND
     1    1    2 1  
     2    2    3 1  
     3    2    5 1  
     4    3    4 2  
     5    3   12 am 
     6    5    6 1  
     7    6    7 ar 
     8    6    8 ar 
     9    7    9 ar 
    10    8   10 ar 
    11    9   11 ar 
    12   10   11 ar 
    13   12   13 1  
    14   13   14 1  
    15   13   16 1  
    16   14   15 2  
    17   14   19 am 
    18   16   17 1  
    19   16   18 1  
    20   19   20 1  
    21   20   21 1  
    22   20   23 1  
    23   21   22 2  
    24   21   27 am 
    25   23   24 1  
    26   24   25 1  
    27   24   26 1  
    28   27   28 1  
    29   28   29 1  
    30   28   31 1  
    31   29   30 2  
    32   29   35 am 
    33   31   32 1  
    34   32   33 ar 
    35   32   34 ar 
    36   35   36 1  
    37   36   37 1  
    38   36   39 1  
    39   37   38 2  
    40   37   40 am 
    41   40   41 1  
    42   41   42 1  
    43   41   44 1  
    44   42   43 2  
    45   42   48 am 
    46   44   45 1  
    47   45   46 ar 
    48   45   47 ar 
    49   48   49 1  
    50   49   50 1  
    51   49   52 1  
    52   50   51 ar 
    53   50   59 ar 
    54   52   53 1  
    55   53   54 ar 
    56   53   55 ar 
    57   54   56 ar 
    58   55   57 ar 
    59   56   58 ar 
    60   57   58 ar 
    61    1   60 1  
    62    1   61 1  
    63    1   62 1  
    64    2   63 1  
    65    5   64 1  
    66    5   65 1  
    67    7   66 1  
    68    8   67 1  
    69    9   68 1  
    70   10   69 1  
    71   11   70 1  
    72   12   71 1  
    73   13   72 1  
    74   16   73 1  
    75   17   74 1  
    76   18   75 1  
    77   18   76 1  
    78   18   77 1  
    79   19   78 1  
    80   20   79 1  
    81   23   80 1  
    82   23   81 1  
    83   24   82 1  
    84   25   83 1  
    85   25   84 1  
    86   25   85 1  
    87   26   86 1  
    88   26   87 1  
    89   26   88 1  
    90   27   89 1  
    91   28   90 1  
    92   31   91 1  
    93   31   92 1  
    94   35   93 1  
    95   36   94 1  
    96   39   95 1  
    97   39   96 1  
    98   39   97 1  
    99   40   98 1  
   100   41   99 1  
   101   44  100 1  
   102   44  101 1  
   103   48  102 1  
   104   49  103 1  
   105   52  104 1  
   106   52  105 1  
   107   54  106 1  
   108   55  107 1  
   109   56  108 1  
   110   57  109 1  
   111   58  110 1  
@<TRIPOS>SUBSTRUCTURE
     1 PHE         1

