2zlf_ligand
  -I-interpret- 

113114  0  0  0  0  0  0  0  0999 V2000
   10.6210   22.3470   -1.5420 N   0  3  0  0  0
   11.2600   22.6180   -0.2560 C   0  0  0  0  0
   12.5170   21.7630   -0.0510 C   0  0  0  0  0
   12.4480   20.5310   -0.0250 O   0  0  0  0  0
   10.2640   22.3960    0.8850 C   0  0  0  0  0
   10.8620   22.5380    2.2570 C   0  0  0  0  0
   10.7070   23.7130    2.9710 C   0  0  0  0  0
   11.5660   21.4920    2.8370 C   0  0  0  0  0
   11.2460   23.8420    4.2370 C   0  0  0  0  0
   12.1090   21.6160    4.0960 C   0  0  0  0  0
   11.9520   22.7920    4.7980 C   0  0  0  0  0
   13.6600   22.4290    0.1040 N   0  0  0  0  0
   14.9440   21.7350    0.2420 C   0  0  0  0  0
   15.8510   22.3100    1.3400 C   0  0  0  0  0
   15.9870   23.5270    1.4740 O   0  0  0  0  0
   15.7290   21.6940   -1.1000 C   0  0  0  0  0
   17.0780   21.2730   -0.8510 O   0  0  0  0  0
   15.7460   23.0670   -1.7730 C   0  0  0  0  0
   16.4620   21.4180    2.1180 N   0  0  0  0  0
   17.4230   21.8050    3.1460 C   0  0  0  0  0
   18.8440   21.4940    2.6770 C   0  0  0  0  0
   19.8270   21.8610    3.3350 O   0  0  0  0  0
   17.1420   21.0920    4.4800 C   0  0  0  0  0
   15.7670   21.2170    5.1560 C   0  0  0  0  0
   15.8330   20.7480    6.6030 C   0  0  0  0  0
   15.2350   22.6310    5.0930 C   0  0  0  0  0
   18.9530   20.8220    1.5320 N   0  0  0  0  0
   20.2650   20.4820    0.9690 C   0  0  0  0  0
   20.5490   21.2540   -0.3200 C   0  0  0  0  0
   20.2650   20.7720   -1.4210 O   0  0  0  0  0
   20.3730   18.9740    0.7170 C   0  0  0  0  0
   19.5540   18.1630    1.7030 C   0  0  0  0  0
   18.3470   17.9520    1.4390 O   0  0  0  0  0
   20.1170   17.7360    2.7370 O   0  0  0  0  0
   21.1070   22.4510   -0.1740 N   0  0  0  0  0
   21.4520   23.2830   -1.3210 C   0  0  0  0  0
   22.8020   23.9870   -1.1060 C   0  0  0  0  0
   23.2310   24.1780    0.0330 O   0  0  0  0  0
   20.3400   24.2910   -1.5940 C   0  0  0  0  0
   23.4720   24.3480   -2.2020 N   0  0  0  0  0
   24.7840   25.0020   -2.1370 C   0  0  0  0  0
   24.6470   26.4580   -1.7070 C   0  0  0  0  0
   24.1530   27.2980   -2.4670 O   0  0  0  0  0
   25.5100   24.9380   -3.4910 C   0  0  0  0  0
   26.2400   23.6100   -3.7130 C   0  0  0  0  0
   26.4790   23.2510   -4.8920 O   0  0  0  0  0
   26.5780   22.9270   -2.7160 O   0  0  0  0  0
   25.0710   26.7670   -0.4870 N   0  0  0  0  0
   24.9760   28.1480   -0.0180 C   0  0  0  0  0
   26.2370   28.5990    0.7260 C   0  0  0  0  0
   26.4180   29.8010    0.9490 O   0  0  0  0  0
   23.6960   28.3780    0.8140 C   0  0  0  0  0
   23.7330   27.7600    2.1880 C   0  0  0  0  0
   24.2710   28.4550    3.2620 C   0  0  0  0  0
   23.2210   26.4950    2.4070 C   0  0  0  0  0
   24.3030   27.8950    4.5210 C   0  0  0  0  0
   23.2540   25.9290    3.6650 C   0  0  0  0  0
   23.7970   26.6320    4.7250 C   0  0  0  0  0
   27.0910   27.7830    1.1020 O   0  0  0  0  0
   11.2941   22.4983   -2.2933 H   0  0  0  0  0
   10.2982   21.3796   -1.5628 H   0  0  0  0  0
    9.8263   22.9746   -1.6644 H   0  0  0  0  0
   11.5755   23.6613   -0.2549 H   0  0  0  0  0
    9.8957   21.3738    0.7976 H   0  0  0  0  0
    9.4895   23.1571    0.7901 H   0  0  0  0  0
   10.1552   24.5438    2.5313 H   0  0  0  0  0
   11.6908   20.5588    2.2878 H   0  0  0  0  0
   11.1152   24.7701    4.7934 H   0  0  0  0  0
   12.6617   20.7863    4.5367 H   0  0  0  0  0
   12.3834   22.8948    5.7937 H   0  0  0  0  0
   13.6415   23.4486    0.1273 H   0  0  0  0  0
   14.6734   20.7222    0.5405 H   0  0  0  0  0
   15.2304   20.9896   -1.7658 H   0  0  0  0  0
   17.5623   21.2478   -1.6795 H   0  0  0  0  0
   14.7229   23.3827   -1.9774 H   0  0  0  0  0
   16.2249   23.7887   -1.1113 H   0  0  0  0  0
   16.3022   23.0049   -2.7084 H   0  0  0  0  0
   16.2505   20.4283    1.9907 H   0  0  0  0  0
   17.3210   22.8775    3.3118 H   0  0  0  0  0
   17.8310   21.5583    5.1842 H   0  0  0  0  0
   17.2288   20.0319    4.2416 H   0  0  0  0  0
   15.0788   20.5759    4.6051 H   0  0  0  0  0
   16.1462   19.7044    6.6314 H   0  0  0  0  0
   16.5513   21.3593    7.1493 H   0  0  0  0  0
   14.8485   20.8458    7.0606 H   0  0  0  0  0
   15.9282   23.3016    5.6007 H   0  0  0  0  0
   15.1327   22.9332    4.0508 H   0  0  0  0  0
   14.2619   22.6739    5.5822 H   0  0  0  0  0
   18.1078   20.5381    1.0367 H   0  0  0  0  0
   21.0159   20.7732    1.7034 H   0  0  0  0  0
   21.4184   18.6871    0.8305 H   0  0  0  0  0
   19.9929   18.7713   -0.2843 H   0  0  0  0  0
   18.1261   18.3680    0.6025 H   0  0  0  0  0
   21.2993   22.7974    0.7659 H   0  0  0  0  0
   21.5545   22.6412   -2.1961 H   0  0  0  0  0
   19.4125   23.7586   -1.8047 H   0  0  0  0  0
   20.2048   24.9268   -0.7190 H   0  0  0  0  0
   20.6110   24.9053   -2.4527 H   0  0  0  0  0
   23.0582   24.1631   -3.1158 H   0  0  0  0  0
   25.3740   24.4626   -1.3960 H   0  0  0  0  0
   26.2543   25.7342   -3.5079 H   0  0  0  0  0
   24.7608   25.0416   -4.2759 H   0  0  0  0  0
   26.1397   23.9108   -5.5012 H   0  0  0  0  0
   25.4606   26.0449    0.1190 H   0  0  0  0  0
   24.9017   28.7792   -0.9036 H   0  0  0  0  0
   22.8728   27.9110    0.2734 H   0  0  0  0  0
   23.5888   29.4544    0.9483 H   0  0  0  0  0
   24.6733   29.4563    3.1080 H   0  0  0  0  0
   22.7863   25.9383    1.5768 H   0  0  0  0  0
   24.7291   28.4527    5.3549 H   0  0  0  0  0
   22.8522   24.9282    3.8232 H   0  0  0  0  0
   23.8240   26.1866    5.7195 H   0  0  0  0  0
   26.8134   26.8965    0.8598 H   0  0  0  0  0
  1  2  1  0  0  0
  2  3  1  0  0  0
  2  5  1  0  0  0
  3  4  2  0  0  0
  3 12  1  0  0  0
  5  6  1  0  0  0
  6  7  4  0  0  0
  6  8  4  0  0  0
  7  9  4  0  0  0
  8 10  4  0  0  0
  9 11  4  0  0  0
 10 11  4  0  0  0
 12 13  1  0  0  0
 13 14  1  0  0  0
 13 16  1  0  0  0
 14 15  2  0  0  0
 14 19  1  0  0  0
 16 17  1  0  0  0
 16 18  1  0  0  0
 19 20  1  0  0  0
 20 21  1  0  0  0
 20 23  1  0  0  0
 21 22  2  0  0  0
 21 27  1  0  0  0
 23 24  1  0  0  0
 24 25  1  0  0  0
 24 26  1  0  0  0
 27 28  1  0  0  0
 28 29  1  0  0  0
 28 31  1  0  0  0
 29 30  2  0  0  0
 29 35  1  0  0  0
 31 32  1  0  0  0
 32 33  1  0  0  0
 32 34  2  0  0  0
 35 36  1  0  0  0
 36 37  1  0  0  0
 36 39  1  0  0  0
 37 38  2  0  0  0
 37 40  1  0  0  0
 40 41  1  0  0  0
 41 42  1  0  0  0
 41 44  1  0  0  0
 42 43  2  0  0  0
 42 48  1  0  0  0
 44 45  1  0  0  0
 45 46  1  0  0  0
 45 47  2  0  0  0
 48 49  1  0  0  0
 49 50  1  0  0  0
 49 52  1  0  0  0
 50 51  2  0  0  0
 50 59  1  0  0  0
 52 53  1  0  0  0
 53 54  4  0  0  0
 53 55  4  0  0  0
 54 56  4  0  0  0
 55 57  4  0  0  0
 56 58  4  0  0  0
 57 58  4  0  0  0
  1 60  1  0  0  0
  1 61  1  0  0  0
  1 62  1  0  0  0
  2 63  1  0  0  0
  5 64  1  0  0  0
  5 65  1  0  0  0
  7 66  1  0  0  0
  8 67  1  0  0  0
  9 68  1  0  0  0
 10 69  1  0  0  0
 11 70  1  0  0  0
 12 71  1  0  0  0
 13 72  1  0  0  0
 16 73  1  0  0  0
 17 74  1  0  0  0
 18 75  1  0  0  0
 18 76  1  0  0  0
 18 77  1  0  0  0
 19 78  1  0  0  0
 20 79  1  0  0  0
 23 80  1  0  0  0
 23 81  1  0  0  0
 24 82  1  0  0  0
 25 83  1  0  0  0
 25 84  1  0  0  0
 25 85  1  0  0  0
 26 86  1  0  0  0
 26 87  1  0  0  0
 26 88  1  0  0  0
 27 89  1  0  0  0
 28 90  1  0  0  0
 31 91  1  0  0  0
 31 92  1  0  0  0
 33 93  1  0  0  0
 35 94  1  0  0  0
 36 95  1  0  0  0
 39 96  1  0  0  0
 39 97  1  0  0  0
 39 98  1  0  0  0
 40 99  1  0  0  0
 41100  1  0  0  0
 44101  1  0  0  0
 44102  1  0  0  0
 46103  1  0  0  0
 48104  1  0  0  0
 49105  1  0  0  0
 52106  1  0  0  0
 52107  1  0  0  0
 54108  1  0  0  0
 55109  1  0  0  0
 56110  1  0  0  0
 57111  1  0  0  0
 58112  1  0  0  0
 59113  1  0  0  0
M  END
$$$$
