### 
### Created by X-TOOL on Mon Sep 10 21:13:00 2018
### 

@<TRIPOS>MOLECULE
3g3d_ligand
   32    33     1     0     0
SMALL
GAST_HUCK


@<TRIPOS>ATOM
      1 F5         19.0340   10.6960   13.8010 F         1 5FU        -0.2165
      2 C5         19.7410    9.5690   13.7700 C.2       1 5FU         0.1931
      3 C4         19.6290    8.6660   12.6010 C.2       1 5FU         0.2212
      4 O4         18.8580    8.9710   11.6430 O.2       1 5FU        -0.4071
      5 N3         20.3360    7.5120   12.6310 N.am      1 5FU        -0.1842
      6 C2         21.1520    7.2590   13.6860 C.2       1 5FU         0.3295
      7 O2         21.7570    6.1720   13.6990 O.2       1 5FU        -0.3830
      8 C6         20.5610    9.2380   14.8540 C.2       1 5FU         0.0880
      9 N1         21.2500    8.0720   14.7610 N.am      1 5FU        -0.1635
     10 C1'        22.2520    7.7280   15.7880 C.3       1 5FU         0.2035
     11 O4'        23.4890    7.6440   15.0200 O.3       1 5FU        -0.3367
     12 C2'        22.2540    6.5220   16.6990 C.3       1 5FU         0.1382
     13 O2'        21.7600    7.0460   17.9300 O.3       1 5FU        -0.3837
     14 C3'        23.7400    6.1680   16.7940 C.3       1 5FU         0.1148
     15 O3'        24.4110    6.9280   17.8020 O.3       1 5FU        -0.3864
     16 C4'        24.3660    6.6180   15.4840 C.3       1 5FU         0.1181
     17 C5'        24.5140    5.4750   14.4630 C.3       1 5FU         0.1071
     18 O5'        25.2900    4.4390   15.0640 O.3       1 5FU        -0.2734
     19 P          25.6540    2.9870   14.4430 P.3       1 5FU         0.2008
     20 O1P        26.2410    2.3620   15.6920 O.co2     1 5FU        -0.5537
     21 O2P        24.3670    2.3830   13.9960 O.co2     1 5FU        -0.5537
     22 O3P        26.7570    3.2500   13.4730 O.co2     1 5FU        -0.5537
     23 H1         20.2580    6.8524   11.8834 H         1 5FU         0.2260
     24 H2         20.6425    9.8828   15.7278 H         1 5FU         0.1107
     25 H3         22.2879    8.5947   16.4644 H         1 5FU         0.0991
     26 H4         21.6477    5.6810   16.3313 H         1 5FU         0.0676
     27 H5         20.8888    7.4000   17.7953 H         1 5FU         0.2101
     28 H6         23.8706    5.0893   16.9655 H         1 5FU         0.0648
     29 H7         25.3273    6.6784   17.8278 H         1 5FU         0.2100
     30 H8         25.3649    7.0373   15.6748 H         1 5FU         0.0650
     31 H9         25.0223    5.8452   13.5604 H         1 5FU         0.0639
     32 H10        23.5211    5.0870   14.1917 H         1 5FU         0.0639
@<TRIPOS>BOND
     1    1    2 1  
     2    2    3 1  
     3    2    8 2  
     4    3    4 2  
     5    3    5 am 
     6    5    6 am 
     7    6    7 2  
     8    6    9 am 
     9    8    9 1  
    10    9   10 1  
    11   10   11 1  
    12   10   12 1  
    13   11   16 1  
    14   12   13 1  
    15   12   14 1  
    16   14   15 1  
    17   14   16 1  
    18   16   17 1  
    19   17   18 1  
    20   18   19 1  
    21   19   20 ar 
    22   19   21 ar 
    23   19   22 ar 
    24    5   23 1  
    25    8   24 1  
    26   10   25 1  
    27   12   26 1  
    28   13   27 1  
    29   14   28 1  
    30   15   29 1  
    31   16   30 1  
    32   17   31 1  
    33   17   32 1  
@<TRIPOS>SUBSTRUCTURE
     1 5FU         1

