3g3d_ligand
  -I-interpret- 

 34 35  0  0  0  0  0  0  0  0999 V2000
   19.0340   10.6960   13.8010 F   0  0  0  0  0
   19.7410    9.5690   13.7700 C   0  0  0  0  0
   19.6290    8.6660   12.6010 C   0  0  0  0  0
   18.8580    8.9710   11.6430 O   0  0  0  0  0
   20.3360    7.5120   12.6310 N   0  0  0  0  0
   21.1520    7.2590   13.6860 C   0  0  0  0  0
   21.7570    6.1720   13.6990 O   0  0  0  0  0
   20.5610    9.2380   14.8540 C   0  0  0  0  0
   21.2500    8.0720   14.7610 N   0  0  0  0  0
   22.2520    7.7280   15.7880 C   0  0  0  0  0
   23.4890    7.6440   15.0200 O   0  0  0  0  0
   22.2540    6.5220   16.6990 C   0  0  0  0  0
   21.7600    7.0460   17.9300 O   0  0  0  0  0
   23.7400    6.1680   16.7940 C   0  0  0  0  0
   24.4110    6.9280   17.8020 O   0  0  0  0  0
   24.3660    6.6180   15.4840 C   0  0  0  0  0
   24.5140    5.4750   14.4630 C   0  0  0  0  0
   25.2900    4.4390   15.0640 O   0  0  0  0  0
   25.6540    2.9870   14.4430 P   0  0  0  0  0
   26.2410    2.3620   15.6920 O   0  0  0  0  0
   24.3670    2.3830   13.9960 O   0  0  0  0  0
   26.7570    3.2500   13.4730 O   0  0  0  0  0
   20.2564    6.8392   11.8685 H   0  0  0  0  0
   20.6425    9.8834   15.7286 H   0  0  0  0  0
   22.0444    8.4862   16.5431 H   0  0  0  0  0
   21.6725    5.6505   16.3981 H   0  0  0  0  0
   21.7238    6.3439   18.5837 H   0  0  0  0  0
   23.8301    5.1042   17.0138 H   0  0  0  0  0
   25.3369    6.6758   17.8280 H   0  0  0  0  0
   25.3885    6.9692   15.6229 H   0  0  0  0  0
   25.0078    5.8387   13.5619 H   0  0  0  0  0
   23.5323    5.0934   14.1823 H   0  0  0  0  0
   27.0640    2.8040   15.9132 H   0  0  0  0  0
   27.5029    3.6384   13.9360 H   0  0  0  0  0
  1  2  1  0  0  0
  2  3  1  0  0  0
  2  8  2  0  0  0
  3  4  2  0  0  0
  3  5  1  0  0  0
  5  6  1  0  0  0
  6  7  2  0  0  0
  6  9  1  0  0  0
  8  9  1  0  0  0
  9 10  1  0  0  0
 10 11  1  0  0  0
 10 12  1  0  0  0
 11 16  1  0  0  0
 12 13  1  0  0  0
 12 14  1  0  0  0
 14 15  1  0  0  0
 14 16  1  0  0  0
 16 17  1  0  0  0
 17 18  1  0  0  0
 18 19  1  0  0  0
 19 20  1  0  0  0
 19 21  2  0  0  0
 19 22  1  0  0  0
  5 23  1  0  0  0
  8 24  1  0  0  0
 10 25  1  0  0  0
 12 26  1  0  0  0
 13 27  1  0  0  0
 14 28  1  0  0  0
 15 29  1  0  0  0
 16 30  1  0  0  0
 17 31  1  0  0  0
 17 32  1  0  0  0
 20 33  1  0  0  0
 22 34  1  0  0  0
M  END
$$$$
