5ddc_ligand
  -I-interpret- 

 41 44  0  0  0  0  0  0  0  0999 V2000
  -13.6180    7.5880  -12.3510 C   0  0  0  0  0
  -13.7750    8.9060  -12.0650 C   0  0  0  0  0
  -12.6990    9.5760  -11.5810 C   0  0  0  0  0
  -11.5630    8.8970  -11.3880 N   0  0  0  0  0
  -12.4620    6.9560  -12.1700 N   0  0  0  0  0
  -18.0170    8.4380  -10.8670 F   0  0  0  0  0
  -18.2420    7.8590  -12.0420 C   0  0  0  0  0
  -19.5230    8.0010  -12.3670 F   0  0  0  0  0
  -17.9450    6.5660  -11.9630 F   0  0  0  0  0
  -17.3430    8.5010  -13.1680 C   0  0  0  0  0
  -15.8480    8.3410  -12.8050 C   0  0  0  0  0
  -14.9940    6.9430  -12.9530 S   0  0  0  0  0
  -15.0430    9.3100  -12.3300 C   0  0  0  0  0
  -11.3580    7.5860  -11.6980 C   0  0  0  0  0
  -12.6150   10.9040  -11.2610 N   0  0  0  0  0
  -13.4880   11.9350  -11.8540 C   0  0  0  0  0
  -12.6740   13.0630  -12.4360 C   0  0  0  0  0
  -11.5030   11.3900  -10.4520 C   0  0  0  0  0
  -11.6150   12.8760  -10.2320 C   0  0  0  0  0
  -11.8390   13.6150  -11.4360 N   0  0  0  0  0
  -11.0880   14.6550  -11.8080 C   0  0  0  0  0
  -11.0350   15.2770  -13.3840 S   0  0  0  0  0
  -10.2500   15.3270  -11.0190 N   0  0  0  0  0
   -9.6210   16.2950  -11.6610 N   0  0  0  0  0
   -9.9440   16.3850  -12.9570 C   0  0  0  0  0
   -9.3650   17.4080  -13.9100 C   0  0  0  0  0
  -10.2770   18.3530  -14.1260 F   0  0  0  0  0
   -8.2790   17.9550  -13.3690 F   0  0  0  0  0
   -9.0440   16.8300  -15.0630 F   0  0  0  0  0
  -17.5797    9.5614  -13.2554 H   0  0  0  0  0
  -17.5386    7.9970  -14.1145 H   0  0  0  0  0
  -15.3817   10.3339  -12.1715 H   0  0  0  0  0
  -10.3952    7.0895  -11.5776 H   0  0  0  0  0
  -14.1345   12.3367  -11.0737 H   0  0  0  0  0
  -14.0749   11.4796  -12.6516 H   0  0  0  0  0
  -13.3447   13.8351  -12.8129 H   0  0  0  0  0
  -12.0581   12.6810  -13.2502 H   0  0  0  0  0
  -10.5693   11.1802  -10.9737 H   0  0  0  0  0
  -11.5246   10.8878   -9.4848 H   0  0  0  0  0
  -10.6701   13.2170   -9.8090 H   0  0  0  0  0
  -12.4703   13.0471   -9.5783 H   0  0  0  0  0
  1  2  4  0  0  0
  1  5  4  0  0  0
 12  1  4  0  0  0
  2  3  4  0  0  0
  2 13  4  0  0  0
  3  4  4  0  0  0
  3 15  1  0  0  0
 14  4  4  0  0  0
  5 14  4  0  0  0
  7  6  1  0  0  0
  7  8  1  0  0  0
  7  9  1  0  0  0
 10  7  1  0  0  0
 11 10  1  0  0  0
 11 12  4  0  0  0
 11 13  4  0  0  0
 15 16  1  0  0  0
 15 18  1  0  0  0
 16 17  1  0  0  0
 17 20  1  0  0  0
 18 19  1  0  0  0
 19 20  1  0  0  0
 20 21  1  0  0  0
 21 22  4  0  0  0
 21 23  4  0  0  0
 22 25  4  0  0  0
 23 24  4  0  0  0
 24 25  4  0  0  0
 25 26  1  0  0  0
 26 27  1  0  0  0
 26 28  1  0  0  0
 26 29  1  0  0  0
 10 30  1  0  0  0
 10 31  1  0  0  0
 13 32  1  0  0  0
 14 33  1  0  0  0
 16 34  1  0  0  0
 16 35  1  0  0  0
 17 36  1  0  0  0
 17 37  1  0  0  0
 18 38  1  0  0  0
 18 39  1  0  0  0
 19 40  1  0  0  0
 19 41  1  0  0  0
M  END
$$$$
