2mas_ligand
  -I-interpret- 

 33 34  0  0  0  0  0  0  0  0999 V2000
  107.1160   36.4820   81.8630 C   0  0  0  0  0
  106.5220   35.2020   82.0070 C   0  0  0  0  0
  107.0330   34.1130   81.2640 C   0  0  0  0  0
  107.8940   34.3480   80.1840 C   0  0  0  0  0
  108.4400   35.6460   80.0050 C   0  0  0  0  0
  109.2770   35.8850   78.9900 N   0  0  0  0  0
  108.1240   36.6860   80.9080 C   0  0  0  0  0
  105.3330   35.0040   82.9310 C   0  0  0  0  0
  105.1370   36.1330   83.9270 C   0  0  0  0  0
  105.3650   35.6820   85.2530 O   0  0  0  0  0
  103.6700   36.5690   83.7690 C   0  0  0  0  0
  102.8450   35.9830   84.7620 O   0  0  0  0  0
  103.2690   36.0990   82.3930 C   0  0  0  0  0
  104.0380   34.8720   82.2770 N   0  3  0  0  0
  103.5970   37.0450   81.2280 C   0  0  0  0  0
  103.7070   36.3140   80.0080 O   0  0  0  0  0
  106.7893   37.3080   82.4947 H   0  0  0  0  0
  106.7576   33.0927   81.5309 H   0  0  0  0  0
  108.1414   33.5445   79.4902 H   0  0  0  0  0
  109.5231   35.1346   78.3444 H   0  0  0  0  0
  109.6694   36.8177   78.8613 H   0  0  0  0  0
  108.6570   37.6357   80.8633 H   0  0  0  0  0
  105.6144   34.0668   83.4111 H   0  0  0  0  0
  105.8342   36.9503   83.7424 H   0  0  0  0  0
  105.2357   36.4108   85.8644 H   0  0  0  0  0
  103.5570   37.6468   83.8857 H   0  0  0  0  0
  101.9389   36.2740   84.6362 H   0  0  0  0  0
  102.1855   36.0101   82.3135 H   0  0  0  0  0
  103.5197   34.1172   82.7265 H   0  0  0  0  0
  104.1895   34.6729   81.2882 H   0  0  0  0  0
  104.5461   37.5413   81.4307 H   0  0  0  0  0
  102.7966   37.7785   81.1308 H   0  0  0  0  0
  103.9119   36.9188   79.2912 H   0  0  0  0  0
  1  7  4  0  0  0
  1  2  4  0  0  0
  2  8  1  0  0  0
  2  3  4  0  0  0
  3  4  4  0  0  0
  4  5  4  0  0  0
  5  7  4  0  0  0
  5  6  1  0  0  0
  8 14  1  0  0  0
  8  9  1  0  0  0
  9 11  1  0  0  0
  9 10  1  0  0  0
 11 13  1  0  0  0
 11 12  1  0  0  0
 13 15  1  0  0  0
 13 14  1  0  0  0
 15 16  1  0  0  0
  1 17  1  0  0  0
  3 18  1  0  0  0
  4 19  1  0  0  0
  6 20  1  0  0  0
  6 21  1  0  0  0
  7 22  1  0  0  0
  8 23  1  0  0  0
  9 24  1  0  0  0
 10 25  1  0  0  0
 11 26  1  0  0  0
 12 27  1  0  0  0
 13 28  1  0  0  0
 14 29  1  0  0  0
 14 30  1  0  0  0
 15 31  1  0  0  0
 15 32  1  0  0  0
 16 33  1  0  0  0
M  END
$$$$
