### 
### Created by X-TOOL on Mon Sep 10 21:12:59 2018
### 

@<TRIPOS>MOLECULE
3cyu_ligand
  171   184     1     0     0
SMALL
GAST_HUCK


@<TRIPOS>ATOM
      1 N1         12.2180   -7.2260   21.6210 N.am      1 0CR        -0.2617
      2 N2         20.6540   -3.0260   27.1100 N.2       1 0CR        -0.2238
      3 N3         20.1280   -3.6970   26.0790 N.2       1 0CR        -0.1017
      4 C01        21.6880   -2.9410   34.9810 C.3       1 0CR        -0.0049
      5 C02        21.5910   -2.3780   33.5870 C.ar      1 0CR        -0.0499
      6 C03        21.0230   -3.2600   32.6330 C.ar      1 0CR        -0.0405
      7 C04        20.8480   -2.9340   31.2470 C.ar      1 0CR         0.1250
      8 C05        21.2740   -1.6290   30.8200 C.ar      1 0CR         0.1127
      9 C06        21.8400   -0.7520   31.7960 C.ar      1 0CR        -0.0434
     10 C07        22.0130   -1.0870   33.1690 C.ar      1 0CR        -0.0501
     11 C08        22.6480    0.0070   34.0180 C.3       1 0CR        -0.0050
     12 C09        24.1290    0.1670   34.2280 C.ar      1 0CR        -0.0503
     13 C10        24.7770    1.1380   33.4100 C.ar      1 0CR        -0.0441
     14 C11        26.1770    1.4260   33.4670 C.ar      1 0CR         0.1071
     15 C12        26.9570    0.6680   34.4270 C.ar      1 0CR         0.1089
     16 C13        26.2940   -0.3010   35.2400 C.ar      1 0CR        -0.0439
     17 C14        24.8990   -0.5860   35.1810 C.ar      1 0CR        -0.0503
     18 C15        24.4270   -1.6740   36.1670 C.3       1 0CR        -0.0050
     19 C16        24.1850   -3.1410   35.7620 C.ar      1 0CR        -0.0499
     20 C17        25.3060   -3.9990   35.9370 C.ar      1 0CR        -0.0405
     21 C18        25.2900   -5.3970   35.6230 C.ar      1 0CR         0.1250
     22 C19        24.0820   -5.9800   35.1050 C.ar      1 0CR         0.1127
     23 C20        22.9680   -5.1110   34.9310 C.ar      1 0CR        -0.0434
     24 C21        22.9780   -3.7100   35.2400 C.ar      1 0CR        -0.0501
     25 C22        28.9920   -3.6780   28.0560 C.3       1 0CR        -0.0050
     26 C23        28.9110   -4.5170   29.3360 C.ar      1 0CR        -0.0501
     27 C24        29.3600   -3.8160   30.4850 C.ar      1 0CR        -0.0436
     28 C25        29.3790   -4.3560   31.7880 C.ar      1 0CR         0.1103
     29 C26        28.9150   -5.7080   31.9650 C.ar      1 0CR         0.1248
     30 C27        28.4670   -6.4160   30.8030 C.ar      1 0CR        -0.0405
     31 C28        28.4440   -5.8680   29.4690 C.ar      1 0CR        -0.0499
     32 C29        27.9230   -6.7660   28.3190 C.3       1 0CR        -0.0049
     33 C30        26.3860   -6.5800   28.3190 C.ar      1 0CR        -0.0501
     34 C31        25.7060   -7.5150   29.1610 C.ar      1 0CR        -0.0436
     35 C32        24.3040   -7.5410   29.3280 C.ar      1 0CR         0.1103
     36 C33        23.5270   -6.5680   28.6100 C.ar      1 0CR         0.1248
     37 C34        24.1950   -5.6320   27.7600 C.ar      1 0CR        -0.0405
     38 C35        25.6190   -5.5990   27.5810 C.ar      1 0CR        -0.0499
     39 C36        26.1630   -4.5200   26.6150 C.3       1 0CR        -0.0050
     40 C37        26.4790   -3.1560   27.2320 C.ar      1 0CR        -0.0503
     41 C38        25.4370   -2.1670   27.1550 C.ar      1 0CR        -0.0441
     42 C39        25.5770   -0.8450   27.6810 C.ar      1 0CR         0.1065
     43 C40        26.8140   -0.5010   28.3140 C.ar      1 0CR         0.1069
     44 C41        27.8420   -1.4790   28.3830 C.ar      1 0CR        -0.0441
     45 C42        27.7260   -2.8050   27.8620 C.ar      1 0CR        -0.0503
     46 C46        21.5330   -6.3360   30.0030 C.2       1 0CR         0.0801
     47 C47        20.7720   -5.2890   30.6810 C.2       1 0CR         0.0801
     48 C51        23.9310   -9.0290   31.4790 C.3       1 0CR         0.0555
     49 C52        26.8330    0.9890   30.2510 C.3       1 0CR         0.0934
     50 C56        29.1050   -2.4080   33.3830 C.3       1 0CR         0.0555
     51 C57        27.3930   -6.6990   35.0180 C.2       1 0CR         0.0801
     52 C58        19.7880   -1.2790   28.7390 C.3       1 0CR         0.1013
     53 C59        23.5980    0.4300   28.7900 C.3       1 0CR         0.0553
     54 C60        26.8920    2.3220   31.1160 C.3       1 0CR         0.0934
     55 O01        20.2280   -3.9890   30.3290 O.3       1 0CR        -0.2928
     56 O02        21.0910   -1.2940   29.3440 O.3       1 0CR        -0.3182
     57 O03        23.5600   -8.4710   30.1730 O.3       1 0CR        -0.3302
     58 O04        26.8170    2.4660   32.5800 O.3       1 0CR        -0.3250
     59 O05        28.4510    0.7710   34.6940 O.3       1 0CR        -0.3189
     60 O06        24.5190    0.2060   27.6090 O.3       1 0CR        -0.3309
     61 O07        26.6190   -6.0110   35.9090 O.3       1 0CR        -0.2928
     62 O08        23.7520   -7.4070   34.6860 O.3       1 0CR        -0.3182
     63 O09        29.8240   -3.6490   32.9480 O.3       1 0CR        -0.3302
     64 O10        28.9260   -6.2660   33.3500 O.3       1 0CR        -0.2928
     65 O11        22.0730   -6.6100   28.8040 O.3       1 0CR        -0.2928
     66 O12        26.9010    0.7730   28.8070 O.3       1 0CR        -0.3250
     67 C61        12.9990   -5.5900   23.5840 C.ar      1 0CR         0.1009
     68 C62        14.2920   -6.1990   23.5970 C.ar      1 0CR        -0.0419
     69 C64        15.4160   -5.4220   24.0210 C.ar      1 0CR        -0.0584
     70 C65        15.2730   -4.0580   24.4310 C.ar      1 0CR        -0.0401
     71 C66        13.9840   -3.4590   24.4180 C.ar      1 0CR        -0.0584
     72 C67        12.8690   -4.2330   23.9940 C.ar      1 0CR        -0.0419
     73 C68        16.4600   -3.2350   24.8750 C.3       1 0CR         0.0113
     74 C69        17.9190   -3.7960   24.9180 C.3       1 0CR         0.0848
     75 O13        11.4980   -7.7220   24.0250 O.2       1 0CR        -0.1514
     76 O14        10.3750   -5.8110   23.0730 O.2       1 0CR        -0.1514
     77 S1         11.6760   -6.6000   23.0470 S.o2      1 0CR         0.0628
     78 C70        27.7650   -5.7790   34.0910 C.2       1 0CR         0.0801
     79 C71        19.6830   -2.1790   27.6360 C.2       1 0CR         0.0665
     80 C72        18.5590   -2.3790   26.8690 C.2       1 0CR         0.0721
     81 N4         18.8320   -3.2780   25.9520 N.pl3     1 0CR        -0.1792
     82 CT5        29.2840    1.5920   34.0740 C.3       1 0CR         0.1011
     83 CN5        30.2110    1.3130   33.2290 C.2       1 0CR         0.0665
     84 CN6        30.4780    2.0380   32.0680 C.2       1 0CR         0.0720
     85 NN7        31.1280    0.2720   33.2640 N.2       1 0CR        -0.2238
     86 NN8        31.9410    0.3080   32.2010 N.2       1 0CR        -0.1018
     87 NN9        31.5190    1.4200   31.4630 N.pl3     1 0CR        -0.1795
     88 CI5        32.1410    1.8230   30.2170 C.3       1 0CR         0.0867
     89 CI6        32.1140    0.7940   28.9910 C.3       1 0CR         0.0306
     90 CO5        33.3850    0.0500   28.6990 C.2       1 0CR         0.0377
     91 O51        34.2640   -0.7800   29.2820 O.co2     1 0CR        -0.5689
     92 O52        33.8940    0.1940   27.4830 O.co2     1 0CR        -0.5689
     93 CO3        27.9850  -12.3100   39.5890 C.2       1 0CR         0.0377
     94 O31        27.4440  -12.0120   40.7020 O.co2     1 0CR        -0.5689
     95 O32        28.7610  -13.3610   39.5170 O.co2     1 0CR        -0.5689
     96 CI3        26.5570  -11.7430   37.8740 C.3       1 0CR         0.0867
     97 CI4        27.7280  -11.4330   38.3540 C.3       1 0CR         0.0306
     98 NN4        24.7480   -8.7520   37.8040 N.2       1 0CR        -0.2238
     99 NN5        25.3570   -9.6950   38.4260 N.2       1 0CR        -0.1018
    100 NN6        25.8520  -10.6080   37.5920 N.pl3     1 0CR        -0.1795
    101 CT3        24.4420   -8.5170   35.2440 C.3       1 0CR         0.1013
    102 CN3        24.7930   -8.9760   36.4440 C.2       1 0CR         0.0665
    103 CN4        25.5080  -10.1810   36.3240 C.2       1 0CR         0.0720
    104 H1         11.6390   -7.8506   21.0969 H         1 0CR         0.1634
    105 H2         13.1257   -6.9810   21.2803 H         1 0CR         0.1634
    106 H3         20.8391   -3.6221   35.1409 H         1 0CR         0.0514
    107 H4         21.6299   -2.1082   35.6972 H         1 0CR         0.0514
    108 H5         20.7020   -4.2386   32.9711 H         1 0CR         0.0442
    109 H6         22.1581    0.2317   31.4701 H         1 0CR         0.0437
    110 H7         22.2172   -0.1104   35.0233 H         1 0CR         0.0514
    111 H8         22.3063    0.9570   33.5812 H         1 0CR         0.0514
    112 H9         24.1719    1.6920   32.7015 H         1 0CR         0.0437
    113 H10        26.8932   -0.8582   35.9510 H         1 0CR         0.0437
    114 H11        23.4721   -1.3140   36.5776 H         1 0CR         0.0513
    115 H12        25.1820   -1.7034   36.9664 H         1 0CR         0.0513
    116 H13        26.2220   -3.5721   36.3292 H         1 0CR         0.0442
    117 H14        22.0511   -5.5361   34.5389 H         1 0CR         0.0437
    118 H15        29.0954   -4.3527   27.1934 H         1 0CR         0.0514
    119 H16        29.8723   -3.0211   28.1154 H         1 0CR         0.0514
    120 H17        29.7114   -2.7991   30.3529 H         1 0CR         0.0437
    121 H18        28.1211   -7.4348   30.9356 H         1 0CR         0.0442
    122 H19        28.1836   -7.8186   28.5039 H         1 0CR         0.0514
    123 H20        28.3497   -6.4461   27.3569 H         1 0CR         0.0514
    124 H21        26.2996   -8.2439   29.7008 H         1 0CR         0.0437
    125 H22        23.5937   -4.9083   27.2217 H         1 0CR         0.0442
    126 H23        25.4111   -4.3655   25.8272 H         1 0CR         0.0513
    127 H24        27.0895   -4.9078   26.1666 H         1 0CR         0.0513
    128 H25        24.5027   -2.4366   26.6761 H         1 0CR         0.0437
    129 H26        28.7744   -1.2019   28.8615 H         1 0CR         0.0437
    130 H27        21.7236   -7.1585   30.6908 H         1 0CR         0.0793
    131 H28        20.5576   -5.5505   31.7162 H         1 0CR         0.0793
    132 H29        23.1330   -9.6990   31.8315 H         1 0CR         0.0571
    133 H30        24.0688   -8.2111   32.2015 H         1 0CR         0.0571
    134 H31        24.8691   -9.5952   31.3827 H         1 0CR         0.0571
    135 H32        25.8751    0.5316   30.5395 H         1 0CR         0.0633
    136 H33        27.6622    0.3835   30.6458 H         1 0CR         0.0633
    137 H34        29.5848   -2.0040   34.2866 H         1 0CR         0.0571
    138 H35        28.0549   -2.6506   33.6028 H         1 0CR         0.0571
    139 H36        29.1477   -1.6586   32.5789 H         1 0CR         0.0571
    140 H37        27.6548   -7.7557   35.0452 H         1 0CR         0.0793
    141 H38        19.5769   -0.2598   28.3830 H         1 0CR         0.0724
    142 H39        19.0443   -1.5639   29.4977 H         1 0CR         0.0724
    143 H40        22.8896    1.2378   28.5544 H         1 0CR         0.0570
    144 H41        24.1935    0.7100   29.6715 H         1 0CR         0.0570
    145 H42        23.0419   -0.4951   29.0020 H         1 0CR         0.0570
    146 H43        26.0627    2.9360   30.7349 H         1 0CR         0.0633
    147 H44        27.8497    2.7880   30.8410 H         1 0CR         0.0633
    148 H45        14.4187   -7.2312   23.2911 H         1 0CR         0.0619
    149 H46        16.3997   -5.8772   24.0320 H         1 0CR         0.0557
    150 H47        13.8530   -2.4281   24.7265 H         1 0CR         0.0557
    151 H48        11.8869   -3.7742   23.9826 H         1 0CR         0.0619
    152 H49        16.2328   -2.9038   25.8990 H         1 0CR         0.0455
    153 H50        16.4908   -2.3625   24.2058 H         1 0CR         0.0455
    154 H51        18.3788   -3.5853   23.9412 H         1 0CR         0.0671
    155 H52        17.8464   -4.8841   25.0620 H         1 0CR         0.0671
    156 H53        27.2721   -4.8222   33.9250 H         1 0CR         0.0793
    157 H54        17.6023   -1.8757   27.0004 H         1 0CR         0.0899
    158 H55        29.8039    2.1204   34.8867 H         1 0CR         0.0724
    159 H56        28.6286    2.2955   33.5396 H         1 0CR         0.0724
    160 H57        29.9530    2.9254   31.7177 H         1 0CR         0.0899
    161 H58        33.1965    2.0426   30.4353 H         1 0CR         0.0666
    162 H59        31.6368    2.7418   29.8829 H         1 0CR         0.0666
    163 H60        31.8461    1.3611   28.0873 H         1 0CR         0.0460
    164 H61        31.3333    0.0480   29.2007 H         1 0CR         0.0460
    165 H62        26.0055  -12.3393   38.6158 H         1 0CR         0.0666
    166 H63        26.6848  -12.3306   36.9529 H         1 0CR         0.0666
    167 H64        28.5030  -11.6200   37.5961 H         1 0CR         0.0460
    168 H65        27.7442  -10.3712   38.6408 H         1 0CR         0.0460
    169 H66        25.4148   -8.4555   34.7343 H         1 0CR         0.0724
    170 H67        23.8687   -9.3639   34.8390 H         1 0CR         0.0724
    171 H68        25.7490  -10.6900   35.3919 H         1 0CR         0.0899
@<TRIPOS>BOND
     1   77    1 am 
     2    2    3 2  
     3   79    2 1  
     4   81    3 1  
     5    4    5 1  
     6   24    4 1  
     7    5    6 ar 
     8    5   10 ar 
     9    6    7 ar 
    10    7    8 ar 
    11    7   55 1  
    12    9    8 ar 
    13    8   56 1  
    14   10    9 ar 
    15   10   11 1  
    16   12   11 1  
    17   12   13 ar 
    18   17   12 ar 
    19   13   14 ar 
    20   15   14 ar 
    21   14   58 1  
    22   16   15 ar 
    23   15   59 1  
    24   17   16 ar 
    25   18   17 1  
    26   19   18 1  
    27   20   19 ar 
    28   24   19 ar 
    29   21   20 ar 
    30   22   21 ar 
    31   21   61 1  
    32   22   23 ar 
    33   62   22 1  
    34   23   24 ar 
    35   26   25 1  
    36   25   45 1  
    37   27   26 ar 
    38   31   26 ar 
    39   28   27 ar 
    40   29   28 ar 
    41   28   63 1  
    42   29   30 ar 
    43   64   29 1  
    44   30   31 ar 
    45   31   32 1  
    46   32   33 1  
    47   33   34 ar 
    48   33   38 ar 
    49   34   35 ar 
    50   36   35 ar 
    51   35   57 1  
    52   36   37 ar 
    53   65   36 1  
    54   38   37 ar 
    55   38   39 1  
    56   39   40 1  
    57   40   41 ar 
    58   45   40 ar 
    59   41   42 ar 
    60   43   42 ar 
    61   42   60 1  
    62   44   43 ar 
    63   66   43 1  
    64   45   44 ar 
    65   47   46 2  
    66   46   65 1  
    67   55   47 1  
    68   57   48 1  
    69   54   49 1  
    70   49   66 1  
    71   63   50 1  
    72   61   51 1  
    73   51   78 2  
    74   56   52 1  
    75   52   79 1  
    76   60   53 1  
    77   58   54 1  
    78   59   82 1  
    79  101   62 1  
    80   78   64 1  
    81   68   67 ar 
    82   72   67 ar 
    83   67   77 1  
    84   69   68 ar 
    85   70   69 ar 
    86   70   71 ar 
    87   73   70 1  
    88   71   72 ar 
    89   74   73 1  
    90   81   74 1  
    91   77   75 2  
    92   77   76 2  
    93   79   80 2  
    94   80   81 1  
    95   82   83 1  
    96   83   84 2  
    97   83   85 1  
    98   84   87 1  
    99   85   86 2  
   100   86   87 1  
   101   87   88 1  
   102   88   89 1  
   103   89   90 1  
   104   90   91 ar 
   105   90   92 ar 
   106   93   94 ar 
   107   93   95 ar 
   108   97   93 1  
   109   96   97 1  
   110  100   96 1  
   111   98   99 2  
   112  102   98 1  
   113   99  100 1  
   114  100  103 1  
   115  101  102 1  
   116  102  103 2  
   117    1  104 1  
   118    1  105 1  
   119    4  106 1  
   120    4  107 1  
   121    6  108 1  
   122    9  109 1  
   123   11  110 1  
   124   11  111 1  
   125   13  112 1  
   126   16  113 1  
   127   18  114 1  
   128   18  115 1  
   129   20  116 1  
   130   23  117 1  
   131   25  118 1  
   132   25  119 1  
   133   27  120 1  
   134   30  121 1  
   135   32  122 1  
   136   32  123 1  
   137   34  124 1  
   138   37  125 1  
   139   39  126 1  
   140   39  127 1  
   141   41  128 1  
   142   44  129 1  
   143   46  130 1  
   144   47  131 1  
   145   48  132 1  
   146   48  133 1  
   147   48  134 1  
   148   49  135 1  
   149   49  136 1  
   150   50  137 1  
   151   50  138 1  
   152   50  139 1  
   153   51  140 1  
   154   52  141 1  
   155   52  142 1  
   156   53  143 1  
   157   53  144 1  
   158   53  145 1  
   159   54  146 1  
   160   54  147 1  
   161   68  148 1  
   162   69  149 1  
   163   71  150 1  
   164   72  151 1  
   165   73  152 1  
   166   73  153 1  
   167   74  154 1  
   168   74  155 1  
   169   78  156 1  
   170   80  157 1  
   171   82  158 1  
   172   82  159 1  
   173   84  160 1  
   174   88  161 1  
   175   88  162 1  
   176   89  163 1  
   177   89  164 1  
   178   96  165 1  
   179   96  166 1  
   180   97  167 1  
   181   97  168 1  
   182  101  169 1  
   183  101  170 1  
   184  103  171 1  
@<TRIPOS>SUBSTRUCTURE
     1 0CR         1

