3cyu_ligand
  -I-interpret- 

173186  0  0  0  0  0  0  0  0999 V2000
   12.2180   -7.2260   21.6210 N   0  0  0  0  0
   20.6540   -3.0260   27.1100 N   0  0  0  0  0
   20.1280   -3.6970   26.0790 N   0  0  0  0  0
   21.6880   -2.9410   34.9810 C   0  0  0  0  0
   21.5910   -2.3780   33.5870 C   0  0  0  0  0
   21.0230   -3.2600   32.6330 C   0  0  0  0  0
   20.8480   -2.9340   31.2470 C   0  0  0  0  0
   21.2740   -1.6290   30.8200 C   0  0  0  0  0
   21.8400   -0.7520   31.7960 C   0  0  0  0  0
   22.0130   -1.0870   33.1690 C   0  0  0  0  0
   22.6480    0.0070   34.0180 C   0  0  0  0  0
   24.1290    0.1670   34.2280 C   0  0  0  0  0
   24.7770    1.1380   33.4100 C   0  0  0  0  0
   26.1770    1.4260   33.4670 C   0  0  0  0  0
   26.9570    0.6680   34.4270 C   0  0  0  0  0
   26.2940   -0.3010   35.2400 C   0  0  0  0  0
   24.8990   -0.5860   35.1810 C   0  0  0  0  0
   24.4270   -1.6740   36.1670 C   0  0  0  0  0
   24.1850   -3.1410   35.7620 C   0  0  0  0  0
   25.3060   -3.9990   35.9370 C   0  0  0  0  0
   25.2900   -5.3970   35.6230 C   0  0  0  0  0
   24.0820   -5.9800   35.1050 C   0  0  0  0  0
   22.9680   -5.1110   34.9310 C   0  0  0  0  0
   22.9780   -3.7100   35.2400 C   0  0  0  0  0
   28.9920   -3.6780   28.0560 C   0  0  0  0  0
   28.9110   -4.5170   29.3360 C   0  0  0  0  0
   29.3600   -3.8160   30.4850 C   0  0  0  0  0
   29.3790   -4.3560   31.7880 C   0  0  0  0  0
   28.9150   -5.7080   31.9650 C   0  0  0  0  0
   28.4670   -6.4160   30.8030 C   0  0  0  0  0
   28.4440   -5.8680   29.4690 C   0  0  0  0  0
   27.9230   -6.7660   28.3190 C   0  0  0  0  0
   26.3860   -6.5800   28.3190 C   0  0  0  0  0
   25.7060   -7.5150   29.1610 C   0  0  0  0  0
   24.3040   -7.5410   29.3280 C   0  0  0  0  0
   23.5270   -6.5680   28.6100 C   0  0  0  0  0
   24.1950   -5.6320   27.7600 C   0  0  0  0  0
   25.6190   -5.5990   27.5810 C   0  0  0  0  0
   26.1630   -4.5200   26.6150 C   0  0  0  0  0
   26.4790   -3.1560   27.2320 C   0  0  0  0  0
   25.4370   -2.1670   27.1550 C   0  0  0  0  0
   25.5770   -0.8450   27.6810 C   0  0  0  0  0
   26.8140   -0.5010   28.3140 C   0  0  0  0  0
   27.8420   -1.4790   28.3830 C   0  0  0  0  0
   27.7260   -2.8050   27.8620 C   0  0  0  0  0
   21.5330   -6.3360   30.0030 C   0  0  0  0  0
   20.7720   -5.2890   30.6810 C   0  0  0  0  0
   23.9310   -9.0290   31.4790 C   0  0  0  0  0
   26.8330    0.9890   30.2510 C   0  0  0  0  0
   29.1050   -2.4080   33.3830 C   0  0  0  0  0
   27.3930   -6.6990   35.0180 C   0  0  0  0  0
   19.7880   -1.2790   28.7390 C   0  0  0  0  0
   23.5980    0.4300   28.7900 C   0  0  0  0  0
   26.8920    2.3220   31.1160 C   0  0  0  0  0
   20.2280   -3.9890   30.3290 O   0  0  0  0  0
   21.0910   -1.2940   29.3440 O   0  0  0  0  0
   23.5600   -8.4710   30.1730 O   0  0  0  0  0
   26.8170    2.4660   32.5800 O   0  0  0  0  0
   28.4510    0.7710   34.6940 O   0  0  0  0  0
   24.5190    0.2060   27.6090 O   0  0  0  0  0
   26.6190   -6.0110   35.9090 O   0  0  0  0  0
   23.7520   -7.4070   34.6860 O   0  0  0  0  0
   29.8240   -3.6490   32.9480 O   0  0  0  0  0
   28.9260   -6.2660   33.3500 O   0  0  0  0  0
   22.0730   -6.6100   28.8040 O   0  0  0  0  0
   26.9010    0.7730   28.8070 O   0  0  0  0  0
   12.9990   -5.5900   23.5840 C   0  0  0  0  0
   14.2920   -6.1990   23.5970 C   0  0  0  0  0
   15.4160   -5.4220   24.0210 C   0  0  0  0  0
   15.2730   -4.0580   24.4310 C   0  0  0  0  0
   13.9840   -3.4590   24.4180 C   0  0  0  0  0
   12.8690   -4.2330   23.9940 C   0  0  0  0  0
   16.4600   -3.2350   24.8750 C   0  0  0  0  0
   17.9190   -3.7960   24.9180 C   0  0  0  0  0
   11.4980   -7.7220   24.0250 O   0  0  0  0  0
   10.3750   -5.8110   23.0730 O   0  0  0  0  0
   11.6760   -6.6000   23.0470 S   0  0  0  0  0
   27.7650   -5.7790   34.0910 C   0  0  0  0  0
   19.6830   -2.1790   27.6360 C   0  0  0  0  0
   18.5590   -2.3790   26.8690 C   0  0  0  0  0
   18.8320   -3.2780   25.9520 N   0  0  0  0  0
   29.2840    1.5920   34.0740 C   0  0  0  0  0
   30.2110    1.3130   33.2290 C   0  0  0  0  0
   30.4780    2.0380   32.0680 C   0  0  0  0  0
   31.1280    0.2720   33.2640 N   0  0  0  0  0
   31.9410    0.3080   32.2010 N   0  0  0  0  0
   31.5190    1.4200   31.4630 N   0  0  0  0  0
   32.1410    1.8230   30.2170 C   0  0  0  0  0
   32.1140    0.7940   28.9910 C   0  0  0  0  0
   33.3850    0.0500   28.6990 C   0  0  0  0  0
   34.2640   -0.7800   29.2820 O   0  0  0  0  0
   33.8940    0.1940   27.4830 O   0  0  0  0  0
   27.9850  -12.3100   39.5890 C   0  0  0  0  0
   27.4440  -12.0120   40.7020 O   0  0  0  0  0
   28.7610  -13.3610   39.5170 O   0  0  0  0  0
   26.5570  -11.7430   37.8740 C   0  0  0  0  0
   27.7280  -11.4330   38.3540 C   0  0  0  0  0
   24.7480   -8.7520   37.8040 N   0  0  0  0  0
   25.3570   -9.6950   38.4260 N   0  0  0  0  0
   25.8520  -10.6080   37.5920 N   0  0  0  0  0
   24.4420   -8.5170   35.2440 C   0  0  0  0  0
   24.7930   -8.9760   36.4440 C   0  0  0  0  0
   25.5080  -10.1810   36.3240 C   0  0  0  0  0
   12.3727   -8.2302   21.5309 H   0  0  0  0  0
   12.3986   -6.6091   20.8290 H   0  0  0  0  0
   20.8603   -3.6383   35.1102 H   0  0  0  0  0
   21.6633   -2.1010   35.6752 H   0  0  0  0  0
   20.7002   -4.2440   32.9729 H   0  0  0  0  0
   22.1599    0.2371   31.4683 H   0  0  0  0  0
   22.2908   -0.2324   35.0196 H   0  0  0  0  0
   22.3865    0.9132   33.4717 H   0  0  0  0  0
   24.1686    1.6951   32.6976 H   0  0  0  0  0
   26.8966   -0.8612   35.9550 H   0  0  0  0  0
   23.4319   -1.3315   36.4508 H   0  0  0  0  0
   25.2597   -1.7478   36.8665 H   0  0  0  0  0
   26.2271   -3.5698   36.3313 H   0  0  0  0  0
   22.0461   -5.5384   34.5368 H   0  0  0  0  0
   29.0758   -4.3553   27.2061 H   0  0  0  0  0
   29.8561   -3.0179   28.1320 H   0  0  0  0  0
   29.7133   -2.7934   30.3521 H   0  0  0  0  0
   28.1192   -7.4404   30.9363 H   0  0  0  0  0
   28.2007   -7.8095   28.4678 H   0  0  0  0  0
   28.3609   -6.4852   27.3611 H   0  0  0  0  0
   26.3029   -8.2480   29.7038 H   0  0  0  0  0
   23.5903   -4.9043   27.2188 H   0  0  0  0  0
   25.3771   -4.3462   25.8800 H   0  0  0  0  0
   27.1071   -4.9053   26.2298 H   0  0  0  0  0
   24.4975   -2.4381   26.6734 H   0  0  0  0  0
   28.7795   -1.2003   28.8642 H   0  0  0  0  0
   21.7238   -7.1593   30.6914 H   0  0  0  0  0
   20.5574   -5.5507   31.7171 H   0  0  0  0  0
   24.8607   -9.5897   31.3823 H   0  0  0  0  0
   24.0673   -8.2176   32.1939 H   0  0  0  0  0
   23.1395   -9.6926   31.8272 H   0  0  0  0  0
   25.7996    0.6945   30.4342 H   0  0  0  0  0
   27.7752    0.5308   30.5517 H   0  0  0  0  0
   29.1480   -1.6663   32.5854 H   0  0  0  0  0
   28.0646   -2.6497   33.6004 H   0  0  0  0  0
   29.5813   -2.0086   34.2784 H   0  0  0  0  0
   27.6551   -7.7567   35.0452 H   0  0  0  0  0
   19.6028   -0.2711   28.3676 H   0  0  0  0  0
   19.0648   -1.5883   29.4936 H   0  0  0  0  0
   23.0476   -0.4873   28.9990 H   0  0  0  0  0
   24.1892    0.7074   29.6627 H   0  0  0  0  0
   22.8966    1.2306   28.5554 H   0  0  0  0  0
   25.9638    2.8064   30.8128 H   0  0  0  0  0
   27.9161    2.6448   30.9287 H   0  0  0  0  0
   14.4194   -7.2369   23.2894 H   0  0  0  0  0
   16.4052   -5.8797   24.0321 H   0  0  0  0  0
   13.8523   -2.4224   24.7282 H   0  0  0  0  0
   11.8815   -3.7717   23.9825 H   0  0  0  0  0
   16.2420   -3.0314   25.9234 H   0  0  0  0  0
   16.5173   -2.4539   24.1169 H   0  0  0  0  0
   18.3669   -3.5071   23.9672 H   0  0  0  0  0
   17.8127   -4.8591   25.1339 H   0  0  0  0  0
   27.2716   -4.8214   33.9248 H   0  0  0  0  0
   17.6014   -1.8752   27.0005 H   0  0  0  0  0
   29.8771    1.9525   34.9145 H   0  0  0  0  0
   28.5905    2.1442   33.4398 H   0  0  0  0  0
   29.9525    2.9262   31.7174 H   0  0  0  0  0
   33.1960    1.9608   30.4536 H   0  0  0  0  0
   31.5720    2.6888   29.8784 H   0  0  0  0  0
   31.9087    1.3929   28.1037 H   0  0  0  0  0
   31.3782    0.0346   29.2555 H   0  0  0  0  0
   33.9870   -0.9551   30.1843 H   0  0  0  0  0
   29.0907  -13.4531   38.6201 H   0  0  0  0  0
   26.0109  -12.3300   38.6124 H   0  0  0  0  0
   26.6863  -12.3213   36.9591 H   0  0  0  0  0
   28.4994  -11.6057   37.6035 H   0  0  0  0  0
   27.7539  -10.3788   38.6299 H   0  0  0  0  0
   25.4408   -8.2391   34.9075 H   0  0  0  0  0
   23.6852   -9.2706   35.0264 H   0  0  0  0  0
   25.7493  -10.6904   35.3911 H   0  0  0  0  0
 77  1  1  0  0  0
  2  3  4  0  0  0
 79  2  4  0  0  0
 81  3  4  0  0  0
  4  5  1  0  0  0
 24  4  1  0  0  0
  5  6  4  0  0  0
  5 10  4  0  0  0
  6  7  4  0  0  0
  7  8  4  0  0  0
  7 55  1  0  0  0
  9  8  4  0  0  0
  8 56  1  0  0  0
 10  9  4  0  0  0
 10 11  1  0  0  0
 12 11  1  0  0  0
 12 13  4  0  0  0
 17 12  4  0  0  0
 13 14  4  0  0  0
 15 14  4  0  0  0
 14 58  1  0  0  0
 16 15  4  0  0  0
 15 59  1  0  0  0
 17 16  4  0  0  0
 18 17  1  0  0  0
 19 18  1  0  0  0
 20 19  4  0  0  0
 24 19  4  0  0  0
 21 20  4  0  0  0
 22 21  4  0  0  0
 21 61  1  0  0  0
 22 23  4  0  0  0
 62 22  1  0  0  0
 23 24  4  0  0  0
 26 25  1  0  0  0
 25 45  1  0  0  0
 27 26  4  0  0  0
 31 26  4  0  0  0
 28 27  4  0  0  0
 29 28  4  0  0  0
 28 63  1  0  0  0
 29 30  4  0  0  0
 64 29  1  0  0  0
 30 31  4  0  0  0
 31 32  1  0  0  0
 32 33  1  0  0  0
 33 34  4  0  0  0
 33 38  4  0  0  0
 34 35  4  0  0  0
 36 35  4  0  0  0
 35 57  1  0  0  0
 36 37  4  0  0  0
 65 36  1  0  0  0
 38 37  4  0  0  0
 38 39  1  0  0  0
 39 40  1  0  0  0
 40 41  4  0  0  0
 45 40  4  0  0  0
 41 42  4  0  0  0
 43 42  4  0  0  0
 42 60  1  0  0  0
 44 43  4  0  0  0
 66 43  1  0  0  0
 45 44  4  0  0  0
 47 46  2  0  0  0
 46 65  1  0  0  0
 55 47  1  0  0  0
 57 48  1  0  0  0
 54 49  1  0  0  0
 49 66  1  0  0  0
 63 50  1  0  0  0
 61 51  1  0  0  0
 51 78  2  0  0  0
 56 52  1  0  0  0
 52 79  1  0  0  0
 60 53  1  0  0  0
 58 54  1  0  0  0
 59 82  1  0  0  0
101 62  1  0  0  0
 78 64  1  0  0  0
 68 67  4  0  0  0
 72 67  4  0  0  0
 67 77  1  0  0  0
 69 68  4  0  0  0
 70 69  4  0  0  0
 70 71  4  0  0  0
 73 70  1  0  0  0
 71 72  4  0  0  0
 74 73  1  0  0  0
 81 74  1  0  0  0
 77 75  2  0  0  0
 77 76  2  0  0  0
 79 80  4  0  0  0
 80 81  4  0  0  0
 82 83  1  0  0  0
 83 84  4  0  0  0
 83 85  4  0  0  0
 84 87  4  0  0  0
 85 86  4  0  0  0
 86 87  4  0  0  0
 87 88  1  0  0  0
 88 89  1  0  0  0
 89 90  1  0  0  0
 90 91  1  0  0  0
 90 92  2  0  0  0
 93 94  2  0  0  0
 93 95  1  0  0  0
 97 93  1  0  0  0
 96 97  1  0  0  0
100 96  1  0  0  0
 98 99  4  0  0  0
102 98  4  0  0  0
 99100  4  0  0  0
100103  4  0  0  0
101102  1  0  0  0
102103  4  0  0  0
  1104  1  0  0  0
  1105  1  0  0  0
  4106  1  0  0  0
  4107  1  0  0  0
  6108  1  0  0  0
  9109  1  0  0  0
 11110  1  0  0  0
 11111  1  0  0  0
 13112  1  0  0  0
 16113  1  0  0  0
 18114  1  0  0  0
 18115  1  0  0  0
 20116  1  0  0  0
 23117  1  0  0  0
 25118  1  0  0  0
 25119  1  0  0  0
 27120  1  0  0  0
 30121  1  0  0  0
 32122  1  0  0  0
 32123  1  0  0  0
 34124  1  0  0  0
 37125  1  0  0  0
 39126  1  0  0  0
 39127  1  0  0  0
 41128  1  0  0  0
 44129  1  0  0  0
 46130  1  0  0  0
 47131  1  0  0  0
 48132  1  0  0  0
 48133  1  0  0  0
 48134  1  0  0  0
 49135  1  0  0  0
 49136  1  0  0  0
 50137  1  0  0  0
 50138  1  0  0  0
 50139  1  0  0  0
 51140  1  0  0  0
 52141  1  0  0  0
 52142  1  0  0  0
 53143  1  0  0  0
 53144  1  0  0  0
 53145  1  0  0  0
 54146  1  0  0  0
 54147  1  0  0  0
 68148  1  0  0  0
 69149  1  0  0  0
 71150  1  0  0  0
 72151  1  0  0  0
 73152  1  0  0  0
 73153  1  0  0  0
 74154  1  0  0  0
 74155  1  0  0  0
 78156  1  0  0  0
 80157  1  0  0  0
 82158  1  0  0  0
 82159  1  0  0  0
 84160  1  0  0  0
 88161  1  0  0  0
 88162  1  0  0  0
 89163  1  0  0  0
 89164  1  0  0  0
 91165  1  0  0  0
 95166  1  0  0  0
 96167  1  0  0  0
 96168  1  0  0  0
 97169  1  0  0  0
 97170  1  0  0  0
101171  1  0  0  0
101172  1  0  0  0
103173  1  0  0  0
M  END
$$$$
