3atv_ligand
  -I-interpret- 

 42 44  0  0  0  0  0  0  0  0999 V2000
   -4.5050   18.9420   18.2000 P   0  0  0  0  0
   -3.8370   19.6500   19.3680 O   0  0  0  0  0
   -5.2460   19.8030   17.2230 O   0  0  0  0  0
   -5.4110   17.8230   18.6840 O   0  0  0  0  0
   -2.9810   17.0400   16.4270 P   0  0  0  0  0
   -2.8260   17.6630   15.0510 O   0  0  0  0  0
   -1.8230   16.2640   16.9970 O   0  0  0  0  0
   -3.2240   18.2120   17.5050 O   0  0  0  0  0
   -4.3060   16.1420   16.3600 O   0  0  0  0  0
   -4.5510   15.1020   17.3070 C   0  0  0  0  0
   -5.5480   14.0970   16.7460 C   0  0  0  0  0
   -4.9160   13.4330   15.6450 O   0  0  0  0  0
   -5.8800   12.9800   17.7220 C   0  0  0  0  0
   -7.2800   12.7420   17.6200 O   0  0  0  0  0
   -5.1240   11.7650   17.1790 C   0  0  0  0  0
   -5.6730   10.4840   17.4940 O   0  0  0  0  0
   -5.2210   12.0620   15.6920 C   0  0  0  0  0
   -4.2420   11.3250   14.8860 N   0  0  0  0  0
   -2.8950   11.3910   14.9950 C   0  0  0  0  0
   -2.2980   10.5880   14.0810 N   0  0  0  0  0
   -3.2920    9.9900   13.3810 C   0  0  0  0  0
   -3.3390    9.0270   12.2840 C   0  0  0  0  0
   -2.1730    8.5330   11.7770 N   0  0  0  0  0
   -4.5700    8.6830   11.8270 N   0  0  0  0  0
   -5.7080    9.1800   12.3520 C   0  0  0  0  0
   -5.7460   10.0740   13.3590 N   0  0  0  0  0
   -4.5670   10.4960   13.9020 C   0  0  0  0  0
   -3.3961   19.0028   19.9232 H   0  0  0  0  0
   -4.9330   17.2737   19.3096 H   0  0  0  0  0
   -3.6351   18.1233   14.8164 H   0  0  0  0  0
   -4.9621   15.5399   18.2166 H   0  0  0  0  0
   -3.6133   14.5896   17.5219 H   0  0  0  0  0
   -6.4524   14.6519   16.4966 H   0  0  0  0  0
   -5.6175   13.1990   18.7570 H   0  0  0  0  0
   -7.5289   12.0392   18.2248 H   0  0  0  0  0
   -4.1261   11.6667   17.6063 H   0  0  0  0  0
   -5.1242    9.7980   17.1070 H   0  0  0  0  0
   -6.1921   11.7777   15.2868 H   0  0  0  0  0
   -2.3622   12.0066   15.7197 H   0  0  0  0  0
   -1.2795    8.8366   12.1640 H   0  0  0  0  0
   -2.1946    7.8600   11.0109 H   0  0  0  0  0
   -6.6555    8.8374   11.9361 H   0  0  0  0  0
  1  2  1  0  0  0
  1  3  2  0  0  0
  1  4  1  0  0  0
  8  1  1  0  0  0
  5  6  1  0  0  0
  5  7  2  0  0  0
  5  8  1  0  0  0
  5  9  1  0  0  0
  9 10  1  0  0  0
 10 11  1  0  0  0
 11 12  1  0  0  0
 11 13  1  0  0  0
 12 17  1  0  0  0
 13 14  1  0  0  0
 13 15  1  0  0  0
 15 16  1  0  0  0
 15 17  1  0  0  0
 17 18  1  0  0  0
 18 19  4  0  0  0
 18 27  4  0  0  0
 19 20  4  0  0  0
 20 21  4  0  0  0
 21 22  4  0  0  0
 21 27  4  0  0  0
 22 23  1  0  0  0
 22 24  4  0  0  0
 24 25  4  0  0  0
 25 26  4  0  0  0
 26 27  4  0  0  0
  2 28  1  0  0  0
  4 29  1  0  0  0
  6 30  1  0  0  0
 10 31  1  0  0  0
 10 32  1  0  0  0
 11 33  1  0  0  0
 13 34  1  0  0  0
 14 35  1  0  0  0
 15 36  1  0  0  0
 16 37  1  0  0  0
 17 38  1  0  0  0
 19 39  1  0  0  0
 23 40  1  0  0  0
 23 41  1  0  0  0
 25 42  1  0  0  0
M  END
$$$$
