### 
### Created by X-TOOL on Mon Sep 10 21:13:06 2018
### 

@<TRIPOS>MOLECULE
3atv_ligand
   39    41     1     0     0
SMALL
GAST_HUCK


@<TRIPOS>ATOM
      1 PB         -4.5050   18.9420   18.2000 P.3       1 ADP         0.2069
      2 O1B        -3.8370   19.6500   19.3680 O.co2     1 ADP        -0.5891
      3 O2B        -5.2460   19.8030   17.2230 O.co2     1 ADP        -0.5891
      4 O3B        -5.4110   17.8230   18.6840 O.co2     1 ADP        -0.5891
      5 PA         -2.9810   17.0400   16.4270 P.3       1 ADP         0.3276
      6 O1A        -2.8260   17.6630   15.0510 O.co2     1 ADP        -0.5556
      7 O2A        -1.8230   16.2640   16.9970 O.co2     1 ADP        -0.5556
      8 O3A        -3.2240   18.2120   17.5050 O.3       1 ADP        -0.1548
      9 O5'        -4.3060   16.1420   16.3600 O.3       1 ADP        -0.2436
     10 C5'        -4.5510   15.1020   17.3070 C.3       1 ADP         0.1132
     11 C4'        -5.5480   14.0970   16.7460 C.3       1 ADP         0.1189
     12 O4'        -4.9160   13.4330   15.6450 O.3       1 ADP        -0.3364
     13 C3'        -5.8800   12.9800   17.7220 C.3       1 ADP         0.1149
     14 O3'        -7.2800   12.7420   17.6200 O.3       1 ADP        -0.3864
     15 C2'        -5.1240   11.7650   17.1790 C.3       1 ADP         0.1385
     16 O2'        -5.6730   10.4840   17.4940 O.3       1 ADP        -0.3836
     17 C1'        -5.2210   12.0620   15.6920 C.3       1 ADP         0.2010
     18 N9         -4.2420   11.3250   14.8860 N.pl3     1 ADP        -0.1919
     19 C8         -2.8950   11.3910   14.9950 C.2       1 ADP         0.1123
     20 N7         -2.2980   10.5880   14.0810 N.2       1 ADP        -0.2958
     21 C5         -3.2920    9.9900   13.3810 C.ar      1 ADP         0.1045
     22 C6         -3.3390    9.0270   12.2840 C.ar      1 ADP         0.1298
     23 N6         -2.1730    8.5330   11.7770 N.pl3     1 ADP        -0.3152
     24 N1         -4.5700    8.6830   11.8270 N.ar      1 ADP        -0.2698
     25 C2         -5.7080    9.1800   12.3520 C.ar      1 ADP         0.0533
     26 N3         -5.7460   10.0740   13.3590 N.ar      1 ADP        -0.2714
     27 C4         -4.5670   10.4960   13.9020 C.ar      1 ADP         0.1613
     28 H1         -4.9589   15.5406   18.2296 H         1 ADP         0.0648
     29 H2         -3.6055   14.5871   17.5326 H         1 ADP         0.0648
     30 H3         -6.4650   14.6170   16.4320 H         1 ADP         0.0651
     31 H4         -5.5860   13.2217   18.7540 H         1 ADP         0.0648
     32 H5         -7.5263   12.0465   18.2185 H         1 ADP         0.2100
     33 H6         -4.0793   11.7805   17.5230 H         1 ADP         0.0676
     34 H7         -5.6995   10.3753   18.4374 H         1 ADP         0.2101
     35 H8         -6.2344   11.8565   15.3169 H         1 ADP         0.0996
     36 H9         -2.3627   12.0060   15.7191 H         1 ADP         0.1349
     37 H10        -2.1949    7.8534   11.0033 H         1 ADP         0.1820
     38 H11        -1.2707    8.8396   12.1678 H         1 ADP         0.1820
     39 H12        -6.6503    8.8393   11.9384 H         1 ADP         0.0996
@<TRIPOS>BOND
     1    1    2 ar 
     2    1    3 ar 
     3    1    4 ar 
     4    8    1 1  
     5    5    6 ar 
     6    5    7 ar 
     7    5    8 1  
     8    5    9 1  
     9    9   10 1  
    10   10   11 1  
    11   11   12 1  
    12   11   13 1  
    13   12   17 1  
    14   13   14 1  
    15   13   15 1  
    16   15   16 1  
    17   15   17 1  
    18   17   18 1  
    19   18   19 1  
    20   18   27 1  
    21   19   20 2  
    22   20   21 1  
    23   21   22 ar 
    24   21   27 ar 
    25   22   23 1  
    26   22   24 ar 
    27   24   25 ar 
    28   25   26 ar 
    29   26   27 ar 
    30   10   28 1  
    31   10   29 1  
    32   11   30 1  
    33   13   31 1  
    34   14   32 1  
    35   15   33 1  
    36   16   34 1  
    37   17   35 1  
    38   19   36 1  
    39   23   37 1  
    40   23   38 1  
    41   25   39 1  
@<TRIPOS>SUBSTRUCTURE
     1 ADP         1

