3lpi_ligand
  -I-interpret- 

 89 92  0  0  0  0  0  0  0  0999 V2000
   26.8470   15.4820   24.3230 C   0  0  0  0  0
   26.8590   10.8750   18.9070 F   0  0  0  0  0
   23.5520   11.7160   23.4240 N   0  0  0  0  0
   18.1610   13.6830   24.2780 O   0  0  0  0  0
   17.7460   12.8380   25.3590 S   0  0  0  0  0
   27.0070   14.2550   23.6180 C   0  0  0  0  0
   22.8730   13.3690   18.3710 F   0  0  0  0  0
   28.7070   13.5230   21.8620 N   0  0  0  0  0
   17.1720   13.4280   26.5360 O   0  0  0  0  0
   25.8600   13.4590   23.3370 C   0  0  0  0  0
   19.2090   12.0450   25.9100 N   0  0  0  0  0
   29.2290   13.7560   24.0900 O   0  0  0  0  0
   24.5680   13.8820   23.7490 C   0  0  0  0  0
   21.0580    9.8280   26.4480 N   0  3  0  0  0
   22.2540   13.5770   23.2840 O   0  0  0  0  0
   24.4290   15.1150   24.4540 C   0  0  0  0  0
   21.0960    8.9550   23.7550 O   0  0  0  0  0
   25.5650   15.9210   24.7450 C   0  0  0  0  0
   23.3600   13.0780   23.4680 C   0  0  0  0  0
   28.3760   13.8350   23.2060 C   0  0  0  0  0
   29.9730   12.7570   21.6410 C   0  0  0  0  0
   27.9130   13.9060   20.6480 C   0  0  0  0  0
   28.5960   14.9910   19.7980 C   0  0  0  0  0
   28.7010   16.3390   20.5220 C   0  0  0  0  0
   29.7500   11.3400   21.0550 C   0  0  0  0  0
   28.9080   10.4240   21.9550 C   0  0  0  0  0
   25.4210   17.2280   25.4910 C   0  0  0  0  0
   22.5060   10.7690   22.9900 C   0  0  0  0  0
   22.0230    9.9310   24.2000 C   0  0  0  0  0
   21.3380   10.7460   25.3190 C   0  0  0  0  0
   23.0820    9.8770   21.8500 C   0  0  0  0  0
   23.7050   10.6680   20.7180 C   0  0  0  0  0
   22.9700   11.6920   20.0400 C   0  0  0  0  0
   23.5760   12.4160   18.9910 C   0  0  0  0  0
   24.9040   12.1590   18.5790 C   0  0  0  0  0
   25.6110   11.1450   19.2620 C   0  0  0  0  0
   25.0390   10.4000   20.3190 C   0  0  0  0  0
   20.0180   11.4220   24.8450 C   0  0  0  0  0
   19.0730   11.1750   27.1190 C   0  0  0  0  0
   20.3810   10.5050   27.5750 C   0  0  0  0  0
   16.6830   11.5370   24.7550 C   0  0  0  0  0
   16.6540   11.2460   23.3700 C   0  0  0  0  0
   15.8150   10.2110   22.8890 C   0  0  0  0  0
   15.0090    9.4700   23.7900 C   0  0  0  0  0
   15.0390    9.7610   25.1710 C   0  0  0  0  0
   15.8770   10.7970   25.6580 C   0  0  0  0  0
   27.7225   16.0933   24.5418 H   0  0  0  0  0
   24.4592   11.3435   23.7043 H   0  0  0  0  0
   25.9745   12.5168   22.8010 H   0  0  0  0  0
   21.9493    9.4667   26.7879 H   0  0  0  0  0
   20.4410    9.0904   26.1079 H   0  0  0  0  0
   23.4401   15.4435   24.7736 H   0  0  0  0  0
   20.7961    8.4351   24.5042 H   0  0  0  0  0
   30.4542   12.6361   22.6115 H   0  0  0  0  0
   30.5710   13.3166   20.9217 H   0  0  0  0  0
   26.9578   14.3050   20.9893 H   0  0  0  0  0
   27.8074   13.0164   20.0271 H   0  0  0  0  0
   27.9932   15.1405   18.9023 H   0  0  0  0  0
   29.6082   14.6523   19.5769 H   0  0  0  0  0
   27.7015   16.6938   20.7734 H   0  0  0  0  0
   29.2842   16.2154   21.4345 H   0  0  0  0  0
   29.1917   17.0624   19.8709 H   0  0  0  0  0
   30.7299   10.8758   20.9439 H   0  0  0  0  0
   29.2109   11.4576   20.1150 H   0  0  0  0  0
   29.4071   10.3029   22.9164 H   0  0  0  0  0
   27.9255   10.8705   22.1079 H   0  0  0  0  0
   28.7959    9.4507   21.4773 H   0  0  0  0  0
   26.0018   17.1849   26.4123 H   0  0  0  0  0
   25.7871   18.0433   24.8670 H   0  0  0  0  0
   24.3706   17.3948   25.7296 H   0  0  0  0  0
   21.6388   11.3030   22.6016 H   0  0  0  0  0
   22.9261    9.4939   24.6260 H   0  0  0  0  0
   22.0080   11.5512   25.6205 H   0  0  0  0  0
   22.2536    9.3049   21.4321 H   0  0  0  0  0
   23.8651    9.2559   22.2847 H   0  0  0  0  0
   21.9436   11.9124   20.3334 H   0  0  0  0  0
   25.3639   12.7213   17.7663 H   0  0  0  0  0
   25.6185    9.6264   20.8227 H   0  0  0  0  0
   20.3054   12.2226   24.1634 H   0  0  0  0  0
   19.4042   10.6344   24.4079 H   0  0  0  0  0
   18.3791   10.3754   26.8596 H   0  0  0  0  0
   18.7412   11.8152   27.9364 H   0  0  0  0  0
   21.0461   11.2736   27.9686 H   0  0  0  0  0
   20.1434    9.7608   28.3351 H   0  0  0  0  0
   17.2739   11.8153   22.6774 H   0  0  0  0  0
   15.7889    9.9836   21.8233 H   0  0  0  0  0
   14.3651    8.6742   23.4156 H   0  0  0  0  0
   14.4190    9.1903   25.8624 H   0  0  0  0  0
   15.9015   11.0240   26.7238 H   0  0  0  0  0
  6  1  4  0  0  0
 18  1  4  0  0  0
 36  2  1  0  0  0
  3 19  1  0  0  0
 28  3  1  0  0  0
  5  4  2  0  0  0
  5  9  2  0  0  0
 11  5  1  0  0  0
  5 41  1  0  0  0
 10  6  4  0  0  0
  6 20  1  0  0  0
 34  7  1  0  0  0
 20  8  1  0  0  0
  8 21  1  0  0  0
  8 22  1  0  0  0
 13 10  4  0  0  0
 38 11  1  0  0  0
 11 39  1  0  0  0
 20 12  2  0  0  0
 13 16  4  0  0  0
 19 13  1  0  0  0
 30 14  1  0  0  0
 14 40  1  0  0  0
 19 15  2  0  0  0
 16 18  4  0  0  0
 29 17  1  0  0  0
 18 27  1  0  0  0
 21 25  1  0  0  0
 22 23  1  0  0  0
 23 24  1  0  0  0
 25 26  1  0  0  0
 28 29  1  0  0  0
 31 28  1  0  0  0
 29 30  1  0  0  0
 30 38  1  0  0  0
 32 31  1  0  0  0
 33 32  4  0  0  0
 32 37  4  0  0  0
 34 33  4  0  0  0
 35 34  4  0  0  0
 35 36  4  0  0  0
 36 37  4  0  0  0
 39 40  1  0  0  0
 41 42  4  0  0  0
 41 46  4  0  0  0
 42 43  4  0  0  0
 43 44  4  0  0  0
 44 45  4  0  0  0
 45 46  4  0  0  0
  1 47  1  0  0  0
  3 48  1  0  0  0
 10 49  1  0  0  0
 14 50  1  0  0  0
 14 51  1  0  0  0
 16 52  1  0  0  0
 17 53  1  0  0  0
 21 54  1  0  0  0
 21 55  1  0  0  0
 22 56  1  0  0  0
 22 57  1  0  0  0
 23 58  1  0  0  0
 23 59  1  0  0  0
 24 60  1  0  0  0
 24 61  1  0  0  0
 24 62  1  0  0  0
 25 63  1  0  0  0
 25 64  1  0  0  0
 26 65  1  0  0  0
 26 66  1  0  0  0
 26 67  1  0  0  0
 27 68  1  0  0  0
 27 69  1  0  0  0
 27 70  1  0  0  0
 28 71  1  0  0  0
 29 72  1  0  0  0
 30 73  1  0  0  0
 31 74  1  0  0  0
 31 75  1  0  0  0
 33 76  1  0  0  0
 35 77  1  0  0  0
 37 78  1  0  0  0
 38 79  1  0  0  0
 38 80  1  0  0  0
 39 81  1  0  0  0
 39 82  1  0  0  0
 40 83  1  0  0  0
 40 84  1  0  0  0
 42 85  1  0  0  0
 43 86  1  0  0  0
 44 87  1  0  0  0
 45 88  1  0  0  0
 46 89  1  0  0  0
M  END
$$$$
