3ug2_ligand
  -I-interpret- 

 56 59  0  0  0  0  0  0  0  0999 V2000
    3.4040   46.1170   14.5070 C   0  0  0  0  0
    4.3860   44.9380   14.3750 C   0  0  0  0  0
    3.6900   43.6880   14.5540 O   0  0  0  0  0
    3.0800   43.4440   15.8490 C   0  0  0  0  0
    2.7940   44.7300   16.6440 C   0  0  0  0  0
    2.5950   45.8870   15.7230 N   0  3  0  0  0
    1.5560   46.8550   16.0410 C   0  0  0  0  0
    1.9860   47.4510   17.3890 C   0  0  0  0  0
    0.7930   47.7880   18.2910 C   0  0  0  0  0
   -0.0010   48.8270   17.6860 O   0  0  0  0  0
   -0.5460   49.8840   18.3700 C   0  0  0  0  0
   -1.1750   50.8290   17.5810 C   0  0  0  0  0
   -1.7490   51.9430   18.1780 C   0  0  0  0  0
   -1.2170   50.6790   16.2200 O   0  0  0  0  0
   -2.3380   51.2600   15.5080 C   0  0  0  0  0
   -0.5160   50.0310   19.7780 C   0  0  0  0  0
   -1.1300   51.1410   20.3560 C   0  0  0  0  0
   -1.7470   52.0880   19.5480 C   0  0  0  0  0
   -2.3440   53.1660   20.0860 N   0  0  0  0  0
   -2.3130   53.3880   21.3930 C   0  0  0  0  0
   -1.7230   52.5050   22.1960 N   0  0  0  0  0
   -1.1370   51.3830   21.7250 C   0  0  0  0  0
   -0.5500   50.5160   22.5680 N   0  0  0  0  0
   -0.7890   50.3540   23.9050 C   0  0  0  0  0
   -2.0680   50.5030   24.4450 C   0  0  0  0  0
   -2.2860   50.3360   25.8070 C   0  0  0  0  0
   -3.8770   50.5280   26.6050 Cl  0  0  0  0  0
   -1.2480   49.9960   26.6110 C   0  0  0  0  0
   -1.5490   49.8410   27.9240 F   0  0  0  0  0
    0.0430   49.8020   26.0870 C   0  0  0  0  0
    0.2670   49.9660   24.7340 C   0  0  0  0  0
    2.7623   46.1790   13.6281 H   0  0  0  0  0
    3.9471   47.0590   14.5828 H   0  0  0  0  0
    5.1579   45.0292   15.1392 H   0  0  0  0  0
    4.8353   44.9573   13.3821 H   0  0  0  0  0
    3.7793   42.8460   16.4334 H   0  0  0  0  0
    2.1254   42.9479   15.6735 H   0  0  0  0  0
    3.6442   44.9390   17.2933 H   0  0  0  0  0
    1.8866   44.5868   17.2307 H   0  0  0  0  0
    3.1842   45.0881   15.4885 H   0  0  0  0  0
    0.5699   46.3935   16.0941 H   0  0  0  0  0
    1.4586   47.6184   15.2691 H   0  0  0  0  0
    2.5280   48.3755   17.1898 H   0  0  0  0  0
    2.5975   46.7100   17.9039 H   0  0  0  0  0
    1.1594   48.1325   19.2580 H   0  0  0  0  0
    0.1791   46.8971   18.4230 H   0  0  0  0  0
   -2.2066   52.7120   17.5556 H   0  0  0  0  0
   -3.2660   50.8190   15.8721 H   0  0  0  0  0
   -2.3552   52.3367   15.6767 H   0  0  0  0  0
   -2.2328   51.0596   14.4418 H   0  0  0  0  0
   -0.0199   49.2868   20.4010 H   0  0  0  0  0
   -2.7677   54.2878   21.8073 H   0  0  0  0  0
    0.1590   49.9055   22.1618 H   0  0  0  0  0
   -2.9038   50.7528   23.7915 H   0  0  0  0  0
    0.8644   49.5230   26.7470 H   0  0  0  0  0
    1.2591   49.7942   24.3164 H   0  0  0  0  0
  1  2  1  0  0  0
  1  6  1  0  0  0
  2  3  1  0  0  0
  3  4  1  0  0  0
  4  5  1  0  0  0
  5  6  1  0  0  0
  6  7  1  0  0  0
  7  8  1  0  0  0
  8  9  1  0  0  0
  9 10  1  0  0  0
 10 11  1  0  0  0
 11 12  4  0  0  0
 11 16  4  0  0  0
 12 13  4  0  0  0
 12 14  1  0  0  0
 13 18  4  0  0  0
 14 15  1  0  0  0
 16 17  4  0  0  0
 17 18  4  0  0  0
 17 22  4  0  0  0
 18 19  4  0  0  0
 19 20  4  0  0  0
 20 21  4  0  0  0
 21 22  4  0  0  0
 22 23  1  0  0  0
 23 24  1  0  0  0
 24 25  4  0  0  0
 24 31  4  0  0  0
 25 26  4  0  0  0
 26 27  1  0  0  0
 26 28  4  0  0  0
 28 29  1  0  0  0
 28 30  4  0  0  0
 30 31  4  0  0  0
  1 32  1  0  0  0
  1 33  1  0  0  0
  2 34  1  0  0  0
  2 35  1  0  0  0
  4 36  1  0  0  0
  4 37  1  0  0  0
  5 38  1  0  0  0
  5 39  1  0  0  0
  6 40  1  0  0  0
  7 41  1  0  0  0
  7 42  1  0  0  0
  8 43  1  0  0  0
  8 44  1  0  0  0
  9 45  1  0  0  0
  9 46  1  0  0  0
 13 47  1  0  0  0
 15 48  1  0  0  0
 15 49  1  0  0  0
 15 50  1  0  0  0
 16 51  1  0  0  0
 20 52  1  0  0  0
 23 53  1  0  0  0
 25 54  1  0  0  0
 30 55  1  0  0  0
 31 56  1  0  0  0
M  END
$$$$
