### 
### Created by X-TOOL on Mon Sep 10 21:13:09 2018
### 

@<TRIPOS>MOLECULE
3umx_ligand
   55    59     1     0     0
SMALL
GAST_HUCK


@<TRIPOS>ATOM
      1 C1         24.1170   33.3250   -5.7640 C.3       1 Q18        -0.0550
      2 C2         23.0030   34.3770   -5.5360 C.3       1 Q18        -0.0715
      3 C3         22.8890   34.8270   -4.0580 C.3       1 Q18        -0.1110
      4 N4         22.6300   33.6080   -3.2470 N.4       1 Q18         0.4059
      5 C5         23.7890   32.7210   -3.0120 C.3       1 Q18        -0.1110
      6 C6         23.6420   31.5060   -3.9550 C.3       1 Q18        -0.0715
      7 C7         23.7650   31.8500   -5.4510 C.3       1 Q18        -0.0550
      8 C8         21.3520   33.5110   -2.4580 C.3       1 Q18        -0.0802
      9 C9         21.1670   32.3100   -1.4980 C.ar      1 Q18         0.0014
     10 C10        21.4490   32.3860   -0.1240 C.ar      1 Q18         0.1070
     11 C11        21.2810   31.2650    0.6670 C.ar      1 Q18         0.0473
     12 C12        20.8360   30.0350    0.2450 C.ar      1 Q18        -0.0657
     13 C13        20.5580   29.8860   -1.1150 C.ar      1 Q18        -0.0437
     14 C14        20.6820   30.9750   -1.9960 C.ar      1 Q18         0.0850
     15 O15        21.9060   33.5530    0.5940 O.3       1 Q18        -0.2964
     16 C16        22.0530   33.1760    1.8990 C.3       1 Q18         0.1549
     17 C17        21.6550   31.7390    1.9870 C.2       1 Q18         0.1527
     18 C18        22.4950   34.0920    2.9980 C.3       1 Q18         0.0099
     19 C19        22.9360   35.5070    2.9310 C.2       1 Q18        -0.0412
     20 C20        23.0180   36.3110    1.7370 C.ar      1 Q18        -0.0214
     21 C21        23.5480   37.5110    2.2110 C.ar      1 Q18         0.0603
     22 N22        23.7850   37.4490    3.5650 N.pl3     1 Q18        -0.2890
     23 C23        23.4250   36.2170    4.0210 C.2       1 Q18         0.0167
     24 C24        22.6920   36.0370    0.4110 C.ar      1 Q18        -0.0747
     25 C25        22.9400   37.0650   -0.4940 C.ar      1 Q18        -0.0792
     26 C26        23.4540   38.3040   -0.0500 C.ar      1 Q18        -0.0768
     27 C27        23.7600   38.5260    1.2960 C.ar      1 Q18        -0.0443
     28 O28        21.6170   30.9820    3.0220 O.2       1 Q18        -0.3871
     29 O29        20.3660   30.7870   -3.3160 O.3       1 Q18        -0.3362
     30 H          24.9222   33.5908   -5.0790 H         1 Q18         0.0265
     31 H          24.3435   33.3574   -6.8297 H         1 Q18         0.0265
     32 H          22.0537   33.9221   -5.8188 H         1 Q18         0.0246
     33 H          23.2487   35.2555   -6.1326 H         1 Q18         0.0246
     34 H          22.0804   35.5478   -3.9371 H         1 Q18         0.0019
     35 H          23.8073   35.3164   -3.7335 H         1 Q18         0.0019
     36 H          23.8155   32.3956   -1.9720 H         1 Q18         0.0019
     37 H          24.7208   33.2495   -3.2134 H         1 Q18         0.0019
     38 H          22.6435   31.0973   -3.7999 H         1 Q18         0.0246
     39 H          24.4497   30.8140   -3.7165 H         1 Q18         0.0246
     40 H          24.5812   31.2441   -5.8445 H         1 Q18         0.0265
     41 H          22.7881   31.6611   -5.8960 H         1 Q18         0.0265
     42 H          20.5638   33.4046   -3.2034 H         1 Q18         0.0135
     43 H          21.3448   34.3925   -1.8169 H         1 Q18         0.0135
     44 H          20.7054   29.2090    0.9441 H         1 Q18         0.0563
     45 H          20.2416   28.9157   -1.4978 H         1 Q18         0.0453
     46 H          22.4935   33.5915    2.8054 H         1 Q18         0.0887
     47 H          23.4260   33.6091    3.2949 H         1 Q18         0.0403
     48 H          21.5618   34.2022    3.5503 H         1 Q18         0.0403
     49 H          24.1681   38.2033    4.1348 H         1 Q18         0.2216
     50 H          23.5052   35.8563    5.0465 H         1 Q18         0.0795
     51 H          22.2704   35.0804    0.1022 H         1 Q18         0.0540
     52 H          22.7360   36.9130   -1.5539 H         1 Q18         0.0510
     53 H          23.6154   39.1040   -0.7725 H         1 Q18         0.0530
     54 H          24.1605   39.4866    1.6200 H         1 Q18         0.0541
     55 H          20.4966   31.6085   -3.7953 H         1 Q18         0.2473
@<TRIPOS>BOND
     1    1    2 1  
     2    1    7 1  
     3    2    3 1  
     4    3    4 1  
     5    4    5 1  
     6    4    8 1  
     7    5    6 1  
     8    6    7 1  
     9    8    9 1  
    10    9   10 ar 
    11    9   14 ar 
    12   10   11 ar 
    13   10   15 1  
    14   11   12 ar 
    15   11   17 1  
    16   12   13 ar 
    17   13   14 ar 
    18   14   29 1  
    19   15   16 1  
    20   16   17 1  
    21   16   18 1  
    22   17   28 2  
    23   18   19 1  
    24   19   20 1  
    25   19   23 2  
    26   20   21 ar 
    27   20   24 ar 
    28   21   22 1  
    29   21   27 ar 
    30   22   23 1  
    31   24   25 ar 
    32   25   26 ar 
    33   26   27 ar 
    34    1   30 1  
    35    1   31 1  
    36    2   32 1  
    37    2   33 1  
    38    3   34 1  
    39    3   35 1  
    40    5   36 1  
    41    5   37 1  
    42    6   38 1  
    43    6   39 1  
    44    7   40 1  
    45    7   41 1  
    46    8   42 1  
    47    8   43 1  
    48   12   44 1  
    49   13   45 1  
    50   16   46 1  
    51   18   47 1  
    52   18   48 1  
    53   22   49 1  
    54   23   50 1  
    55   24   51 1  
    56   25   52 1  
    57   26   53 1  
    58   27   54 1  
    59   29   55 1  
@<TRIPOS>SUBSTRUCTURE
     1 Q18         1

