3umx_ligand
  -I-interpret- 

 55 59  0  0  0  0  0  0  0  0999 V2000
   24.1170   33.3250   -5.7640 C   0  0  0  0  0
   23.0030   34.3770   -5.5360 C   0  0  0  0  0
   22.8890   34.8270   -4.0580 C   0  0  0  0  0
   22.6300   33.6080   -3.2470 N   0  3  0  0  0
   23.7890   32.7210   -3.0120 C   0  0  0  0  0
   23.6420   31.5060   -3.9550 C   0  0  0  0  0
   23.7650   31.8500   -5.4510 C   0  0  0  0  0
   21.3520   33.5110   -2.4580 C   0  0  0  0  0
   21.1670   32.3100   -1.4980 C   0  0  0  0  0
   21.4490   32.3860   -0.1240 C   0  0  0  0  0
   21.2810   31.2650    0.6670 C   0  0  0  0  0
   20.8360   30.0350    0.2450 C   0  0  0  0  0
   20.5580   29.8860   -1.1150 C   0  0  0  0  0
   20.6820   30.9750   -1.9960 C   0  0  0  0  0
   21.9060   33.5530    0.5940 O   0  0  0  0  0
   22.0530   33.1760    1.8990 C   0  0  0  0  0
   21.6550   31.7390    1.9870 C   0  0  0  0  0
   22.4950   34.0920    2.9980 C   0  0  0  0  0
   22.9360   35.5070    2.9310 C   0  0  0  0  0
   23.0180   36.3110    1.7370 C   0  0  0  0  0
   23.5480   37.5110    2.2110 C   0  0  0  0  0
   23.7850   37.4490    3.5650 N   0  0  0  0  0
   23.4250   36.2170    4.0210 C   0  0  0  0  0
   22.6920   36.0370    0.4110 C   0  0  0  0  0
   22.9400   37.0650   -0.4940 C   0  0  0  0  0
   23.4540   38.3040   -0.0500 C   0  0  0  0  0
   23.7600   38.5260    1.2960 C   0  0  0  0  0
   21.6170   30.9820    3.0220 O   0  0  0  0  0
   20.3660   30.7870   -3.3160 O   0  0  0  0  0
   24.9222   33.5908   -5.0790 H   0  0  0  0  0
   24.3435   33.3574   -6.8297 H   0  0  0  0  0
   22.0537   33.9221   -5.8188 H   0  0  0  0  0
   23.2487   35.2555   -6.1326 H   0  0  0  0  0
   22.0804   35.5478   -3.9371 H   0  0  0  0  0
   23.8073   35.3164   -3.7335 H   0  0  0  0  0
   22.1556   32.9323   -3.8461 H   0  0  0  0  0
   23.8155   32.3956   -1.9720 H   0  0  0  0  0
   24.7208   33.2495   -3.2134 H   0  0  0  0  0
   22.6435   31.0973   -3.7999 H   0  0  0  0  0
   24.4497   30.8140   -3.7165 H   0  0  0  0  0
   24.5812   31.2441   -5.8445 H   0  0  0  0  0
   22.7881   31.6611   -5.8960 H   0  0  0  0  0
   20.5638   33.4046   -3.2034 H   0  0  0  0  0
   21.3448   34.3925   -1.8169 H   0  0  0  0  0
   20.7054   29.2090    0.9441 H   0  0  0  0  0
   20.2416   28.9157   -1.4978 H   0  0  0  0  0
   22.4935   33.5915    2.8054 H   0  0  0  0  0
   23.4260   33.6091    3.2949 H   0  0  0  0  0
   21.5618   34.2022    3.5503 H   0  0  0  0  0
   23.5052   35.8563    5.0465 H   0  0  0  0  0
   22.2704   35.0804    0.1022 H   0  0  0  0  0
   22.7360   36.9130   -1.5539 H   0  0  0  0  0
   23.6154   39.1040   -0.7725 H   0  0  0  0  0
   24.1605   39.4866    1.6200 H   0  0  0  0  0
   20.0775   29.8811   -3.4489 H   0  0  0  0  0
  1  2  1  0  0  0
  1  7  1  0  0  0
  2  3  1  0  0  0
  3  4  1  0  0  0
  4  5  1  0  0  0
  4  8  1  0  0  0
  5  6  1  0  0  0
  6  7  1  0  0  0
  8  9  1  0  0  0
  9 10  4  0  0  0
  9 14  4  0  0  0
 10 11  4  0  0  0
 10 15  1  0  0  0
 11 12  4  0  0  0
 11 17  1  0  0  0
 12 13  4  0  0  0
 13 14  4  0  0  0
 14 29  1  0  0  0
 15 16  1  0  0  0
 16 17  1  0  0  0
 16 18  1  0  0  0
 17 28  2  0  0  0
 18 19  1  0  0  0
 19 20  4  0  0  0
 19 23  4  0  0  0
 20 21  4  0  0  0
 20 24  4  0  0  0
 21 22  4  0  0  0
 21 27  4  0  0  0
 22 23  4  0  0  0
 24 25  4  0  0  0
 25 26  4  0  0  0
 26 27  4  0  0  0
  1 30  1  0  0  0
  1 31  1  0  0  0
  2 32  1  0  0  0
  2 33  1  0  0  0
  3 34  1  0  0  0
  3 35  1  0  0  0
  4 36  1  0  0  0
  5 37  1  0  0  0
  5 38  1  0  0  0
  6 39  1  0  0  0
  6 40  1  0  0  0
  7 41  1  0  0  0
  7 42  1  0  0  0
  8 43  1  0  0  0
  8 44  1  0  0  0
 12 45  1  0  0  0
 13 46  1  0  0  0
 16 47  1  0  0  0
 18 48  1  0  0  0
 18 49  1  0  0  0
 23 50  1  0  0  0
 24 51  1  0  0  0
 25 52  1  0  0  0
 26 53  1  0  0  0
 27 54  1  0  0  0
 29 55  1  0  0  0
M  END
$$$$
