4ngm_ligand
  -I-interpret- 

 61 61  0  0  0  0  0  0  0  0999 V2000
   17.0330   20.5070   39.1530 C   0  0  0  0  0
   16.1030   20.7150   38.0140 C   0  0  0  0  0
   14.8230   19.9650   38.3750 C   0  0  0  0  0
   15.0420   18.4520   38.5260 C   0  0  0  0  0
   13.8630   17.7400   39.1800 C   0  0  0  0  0
   17.9020   20.5950   36.4750 C   0  0  0  0  0
   26.0240   15.2650   39.4020 C   0  0  0  0  0
   25.1950   13.5430   37.9830 C   0  0  0  0  0
   24.9250   14.4820   36.9680 C   0  0  0  0  0
   24.0250   19.7700   40.5360 O   0  0  0  0  0
   24.7620   18.8310   40.3170 C   0  0  0  0  0
   25.3970   18.1040   41.4710 C   0  0  0  0  0
   25.0130   18.5090   39.0560 N   0  0  0  0  0
   26.0900   17.6240   38.6300 C   0  0  0  0  0
   25.7090   16.2090   38.4020 C   0  0  0  0  0
   25.1760   15.8360   37.1880 C   0  0  0  0  0
   24.8880   11.6510   37.7540 Br  0  0  0  0  0
   25.7420   13.8990   39.2090 C   0  0  0  0  0
   24.3670   19.1630   37.9020 C   0  0  0  0  0
   22.9090   18.8260   37.7020 C   0  0  0  0  0
   22.2630   19.6080   36.5510 C   0  0  0  0  0
   20.7650   19.2620   36.5220 C   0  0  0  0  0
   19.9740   19.9100   35.3880 C   0  0  0  0  0
   20.2430   19.3110   34.0420 C   0  0  0  0  0
   19.6740   18.1930   33.6730 O   0  0  0  0  0
   20.8850   19.8640   33.1650 O   0  0  0  0  0
   18.5890   19.7660   35.6640 N   0  0  0  0  0
   18.3550   21.6030   37.0230 O   0  0  0  0  0
   16.6810   20.1730   36.8380 N   0  0  0  0  0
   17.8680   19.5890   39.1610 O   0  0  0  0  0
   16.8480   21.3570   40.1620 O   0  0  0  0  0
   12.9890   18.2620   39.9220 O   0  0  0  0  0
   13.7650   16.4300   38.9500 O   0  0  0  0  0
   15.8994   21.7704   37.8327 H   0  0  0  0  0
   14.1066   20.1197   37.5682 H   0  0  0  0  0
   14.4702   20.3484   39.3324 H   0  0  0  0  0
   15.9133   18.3053   39.1643 H   0  0  0  0  0
   15.1690   18.0342   37.5273 H   0  0  0  0  0
   26.4891   15.5955   40.3308 H   0  0  0  0  0
   24.5203   14.1505   36.0117 H   0  0  0  0  0
   26.0099   18.7997   42.0441 H   0  0  0  0  0
   24.6178   17.6913   42.1118 H   0  0  0  0  0
   26.0218   17.2961   41.0902 H   0  0  0  0  0
   26.8228   17.6197   39.4369 H   0  0  0  0  0
   26.4426   18.0065   37.6721 H   0  0  0  0  0
   24.9565   16.5784   36.4207 H   0  0  0  0  0
   25.9429   13.1582   39.9829 H   0  0  0  0  0
   24.8924   18.8159   37.0123 H   0  0  0  0  0
   24.4170   20.2366   38.0835 H   0  0  0  0  0
   22.3798   19.0877   38.6183 H   0  0  0  0  0
   22.8445   17.7654   37.4591 H   0  0  0  0  0
   22.7300   19.3378   35.6039 H   0  0  0  0  0
   22.3989   20.6791   36.7009 H   0  0  0  0  0
   20.3387   19.6324   37.4543 H   0  0  0  0  0
   20.6941   18.1838   36.3786 H   0  0  0  0  0
   20.2872   20.9531   35.3448 H   0  0  0  0  0
   19.1907   17.8213   34.4145 H   0  0  0  0  0
   18.0869   18.9941   35.2252 H   0  0  0  0  0
   16.1810   19.4795   36.2817 H   0  0  0  0  0
   16.1531   21.9783   39.9323 H   0  0  0  0  0
   14.4824   16.1526   38.3755 H   0  0  0  0  0
  2  1  1  0  0  0
  1 30  2  0  0  0
  1 31  1  0  0  0
  2  3  1  0  0  0
 29  2  1  0  0  0
  3  4  1  0  0  0
  4  5  1  0  0  0
  5 32  2  0  0  0
  5 33  1  0  0  0
 27  6  1  0  0  0
  6 28  2  0  0  0
  6 29  1  0  0  0
 15  7  4  0  0  0
  7 18  4  0  0  0
  9  8  4  0  0  0
  8 17  1  0  0  0
 18  8  4  0  0  0
 16  9  4  0  0  0
 11 10  2  0  0  0
 11 12  1  0  0  0
 13 11  1  0  0  0
 13 14  1  0  0  0
 19 13  1  0  0  0
 14 15  1  0  0  0
 15 16  4  0  0  0
 20 19  1  0  0  0
 21 20  1  0  0  0
 22 21  1  0  0  0
 23 22  1  0  0  0
 23 24  1  0  0  0
 23 27  1  0  0  0
 24 25  1  0  0  0
 24 26  2  0  0  0
  2 34  1  0  0  0
  3 35  1  0  0  0
  3 36  1  0  0  0
  4 37  1  0  0  0
  4 38  1  0  0  0
  7 39  1  0  0  0
  9 40  1  0  0  0
 12 41  1  0  0  0
 12 42  1  0  0  0
 12 43  1  0  0  0
 14 44  1  0  0  0
 14 45  1  0  0  0
 16 46  1  0  0  0
 18 47  1  0  0  0
 19 48  1  0  0  0
 19 49  1  0  0  0
 20 50  1  0  0  0
 20 51  1  0  0  0
 21 52  1  0  0  0
 21 53  1  0  0  0
 22 54  1  0  0  0
 22 55  1  0  0  0
 23 56  1  0  0  0
 25 57  1  0  0  0
 27 58  1  0  0  0
 29 59  1  0  0  0
 31 60  1  0  0  0
 33 61  1  0  0  0
M  END
$$$$
