### 
### Created by X-TOOL on Mon Sep 10 21:12:59 2018
### 

@<TRIPOS>MOLECULE
3ifo_ligand
  101   102     1     0     0
SMALL
GAST_HUCK


@<TRIPOS>ATOM
      1 N         -13.7490   27.2190    9.7310 N.4       1 ALA         0.2377
      2 CA        -15.1050   26.7420    9.4560 C.3       1 ALA         0.0621
      3 C         -16.0220   26.8010   10.6870 C.2       1 ALA         0.2264
      4 O         -15.6920   26.2790   11.7510 O.2       1 ALA        -0.3907
      5 CB        -15.0620   25.3330    8.8880 C.3       1 ALA        -0.0040
      6 N         -17.1780   27.4380   10.5310 N.am      1 GLU        -0.2609
      7 CA        -18.1110   27.6130   11.6370 C.3       1 GLU         0.1326
      8 C         -19.0710   26.4430   11.7480 C.2       1 GLU         0.2041
      9 O         -19.4440   25.8410   10.7410 O.2       1 GLU        -0.3944
     10 CB        -18.9060   28.9080   11.4790 C.3       1 GLU        -0.0008
     11 CG        -18.0900   30.1680   11.7320 C.3       1 GLU         0.0044
     12 CD        -18.9630   31.3930   11.8980 C.2       1 GLU         0.0350
     13 OE1       -19.9050   31.5600   11.0940 O.co2     1 GLU        -0.5690
     14 OE2       -18.7090   32.1850   12.8310 O.co2     1 GLU        -0.5690
     15 N         -19.4510   26.1210   12.9810 N.am      1 PHE        -0.2619
     16 CA        -20.4480   25.0900   13.2320 C.3       1 PHE         0.1404
     17 C         -21.7680   25.6250   12.7350 C.2       1 PHE         0.2060
     18 O         -22.0530   26.8170   12.8730 O.2       1 PHE        -0.3942
     19 CB        -20.5270   24.7780   14.7290 C.3       1 PHE         0.0214
     20 CG        -21.3420   23.5450   15.0740 C.ar      1 PHE        -0.0386
     21 CD1       -20.8680   22.2670   14.7780 C.ar      1 PHE        -0.0601
     22 CD2       -22.5620   23.6660   15.7380 C.ar      1 PHE        -0.0601
     23 CE1       -21.6100   21.1310   15.1190 C.ar      1 PHE        -0.0686
     24 CE2       -23.3180   22.5360   16.0930 C.ar      1 PHE        -0.0686
     25 CZ        -22.8370   21.2610   15.7830 C.ar      1 PHE        -0.0687
     26 N         -22.5710   24.7500   12.1400 N.am      1 ARG        -0.2636
     27 CA        -23.8700   25.1550   11.6230 C.3       1 ARG         0.1311
     28 C         -24.8650   25.3430   12.7680 C.2       1 ARG         0.2040
     29 O         -25.0880   24.4260   13.5650 O.2       1 ARG        -0.3944
     30 CB        -24.3990   24.1180   10.6170 C.3       1 ARG        -0.0092
     31 CG        -25.8520   24.3450   10.2010 C.3       1 ARG        -0.0156
     32 CD        -26.3910   23.1980    9.3380 C.3       1 ARG         0.0627
     33 NE        -27.8340   23.3000    9.1320 N.pl3     1 ARG        -0.2723
     34 CZ        -28.6140   22.2860    8.7630 C.cat     1 ARG         0.2882
     35 NH1       -28.1000   21.0740    8.5650 N.pl3     1 ARG        -0.2849
     36 NH2       -29.9140   22.4800    8.6170 N.pl3     1 ARG        -0.2849
     37 N         -25.4750   26.5230   12.8360 N.am      1 HIS        -0.2625
     38 CA        -26.4390   26.8320   13.8940 C.3       1 HIS         0.1369
     39 C         -27.8150   27.2710   13.3750 C.2       1 HIS         0.2049
     40 O         -28.7190   27.5760   14.1610 O.2       1 HIS        -0.3943
     41 CB        -25.8800   27.8980   14.8200 C.3       1 HIS         0.0145
     42 CG        -24.8810   27.3790   15.8020 C.2       1 HIS        -0.0027
     43 ND1       -25.2490   26.8130   17.0030 N.2       1 HIS        -0.3252
     44 CD2       -23.5280   27.3600   15.7730 C.2       1 HIS         0.0291
     45 CE1       -24.1650   26.4590   17.6700 C.2       1 HIS         0.0907
     46 NE2       -23.1060   26.7850   16.9480 N.pl3     1 HIS        -0.2752
     47 N         -27.9720   27.3030   12.0560 N.am      1 ASP        -0.2678
     48 CA        -29.3020   27.4280   11.4610 C.3       1 ASP         0.1058
     49 C         -29.5320   26.3680   10.3660 C.2       1 ASP         0.0618
     50 O         -28.6360   26.0100    9.5930 O.co2     1 ASP        -0.5665
     51 CB        -29.5130   28.8440   10.9230 C.3       1 ASP         0.0351
     52 CG        -29.9120   29.8360   12.0150 C.2       1 ASP         0.0387
     53 OD1       -29.0340   30.5690   12.5300 O.co2     1 ASP        -0.5688
     54 OD2       -31.1120   29.8810   12.3560 O.co2     1 ASP        -0.5688
     55 OXT       -30.6230   25.8170   10.2210 O.co2     1 ASP        -0.5665
     56 H1        -13.1945   27.1577    8.8914 H         1 ALA         0.2015
     57 H2        -13.3322   26.6500   10.4512 H         1 ALA         0.2015
     58 H3        -13.7862   28.1778   10.0397 H         1 ALA         0.2015
     59 H4        -15.5386   27.4026    8.6908 H         1 ALA         0.1095
     60 H5        -16.0867   24.9876    8.6863 H         1 ALA         0.0310
     61 H6        -14.5843   24.6592    9.6145 H         1 ALA         0.0310
     62 H7        -14.4840   25.3324    7.9521 H         1 ALA         0.0310
     63 H8        -17.4137   27.8066    9.6318 H         1 GLU         0.1885
     64 H9        -17.5286   27.6726   12.5682 H         1 GLU         0.0801
     65 H10       -19.7438   28.8892   12.1916 H         1 GLU         0.0330
     66 H11       -19.2987   28.9502   10.4524 H         1 GLU         0.0330
     67 H12       -17.4134   30.3285   10.8797 H         1 GLU         0.0433
     68 H13       -17.4983   30.0283   12.6487 H         1 GLU         0.0433
     69 H14       -19.0408   26.6001   13.7570 H         1 PHE         0.1885
     70 H15       -20.1852   24.1730   12.6842 H         1 PHE         0.0823
     71 H16       -20.9804   25.6422   15.2364 H         1 PHE         0.0474
     72 H17       -19.5034   24.6287   15.1031 H         1 PHE         0.0474
     73 H18       -19.9132   22.1526   14.2777 H         1 PHE         0.0557
     74 H19       -22.9354   24.6531   15.9857 H         1 PHE         0.0557
     75 H20       -21.2339   20.1457   14.8684 H         1 PHE         0.0599
     76 H21       -24.2672   22.6524   16.6035 H         1 PHE         0.0599
     77 H22       -23.4081   20.3804   16.0539 H         1 PHE         0.0559
     78 H23       -22.2786   23.7984   12.0458 H         1 ARG         0.1883
     79 H24       -23.7526   26.1166   11.1020 H         1 ARG         0.0800
     80 H25       -24.3214   23.1206   11.0744 H         1 ARG         0.0313
     81 H26       -23.7702   24.1579    9.7153 H         1 ARG         0.0313
     82 H27       -25.9143   25.2808    9.6262 H         1 ARG         0.0301
     83 H28       -26.4712   24.4288   11.1063 H         1 ARG         0.0301
     84 H29       -26.1702   22.2433    9.8378 H         1 ARG         0.0689
     85 H30       -25.8898   23.2240    8.3592 H         1 ARG         0.0689
     86 H31       -28.2773   24.2175    9.2823 H         1 ARG         0.2642
     87 H32       -28.7113   20.2957    8.2796 H         1 ARG         0.2615
     88 H33       -27.0910   20.9146    8.6972 H         1 ARG         0.2615
     89 H34       -30.3153   23.4163    8.7693 H         1 ARG         0.2615
     90 H35       -30.5252   21.6948    8.3509 H         1 ARG         0.2615
     91 H36       -25.2699   27.2175   12.1464 H         1 HIS         0.1885
     92 H37       -26.5865   25.9128   14.4799 H         1 HIS         0.0817
     93 H38       -26.7155   28.3452   15.3786 H         1 HIS         0.0420
     94 H39       -25.3940   28.6706   14.2062 H         1 HIS         0.0420
     95 H40       -22.8930   27.7306   14.9697 H         1 HIS         0.0729
     96 H41       -24.1466   25.9802   18.6479 H         1 HIS         0.1199
     97 H42       -22.1247   26.6328   17.2216 H         1 HIS         0.2361
     98 H43       -27.1698   27.2408   11.4621 H         1 ASP         0.1877
     99 H44       -30.0442   27.2544   12.2541 H         1 ASP         0.0745
    100 H45       -30.3087   28.8173   10.1640 H         1 ASP         0.0471
    101 H46       -28.5762   29.1880   10.4602 H         1 ASP         0.0471
@<TRIPOS>BOND
     1    1    2 1  
     2    2    3 1  
     3    2    5 1  
     4    3    4 2  
     5    3    6 am 
     6    6    7 1  
     7    7    8 1  
     8    7   10 1  
     9    8    9 2  
    10    8   15 am 
    11   10   11 1  
    12   11   12 1  
    13   12   13 ar 
    14   12   14 ar 
    15   15   16 1  
    16   16   17 1  
    17   16   19 1  
    18   17   18 2  
    19   17   26 am 
    20   19   20 1  
    21   20   21 ar 
    22   20   22 ar 
    23   21   23 ar 
    24   22   24 ar 
    25   23   25 ar 
    26   24   25 ar 
    27   26   27 1  
    28   27   28 1  
    29   27   30 1  
    30   28   29 2  
    31   28   37 am 
    32   30   31 1  
    33   31   32 1  
    34   32   33 1  
    35   33   34 ar 
    36   34   35 ar 
    37   34   36 ar 
    38   37   38 1  
    39   38   39 1  
    40   38   41 1  
    41   39   40 2  
    42   39   47 am 
    43   41   42 1  
    44   42   43 1  
    45   42   44 2  
    46   43   45 2  
    47   44   46 1  
    48   45   46 1  
    49   47   48 1  
    50   48   49 1  
    51   48   51 1  
    52   49   50 ar 
    53   49   55 ar 
    54   51   52 1  
    55   52   53 ar 
    56   52   54 ar 
    57    1   56 1  
    58    1   57 1  
    59    1   58 1  
    60    2   59 1  
    61    5   60 1  
    62    5   61 1  
    63    5   62 1  
    64    6   63 1  
    65    7   64 1  
    66   10   65 1  
    67   10   66 1  
    68   11   67 1  
    69   11   68 1  
    70   15   69 1  
    71   16   70 1  
    72   19   71 1  
    73   19   72 1  
    74   21   73 1  
    75   22   74 1  
    76   23   75 1  
    77   24   76 1  
    78   25   77 1  
    79   26   78 1  
    80   27   79 1  
    81   30   80 1  
    82   30   81 1  
    83   31   82 1  
    84   31   83 1  
    85   32   84 1  
    86   32   85 1  
    87   33   86 1  
    88   35   87 1  
    89   35   88 1  
    90   36   89 1  
    91   36   90 1  
    92   37   91 1  
    93   38   92 1  
    94   41   93 1  
    95   41   94 1  
    96   44   95 1  
    97   45   96 1  
    98   46   97 1  
    99   47   98 1  
   100   48   99 1  
   101   51  100 1  
   102   51  101 1  
@<TRIPOS>SUBSTRUCTURE
     1 ALA         1

