3ifo_ligand
  -I-interpret- 

102103  0  0  0  0  0  0  0  0999 V2000
  -13.7490   27.2190    9.7310 N   0  3  0  0  0
  -15.1050   26.7420    9.4560 C   0  0  0  0  0
  -16.0220   26.8010   10.6870 C   0  0  0  0  0
  -15.6920   26.2790   11.7510 O   0  0  0  0  0
  -15.0620   25.3330    8.8880 C   0  0  0  0  0
  -17.1780   27.4380   10.5310 N   0  0  0  0  0
  -18.1110   27.6130   11.6370 C   0  0  0  0  0
  -19.0710   26.4430   11.7480 C   0  0  0  0  0
  -19.4440   25.8410   10.7410 O   0  0  0  0  0
  -18.9060   28.9080   11.4790 C   0  0  0  0  0
  -18.0900   30.1680   11.7320 C   0  0  0  0  0
  -18.9630   31.3930   11.8980 C   0  0  0  0  0
  -19.9050   31.5600   11.0940 O   0  0  0  0  0
  -18.7090   32.1850   12.8310 O   0  0  0  0  0
  -19.4510   26.1210   12.9810 N   0  0  0  0  0
  -20.4480   25.0900   13.2320 C   0  0  0  0  0
  -21.7680   25.6250   12.7350 C   0  0  0  0  0
  -22.0530   26.8170   12.8730 O   0  0  0  0  0
  -20.5270   24.7780   14.7290 C   0  0  0  0  0
  -21.3420   23.5450   15.0740 C   0  0  0  0  0
  -20.8680   22.2670   14.7780 C   0  0  0  0  0
  -22.5620   23.6660   15.7380 C   0  0  0  0  0
  -21.6100   21.1310   15.1190 C   0  0  0  0  0
  -23.3180   22.5360   16.0930 C   0  0  0  0  0
  -22.8370   21.2610   15.7830 C   0  0  0  0  0
  -22.5710   24.7500   12.1400 N   0  0  0  0  0
  -23.8700   25.1550   11.6230 C   0  0  0  0  0
  -24.8650   25.3430   12.7680 C   0  0  0  0  0
  -25.0880   24.4260   13.5650 O   0  0  0  0  0
  -24.3990   24.1180   10.6170 C   0  0  0  0  0
  -25.8520   24.3450   10.2010 C   0  0  0  0  0
  -26.3910   23.1980    9.3380 C   0  0  0  0  0
  -27.8340   23.3000    9.1320 N   0  0  0  0  0
  -28.6140   22.2860    8.7630 C   0  0  0  0  0
  -28.1000   21.0740    8.5650 N   0  0  0  0  0
  -29.9140   22.4800    8.6170 N   0  0  0  0  0
  -25.4750   26.5230   12.8360 N   0  0  0  0  0
  -26.4390   26.8320   13.8940 C   0  0  0  0  0
  -27.8150   27.2710   13.3750 C   0  0  0  0  0
  -28.7190   27.5760   14.1610 O   0  0  0  0  0
  -25.8800   27.8980   14.8200 C   0  0  0  0  0
  -24.8810   27.3790   15.8020 C   0  0  0  0  0
  -25.2490   26.8130   17.0030 N   0  0  0  0  0
  -23.5280   27.3600   15.7730 C   0  0  0  0  0
  -24.1650   26.4590   17.6700 C   0  0  0  0  0
  -23.1060   26.7850   16.9480 N   0  0  0  0  0
  -27.9720   27.3030   12.0560 N   0  0  0  0  0
  -29.3020   27.4280   11.4610 C   0  0  0  0  0
  -29.5320   26.3680   10.3660 C   0  0  0  0  0
  -28.6360   26.0100    9.5930 O   0  0  0  0  0
  -29.5130   28.8440   10.9230 C   0  0  0  0  0
  -29.9120   29.8360   12.0150 C   0  0  0  0  0
  -29.0340   30.5690   12.5300 O   0  0  0  0  0
  -31.1120   29.8810   12.3560 O   0  0  0  0  0
  -30.6230   25.8170   10.2210 O   0  0  0  0  0
  -13.7930   28.1645   10.1112 H   0  0  0  0  0
  -13.3026   26.5997   10.4074 H   0  0  0  0  0
  -13.2096   27.2242    8.8653 H   0  0  0  0  0
  -15.5348   27.4179    8.7167 H   0  0  0  0  0
  -14.6811   24.6485    9.6460 H   0  0  0  0  0
  -16.0672   25.0299    8.5951 H   0  0  0  0  0
  -14.4070   25.3136    8.0170 H   0  0  0  0  0
  -17.4184   27.8140    9.6138 H   0  0  0  0  0
  -17.5176   27.6632   12.5500 H   0  0  0  0  0
  -19.7081   28.8878   12.2168 H   0  0  0  0  0
  -19.2554   28.9499   10.4474 H   0  0  0  0  0
  -17.4407   30.3292   10.8715 H   0  0  0  0  0
  -17.5263   30.0267   12.6541 H   0  0  0  0  0
  -17.9485   31.8657   13.3222 H   0  0  0  0  0
  -19.0326   26.6096   13.7726 H   0  0  0  0  0
  -20.1873   24.1642   12.7192 H   0  0  0  0  0
  -21.0165   25.6271   15.2060 H   0  0  0  0  0
  -19.5085   24.5923   15.0699 H   0  0  0  0  0
  -19.9079   22.1520   14.2749 H   0  0  0  0  0
  -22.9374   24.6585   15.9871 H   0  0  0  0  0
  -21.2319   20.1402   14.8670 H   0  0  0  0  0
  -24.2724   22.6530   16.6063 H   0  0  0  0  0
  -23.4113   20.3755   16.0554 H   0  0  0  0  0
  -22.2727   23.7793   12.0439 H   0  0  0  0  0
  -23.7525   26.1072   11.1058 H   0  0  0  0  0
  -24.3485   23.1422   11.1001 H   0  0  0  0  0
  -23.7880   24.1972    9.7179 H   0  0  0  0  0
  -25.8982   25.2625    9.6144 H   0  0  0  0  0
  -26.4589   24.4048   11.1045 H   0  0  0  0  0
  -26.1854   22.2589    9.8518 H   0  0  0  0  0
  -25.9033   23.2456    8.3643 H   0  0  0  0  0
  -28.2730   24.2086    9.2808 H   0  0  0  0  0
  -28.7084   20.2988    8.3016 H   0  0  0  0  0
  -27.0978   20.9206    8.6767 H   0  0  0  0  0
  -30.3142   23.4027    8.7869 H   0  0  0  0  0
  -25.2658   27.2314   12.1326 H   0  0  0  0  0
  -26.5950   25.8990   14.4355 H   0  0  0  0  0
  -26.7155   28.3045   15.3899 H   0  0  0  0  0
  -25.3722   28.6353   14.1982 H   0  0  0  0  0
  -22.8924   27.7310   14.9689 H   0  0  0  0  0
  -24.1466   25.9798   18.6488 H   0  0  0  0  0
  -27.1538   27.2395   11.4503 H   0  0  0  0  0
  -30.0421   27.2465   12.2404 H   0  0  0  0  0
  -27.8323   26.4970    9.7891 H   0  0  0  0  0
  -30.3209   28.8076   10.1922 H   0  0  0  0  0
  -28.5709   29.1821   10.4915 H   0  0  0  0  0
  -28.1832   30.3774   12.1288 H   0  0  0  0  0
  1  2  1  0  0  0
  2  3  1  0  0  0
  2  5  1  0  0  0
  3  4  2  0  0  0
  3  6  1  0  0  0
  6  7  1  0  0  0
  7  8  1  0  0  0
  7 10  1  0  0  0
  8  9  2  0  0  0
  8 15  1  0  0  0
 10 11  1  0  0  0
 11 12  1  0  0  0
 12 13  2  0  0  0
 12 14  1  0  0  0
 15 16  1  0  0  0
 16 17  1  0  0  0
 16 19  1  0  0  0
 17 18  2  0  0  0
 17 26  1  0  0  0
 19 20  1  0  0  0
 20 21  4  0  0  0
 20 22  4  0  0  0
 21 23  4  0  0  0
 22 24  4  0  0  0
 23 25  4  0  0  0
 24 25  4  0  0  0
 26 27  1  0  0  0
 27 28  1  0  0  0
 27 30  1  0  0  0
 28 29  2  0  0  0
 28 37  1  0  0  0
 30 31  1  0  0  0
 31 32  1  0  0  0
 32 33  1  0  0  0
 33 34  1  0  0  0
 34 35  1  0  0  0
 34 36  2  0  0  0
 37 38  1  0  0  0
 38 39  1  0  0  0
 38 41  1  0  0  0
 39 40  2  0  0  0
 39 47  1  0  0  0
 41 42  1  0  0  0
 42 43  4  0  0  0
 42 44  4  0  0  0
 43 45  4  0  0  0
 44 46  4  0  0  0
 45 46  4  0  0  0
 47 48  1  0  0  0
 48 49  1  0  0  0
 48 51  1  0  0  0
 49 50  1  0  0  0
 49 55  2  0  0  0
 51 52  1  0  0  0
 52 53  1  0  0  0
 52 54  2  0  0  0
  1 56  1  0  0  0
  1 57  1  0  0  0
  1 58  1  0  0  0
  2 59  1  0  0  0
  5 60  1  0  0  0
  5 61  1  0  0  0
  5 62  1  0  0  0
  6 63  1  0  0  0
  7 64  1  0  0  0
 10 65  1  0  0  0
 10 66  1  0  0  0
 11 67  1  0  0  0
 11 68  1  0  0  0
 14 69  1  0  0  0
 15 70  1  0  0  0
 16 71  1  0  0  0
 19 72  1  0  0  0
 19 73  1  0  0  0
 21 74  1  0  0  0
 22 75  1  0  0  0
 23 76  1  0  0  0
 24 77  1  0  0  0
 25 78  1  0  0  0
 26 79  1  0  0  0
 27 80  1  0  0  0
 30 81  1  0  0  0
 30 82  1  0  0  0
 31 83  1  0  0  0
 31 84  1  0  0  0
 32 85  1  0  0  0
 32 86  1  0  0  0
 33 87  1  0  0  0
 35 88  1  0  0  0
 35 89  1  0  0  0
 36 90  1  0  0  0
 37 91  1  0  0  0
 38 92  1  0  0  0
 41 93  1  0  0  0
 41 94  1  0  0  0
 44 95  1  0  0  0
 45 96  1  0  0  0
 47 97  1  0  0  0
 48 98  1  0  0  0
 50 99  1  0  0  0
 51100  1  0  0  0
 51101  1  0  0  0
 53102  1  0  0  0
M  END
$$$$
