3jsi_ligand
  -I-interpret- 

 40 43  0  0  0  0  0  0  0  0999 V2000
   77.3900   52.0750   43.8100 C   0  0  0  0  0
   77.3450   52.1930   42.4050 C   0  0  0  0  0
   78.4660   51.5860   41.9290 N   0  0  0  0  0
   79.2070   51.1000   43.0150 N   0  0  0  0  0
   78.5720   51.3730   44.1230 C   0  0  0  0  0
   76.2860   52.6670   44.5880 C   0  0  0  0  0
   75.3000   53.2910   43.8860 N   0  0  0  0  0
   75.3350   53.3510   42.5230 C   0  0  0  0  0
   76.3090   52.8340   41.8200 N   0  0  0  0  0
   78.8480   51.5190   40.5150 C   0  0  0  0  0
   78.8160   50.0850   39.9730 C   0  0  0  0  0
   80.0390   50.0010   39.0390 C   0  0  0  0  0
   81.1060   50.8390   39.7870 C   0  0  0  0  0
   80.2920   52.0400   40.3260 C   0  0  0  0  0
   76.2510   52.6230   45.8100 O   0  0  0  0  0
   74.2110   54.0610   41.8070 C   0  0  0  0  0
   74.6060   55.4950   41.5470 C   0  0  0  0  0
   74.6090   55.9930   40.2540 C   0  0  0  0  0
   74.9750   57.3120   40.0100 C   0  0  0  0  0
   75.3420   58.1430   41.0580 C   0  0  0  0  0
   75.3430   57.6470   42.3520 C   0  0  0  0  0
   74.9720   56.3290   42.5950 C   0  0  0  0  0
   78.9019   51.1023   45.1260 H   0  0  0  0  0
   74.5224   53.7207   44.3872 H   0  0  0  0  0
   78.1261   52.1308   39.9740 H   0  0  0  0  0
   77.8853   49.8657   39.4497 H   0  0  0  0  0
   78.8590   49.3444   40.7716 H   0  0  0  0  0
   79.8323   50.3771   38.0371 H   0  0  0  0  0
   80.3600   48.9759   38.8541 H   0  0  0  0  0
   81.9311   51.1434   39.1431 H   0  0  0  0  0
   81.6048   50.2784   40.5776 H   0  0  0  0  0
   80.7058   52.4108   41.2637 H   0  0  0  0  0
   80.3225   52.8822   39.6347 H   0  0  0  0  0
   73.3141   54.0378   42.4259 H   0  0  0  0  0
   74.0114   53.5616   40.8589 H   0  0  0  0  0
   74.3229   55.3473   39.4237 H   0  0  0  0  0
   74.9735   57.6950   38.9895 H   0  0  0  0  0
   75.6272   59.1773   40.8655 H   0  0  0  0  0
   75.6352   58.2914   43.1811 H   0  0  0  0  0
   74.9685   55.9477   43.6161 H   0  0  0  0  0
  1  2  4  0  0  0
  1  5  4  0  0  0
  1  6  1  0  0  0
  2  3  4  0  0  0
  2  9  1  0  0  0
  3  4  4  0  0  0
  3 10  1  0  0  0
  4  5  4  0  0  0
  6  7  1  0  0  0
  6 15  2  0  0  0
  7  8  1  0  0  0
  8  9  2  0  0  0
  8 16  1  0  0  0
 10 11  1  0  0  0
 10 14  1  0  0  0
 11 12  1  0  0  0
 12 13  1  0  0  0
 13 14  1  0  0  0
 16 17  1  0  0  0
 17 18  4  0  0  0
 17 22  4  0  0  0
 18 19  4  0  0  0
 19 20  4  0  0  0
 20 21  4  0  0  0
 21 22  4  0  0  0
  5 23  1  0  0  0
  7 24  1  0  0  0
 10 25  1  0  0  0
 11 26  1  0  0  0
 11 27  1  0  0  0
 12 28  1  0  0  0
 12 29  1  0  0  0
 13 30  1  0  0  0
 13 31  1  0  0  0
 14 32  1  0  0  0
 14 33  1  0  0  0
 16 34  1  0  0  0
 16 35  1  0  0  0
 18 36  1  0  0  0
 19 37  1  0  0  0
 20 38  1  0  0  0
 21 39  1  0  0  0
 22 40  1  0  0  0
M  END
$$$$
