### 
### Created by X-TOOL on Mon Sep 10 21:13:03 2018
### 

@<TRIPOS>MOLECULE
3m55_ligand
  117   116     1     0     0
SMALL
GAST_HUCK


@<TRIPOS>ATOM
      1 C          21.1510  -27.4810   -4.3070 C.2       1 ACE         0.1752
      2 O          20.1760  -27.4360   -3.5540 O.2       1 ACE        -0.3972
      3 CH3        21.0780  -27.0180   -5.7390 C.3       1 ACE         0.0258
      4 N          22.3830  -27.6120   -3.8310 N.am      1 SER        -0.2637
      5 CA         22.6070  -28.1280   -2.4880 C.3       1 SER         0.1538
      6 C          22.9370  -27.0130   -1.5260 C.2       1 SER         0.2062
      7 O          23.5280  -25.9980   -1.8990 O.2       1 SER        -0.3943
      8 CB         23.7270  -29.1390   -2.5170 C.3       1 SER         0.0843
      9 OG         23.5440  -30.0070   -3.6250 O.3       1 SER        -0.3903
     10 N          22.5530  -27.1820   -0.2700 N.am      1 LYS        -0.2637
     11 CA         22.7780  -26.1070    0.6690 C.3       1 LYS         0.1310
     12 C          24.0900  -26.2740    1.4380 C.2       1 LYS         0.2040
     13 O          24.1080  -26.2560    2.6670 O.2       1 LYS        -0.3944
     14 CB         21.6070  -25.9630    1.6300 C.3       1 LYS        -0.0122
     15 CG         20.2850  -25.7380    0.9160 C.3       1 LYS        -0.0440
     16 CD         19.2060  -25.3260    1.8950 C.3       1 LYS        -0.0124
     17 CE         17.8570  -25.2390    1.1840 C.3       1 LYS        -0.0354
     18 NZ         16.8200  -24.8190    2.1680 N.4       1 LYS         0.2185
     19 N          25.1700  -26.4200    0.6780 N.am      1 SER        -0.2616
     20 CA         26.5170  -26.5970    1.2450 C.3       1 SER         0.1539
     21 C          27.5650  -26.0560    0.2750 C.2       1 SER         0.2062
     22 O          27.2990  -25.9030   -0.9250 O.2       1 SER        -0.3943
     23 CB         26.7880  -28.0660    1.5170 C.3       1 SER         0.0843
     24 OG         26.6530  -28.8830    0.3690 O.3       1 SER        -0.3903
     25 N          28.7620  -25.7890    0.7900 N.am      1 MLZ        -0.2637
     26 CA         29.8390  -25.2540   -0.0470 C.3       1 MLZ         0.1310
     27 CB         30.9620  -24.7290    0.8450 C.3       1 MLZ        -0.0122
     28 CG         30.5510  -23.6030    1.7690 C.3       1 MLZ        -0.0440
     29 CD         31.5070  -23.5900    2.9580 C.3       1 MLZ        -0.0124
     30 CE         31.2390  -22.4180    3.8880 C.3       1 MLZ        -0.0339
     31 NZ         32.2010  -22.3670    5.0010 N.4       1 MLZ         0.2248
     32 CM         31.8000  -21.4970    6.1380 C.3       1 MLZ        -0.0449
     33 C          30.4340  -26.3130   -0.9350 C.2       1 MLZ         0.2040
     34 O          30.4750  -27.4930   -0.5960 O.2       1 MLZ        -0.3944
     35 N          30.8890  -25.8950   -2.1220 N.am      1 ASP        -0.2622
     36 CA         31.8470  -26.6970   -2.9000 C.3       1 ASP         0.1423
     37 C          31.3180  -28.0460   -3.3950 C.2       1 ASP         0.2056
     38 O          32.0670  -29.0160   -3.4710 O.2       1 ASP        -0.3943
     39 CB         33.1130  -26.9230   -2.0490 C.3       1 ASP         0.0406
     40 CG         34.3670  -27.1490   -2.8900 C.2       1 ASP         0.0393
     41 OD1        34.6070  -26.3470   -3.8230 O.co2     1 ASP        -0.5688
     42 OD2        35.1180  -28.1180   -2.6260 O.co2     1 ASP        -0.5688
     43 N          30.0390  -28.1410   -3.7460 N.am      1 ARG        -0.2636
     44 CA         29.5770  -29.3870   -4.3560 C.3       1 ARG         0.1311
     45 C          30.0120  -29.4620   -5.8320 C.2       1 ARG         0.2033
     46 O          30.1260  -28.4320   -6.5090 O.2       1 ARG        -0.3944
     47 CB         28.0620  -29.5710   -4.2170 C.3       1 ARG        -0.0076
     48 CG         27.6420  -30.9990   -4.5850 C.3       1 ARG        -0.0084
     49 CD         26.2510  -31.3690   -4.0920 C.3       1 ARG        -0.0352
     50 NE         25.9670  -32.7820   -4.3380 N.4       1 ARG         0.2185
     51 N          30.2740  -30.6700   -6.3230 N.am      1 LYS        -0.2698
     52 CA         30.7370  -30.8490   -7.7230 C.3       1 LYS         0.0916
     53 C          29.6110  -30.6800   -8.7510 C.2       1 LYS         0.0598
     54 O          28.4804  -31.2024   -8.5602 O.co2     1 LYS        -0.5666
     55 CB         31.4260  -32.2080   -7.9060 C.3       1 LYS        -0.0300
     56 H          20.3314  -27.6065   -6.2722 H         1 ACE         0.0467
     57 H          20.7987  -25.9647   -5.7652 H         1 ACE         0.0467
     58 H          22.0513  -27.1490   -6.2119 H         1 ACE         0.0467
     59 H          23.1798  -27.3489   -4.4110 H         1 SER         0.1883
     60 H          21.6914  -28.6082   -2.1429 H         1 SER         0.0823
     61 H          23.7207  -29.7183   -1.5937 H         1 SER         0.0606
     62 H          24.6828  -28.6234   -2.6104 H         1 SER         0.0606
     63 H          22.7022  -30.4604   -3.5392 H         1 SER         0.2097
     64 H          22.1088  -28.0506    0.0276 H         1 LYS         0.1883
     65 H          22.8597  -25.1909    0.0840 H         1 LYS         0.0800
     66 H          21.7977  -25.0952    2.2615 H         1 LYS         0.0312
     67 H          21.5260  -26.8890    2.1992 H         1 LYS         0.0312
     68 H          19.9843  -26.6680    0.4336 H         1 LYS         0.0269
     69 H          20.4140  -24.9432    0.1814 H         1 LYS         0.0269
     70 H          19.4545  -24.3497    2.3110 H         1 LYS         0.0317
     71 H          19.1434  -26.0678    2.6912 H         1 LYS         0.0317
     72 H          17.5968  -26.2117    0.7665 H         1 LYS         0.0813
     73 H          17.9132  -24.5115    0.3742 H         1 LYS         0.0813
     74 H          15.9150  -24.7582    1.7014 H         1 LYS         0.1994
     75 H          16.7701  -25.5050    2.9212 H         1 LYS         0.1994
     76 H          17.0674  -23.9073    2.5526 H         1 LYS         0.1994
     77 H          25.0618  -26.4090   -0.3362 H         1 SER         0.1884
     78 H          26.5731  -26.0466    2.1842 H         1 SER         0.0823
     79 H          26.0565  -28.4053    2.2503 H         1 SER         0.0606
     80 H          27.8181  -28.1521    1.8629 H         1 SER         0.0606
     81 H          25.7575  -28.8118    0.0304 H         1 SER         0.2097
     82 H          28.9325  -25.9590    1.7812 H         1 MLZ         0.1883
     83 H          29.4081  -24.4643   -0.6625 H         1 MLZ         0.0800
     84 H          31.7367  -24.3361    0.1865 H         1 MLZ         0.0312
     85 H          31.2848  -25.5581    1.4746 H         1 MLZ         0.0312
     86 H          29.5276  -23.7543    2.1123 H         1 MLZ         0.0269
     87 H          30.5954  -22.6501    1.2417 H         1 MLZ         0.0269
     88 H          32.5244  -23.4987    2.5776 H         1 MLZ         0.0317
     89 H          31.3648  -24.5125    3.5210 H         1 MLZ         0.0317
     90 H          30.2394  -22.5361    4.3063 H         1 MLZ         0.0814
     91 H          31.3341  -21.4972    3.3125 H         1 MLZ         0.0814
     92 H          33.0665  -21.9800    4.6249 H         1 MLZ         0.2011
     93 H          32.2772  -23.3155    5.3683 H         1 MLZ         0.2011
     94 H          31.6757  -20.4735    5.7844 H         1 MLZ         0.0777
     95 H          30.8586  -21.8559    6.5540 H         1 MLZ         0.0777
     96 H          32.5727  -21.5261    6.9062 H         1 MLZ         0.0777
     97 H          30.5654  -25.0026   -2.4951 H         1 ASP         0.1884
     98 H          32.0560  -26.1220   -3.8021 H         1 ASP         0.0819
     99 H          32.9522  -27.8173   -1.4469 H         1 ASP         0.0478
    100 H          33.2733  -26.0271   -1.4492 H         1 ASP         0.0478
    101 H          29.3961  -27.3639   -3.5935 H         1 ARG         0.1883
    102 H          30.0462  -30.2086   -3.8148 H         1 ARG         0.0800
    103 H          27.5633  -28.8762   -4.8927 H         1 ARG         0.0314
    104 H          27.7817  -29.3816   -3.1808 H         1 ARG         0.0314
    105 H          28.3491  -31.6805   -4.1120 H         1 ARG         0.0319
    106 H          27.6329  -31.0676   -5.6728 H         1 ARG         0.0319
    107 H          25.5180  -30.7663   -4.6282 H         1 ARG         0.0813
    108 H          26.1992  -31.1834   -3.0192 H         1 ARG         0.0813
    109 H          25.0308  -33.0034   -3.9990 H         1 ARG         0.1994
    110 H          26.0204  -32.9690   -5.3393 H         1 ARG         0.1994
    111 H          26.6523  -33.3559   -3.8467 H         1 ARG         0.1994
    112 H          30.1547  -31.4890   -5.7269 H         1 LYS         0.1875
    113 H          31.4604  -30.0551   -7.9086 H         1 LYS         0.0723
    114 O          29.8192  -30.0111   -9.7983 O.co2     1 LYS        -0.5666
    115 H          32.2882  -32.2691   -7.2419 H         1 LYS         0.0270
    116 H          30.7231  -33.0056   -7.6654 H         1 LYS         0.0270
    117 H          31.7543  -32.3111   -8.9402 H         1 LYS         0.0270
@<TRIPOS>BOND
     1    1    2 2  
     2    1    3 1  
     3    1    4 am 
     4    4    5 1  
     5    5    6 1  
     6    5    8 1  
     7    6    7 2  
     8    6   10 am 
     9    8    9 1  
    10   10   11 1  
    11   11   12 1  
    12   11   14 1  
    13   12   13 2  
    14   12   19 am 
    15   14   15 1  
    16   15   16 1  
    17   16   17 1  
    18   17   18 1  
    19   19   20 1  
    20   20   21 1  
    21   20   23 1  
    22   21   22 2  
    23   21   25 am 
    24   23   24 1  
    25   25   26 1  
    26   26   27 1  
    27   26   33 1  
    28   27   28 1  
    29   28   29 1  
    30   29   30 1  
    31   30   31 1  
    32   31   32 1  
    33   33   34 2  
    34   33   35 am 
    35   35   36 1  
    36   36   37 1  
    37   36   39 1  
    38   37   38 2  
    39   37   43 am 
    40   39   40 1  
    41   40   41 ar 
    42   40   42 ar 
    43   43   44 1  
    44   44   45 1  
    45   44   47 1  
    46   45   46 2  
    47   45   51 am 
    48   47   48 1  
    49   48   49 1  
    50   49   50 1  
    51   51   52 1  
    52   52   53 1  
    53   52   55 1  
    54   53   54 ar 
    55    3   56 1  
    56    3   57 1  
    57    3   58 1  
    58    4   59 1  
    59    5   60 1  
    60    8   61 1  
    61    8   62 1  
    62    9   63 1  
    63   10   64 1  
    64   11   65 1  
    65   14   66 1  
    66   14   67 1  
    67   15   68 1  
    68   15   69 1  
    69   16   70 1  
    70   16   71 1  
    71   17   72 1  
    72   17   73 1  
    73   18   74 1  
    74   18   75 1  
    75   18   76 1  
    76   19   77 1  
    77   20   78 1  
    78   23   79 1  
    79   23   80 1  
    80   24   81 1  
    81   25   82 1  
    82   26   83 1  
    83   27   84 1  
    84   27   85 1  
    85   28   86 1  
    86   28   87 1  
    87   29   88 1  
    88   29   89 1  
    89   30   90 1  
    90   30   91 1  
    91   31   92 1  
    92   31   93 1  
    93   32   94 1  
    94   32   95 1  
    95   32   96 1  
    96   35   97 1  
    97   36   98 1  
    98   39   99 1  
    99   39  100 1  
   100   43  101 1  
   101   44  102 1  
   102   47  103 1  
   103   47  104 1  
   104   48  105 1  
   105   48  106 1  
   106   49  107 1  
   107   49  108 1  
   108   50  109 1  
   109   50  110 1  
   110   50  111 1  
   111   51  112 1  
   112   52  113 1  
   113   53  114 ar 
   114   55  115 1  
   115   55  116 1  
   116   55  117 1  
@<TRIPOS>SUBSTRUCTURE
     1 ACE         1

