3m55_ligand
  -I-interpret- 

119118  0  0  0  0  0  0  0  0999 V2000
   21.1510  -27.4810   -4.3070 C   0  0  0  0  0
   20.1760  -27.4360   -3.5540 O   0  0  0  0  0
   21.0780  -27.0180   -5.7390 C   0  0  0  0  0
   22.3830  -27.6120   -3.8310 N   0  0  0  0  0
   22.6070  -28.1280   -2.4880 C   0  0  0  0  0
   22.9370  -27.0130   -1.5260 C   0  0  0  0  0
   23.5280  -25.9980   -1.8990 O   0  0  0  0  0
   23.7270  -29.1390   -2.5170 C   0  0  0  0  0
   23.5440  -30.0070   -3.6250 O   0  0  0  0  0
   22.5530  -27.1820   -0.2700 N   0  0  0  0  0
   22.7780  -26.1070    0.6690 C   0  0  0  0  0
   24.0900  -26.2740    1.4380 C   0  0  0  0  0
   24.1080  -26.2560    2.6670 O   0  0  0  0  0
   21.6070  -25.9630    1.6300 C   0  0  0  0  0
   20.2850  -25.7380    0.9160 C   0  0  0  0  0
   19.2060  -25.3260    1.8950 C   0  0  0  0  0
   17.8570  -25.2390    1.1840 C   0  0  0  0  0
   16.8200  -24.8190    2.1680 N   0  3  0  0  0
   25.1700  -26.4200    0.6780 N   0  0  0  0  0
   26.5170  -26.5970    1.2450 C   0  0  0  0  0
   27.5650  -26.0560    0.2750 C   0  0  0  0  0
   27.2990  -25.9030   -0.9250 O   0  0  0  0  0
   26.7880  -28.0660    1.5170 C   0  0  0  0  0
   26.6530  -28.8830    0.3690 O   0  0  0  0  0
   28.7620  -25.7890    0.7900 N   0  0  0  0  0
   29.8390  -25.2540   -0.0470 C   0  0  0  0  0
   30.9620  -24.7290    0.8450 C   0  0  0  0  0
   30.5510  -23.6030    1.7690 C   0  0  0  0  0
   31.5070  -23.5900    2.9580 C   0  0  0  0  0
   31.2390  -22.4180    3.8880 C   0  0  0  0  0
   32.2010  -22.3670    5.0010 N   0  3  0  0  0
   31.8000  -21.4970    6.1380 C   0  0  0  0  0
   30.4340  -26.3130   -0.9350 C   0  0  0  0  0
   30.4750  -27.4930   -0.5960 O   0  0  0  0  0
   30.8890  -25.8950   -2.1220 N   0  0  0  0  0
   31.8470  -26.6970   -2.9000 C   0  0  0  0  0
   31.3180  -28.0460   -3.3950 C   0  0  0  0  0
   32.0670  -29.0160   -3.4710 O   0  0  0  0  0
   33.1130  -26.9230   -2.0490 C   0  0  0  0  0
   34.3670  -27.1490   -2.8900 C   0  0  0  0  0
   34.6070  -26.3470   -3.8230 O   0  0  0  0  0
   35.1180  -28.1180   -2.6260 O   0  0  0  0  0
   30.0390  -28.1410   -3.7460 N   0  0  0  0  0
   29.5770  -29.3870   -4.3560 C   0  0  0  0  0
   30.0120  -29.4620   -5.8320 C   0  0  0  0  0
   30.1260  -28.4320   -6.5090 O   0  0  0  0  0
   28.0620  -29.5710   -4.2170 C   0  0  0  0  0
   27.6420  -30.9990   -4.5850 C   0  0  0  0  0
   26.2510  -31.3690   -4.0920 C   0  0  0  0  0
   25.9670  -32.7820   -4.3380 N   0  3  0  0  0
   30.2740  -30.6700   -6.3230 N   0  0  0  0  0
   30.7370  -30.8490   -7.7230 C   0  0  0  0  0
   29.6110  -30.6800   -8.7510 C   0  0  0  0  0
   28.4804  -31.2024   -8.5602 O   0  0  0  0  0
   31.4260  -32.2080   -7.9060 C   0  0  0  0  0
   29.8192  -30.0111   -9.7983 O   0  0  0  0  0
   20.3314  -27.6065   -6.2722 H   0  0  0  0  0
   20.7987  -25.9647   -5.7652 H   0  0  0  0  0
   22.0513  -27.1490   -6.2119 H   0  0  0  0  0
   23.1798  -27.3489   -4.4110 H   0  0  0  0  0
   21.6914  -28.6082   -2.1429 H   0  0  0  0  0
   23.7207  -29.7183   -1.5937 H   0  0  0  0  0
   24.6828  -28.6234   -2.6104 H   0  0  0  0  0
   24.2552  -30.6515   -3.6461 H   0  0  0  0  0
   22.1088  -28.0506    0.0276 H   0  0  0  0  0
   22.8597  -25.1909    0.0840 H   0  0  0  0  0
   21.7977  -25.0952    2.2615 H   0  0  0  0  0
   21.5260  -26.8890    2.1992 H   0  0  0  0  0
   19.9843  -26.6680    0.4336 H   0  0  0  0  0
   20.4140  -24.9432    0.1814 H   0  0  0  0  0
   19.4545  -24.3497    2.3110 H   0  0  0  0  0
   19.1434  -26.0678    2.6912 H   0  0  0  0  0
   17.5968  -26.2117    0.7665 H   0  0  0  0  0
   17.9132  -24.5115    0.3742 H   0  0  0  0  0
   15.9150  -24.7582    1.7014 H   0  0  0  0  0
   16.7701  -25.5050    2.9212 H   0  0  0  0  0
   17.0674  -23.9073    2.5526 H   0  0  0  0  0
   25.0618  -26.4090   -0.3362 H   0  0  0  0  0
   26.5731  -26.0466    2.1842 H   0  0  0  0  0
   26.0565  -28.4053    2.2503 H   0  0  0  0  0
   27.8181  -28.1521    1.8629 H   0  0  0  0  0
   26.8359  -29.7957    0.6039 H   0  0  0  0  0
   28.9325  -25.9590    1.7812 H   0  0  0  0  0
   29.4081  -24.4643   -0.6625 H   0  0  0  0  0
   31.7367  -24.3361    0.1865 H   0  0  0  0  0
   31.2848  -25.5581    1.4746 H   0  0  0  0  0
   29.5276  -23.7543    2.1123 H   0  0  0  0  0
   30.5954  -22.6501    1.2417 H   0  0  0  0  0
   32.5244  -23.4987    2.5776 H   0  0  0  0  0
   31.3648  -24.5125    3.5210 H   0  0  0  0  0
   30.2394  -22.5361    4.3063 H   0  0  0  0  0
   31.3341  -21.4972    3.3125 H   0  0  0  0  0
   33.0665  -21.9800    4.6249 H   0  0  0  0  0
   32.2772  -23.3155    5.3683 H   0  0  0  0  0
   31.6757  -20.4735    5.7844 H   0  0  0  0  0
   30.8586  -21.8559    6.5540 H   0  0  0  0  0
   32.5727  -21.5261    6.9062 H   0  0  0  0  0
   30.5654  -25.0026   -2.4951 H   0  0  0  0  0
   32.0560  -26.1220   -3.8021 H   0  0  0  0  0
   32.9522  -27.8173   -1.4469 H   0  0  0  0  0
   33.2733  -26.0271   -1.4492 H   0  0  0  0  0
   34.7589  -28.6061   -1.8815 H   0  0  0  0  0
   29.3961  -27.3639   -3.5935 H   0  0  0  0  0
   30.0462  -30.2086   -3.8148 H   0  0  0  0  0
   27.5633  -28.8762   -4.8927 H   0  0  0  0  0
   27.7817  -29.3816   -3.1808 H   0  0  0  0  0
   28.3491  -31.6805   -4.1120 H   0  0  0  0  0
   27.6329  -31.0676   -5.6728 H   0  0  0  0  0
   25.5180  -30.7663   -4.6282 H   0  0  0  0  0
   26.1992  -31.1834   -3.0192 H   0  0  0  0  0
   25.0308  -33.0034   -3.9990 H   0  0  0  0  0
   26.0204  -32.9690   -5.3393 H   0  0  0  0  0
   26.6523  -33.3559   -3.8467 H   0  0  0  0  0
   30.1547  -31.4890   -5.7269 H   0  0  0  0  0
   31.4604  -30.0551   -7.9086 H   0  0  0  0  0
   32.2882  -32.2691   -7.2419 H   0  0  0  0  0
   30.7231  -33.0056   -7.6654 H   0  0  0  0  0
   31.7543  -32.3111   -8.9402 H   0  0  0  0  0
   30.7215  -29.6833   -9.7932 H   0  0  0  0  0
  1  2  2  0  0  0
  1  3  1  0  0  0
  1  4  1  0  0  0
  4  5  1  0  0  0
  5  6  1  0  0  0
  5  8  1  0  0  0
  6  7  2  0  0  0
  6 10  1  0  0  0
  8  9  1  0  0  0
 10 11  1  0  0  0
 11 12  1  0  0  0
 11 14  1  0  0  0
 12 13  2  0  0  0
 12 19  1  0  0  0
 14 15  1  0  0  0
 15 16  1  0  0  0
 16 17  1  0  0  0
 17 18  1  0  0  0
 19 20  1  0  0  0
 20 21  1  0  0  0
 20 23  1  0  0  0
 21 22  2  0  0  0
 21 25  1  0  0  0
 23 24  1  0  0  0
 25 26  1  0  0  0
 26 27  1  0  0  0
 26 33  1  0  0  0
 27 28  1  0  0  0
 28 29  1  0  0  0
 29 30  1  0  0  0
 30 31  1  0  0  0
 31 32  1  0  0  0
 33 34  2  0  0  0
 33 35  1  0  0  0
 35 36  1  0  0  0
 36 37  1  0  0  0
 36 39  1  0  0  0
 37 38  2  0  0  0
 37 43  1  0  0  0
 39 40  1  0  0  0
 40 41  2  0  0  0
 40 42  1  0  0  0
 43 44  1  0  0  0
 44 45  1  0  0  0
 44 47  1  0  0  0
 45 46  2  0  0  0
 45 51  1  0  0  0
 47 48  1  0  0  0
 48 49  1  0  0  0
 49 50  1  0  0  0
 51 52  1  0  0  0
 52 53  1  0  0  0
 52 55  1  0  0  0
 53 54  2  0  0  0
 53 56  1  0  0  0
  3 57  1  0  0  0
  3 58  1  0  0  0
  3 59  1  0  0  0
  4 60  1  0  0  0
  5 61  1  0  0  0
  8 62  1  0  0  0
  8 63  1  0  0  0
  9 64  1  0  0  0
 10 65  1  0  0  0
 11 66  1  0  0  0
 14 67  1  0  0  0
 14 68  1  0  0  0
 15 69  1  0  0  0
 15 70  1  0  0  0
 16 71  1  0  0  0
 16 72  1  0  0  0
 17 73  1  0  0  0
 17 74  1  0  0  0
 18 75  1  0  0  0
 18 76  1  0  0  0
 18 77  1  0  0  0
 19 78  1  0  0  0
 20 79  1  0  0  0
 23 80  1  0  0  0
 23 81  1  0  0  0
 24 82  1  0  0  0
 25 83  1  0  0  0
 26 84  1  0  0  0
 27 85  1  0  0  0
 27 86  1  0  0  0
 28 87  1  0  0  0
 28 88  1  0  0  0
 29 89  1  0  0  0
 29 90  1  0  0  0
 30 91  1  0  0  0
 30 92  1  0  0  0
 31 93  1  0  0  0
 31 94  1  0  0  0
 32 95  1  0  0  0
 32 96  1  0  0  0
 32 97  1  0  0  0
 35 98  1  0  0  0
 36 99  1  0  0  0
 39100  1  0  0  0
 39101  1  0  0  0
 42102  1  0  0  0
 43103  1  0  0  0
 44104  1  0  0  0
 47105  1  0  0  0
 47106  1  0  0  0
 48107  1  0  0  0
 48108  1  0  0  0
 49109  1  0  0  0
 49110  1  0  0  0
 50111  1  0  0  0
 50112  1  0  0  0
 50113  1  0  0  0
 51114  1  0  0  0
 52115  1  0  0  0
 55116  1  0  0  0
 55117  1  0  0  0
 55118  1  0  0  0
 56119  1  0  0  0
M  END
$$$$
