2qci_ligand
  -I-interpret- 

 76 80  0  0  0  0  0  0  0  0999 V2000
   20.8400   27.7190   14.8590 C   0  0  0  0  0
   21.6910   28.7780   14.7140 O   0  0  0  0  0
   22.8830   28.3380   15.2960 C   0  0  0  0  0
   22.7950   27.0160   15.6590 O   0  0  0  0  0
   21.4950   26.6740   15.5020 C   0  0  0  0  0
   20.8310   25.4920   15.8160 C   0  0  0  0  0
   19.4920   25.4100   15.5140 C   0  0  0  0  0
   18.8300   26.4640   14.9140 C   0  0  0  0  0
   19.4910   27.6260   14.5510 C   0  0  0  0  0
   18.5740   23.9820   15.9900 S   0  0  0  0  0
   17.4610   23.8250   15.0450 O   0  0  0  0  0
   19.5680   22.8740   16.1660 O   0  0  0  0  0
   17.9300   24.2880   17.4810 N   0  0  0  0  0
   18.8760   24.6140   18.5330 C   0  0  0  0  0
   18.5550   23.9310   19.8740 C   0  0  0  0  0
   18.6020   22.4090   19.7060 C   0  0  0  0  0
   19.5810   24.3970   20.9050 C   0  0  0  0  0
   16.6630   24.9780   17.5220 C   0  0  0  0  0
   15.5430   24.0880   18.0700 C   0  0  0  0  0
   14.3940   24.9240   18.3420 O   0  0  0  0  0
   15.1500   22.9820   17.0800 C   0  0  0  0  0
   14.2320   22.0960   17.8230 N   0  0  0  0  0
   14.5290   20.8540   18.1790 C   0  0  0  0  0
   15.6110   20.2990   17.9270 O   0  0  0  0  0
   13.5420   20.2390   18.8530 O   0  0  0  0  0
   13.7100   18.8430   19.0980 C   0  0  0  0  0
   13.0490   18.5810   20.4530 C   0  0  0  0  0
   11.6250   18.6180   20.2230 O   0  0  0  0  0
   11.4250   18.0190   18.9200 C   0  0  0  0  0
   10.4990   18.8570   18.2260 O   0  0  0  0  0
   11.1900   19.5520   17.1940 C   0  0  0  0  0
   12.4200   18.7000   16.8530 C   0  0  0  0  0
   12.7440   18.0470   18.1970 C   0  0  0  0  0
   14.4090   23.5000   15.8530 C   0  0  0  0  0
   12.6770   21.9440   14.7860 C   0  0  0  0  0
   12.3100   20.8880   13.9760 C   0  0  0  0  0
   13.2880   20.1540   13.3220 C   0  0  0  0  0
   14.6070   20.5540   13.4630 C   0  0  0  0  0
   14.9840   21.6270   14.2710 C   0  0  0  0  0
   14.0140   22.3400   14.9510 C   0  0  0  0  0
   23.0772   28.9334   16.1881 H   0  0  0  0  0
   23.6883   28.4484   14.5698 H   0  0  0  0  0
   21.3547   24.6593   16.2855 H   0  0  0  0  0
   17.7605   26.3790   14.7214 H   0  0  0  0  0
   18.9702   28.4371   14.0422 H   0  0  0  0  0
   18.8318   25.6912   18.6933 H   0  0  0  0  0
   19.8578   24.2653   18.2126 H   0  0  0  0  0
   17.5537   24.1998   20.2105 H   0  0  0  0  0
   17.8673   22.1041   18.9608 H   0  0  0  0  0
   19.5983   22.1115   19.3788 H   0  0  0  0  0
   18.3738   21.9323   20.6593 H   0  0  0  0  0
   20.5809   24.1186   20.5722 H   0  0  0  0  0
   19.5207   25.4801   21.0118 H   0  0  0  0  0
   19.3710   23.9238   21.8642 H   0  0  0  0  0
   16.4003   25.2695   16.5051 H   0  0  0  0  0
   16.7657   25.8409   18.1800 H   0  0  0  0  0
   15.8984   23.5995   18.9773 H   0  0  0  0  0
   13.6802   24.3826   18.6870 H   0  0  0  0  0
   16.0541   22.4938   16.7161 H   0  0  0  0  0
   13.3144   22.4613   18.0776 H   0  0  0  0  0
   14.7621   18.5829   18.9820 H   0  0  0  0  0
   13.3473   19.3305   21.1861 H   0  0  0  0  0
   13.3556   17.6169   20.8588 H   0  0  0  0  0
   11.0565   16.9954   18.9868 H   0  0  0  0  0
   11.4818   20.5504   17.5199 H   0  0  0  0  0
   10.5538   19.6911   16.3199 H   0  0  0  0  0
   13.2473   19.2826   16.4478 H   0  0  0  0  0
   12.2353   17.9777   16.0578 H   0  0  0  0  0
   13.2238   17.0874   18.0042 H   0  0  0  0  0
   15.0615   24.1761   15.3005 H   0  0  0  0  0
   13.5095   24.0253   16.1741 H   0  0  0  0  0
   11.8989   22.4914   15.3179 H   0  0  0  0  0
   11.2577   20.6327   13.8513 H   0  0  0  0  0
   13.0266   19.2875   12.7146 H   0  0  0  0  0
   15.3803   20.0091   12.9215 H   0  0  0  0  0
   16.0348   21.9010   14.3654 H   0  0  0  0  0
  1  2  1  0  0  0
  5  1  4  0  0  0
  9  1  4  0  0  0
  2  3  1  0  0  0
  4  3  1  0  0  0
  5  4  1  0  0  0
  6  5  4  0  0  0
  7  6  4  0  0  0
  7  8  4  0  0  0
 10  7  1  0  0  0
  8  9  4  0  0  0
 10 11  2  0  0  0
 10 12  2  0  0  0
 13 10  1  0  0  0
 13 14  1  0  0  0
 18 13  1  0  0  0
 14 15  1  0  0  0
 15 16  1  0  0  0
 15 17  1  0  0  0
 19 18  1  0  0  0
 19 20  1  0  0  0
 21 19  1  0  0  0
 21 22  1  0  0  0
 34 21  1  0  0  0
 22 23  1  0  0  0
 23 24  2  0  0  0
 23 25  1  0  0  0
 25 26  1  0  0  0
 26 27  1  0  0  0
 26 33  1  0  0  0
 27 28  1  0  0  0
 29 28  1  0  0  0
 29 30  1  0  0  0
 33 29  1  0  0  0
 31 30  1  0  0  0
 32 31  1  0  0  0
 33 32  1  0  0  0
 40 34  1  0  0  0
 35 36  4  0  0  0
 35 40  4  0  0  0
 36 37  4  0  0  0
 37 38  4  0  0  0
 38 39  4  0  0  0
 39 40  4  0  0  0
  3 41  1  0  0  0
  3 42  1  0  0  0
  6 43  1  0  0  0
  8 44  1  0  0  0
  9 45  1  0  0  0
 14 46  1  0  0  0
 14 47  1  0  0  0
 15 48  1  0  0  0
 16 49  1  0  0  0
 16 50  1  0  0  0
 16 51  1  0  0  0
 17 52  1  0  0  0
 17 53  1  0  0  0
 17 54  1  0  0  0
 18 55  1  0  0  0
 18 56  1  0  0  0
 19 57  1  0  0  0
 20 58  1  0  0  0
 21 59  1  0  0  0
 22 60  1  0  0  0
 26 61  1  0  0  0
 27 62  1  0  0  0
 27 63  1  0  0  0
 29 64  1  0  0  0
 31 65  1  0  0  0
 31 66  1  0  0  0
 32 67  1  0  0  0
 32 68  1  0  0  0
 33 69  1  0  0  0
 34 70  1  0  0  0
 34 71  1  0  0  0
 35 72  1  0  0  0
 36 73  1  0  0  0
 37 74  1  0  0  0
 38 75  1  0  0  0
 39 76  1  0  0  0
M  END
$$$$
