### 
### Created by X-TOOL on Mon Sep 10 21:13:19 2018
### 

@<TRIPOS>MOLECULE
4umn_ligand
  222   227     1     0     0
SMALL
GAST_HUCK


@<TRIPOS>ATOM
      1 C           5.5860   14.5960  138.6050 C.2       1 ACE         0.1752
      2 O           4.4740   15.1090  138.5880 O.2       1 ACE        -0.3972
      3 CH3         5.9330   13.4950  139.5700 C.3       1 ACE         0.0258
      4 N           6.5530   14.9830  137.7730 N.am      1 THR        -0.2635
      5 CA          6.3500   16.0410  136.7920 C.3       1 THR         0.1564
      6 C           5.4230   15.6390  135.6740 C.2       1 THR         0.2065
      7 O           5.6010   14.5570  135.1400 O.2       1 THR        -0.3943
      8 CB          7.7120   16.4220  136.2270 C.3       1 THR         0.0924
      9 OG1         8.5790   16.7970  137.2970 O.3       1 THR        -0.3874
     10 CG2         7.6200   17.5700  135.2300 C.3       1 THR        -0.0346
     11 N           4.5050   16.4470  135.3300 N.am      1 SER        -0.2615
     12 CA          3.5630   16.1260  134.2590 C.3       1 SER         0.1539
     13 C           4.2130   16.1490  132.8710 C.2       1 SER         0.2063
     14 O           5.2190   16.8390  132.6560 O.2       1 SER        -0.3943
     15 CB          2.4330   17.1640  134.3280 C.3       1 SER         0.0843
     16 OG          2.8800   18.4790  134.0450 O.3       1 SER        -0.3903
     17 N           3.6280   15.4010  131.9380 N.am      1 PHE        -0.2619
     18 CA          4.0250   15.4880  130.5340 C.3       1 PHE         0.1402
     19 C           3.8910   16.9270  130.0400 C.2       1 PHE         0.2030
     20 O           4.8120   17.4190  129.3840 O.2       1 PHE        -0.3945
     21 CB          3.1950   14.5680  129.6280 C.3       1 PHE         0.0214
     22 CG          3.3680   14.8660  128.1590 C.ar      1 PHE        -0.0386
     23 CD1         4.5440   14.5310  127.5070 C.ar      1 PHE        -0.0601
     24 CD2         2.3770   15.5230  127.4450 C.ar      1 PHE        -0.0601
     25 CE1         4.7180   14.8220  126.1650 C.ar      1 PHE        -0.0686
     26 CE2         2.5430   15.8180  126.1010 C.ar      1 PHE        -0.0686
     27 CZ          3.7160   15.4700  125.4610 C.ar      1 PHE        -0.0687
     28 OAD         4.3790   20.6530  129.7240 O.2       1 0EH        -0.3419
     29 CAE         3.7860   19.9190  130.5640 C.2       1 0EH         0.2263
     30 CAF         2.5670   19.1480  130.0840 C.3       1 0EH         0.1302
     31 CAA         1.3530   19.5790  130.9170 C.3       1 0EH        -0.0320
     32 CAB         2.4150   19.4590  128.5950 C.3       1 0EH        -0.0201
     33 NAC         2.8260   17.7260  130.2880 N.am      1 0EH        -0.2741
     34 CAO         1.1530   19.0400  127.8400 C.3       1 0EH        -0.0516
     35 CAP         1.1890   19.5860  126.3980 C.3       1 0EH        -0.0530
     36 CAQ         2.0550   20.8480  126.3110 C.3       1 0EH        -0.0515
     37 CAR         1.8940   21.6860  125.0670 C.3       1 0EH        -0.0464
     38 CAS         2.2650   23.1280  125.4010 C.3       1 0EH        -0.0365
     39 CAT         3.7540   23.4310  125.3080 C.2       1 0EH        -0.0987
     40 N           4.4140   19.7930  131.7520 N.am      1 GLU        -0.2628
     41 CA          5.6160   20.5430  132.2020 C.3       1 GLU         0.1326
     42 C           6.8630   20.1630  131.4090 C.2       1 GLU         0.2043
     43 O           7.6190   21.0410  131.0000 O.2       1 GLU        -0.3944
     44 CB          5.8490   20.3510  133.7000 C.3       1 GLU        -0.0007
     45 CG          7.0270   21.1540  134.2250 C.3       1 GLU         0.0044
     46 CD          7.0200   21.3370  135.7310 C.2       1 GLU         0.0350
     47 OE1         6.1490   20.7710  136.4250 O.co2     1 GLU        -0.5690
     48 OE2         7.9050   22.0600  136.2180 O.co2     1 GLU        -0.5690
     49 N           7.0840   18.8680  131.1950 N.am      1 TYR        -0.2621
     50 CA          8.2280   18.4220  130.4060 C.3       1 TYR         0.1390
     51 C           8.2100   19.0450  129.0060 C.2       1 TYR         0.2058
     52 O           9.2240   19.5670  128.5430 O.2       1 TYR        -0.3942
     53 CB          8.2610   16.8990  130.2800 C.3       1 TYR         0.0163
     54 CG          8.7810   16.1680  131.4970 C.ar      1 TYR        -0.0493
     55 CD1        10.0710   16.3940  131.9740 C.ar      1 TYR        -0.0685
     56 CD2         7.9960   15.2210  132.1500 C.ar      1 TYR        -0.0685
     57 CE1        10.5570   15.7100  133.0790 C.ar      1 TYR        -0.0398
     58 CE2         8.4740   14.5300  133.2530 C.ar      1 TYR        -0.0398
     59 CZ          9.7510   14.7770  133.7130 C.ar      1 TYR         0.0805
     60 OH         10.2160   14.0980  134.8110 O.3       1 TYR        -0.3376
     61 N           7.0580   18.9900  128.3450 N.am      1 TRP        -0.2625
     62 CA          6.9310   19.5530  127.0020 C.3       1 TRP         0.1352
     63 C           7.0640   21.0720  127.0400 C.2       1 TRP         0.2053
     64 O           7.6860   21.6600  126.1610 O.2       1 TRP        -0.3942
     65 CB          5.6120   19.1520  126.3470 C.3       1 TRP         0.0042
     66 CG          5.6500   19.2730  124.8570 C.2       1 TRP        -0.0418
     67 CD1         5.2030   20.3220  124.1040 C.2       1 TRP         0.0167
     68 CD2         6.1780   18.3140  123.9330 C.ar      1 TRP        -0.0214
     69 NE1         5.4110   20.0710  122.7690 N.pl3     1 TRP        -0.2890
     70 CE2         6.0120   18.8480  122.6360 C.ar      1 TRP         0.0603
     71 CE3         6.7760   17.0580  124.0740 C.ar      1 TRP        -0.0747
     72 CZ2         6.4180   18.1670  121.4910 C.ar      1 TRP        -0.0443
     73 CZ3         7.1830   16.3820  122.9340 C.ar      1 TRP        -0.0792
     74 CH2         6.9990   16.9370  121.6580 C.ar      1 TRP        -0.0768
     75 N           6.4810   21.6890  128.0680 N.am      1 TYR        -0.2620
     76 CA          6.6310   23.1200  128.3340 C.3       1 TYR         0.1390
     77 C           8.1060   23.5200  128.4520 C.2       1 TYR         0.2057
     78 O           8.5230   24.5480  127.9100 O.2       1 TYR        -0.3942
     79 CB          5.8630   23.4750  129.6140 C.3       1 TYR         0.0163
     80 CG          5.9950   24.8950  130.1140 C.ar      1 TYR        -0.0493
     81 CD1         7.0010   25.2490  131.0090 C.ar      1 TYR        -0.0685
     82 CD2         5.0800   25.8760  129.7350 C.ar      1 TYR        -0.0685
     83 CE1         7.1110   26.5430  131.4860 C.ar      1 TYR        -0.0398
     84 CE2         5.1840   27.1720  130.2070 C.ar      1 TYR        -0.0398
     85 CZ          6.1990   27.4970  131.0850 C.ar      1 TYR         0.0805
     86 OH          6.3020   28.7780  131.5550 O.3       1 TYR        -0.3376
     87 N           8.8930   22.7070  129.1530 N.am      1 LEU        -0.2636
     88 CA         10.3210   22.9740  129.3060 C.3       1 LEU         0.1312
     89 C          11.0590   22.7430  127.9890 C.2       1 LEU         0.2039
     90 O          12.0200   23.4480  127.6760 O.2       1 LEU        -0.3944
     91 CB         10.9190   22.1300  130.4390 C.3       1 LEU        -0.0101
     92 CG         10.4750   22.5530  131.8450 C.3       1 LEU        -0.0425
     93 CD1        10.8110   21.4830  132.8760 C.3       1 LEU        -0.0625
     94 CD2        11.0870   23.8930  132.2370 C.3       1 LEU        -0.0625
     95 N          10.5980   21.7670  127.2120 N.am      1 LEU        -0.2637
     96 CA         11.0830   21.5790  125.8460 C.3       1 LEU         0.1309
     97 C          10.7670   22.7990  124.9620 C.2       1 LEU         0.2010
     98 O          11.6710   23.2780  124.2540 O.2       1 LEU        -0.3947
     99 CB         10.4890   20.3090  125.2320 C.3       1 LEU        -0.0101
    100 CG         10.7660   20.0670  123.7460 C.3       1 LEU        -0.0425
    101 CD1        12.1990   19.6110  123.5400 C.3       1 LEU        -0.0625
    102 CD2         9.7830   19.0540  123.1900 C.3       1 LEU        -0.0625
    103 C          10.2030   25.7700  124.4400 C.2       1 MK8         0.2216
    104 N           9.6530   23.4330  124.8460 N.am      1 MK8        -0.2743
    105 O          10.5680   26.5300  123.5190 O.2       1 MK8        -0.3423
    106 CA          9.2400   24.6450  124.1340 C.3       1 MK8         0.1300
    107 CB          7.8880   25.1540  124.6150 C.3       1 MK8        -0.0186
    108 CD          5.4820   25.0470  124.2350 C.3       1 MK8        -0.0365
    109 CE          4.1230   24.4600  124.5390 C.2       1 MK8        -0.0987
    110 CG          6.7050   24.1920  124.5350 C.3       1 MK8        -0.0449
    111 CB1         9.2280   24.3600  122.6360 C.3       1 MK8        -0.0320
    112 N          10.6600   25.9530  125.7730 N.am      1 NME        -0.2980
    113 H           6.9763   13.1843  139.4120 H         1 ACE         0.0467
    114 H           5.2655   12.6368  139.4027 H         1 ACE         0.0467
    115 H           5.8110   13.8589  140.6008 H         1 ACE         0.0467
    116 H           7.4448   14.5335  137.8237 H         1 THR         0.1883
    117 H           5.9138   16.9125  137.3021 H         1 THR         0.0826
    118 H           8.1338   15.5459  135.7127 H         1 THR         0.0639
    119 H           8.6759   16.0658  137.8957 H         1 THR         0.2101
    120 H           8.6249   17.8080  134.8512 H         1 THR         0.0257
    121 H           7.1967   18.4549  135.7277 H         1 THR         0.0257
    122 H           6.9720   17.2761  134.3911 H         1 THR         0.0257
    123 H           4.4247   17.3242  135.8034 H         1 SER         0.1884
    124 H           3.1511   15.1211  134.4334 H         1 SER         0.0823
    125 H           2.0026   17.1489  135.3402 H         1 SER         0.0606
    126 H           1.6587   16.8905  133.5961 H         1 SER         0.0606
    127 H           3.5445   18.7291  134.6761 H         1 SER         0.2097
    128 H           2.9020   14.7665  132.2032 H         1 PHE         0.1885
    129 H           5.0797   15.1850  130.4587 H         1 PHE         0.0823
    130 H           2.1326   14.6889  129.8863 H         1 PHE         0.0474
    131 H           3.5011   13.5276  129.8119 H         1 PHE         0.0474
    132 H           5.3373   14.0351  128.0546 H         1 PHE         0.0557
    133 H           1.4592   15.8100  127.9454 H         1 PHE         0.0557
    134 H           5.6383   14.5429  125.6648 H         1 PHE         0.0599
    135 H           1.7539   16.3207  125.5536 H         1 PHE         0.0599
    136 H           3.8524   15.7030  124.4112 H         1 PHE         0.0559
    137 H           0.4627   19.0280  130.5797 H         1 0EH         0.0242
    138 H           1.1859   20.6588  130.7901 H         1 0EH         0.0242
    139 H           1.5399   19.3592  131.9785 H         1 0EH         0.0242
    140 H           3.2622   18.9778  128.0843 H         1 0EH         0.0277
    141 H           2.4965   20.5510  128.4911 H         1 0EH         0.0277
    142 H           2.0543   17.2391  130.6972 H         1 0EH         0.1839
    143 H           0.2695   19.4409  128.3583 H         1 0EH         0.0265
    144 H           1.0944   17.9419  127.8113 H         1 0EH         0.0265
    145 H           0.1647   19.8298  126.0798 H         1 0EH         0.0265
    146 H           1.6065   18.8165  125.7321 H         1 0EH         0.0265
    147 H           3.1082   20.5363  126.3708 H         1 0EH         0.0267
    148 H           1.8106   21.4822  127.1759 H         1 0EH         0.0267
    149 H           0.8502   21.6420  124.7229 H         1 0EH         0.0285
    150 H           2.5572   21.3064  124.2758 H         1 0EH         0.0285
    151 H           1.9343   23.3393  126.4286 H         1 0EH         0.0388
    152 H           1.7346   23.7908  124.7015 H         1 0EH         0.0388
    153 H           4.4885   22.8337  125.8461 H         1 0EH         0.0450
    154 H           4.0323   19.1282  132.3941 H         1 GLU         0.1889
    155 H           5.4242   21.6117  132.0260 H         1 GLU         0.0803
    156 H           6.0386   19.2845  133.8915 H         1 GLU         0.0330
    157 H           4.9428   20.6649  134.2388 H         1 GLU         0.0330
    158 H           7.0064   22.1482  133.7547 H         1 GLU         0.0433
    159 H           7.9545   20.6341  133.9431 H         1 GLU         0.0433
    160 H           6.4571   18.1909  131.5804 H         1 TYR         0.1885
    161 H           9.1441   18.7476  130.9205 H         1 TYR         0.0821
    162 H           8.9049   16.6411  129.4262 H         1 TYR         0.0453
    163 H           7.2361   16.5505  130.0848 H         1 TYR         0.0453
    164 H          10.7053   17.1164  131.4732 H         1 TYR         0.0530
    165 H           6.9935   15.0205  131.7896 H         1 TYR         0.0530
    166 H          11.5592   15.9036  133.4438 H         1 TYR         0.0525
    167 H           7.8474   13.7993  133.7514 H         1 TYR         0.0525
    168 H          10.2071   13.1651  134.6322 H         1 TYR         0.2458
    169 H           6.2653   18.5564  128.7735 H         1 TRP         0.1884
    170 H           7.7509   19.1521  126.3879 H         1 TRP         0.0815
    171 H           4.8144   19.8037  126.7332 H         1 TRP         0.0397
    172 H           5.3913   18.1070  126.6101 H         1 TRP         0.0397
    173 H           4.7475   21.2266  124.5042 H         1 TRP         0.0795
    174 H           5.1562   20.7004  121.9945 H         1 TRP         0.2216
    175 H           6.9187   16.6212  125.0558 H         1 TRP         0.0540
    176 H           6.2796   18.5940  120.5043 H         1 TRP         0.0541
    177 H           7.6510   15.4089  123.0297 H         1 TRP         0.0510
    178 H           7.3234   16.3808  120.7859 H         1 TRP         0.0530
    179 H           5.9133   21.1472  128.6878 H         1 TYR         0.1885
    180 H           6.1913   23.6786  127.4946 H         1 TYR         0.0821
    181 H           6.2184   22.8065  130.4120 H         1 TYR         0.0453
    182 H           4.7959   23.2861  129.4255 H         1 TYR         0.0453
    183 H           7.7102   24.4979  131.3377 H         1 TYR         0.0530
    184 H           4.2729   25.6187  129.0586 H         1 TYR         0.0530
    185 H           7.9092   26.8056  132.1708 H         1 TYR         0.0525
    186 H           4.4738   27.9271  129.8899 H         1 TYR         0.0525
    187 H           7.0450   28.8393  132.1438 H         1 TYR         0.2458
    188 H           8.4981   21.8958  129.5843 H         1 LEU         0.1883
    189 H          10.4400   24.0333  129.5774 H         1 LEU         0.0800
    190 H          12.0148   22.2092  130.3857 H         1 LEU         0.0315
    191 H          10.6190   21.0832  130.2837 H         1 LEU         0.0315
    192 H           9.3818   22.6738  131.8291 H         1 LEU         0.0298
    193 H          10.4807   21.8160  133.8710 H         1 LEU         0.0232
    194 H          11.8978   21.3139  132.8881 H         1 LEU         0.0232
    195 H          10.2971   20.5466  132.6135 H         1 LEU         0.0232
    196 H          10.8315   24.6484  131.4793 H         1 LEU         0.0232
    197 H          12.1805   23.7923  132.3001 H         1 LEU         0.0232
    198 H          10.6905   24.2053  133.2144 H         1 LEU         0.0232
    199 H           9.9017   21.1458  127.5715 H         1 LEU         0.1883
    200 H          12.1760   21.4621  125.8870 H         1 LEU         0.0800
    201 H           9.3979   20.3541  125.3642 H         1 LEU         0.0315
    202 H          10.8908   19.4502  125.7897 H         1 LEU         0.0315
    203 H          10.6260   21.0157  123.2071 H         1 LEU         0.0298
    204 H          12.3796   19.4423  122.4681 H         1 LEU         0.0232
    205 H          12.3689   18.6750  124.0922 H         1 LEU         0.0232
    206 H          12.8870   20.3853  123.9103 H         1 LEU         0.0232
    207 H           8.7558   19.4117  123.3539 H         1 LEU         0.0232
    208 H           9.9214   18.0899  123.7012 H         1 LEU         0.0232
    209 H           9.9589   18.9259  122.1118 H         1 LEU         0.0232
    210 H           8.9053   23.0043  125.3531 H         1 MK8         0.1839
    211 H           7.6351   26.0385  124.0120 H         1 MK8         0.0279
    212 H           8.0025   25.4489  125.6685 H         1 MK8         0.0279
    213 H           5.5778   25.9739  124.8195 H         1 MK8         0.0388
    214 H           5.5039   25.2864  123.1616 H         1 MK8         0.0388
    215 H           3.2963   24.9661  124.0426 H         1 MK8         0.0450
    216 H           6.5765   23.6652  125.4920 H         1 MK8         0.0284
    217 H           6.8638   23.4583  123.7310 H         1 MK8         0.0284
    218 H           8.9188   25.2653  122.0930 H         1 MK8         0.0242
    219 H           8.5202   23.5453  122.4234 H         1 MK8         0.0242
    220 H          10.2363   24.0640  122.3110 H         1 MK8         0.0242
    221 H          10.3552   25.3327  126.4957 H         1 NME         0.1821
    222 H          11.2864   26.7021  125.9884 H         1 NME         0.1821
@<TRIPOS>BOND
     1    1    2 2  
     2    1    3 1  
     3    4    1 am 
     4    5    4 1  
     5    6    5 1  
     6    5    8 1  
     7    6    7 2  
     8   11    6 am 
     9    8    9 1  
    10    8   10 1  
    11   12   11 1  
    12   13   12 1  
    13   12   15 1  
    14   13   14 2  
    15   17   13 am 
    16   15   16 1  
    17   18   17 1  
    18   19   18 1  
    19   18   21 1  
    20   19   20 2  
    21   33   19 am 
    22   21   22 1  
    23   22   23 ar 
    24   22   24 ar 
    25   23   25 ar 
    26   24   26 ar 
    27   25   27 ar 
    28   26   27 ar 
    29   29   28 2  
    30   29   30 1  
    31   40   29 am 
    32   30   31 1  
    33   30   32 1  
    34   30   33 1  
    35   32   34 1  
    36   34   35 1  
    37   35   36 1  
    38   36   37 1  
    39   37   38 1  
    40   38   39 1  
    41   39  109 2  
    42   41   40 1  
    43   42   41 1  
    44   41   44 1  
    45   42   43 2  
    46   49   42 am 
    47   44   45 1  
    48   45   46 1  
    49   46   47 ar 
    50   46   48 ar 
    51   50   49 1  
    52   51   50 1  
    53   50   53 1  
    54   51   52 2  
    55   61   51 am 
    56   53   54 1  
    57   54   55 ar 
    58   54   56 ar 
    59   55   57 ar 
    60   56   58 ar 
    61   57   59 ar 
    62   58   59 ar 
    63   59   60 1  
    64   62   61 1  
    65   63   62 1  
    66   62   65 1  
    67   63   64 2  
    68   75   63 am 
    69   65   66 1  
    70   66   67 2  
    71   66   68 1  
    72   67   69 1  
    73   68   70 ar 
    74   68   71 ar 
    75   70   69 1  
    76   70   72 ar 
    77   71   73 ar 
    78   72   74 ar 
    79   73   74 ar 
    80   76   75 1  
    81   77   76 1  
    82   76   79 1  
    83   77   78 2  
    84   87   77 am 
    85   79   80 1  
    86   80   81 ar 
    87   80   82 ar 
    88   81   83 ar 
    89   82   84 ar 
    90   83   85 ar 
    91   84   85 ar 
    92   85   86 1  
    93   88   87 1  
    94   89   88 1  
    95   88   91 1  
    96   89   90 2  
    97   95   89 am 
    98   91   92 1  
    99   92   93 1  
   100   92   94 1  
   101   96   95 1  
   102   97   96 1  
   103   96   99 1  
   104   97   98 2  
   105  104   97 am 
   106   99  100 1  
   107  100  101 1  
   108  100  102 1  
   109  103  105 2  
   110  106  103 1  
   111  103  112 am 
   112  104  106 1  
   113  106  107 1  
   114  106  111 1  
   115  107  110 1  
   116  109  108 1  
   117  108  110 1  
   118    3  113 1  
   119    3  114 1  
   120    3  115 1  
   121    4  116 1  
   122    5  117 1  
   123    8  118 1  
   124    9  119 1  
   125   10  120 1  
   126   10  121 1  
   127   10  122 1  
   128   11  123 1  
   129   12  124 1  
   130   15  125 1  
   131   15  126 1  
   132   16  127 1  
   133   17  128 1  
   134   18  129 1  
   135   21  130 1  
   136   21  131 1  
   137   23  132 1  
   138   24  133 1  
   139   25  134 1  
   140   26  135 1  
   141   27  136 1  
   142   31  137 1  
   143   31  138 1  
   144   31  139 1  
   145   32  140 1  
   146   32  141 1  
   147   33  142 1  
   148   34  143 1  
   149   34  144 1  
   150   35  145 1  
   151   35  146 1  
   152   36  147 1  
   153   36  148 1  
   154   37  149 1  
   155   37  150 1  
   156   38  151 1  
   157   38  152 1  
   158   39  153 1  
   159   40  154 1  
   160   41  155 1  
   161   44  156 1  
   162   44  157 1  
   163   45  158 1  
   164   45  159 1  
   165   49  160 1  
   166   50  161 1  
   167   53  162 1  
   168   53  163 1  
   169   55  164 1  
   170   56  165 1  
   171   57  166 1  
   172   58  167 1  
   173   60  168 1  
   174   61  169 1  
   175   62  170 1  
   176   65  171 1  
   177   65  172 1  
   178   67  173 1  
   179   69  174 1  
   180   71  175 1  
   181   72  176 1  
   182   73  177 1  
   183   74  178 1  
   184   75  179 1  
   185   76  180 1  
   186   79  181 1  
   187   79  182 1  
   188   81  183 1  
   189   82  184 1  
   190   83  185 1  
   191   84  186 1  
   192   86  187 1  
   193   87  188 1  
   194   88  189 1  
   195   91  190 1  
   196   91  191 1  
   197   92  192 1  
   198   93  193 1  
   199   93  194 1  
   200   93  195 1  
   201   94  196 1  
   202   94  197 1  
   203   94  198 1  
   204   95  199 1  
   205   96  200 1  
   206   99  201 1  
   207   99  202 1  
   208  100  203 1  
   209  101  204 1  
   210  101  205 1  
   211  101  206 1  
   212  102  207 1  
   213  102  208 1  
   214  102  209 1  
   215  104  210 1  
   216  107  211 1  
   217  107  212 1  
   218  108  213 1  
   219  108  214 1  
   220  109  215 1  
   221  110  216 1  
   222  110  217 1  
   223  111  218 1  
   224  111  219 1  
   225  111  220 1  
   226  112  221 1  
   227  112  222 1  
@<TRIPOS>SUBSTRUCTURE
     1 ACE         1

