4umn_ligand
  -I-interpret- 

222227  0  0  0  0  0  0  0  0999 V2000
    5.5860   14.5960  138.6050 C   0  0  0  0  0
    4.4740   15.1090  138.5880 O   0  0  0  0  0
    5.9330   13.4950  139.5700 C   0  0  0  0  0
    6.5530   14.9830  137.7730 N   0  0  0  0  0
    6.3500   16.0410  136.7920 C   0  0  0  0  0
    5.4230   15.6390  135.6740 C   0  0  0  0  0
    5.6010   14.5570  135.1400 O   0  0  0  0  0
    7.7120   16.4220  136.2270 C   0  0  0  0  0
    8.5790   16.7970  137.2970 O   0  0  0  0  0
    7.6200   17.5700  135.2300 C   0  0  0  0  0
    4.5050   16.4470  135.3300 N   0  0  0  0  0
    3.5630   16.1260  134.2590 C   0  0  0  0  0
    4.2130   16.1490  132.8710 C   0  0  0  0  0
    5.2190   16.8390  132.6560 O   0  0  0  0  0
    2.4330   17.1640  134.3280 C   0  0  0  0  0
    2.8800   18.4790  134.0450 O   0  0  0  0  0
    3.6280   15.4010  131.9380 N   0  0  0  0  0
    4.0250   15.4880  130.5340 C   0  0  0  0  0
    3.8910   16.9270  130.0400 C   0  0  0  0  0
    4.8120   17.4190  129.3840 O   0  0  0  0  0
    3.1950   14.5680  129.6280 C   0  0  0  0  0
    3.3680   14.8660  128.1590 C   0  0  0  0  0
    4.5440   14.5310  127.5070 C   0  0  0  0  0
    2.3770   15.5230  127.4450 C   0  0  0  0  0
    4.7180   14.8220  126.1650 C   0  0  0  0  0
    2.5430   15.8180  126.1010 C   0  0  0  0  0
    3.7160   15.4700  125.4610 C   0  0  0  0  0
    4.3790   20.6530  129.7240 O   0  0  0  0  0
    3.7860   19.9190  130.5640 C   0  0  0  0  0
    2.5670   19.1480  130.0840 C   0  0  0  0  0
    1.3530   19.5790  130.9170 C   0  0  0  0  0
    2.4150   19.4590  128.5950 C   0  0  0  0  0
    2.8260   17.7260  130.2880 N   0  0  0  0  0
    1.1530   19.0400  127.8400 C   0  0  0  0  0
    1.1890   19.5860  126.3980 C   0  0  0  0  0
    2.0550   20.8480  126.3110 C   0  0  0  0  0
    1.8940   21.6860  125.0670 C   0  0  0  0  0
    2.2650   23.1280  125.4010 C   0  0  0  0  0
    3.7540   23.4310  125.3080 C   0  0  0  0  0
    4.4140   19.7930  131.7520 N   0  0  0  0  0
    5.6160   20.5430  132.2020 C   0  0  0  0  0
    6.8630   20.1630  131.4090 C   0  0  0  0  0
    7.6190   21.0410  131.0000 O   0  0  0  0  0
    5.8490   20.3510  133.7000 C   0  0  0  0  0
    7.0270   21.1540  134.2250 C   0  0  0  0  0
    7.0200   21.3370  135.7310 C   0  0  0  0  0
    6.1490   20.7710  136.4250 O   0  0  0  0  0
    7.9050   22.0600  136.2180 O   0  0  0  0  0
    7.0840   18.8680  131.1950 N   0  0  0  0  0
    8.2280   18.4220  130.4060 C   0  0  0  0  0
    8.2100   19.0450  129.0060 C   0  0  0  0  0
    9.2240   19.5670  128.5430 O   0  0  0  0  0
    8.2610   16.8990  130.2800 C   0  0  0  0  0
    8.7810   16.1680  131.4970 C   0  0  0  0  0
   10.0710   16.3940  131.9740 C   0  0  0  0  0
    7.9960   15.2210  132.1500 C   0  0  0  0  0
   10.5570   15.7100  133.0790 C   0  0  0  0  0
    8.4740   14.5300  133.2530 C   0  0  0  0  0
    9.7510   14.7770  133.7130 C   0  0  0  0  0
   10.2160   14.0980  134.8110 O   0  0  0  0  0
    7.0580   18.9900  128.3450 N   0  0  0  0  0
    6.9310   19.5530  127.0020 C   0  0  0  0  0
    7.0640   21.0720  127.0400 C   0  0  0  0  0
    7.6860   21.6600  126.1610 O   0  0  0  0  0
    5.6120   19.1520  126.3470 C   0  0  0  0  0
    5.6500   19.2730  124.8570 C   0  0  0  0  0
    5.2030   20.3220  124.1040 C   0  0  0  0  0
    6.1780   18.3140  123.9330 C   0  0  0  0  0
    5.4110   20.0710  122.7690 N   0  0  0  0  0
    6.0120   18.8480  122.6360 C   0  0  0  0  0
    6.7760   17.0580  124.0740 C   0  0  0  0  0
    6.4180   18.1670  121.4910 C   0  0  0  0  0
    7.1830   16.3820  122.9340 C   0  0  0  0  0
    6.9990   16.9370  121.6580 C   0  0  0  0  0
    6.4810   21.6890  128.0680 N   0  0  0  0  0
    6.6310   23.1200  128.3340 C   0  0  0  0  0
    8.1060   23.5200  128.4520 C   0  0  0  0  0
    8.5230   24.5480  127.9100 O   0  0  0  0  0
    5.8630   23.4750  129.6140 C   0  0  0  0  0
    5.9950   24.8950  130.1140 C   0  0  0  0  0
    7.0010   25.2490  131.0090 C   0  0  0  0  0
    5.0800   25.8760  129.7350 C   0  0  0  0  0
    7.1110   26.5430  131.4860 C   0  0  0  0  0
    5.1840   27.1720  130.2070 C   0  0  0  0  0
    6.1990   27.4970  131.0850 C   0  0  0  0  0
    6.3020   28.7780  131.5550 O   0  0  0  0  0
    8.8930   22.7070  129.1530 N   0  0  0  0  0
   10.3210   22.9740  129.3060 C   0  0  0  0  0
   11.0590   22.7430  127.9890 C   0  0  0  0  0
   12.0200   23.4480  127.6760 O   0  0  0  0  0
   10.9190   22.1300  130.4390 C   0  0  0  0  0
   10.4750   22.5530  131.8450 C   0  0  0  0  0
   10.8110   21.4830  132.8760 C   0  0  0  0  0
   11.0870   23.8930  132.2370 C   0  0  0  0  0
   10.5980   21.7670  127.2120 N   0  0  0  0  0
   11.0830   21.5790  125.8460 C   0  0  0  0  0
   10.7670   22.7990  124.9620 C   0  0  0  0  0
   11.6710   23.2780  124.2540 O   0  0  0  0  0
   10.4890   20.3090  125.2320 C   0  0  0  0  0
   10.7660   20.0670  123.7460 C   0  0  0  0  0
   12.1990   19.6110  123.5400 C   0  0  0  0  0
    9.7830   19.0540  123.1900 C   0  0  0  0  0
   10.2030   25.7700  124.4400 C   0  0  0  0  0
    9.6530   23.4330  124.8460 N   0  0  0  0  0
   10.5680   26.5300  123.5190 O   0  0  0  0  0
    9.2400   24.6450  124.1340 C   0  0  0  0  0
    7.8880   25.1540  124.6150 C   0  0  0  0  0
    5.4820   25.0470  124.2350 C   0  0  0  0  0
    4.1230   24.4600  124.5390 C   0  0  0  0  0
    6.7050   24.1920  124.5350 C   0  0  0  0  0
    9.2280   24.3600  122.6360 C   0  0  0  0  0
   10.6600   25.9530  125.7730 N   0  0  0  0  0
    5.8117   13.8569  140.5910 H   0  0  0  0  0
    5.2709   12.6453  139.4032 H   0  0  0  0  0
    6.9669   13.1880  139.4124 H   0  0  0  0  0
    7.4627   14.5245  137.8247 H   0  0  0  0  0
    5.8744   16.8850  137.2916 H   0  0  0  0  0
    8.1056   15.5536  135.6987 H   0  0  0  0  0
    8.6388   16.0751  137.9269 H   0  0  0  0  0
    7.2231   18.4532  135.7305 H   0  0  0  0  0
    8.6129   17.7888  134.8372 H   0  0  0  0  0
    6.9584   17.2865  134.4115 H   0  0  0  0  0
    4.4231   17.3417  135.8129 H   0  0  0  0  0
    3.1921   15.1110  134.4017 H   0  0  0  0  0
    2.0339   17.1572  135.3423 H   0  0  0  0  0
    1.6865   16.8962  133.5803 H   0  0  0  0  0
    2.1389   19.0867  134.1011 H   0  0  0  0  0
    2.8875   14.7538  132.2085 H   0  0  0  0  0
    5.0634   15.1612  130.4799 H   0  0  0  0  0
    2.1445   14.7221  129.8746 H   0  0  0  0  0
    3.5311   13.5454  129.7992 H   0  0  0  0  0
    5.3416   14.0323  128.0576 H   0  0  0  0  0
    1.4542   15.8116  127.9482 H   0  0  0  0  0
    5.6434   14.5413  125.6620 H   0  0  0  0  0
    1.7495   16.3235  125.5506 H   0  0  0  0  0
    3.8532   15.7043  124.4054 H   0  0  0  0  0
    1.5395   19.3607  131.9685 H   0  0  0  0  0
    1.1885   20.6491  130.7904 H   0  0  0  0  0
    0.4715   19.0324  130.5819 H   0  0  0  0  0
    3.2139   18.8905  128.1190 H   0  0  0  0  0
    2.4073   20.5479  128.5475 H   0  0  0  0  0
    2.0389   17.2294  130.7054 H   0  0  0  0  0
    0.2799   19.4438  128.3527 H   0  0  0  0  0
    1.1010   17.9517  127.8082 H   0  0  0  0  0
    0.1730   19.8369  126.0932 H   0  0  0  0  0
    1.6147   18.8236  125.7455 H   0  0  0  0  0
    3.0900   20.5062  126.3144 H   0  0  0  0  0
    1.7520   21.4816  127.1446 H   0  0  0  0  0
    0.8623   21.6391  124.7185 H   0  0  0  0  0
    2.5444   21.3084  124.2780 H   0  0  0  0  0
    1.9663   23.3043  126.4343 H   0  0  0  0  0
    1.7626   23.7647  124.6728 H   0  0  0  0  0
    4.4892   22.8331  125.8466 H   0  0  0  0  0
    4.0247   19.1149  132.4070 H   0  0  0  0  0
    5.4225   21.5988  132.0124 H   0  0  0  0  0
    6.0639   19.2960  133.8702 H   0  0  0  0  0
    4.9551   20.6929  134.2217 H   0  0  0  0  0
    6.9702   22.1459  133.7766 H   0  0  0  0  0
    7.9340   20.6068  133.9681 H   0  0  0  0  0
    5.5665   20.2641  135.8546 H   0  0  0  0  0
    6.4446   18.1773  131.5881 H   0  0  0  0  0
    9.1237   18.7509  130.9330 H   0  0  0  0  0
    8.9394   16.6659  129.4593 H   0  0  0  0  0
    7.2312   16.5731  130.1334 H   0  0  0  0  0
   10.7088   17.1204  131.4704 H   0  0  0  0  0
    6.9880   15.0194  131.7876 H   0  0  0  0  0
   11.5648   15.9047  133.4458 H   0  0  0  0  0
    7.8439   13.7952  133.7542 H   0  0  0  0  0
    9.5373   13.4957  135.1244 H   0  0  0  0  0
    6.2495   18.5477  128.7821 H   0  0  0  0  0
    7.7412   19.1445  126.3980 H   0  0  0  0  0
    4.8359   19.8213  126.7183 H   0  0  0  0  0
    5.4184   18.1082  126.5940 H   0  0  0  0  0
    4.7471   21.2274  124.5045 H   0  0  0  0  0
    6.9194   16.6188  125.0612 H   0  0  0  0  0
    6.2788   18.5963  120.4988 H   0  0  0  0  0
    7.6536   15.4035  123.0302 H   0  0  0  0  0
    7.3252   16.3778  120.7811 H   0  0  0  0  0
    5.9019   21.1363  128.7002 H   0  0  0  0  0
    6.2176   23.6789  127.4945 H   0  0  0  0  0
    6.2775   22.8412  130.3980 H   0  0  0  0  0
    4.8077   23.3368  129.3787 H   0  0  0  0  0
    7.7141   24.4938  131.3395 H   0  0  0  0  0
    4.2685   25.6173  129.0549 H   0  0  0  0  0
    7.9136   26.8071  132.1746 H   0  0  0  0  0
    4.4699   27.9313  129.8882 H   0  0  0  0  0
    5.5966   29.3120  131.1825 H   0  0  0  0  0
    8.4902   21.8796  129.5929 H   0  0  0  0  0
   10.4450   24.0225  129.5770 H   0  0  0  0  0
   12.0010   22.2541  130.3940 H   0  0  0  0  0
   10.5774   21.1057  130.2899 H   0  0  0  0  0
    9.3916   22.6708  131.8244 H   0  0  0  0  0
   10.3012   20.5557  132.6147 H   0  0  0  0  0
   11.8881   21.3163  132.8870 H   0  0  0  0  0
   10.4832   21.8141  133.8614 H   0  0  0  0  0
   12.1739   23.8121  132.2247 H   0  0  0  0  0
   10.7703   24.6572  131.5272 H   0  0  0  0  0
   10.7529   24.1645  133.2384 H   0  0  0  0  0
    9.8878   21.1334  127.5787 H   0  0  0  0  0
   12.1667   21.4719  125.8939 H   0  0  0  0  0
    9.4075   20.4100  125.3225 H   0  0  0  0  0
   10.9503   19.4759  125.7623 H   0  0  0  0  0
   10.6328   21.0035  123.2044 H   0  0  0  0  0
   12.8797   20.3790  123.9073 H   0  0  0  0  0
   12.3661   18.6835  124.0877 H   0  0  0  0  0
   12.3767   19.4442  122.4776 H   0  0  0  0  0
    9.8870   18.1137  123.7314 H   0  0  0  0  0
    8.7676   19.4323  123.3080 H   0  0  0  0  0
    9.9906   18.8907  122.1325 H   0  0  0  0  0
    8.8903   22.9957  125.3632 H   0  0  0  0  0
    7.6358   25.9853  123.9566 H   0  0  0  0  0
    8.0169   25.3738  125.6748 H   0  0  0  0  0
    5.5726   25.9218  124.8789 H   0  0  0  0  0
    5.4958   25.2078  123.1570 H   0  0  0  0  0
    3.2956   24.9665  124.0421 H   0  0  0  0  0
    6.5812   23.6429  125.4684 H   0  0  0  0  0
    6.8601   23.4421  123.7593 H   0  0  0  0  0
    8.9153   25.2558  122.0995 H   0  0  0  0  0
   10.2290   24.0729  122.3140 H   0  0  0  0  0
    8.5311   23.5482  122.4275 H   0  0  0  0  0
   11.2990   26.7171  125.9927 H   0  0  0  0  0
   10.3491   25.3203  126.5101 H   0  0  0  0  0
  1  2  2  0  0  0
  1  3  1  0  0  0
  4  1  1  0  0  0
  5  4  1  0  0  0
  6  5  1  0  0  0
  5  8  1  0  0  0
  6  7  2  0  0  0
 11  6  1  0  0  0
  8  9  1  0  0  0
  8 10  1  0  0  0
 12 11  1  0  0  0
 13 12  1  0  0  0
 12 15  1  0  0  0
 13 14  2  0  0  0
 17 13  1  0  0  0
 15 16  1  0  0  0
 18 17  1  0  0  0
 19 18  1  0  0  0
 18 21  1  0  0  0
 19 20  2  0  0  0
 33 19  1  0  0  0
 21 22  1  0  0  0
 22 23  4  0  0  0
 22 24  4  0  0  0
 23 25  4  0  0  0
 24 26  4  0  0  0
 25 27  4  0  0  0
 26 27  4  0  0  0
 29 28  2  0  0  0
 29 30  1  0  0  0
 40 29  1  0  0  0
 30 31  1  0  0  0
 30 32  1  0  0  0
 30 33  1  0  0  0
 32 34  1  0  0  0
 34 35  1  0  0  0
 35 36  1  0  0  0
 36 37  1  0  0  0
 37 38  1  0  0  0
 38 39  1  0  0  0
 39109  2  0  0  0
 41 40  1  0  0  0
 42 41  1  0  0  0
 41 44  1  0  0  0
 42 43  2  0  0  0
 49 42  1  0  0  0
 44 45  1  0  0  0
 45 46  1  0  0  0
 46 47  1  0  0  0
 46 48  2  0  0  0
 50 49  1  0  0  0
 51 50  1  0  0  0
 50 53  1  0  0  0
 51 52  2  0  0  0
 61 51  1  0  0  0
 53 54  1  0  0  0
 54 55  4  0  0  0
 54 56  4  0  0  0
 55 57  4  0  0  0
 56 58  4  0  0  0
 57 59  4  0  0  0
 58 59  4  0  0  0
 59 60  1  0  0  0
 62 61  1  0  0  0
 63 62  1  0  0  0
 62 65  1  0  0  0
 63 64  2  0  0  0
 75 63  1  0  0  0
 65 66  1  0  0  0
 66 67  4  0  0  0
 66 68  4  0  0  0
 67 69  4  0  0  0
 68 70  4  0  0  0
 68 71  4  0  0  0
 70 69  4  0  0  0
 70 72  4  0  0  0
 71 73  4  0  0  0
 72 74  4  0  0  0
 73 74  4  0  0  0
 76 75  1  0  0  0
 77 76  1  0  0  0
 76 79  1  0  0  0
 77 78  2  0  0  0
 87 77  1  0  0  0
 79 80  1  0  0  0
 80 81  4  0  0  0
 80 82  4  0  0  0
 81 83  4  0  0  0
 82 84  4  0  0  0
 83 85  4  0  0  0
 84 85  4  0  0  0
 85 86  1  0  0  0
 88 87  1  0  0  0
 89 88  1  0  0  0
 88 91  1  0  0  0
 89 90  2  0  0  0
 95 89  1  0  0  0
 91 92  1  0  0  0
 92 93  1  0  0  0
 92 94  1  0  0  0
 96 95  1  0  0  0
 97 96  1  0  0  0
 96 99  1  0  0  0
 97 98  2  0  0  0
104 97  1  0  0  0
 99100  1  0  0  0
100101  1  0  0  0
100102  1  0  0  0
103105  2  0  0  0
106103  1  0  0  0
103112  1  0  0  0
104106  1  0  0  0
106107  1  0  0  0
106111  1  0  0  0
107110  1  0  0  0
109108  1  0  0  0
108110  1  0  0  0
  3113  1  0  0  0
  3114  1  0  0  0
  3115  1  0  0  0
  4116  1  0  0  0
  5117  1  0  0  0
  8118  1  0  0  0
  9119  1  0  0  0
 10120  1  0  0  0
 10121  1  0  0  0
 10122  1  0  0  0
 11123  1  0  0  0
 12124  1  0  0  0
 15125  1  0  0  0
 15126  1  0  0  0
 16127  1  0  0  0
 17128  1  0  0  0
 18129  1  0  0  0
 21130  1  0  0  0
 21131  1  0  0  0
 23132  1  0  0  0
 24133  1  0  0  0
 25134  1  0  0  0
 26135  1  0  0  0
 27136  1  0  0  0
 31137  1  0  0  0
 31138  1  0  0  0
 31139  1  0  0  0
 32140  1  0  0  0
 32141  1  0  0  0
 33142  1  0  0  0
 34143  1  0  0  0
 34144  1  0  0  0
 35145  1  0  0  0
 35146  1  0  0  0
 36147  1  0  0  0
 36148  1  0  0  0
 37149  1  0  0  0
 37150  1  0  0  0
 38151  1  0  0  0
 38152  1  0  0  0
 39153  1  0  0  0
 40154  1  0  0  0
 41155  1  0  0  0
 44156  1  0  0  0
 44157  1  0  0  0
 45158  1  0  0  0
 45159  1  0  0  0
 47160  1  0  0  0
 49161  1  0  0  0
 50162  1  0  0  0
 53163  1  0  0  0
 53164  1  0  0  0
 55165  1  0  0  0
 56166  1  0  0  0
 57167  1  0  0  0
 58168  1  0  0  0
 60169  1  0  0  0
 61170  1  0  0  0
 62171  1  0  0  0
 65172  1  0  0  0
 65173  1  0  0  0
 67174  1  0  0  0
 71175  1  0  0  0
 72176  1  0  0  0
 73177  1  0  0  0
 74178  1  0  0  0
 75179  1  0  0  0
 76180  1  0  0  0
 79181  1  0  0  0
 79182  1  0  0  0
 81183  1  0  0  0
 82184  1  0  0  0
 83185  1  0  0  0
 84186  1  0  0  0
 86187  1  0  0  0
 87188  1  0  0  0
 88189  1  0  0  0
 91190  1  0  0  0
 91191  1  0  0  0
 92192  1  0  0  0
 93193  1  0  0  0
 93194  1  0  0  0
 93195  1  0  0  0
 94196  1  0  0  0
 94197  1  0  0  0
 94198  1  0  0  0
 95199  1  0  0  0
 96200  1  0  0  0
 99201  1  0  0  0
 99202  1  0  0  0
100203  1  0  0  0
101204  1  0  0  0
101205  1  0  0  0
101206  1  0  0  0
102207  1  0  0  0
102208  1  0  0  0
102209  1  0  0  0
104210  1  0  0  0
107211  1  0  0  0
107212  1  0  0  0
108213  1  0  0  0
108214  1  0  0  0
109215  1  0  0  0
110216  1  0  0  0
110217  1  0  0  0
111218  1  0  0  0
111219  1  0  0  0
111220  1  0  0  0
112221  1  0  0  0
112222  1  0  0  0
M  END
$$$$
