5jmp_ligand
  -I-interpret- 

 43 43  0  0  0  0  0  0  0  0999 V2000
    3.8120   14.8370   20.6730 O   0  0  0  0  0
    3.3740   13.8200   20.1660 C   0  0  0  0  0
    3.9690   13.2880   19.0560 N   0  0  0  0  0
    5.0910   13.9170   18.5210 O   0  0  0  0  0
    3.4830   12.0390   18.4210 C   0  0  0  0  0
    2.1050   13.2220   20.7490 C   0  0  0  0  0
    0.8890   14.0220   20.2110 C   0  0  0  0  0
   -0.2390   14.0640   21.2570 C   0  0  0  0  0
   -0.8680   15.7810   21.4270 P   0  0  0  0  0
    0.0570   16.5820   22.2900 O   0  0  0  0  0
   -2.2390   15.7280   22.0650 O   0  0  0  0  0
   -0.9740   16.4150   20.0860 O   0  0  0  0  0
    0.3790   13.4440   18.8490 C   0  0  0  0  0
   -0.1220   11.9730   18.9700 C   0  0  0  0  0
   -0.5900   11.4400   17.5980 C   0  0  0  0  0
    0.6080   11.0920   16.7320 C   0  0  0  0  0
    1.3410    9.9540   16.9990 C   0  0  0  0  0
    0.9640   11.9130   15.6650 C   0  0  0  0  0
    2.0640   11.5940   14.8810 C   0  0  0  0  0
    2.8000   10.4560   15.1600 C   0  0  0  0  0
    2.4370    9.6380   16.2230 C   0  0  0  0  0
    3.1430    8.5270   16.4890 F   0  0  0  0  0
    5.2873   14.7066   19.0306 H   0  0  0  0  0
    3.2197   12.2395   17.3825 H   0  0  0  0  0
    4.2685   11.2842   18.4588 H   0  0  0  0  0
    2.6048   11.6785   18.9567 H   0  0  0  0  0
    2.1341   13.2777   21.8372 H   0  0  0  0  0
    2.0195   12.1753   20.4570 H   0  0  0  0  0
    1.2172   15.0446   20.0249 H   0  0  0  0  0
    0.1485   13.7258   22.2180 H   0  0  0  0  0
   -1.0521   13.4129   20.9359 H   0  0  0  0  0
    0.1232   16.1701   23.1546 H   0  0  0  0  0
   -2.1722   15.3189   22.9309 H   0  0  0  0  0
    1.2125   13.4571   18.1467 H   0  0  0  0  0
   -0.4593   14.0570   18.5181 H   0  0  0  0  0
   -0.9617   11.9431   19.6643 H   0  0  0  0  0
    0.6977   11.3503   19.3286 H   0  0  0  0  0
   -1.1786   12.2097   17.0989 H   0  0  0  0  0
   -1.1915   10.5439   17.7504 H   0  0  0  0  0
    1.0535    9.3032   17.8248 H   0  0  0  0  0
    0.3788   12.8060   15.4456 H   0  0  0  0  0
    2.3471   12.2378   14.0483 H   0  0  0  0  0
    3.6641   10.2013   14.5463 H   0  0  0  0  0
  1  2  2  0  0  0
  2  3  1  0  0  0
  2  6  1  0  0  0
  3  4  1  0  0  0
  3  5  1  0  0  0
  6  7  1  0  0  0
  7  8  1  0  0  0
  7 13  1  0  0  0
  8  9  1  0  0  0
  9 10  1  0  0  0
  9 11  1  0  0  0
  9 12  2  0  0  0
 13 14  1  0  0  0
 14 15  1  0  0  0
 15 16  1  0  0  0
 16 17  4  0  0  0
 16 18  4  0  0  0
 17 21  4  0  0  0
 18 19  4  0  0  0
 19 20  4  0  0  0
 20 21  4  0  0  0
 21 22  1  0  0  0
  4 23  1  0  0  0
  5 24  1  0  0  0
  5 25  1  0  0  0
  5 26  1  0  0  0
  6 27  1  0  0  0
  6 28  1  0  0  0
  7 29  1  0  0  0
  8 30  1  0  0  0
  8 31  1  0  0  0
 10 32  1  0  0  0
 11 33  1  0  0  0
 13 34  1  0  0  0
 13 35  1  0  0  0
 14 36  1  0  0  0
 14 37  1  0  0  0
 15 38  1  0  0  0
 15 39  1  0  0  0
 17 40  1  0  0  0
 18 41  1  0  0  0
 19 42  1  0  0  0
 20 43  1  0  0  0
M  END
$$$$
