### 
### Created by X-TOOL on Mon Sep 10 21:13:27 2018
### 

@<TRIPOS>MOLECULE
5jmp_ligand
   41    41     1     0     0
SMALL
GAST_HUCK


@<TRIPOS>ATOM
      1 O12         3.8120   14.8370   20.6730 O.2       1 LC7        -0.3968
      2 C4          3.3740   13.8200   20.1660 C.2       1 LC7         0.2014
      3 N9          3.9690   13.2880   19.0560 N.am      1 LC7        -0.1538
      4 O10         5.0910   13.9170   18.5210 O.3       1 LC7        -0.2694
      5 C11         3.4830   12.0390   18.4210 C.3       1 LC7         0.0516
      6 C3          2.1050   13.2220   20.7490 C.3       1 LC7         0.0432
      7 C2          0.8890   14.0220   20.2110 C.3       1 LC7        -0.0091
      8 C1         -0.2390   14.0640   21.2570 C.3       1 LC7         0.0245
      9 P5         -0.8680   15.7810   21.4270 P.3       1 LC7         0.0583
     10 O7          0.0570   16.5820   22.2900 O.co2     1 LC7        -0.5622
     11 O6         -2.2390   15.7280   22.0650 O.co2     1 LC7        -0.5622
     12 O8         -0.9740   16.4150   20.0860 O.co2     1 LC7        -0.5622
     13 C13         0.3790   13.4440   18.8490 C.3       1 LC7        -0.0451
     14 C14        -0.1220   11.9730   18.9700 C.3       1 LC7        -0.0429
     15 C15        -0.5900   11.4400   17.5980 C.3       1 LC7        -0.0200
     16 C16         0.6080   11.0920   16.7320 C.ar      1 LC7        -0.0449
     17 C17         1.3410    9.9540   16.9990 C.ar      1 LC7        -0.0270
     18 C18         0.9640   11.9130   15.6650 C.ar      1 LC7        -0.0644
     19 C20         2.0640   11.5940   14.8810 C.ar      1 LC7        -0.0704
     20 C21         2.8000   10.4560   15.1600 C.ar      1 LC7        -0.0352
     21 C19         2.4370    9.6380   16.2230 C.ar      1 LC7         0.1258
     22 F22         3.1430    8.5270   16.4890 F         1 LC7        -0.1853
     23 H1          5.7813   13.9393   19.1733 H         1 LC7         0.2492
     24 H2          4.1101   11.8032   17.5486 H         1 LC7         0.0514
     25 H3          2.4404   12.1738   18.0973 H         1 LC7         0.0514
     26 H4          3.5381   11.2136   19.1460 H         1 LC7         0.0514
     27 H5          2.1350   13.2868   21.8467 H         1 LC7         0.0505
     28 H6          2.0187   12.1681   20.4461 H         1 LC7         0.0505
     29 H7          1.2201   15.0555   20.0315 H         1 LC7         0.0339
     30 H8          0.1496   13.7200   22.2269 H         1 LC7         0.0455
     31 H9         -1.0592   13.4050   20.9360 H         1 LC7         0.0455
     32 H10         1.2039   13.4761   18.1220 H         1 LC7         0.0271
     33 H11        -0.4510   14.0700   18.4897 H         1 LC7         0.0271
     34 H12        -0.9632   11.9353   19.6778 H         1 LC7         0.0287
     35 H13         0.6985   11.3417   19.3416 H         1 LC7         0.0287
     36 H14        -1.1901   12.2120   17.0941 H         1 LC7         0.0425
     37 H15        -1.2030   10.5392   17.7484 H         1 LC7         0.0425
     38 H16         1.0551    9.3068   17.8203 H         1 LC7         0.0542
     39 H17         0.3821   12.8011   15.4468 H         1 LC7         0.0523
     40 H18         2.3456   12.2343   14.0529 H         1 LC7         0.0589
     41 H19         3.6593   10.2027   14.5497 H         1 LC7         0.0546
@<TRIPOS>BOND
     1    1    2 2  
     2    2    3 am 
     3    2    6 1  
     4    3    4 1  
     5    3    5 1  
     6    6    7 1  
     7    7    8 1  
     8    7   13 1  
     9    8    9 1  
    10    9   10 ar 
    11    9   11 ar 
    12    9   12 ar 
    13   13   14 1  
    14   14   15 1  
    15   15   16 1  
    16   16   17 ar 
    17   16   18 ar 
    18   17   21 ar 
    19   18   19 ar 
    20   19   20 ar 
    21   20   21 ar 
    22   21   22 1  
    23    4   23 1  
    24    5   24 1  
    25    5   25 1  
    26    5   26 1  
    27    6   27 1  
    28    6   28 1  
    29    7   29 1  
    30    8   30 1  
    31    8   31 1  
    32   13   32 1  
    33   13   33 1  
    34   14   34 1  
    35   14   35 1  
    36   15   36 1  
    37   15   37 1  
    38   17   38 1  
    39   18   39 1  
    40   19   40 1  
    41   20   41 1  
@<TRIPOS>SUBSTRUCTURE
     1 LC7         1

