3fpm_ligand
  -I-interpret- 

 35 37  0  0  0  0  0  0  0  0999 V2000
  232.7380   76.9440  187.1310 C   0  0  0  0  0
  232.0570   77.8620  186.1110 C   0  0  0  0  0
  231.3810   77.1050  184.9760 C   0  0  0  0  0
  229.9790   77.0030  184.8990 C   0  0  0  0  0
  229.3670   76.3040  183.8510 C   0  0  0  0  0
  230.1460   75.6990  182.8620 C   0  0  0  0  0
  232.1270   81.6970  184.1110 C   0  0  0  0  0
  231.4240   80.5540  184.6870 C   0  0  0  0  0
  235.1630   82.6740  183.7030 C   0  0  0  0  0
  234.4520   83.8650  183.4950 C   0  0  0  0  0
  235.1200   84.9720  182.9800 C   0  0  0  0  0
  237.1120   83.8260  182.8700 C   0  0  0  0  0
  236.5320   82.6690  183.3790 C   0  0  0  0  0
  231.5400   75.7910  182.9210 C   0  0  0  0  0
  232.1540   76.4890  183.9700 C   0  0  0  0  0
  233.0240   78.8160  185.5670 N   0  0  0  0  0
  232.7350   79.9590  184.9900 C   0  0  0  0  0
  233.3990   81.0330  184.4480 C   0  0  0  0  0
  231.6850   82.6960  183.6080 O   0  0  0  0  0
  230.2450   80.3470  184.7860 O   0  0  0  0  0
  234.6190   81.4720  184.2250 N   0  0  0  0  0
  236.4350   84.9790  182.6640 N   0  0  0  0  0
  233.5451   76.3970  186.6436 H   0  0  0  0  0
  233.1442   77.5451  187.9445 H   0  0  0  0  0
  232.0075   76.2391  187.5280 H   0  0  0  0  0
  231.2698   78.3910  186.6482 H   0  0  0  0  0
  229.3622   77.4739  185.6645 H   0  0  0  0  0
  228.2803   76.2319  183.8070 H   0  0  0  0  0
  229.6684   75.1564  182.0462 H   0  0  0  0  0
  233.3900   83.9228  183.7336 H   0  0  0  0  0
  234.5497   85.8874  182.8220 H   0  0  0  0  0
  238.1733   83.8025  182.6228 H   0  0  0  0  0
  237.1305   81.7698  183.5250 H   0  0  0  0  0
  232.1498   75.3194  182.1504 H   0  0  0  0  0
  233.2412   76.5565  184.0087 H   0  0  0  0  0
  2  1  1  0  0  0
  2  3  1  0  0  0
 16  2  1  0  0  0
  3  4  4  0  0  0
  3 15  4  0  0  0
  4  5  4  0  0  0
  5  6  4  0  0  0
 14  6  4  0  0  0
  7  8  1  0  0  0
 18  7  1  0  0  0
  7 19  2  0  0  0
 17  8  1  0  0  0
  8 20  2  0  0  0
  9 10  4  0  0  0
  9 13  4  0  0  0
 21  9  1  0  0  0
 10 11  4  0  0  0
 11 22  4  0  0  0
 13 12  4  0  0  0
 12 22  4  0  0  0
 15 14  4  0  0  0
 17 16  2  0  0  0
 18 17  1  0  0  0
 18 21  2  0  0  0
  1 23  1  0  0  0
  1 24  1  0  0  0
  1 25  1  0  0  0
  2 26  1  0  0  0
  4 27  1  0  0  0
  5 28  1  0  0  0
  6 29  1  0  0  0
 10 30  1  0  0  0
 11 31  1  0  0  0
 12 32  1  0  0  0
 13 33  1  0  0  0
 14 34  1  0  0  0
 15 35  1  0  0  0
M  END
$$$$
