2qlb_ligand
  -I-interpret- 

 60 59  0  0  0  0  0  0  0  0999 V2000
  -34.2870   35.6270  -31.2990 N   0  3  0  0  0
  -35.3520   34.6600  -31.5980 C   0  0  0  0  0
  -36.4830   35.1930  -32.4680 C   0  0  0  0  0
  -36.7700   36.3910  -32.4660 O   0  0  0  0  0
  -35.8590   34.2430  -30.2190 C   0  0  0  0  0
  -35.0850   33.1000  -29.5910 C   0  0  0  0  0
  -34.5790   33.4370  -28.2070 C   0  0  0  0  0
  -34.0180   32.5370  -27.5440 O   0  0  0  0  0
  -34.7380   34.6040  -27.7860 O   0  0  0  0  0
  -37.1130   34.2870  -33.2140 N   0  0  0  0  0
  -38.2370   34.6280  -34.0810 C   0  0  0  0  0
  -39.4920   33.9120  -33.5780 C   0  0  0  0  0
  -39.4170   33.0770  -32.6760 O   0  0  0  0  0
  -37.9390   34.2430  -35.5350 C   0  0  0  0  0
  -37.5270   32.8950  -35.6390 O   0  0  0  0  0
  -40.6400   34.2340  -34.1650 N   0  0  0  0  0
  -41.9050   33.6470  -33.7370 C   0  0  0  0  0
  -42.5900   32.7550  -34.7700 C   0  0  0  0  0
  -42.4040   32.9250  -35.9780 O   0  0  0  0  0
  -42.8480   34.7710  -33.3090 C   0  0  0  0  0
  -42.2890   35.6050  -32.1670 C   0  0  0  0  0
  -42.8500   37.3140  -32.1990 S   0  0  0  0  0
  -41.5660   38.0640  -33.2050 C   0  0  0  0  0
  -43.3900   31.8080  -34.2740 N   0  0  0  0  0
  -44.1230   30.8560  -35.1110 C   0  0  0  0  0
  -45.6270   31.0220  -35.0070 C   0  0  0  0  0
  -46.1940   31.4220  -36.2600 O   0  0  0  0  0
  -43.8030   29.4200  -34.6990 C   0  0  0  0  0
  -42.5320   28.9050  -35.3190 C   0  0  0  0  0
  -41.9080   28.0050  -34.7170 O   0  0  0  0  0
  -42.1600   29.4010  -36.4050 O   0  0  0  0  0
  -33.8825   35.9662  -32.1718 H   0  0  0  0  0
  -34.6781   36.4111  -30.7768 H   0  0  0  0  0
  -33.5636   35.1727  -30.7415 H   0  0  0  0  0
  -34.9608   33.8376  -32.1969 H   0  0  0  0  0
  -36.8876   33.9045  -30.3436 H   0  0  0  0  0
  -35.7486   35.1054  -29.5616 H   0  0  0  0  0
  -34.2223   32.8900  -30.2232 H   0  0  0  0  0
  -35.7563   32.2455  -29.5054 H   0  0  0  0  0
  -35.1890   35.1253  -28.4541 H   0  0  0  0  0
  -36.7980   33.3175  -33.1781 H   0  0  0  0  0
  -38.3998   35.7054  -34.0520 H   0  0  0  0  0
  -37.1345   34.8796  -35.9031 H   0  0  0  0  0
  -38.8494   34.3722  -36.1203 H   0  0  0  0  0
  -37.3487   32.6861  -36.5589 H   0  0  0  0  0
  -40.6365   34.9065  -34.9319 H   0  0  0  0  0
  -41.6664   32.9812  -32.9076 H   0  0  0  0  0
  -43.7771   34.3154  -32.9665 H   0  0  0  0  0
  -42.9921   35.4304  -34.1649 H   0  0  0  0  0
  -41.2032   35.6114  -32.2627 H   0  0  0  0  0
  -42.6342   35.1610  -31.2333 H   0  0  0  0  0
  -40.5998   37.9284  -32.7190 H   0  0  0  0  0
  -41.5507   37.5888  -34.1858 H   0  0  0  0  0
  -41.7707   39.1285  -33.3188 H   0  0  0  0  0
  -43.4958   31.7445  -33.2615 H   0  0  0  0  0
  -43.8064   31.0588  -36.1341 H   0  0  0  0  0
  -46.2024   30.8580  -34.0959 H   0  0  0  0  0
  -44.6213   28.7850  -35.0386 H   0  0  0  0  0
  -43.6769   29.4035  -33.6164 H   0  0  0  0  0
  -42.7888   30.0718  -36.6812 H   0  0  0  0  0
  1  2  1  0  0  0
  2  3  1  0  0  0
  2  5  1  0  0  0
  3  4  2  0  0  0
  3 10  1  0  0  0
  5  6  1  0  0  0
  6  7  1  0  0  0
  7  8  2  0  0  0
  7  9  1  0  0  0
 10 11  1  0  0  0
 11 12  1  0  0  0
 11 14  1  0  0  0
 12 13  2  0  0  0
 12 16  1  0  0  0
 14 15  1  0  0  0
 16 17  1  0  0  0
 17 18  1  0  0  0
 17 20  1  0  0  0
 18 19  2  0  0  0
 18 24  1  0  0  0
 20 21  1  0  0  0
 21 22  1  0  0  0
 22 23  1  0  0  0
 24 25  1  0  0  0
 25 26  1  0  0  0
 25 28  1  0  0  0
 26 27  2  0  0  0
 28 29  1  0  0  0
 29 30  2  0  0  0
 29 31  1  0  0  0
  1 32  1  0  0  0
  1 33  1  0  0  0
  1 34  1  0  0  0
  2 35  1  0  0  0
  5 36  1  0  0  0
  5 37  1  0  0  0
  6 38  1  0  0  0
  6 39  1  0  0  0
  9 40  1  0  0  0
 10 41  1  0  0  0
 11 42  1  0  0  0
 14 43  1  0  0  0
 14 44  1  0  0  0
 15 45  1  0  0  0
 16 46  1  0  0  0
 17 47  1  0  0  0
 20 48  1  0  0  0
 20 49  1  0  0  0
 21 50  1  0  0  0
 21 51  1  0  0  0
 23 52  1  0  0  0
 23 53  1  0  0  0
 23 54  1  0  0  0
 24 55  1  0  0  0
 25 56  1  0  0  0
 26 57  1  0  0  0
 28 58  1  0  0  0
 28 59  1  0  0  0
 31 60  1  0  0  0
M  END
$$$$
