4qfg_ligand
  -I-interpret- 

 37 39  0  0  0  0  0  0  0  0999 V2000
   28.9230  -36.0160   20.3270 P   0  0  0  0  0
   28.6800  -36.7030   21.6660 O   0  0  0  0  0
   27.6980  -35.1330   19.9950 O   0  0  0  0  0
   29.2740  -36.9730   19.2410 O   0  0  0  0  0
   30.1300  -35.0350   20.6000 O   0  0  0  0  0
   30.4410  -33.7420   20.0390 C   0  0  0  0  0
   30.8170  -32.7770   21.1390 C   0  0  0  0  0
   29.7680  -32.7260   22.1370 O   0  0  0  0  0
   32.1190  -33.0790   21.8860 C   0  0  0  0  0
   32.9560  -31.9280   21.9830 O   0  0  0  0  0
   31.6280  -33.6110   23.2380 C   0  0  0  0  0
   32.5660  -33.4270   24.2910 O   0  0  0  0  0
   30.3560  -32.7880   23.4200 C   0  0  0  0  0
   29.3770  -33.3110   24.3740 N   0  0  0  0  0
   28.8700  -34.5830   24.4530 C   0  0  0  0  0
   28.0430  -34.7680   25.4530 N   0  0  0  0  0
   28.0000  -33.5300   26.0780 C   0  0  0  0  0
   27.3110  -33.0590   27.2180 C   0  0  0  0  0
   26.5490  -33.8310   27.9990 N   0  0  0  0  0
   27.4660  -31.7570   27.5550 N   0  0  0  0  0
   28.2660  -30.9870   26.8070 C   0  0  0  0  0
   28.9780  -31.3220   25.7270 N   0  0  0  0  0
   28.8050  -32.6180   25.4140 C   0  0  0  0  0
   28.4584  -36.0433   22.3273 H   0  0  0  0  0
   27.5233  -34.5407   20.7300 H   0  0  0  0  0
   29.5667  -33.3608   19.5115 H   0  0  0  0  0
   31.2789  -33.8430   19.3493 H   0  0  0  0  0
   30.9613  -31.8344   20.6109 H   0  0  0  0  0
   32.7598  -33.8005   21.3792 H   0  0  0  0  0
   33.7594  -32.1569   22.4561 H   0  0  0  0  0
   31.4728  -34.6896   23.2612 H   0  0  0  0  0
   32.2024  -33.7786   25.1070 H   0  0  0  0  0
   30.6401  -31.8250   23.8442 H   0  0  0  0  0
   29.1317  -35.3706   23.7464 H   0  0  0  0  0
   26.4392  -34.8222   27.7849 H   0  0  0  0  0
   26.0773  -33.4289   28.8091 H   0  0  0  0  0
   28.3475  -29.9465   27.1214 H   0  0  0  0  0
  1  2  1  0  0  0
  1  3  1  0  0  0
  1  4  2  0  0  0
  1  5  1  0  0  0
  5  6  1  0  0  0
  6  7  1  0  0  0
  7  8  1  0  0  0
  7  9  1  0  0  0
  8 13  1  0  0  0
  9 10  1  0  0  0
  9 11  1  0  0  0
 11 12  1  0  0  0
 11 13  1  0  0  0
 13 14  1  0  0  0
 14 15  4  0  0  0
 14 23  4  0  0  0
 15 16  4  0  0  0
 16 17  4  0  0  0
 17 18  4  0  0  0
 17 23  4  0  0  0
 18 19  1  0  0  0
 18 20  4  0  0  0
 20 21  4  0  0  0
 21 22  4  0  0  0
 22 23  4  0  0  0
  2 24  1  0  0  0
  3 25  1  0  0  0
  6 26  1  0  0  0
  6 27  1  0  0  0
  7 28  1  0  0  0
  9 29  1  0  0  0
 10 30  1  0  0  0
 11 31  1  0  0  0
 12 32  1  0  0  0
 13 33  1  0  0  0
 15 34  1  0  0  0
 19 35  1  0  0  0
 19 36  1  0  0  0
 21 37  1  0  0  0
M  END
$$$$
