4flk_ligand
  -I-interpret- 

 60 61  0  0  0  0  0  0  0  0999 V2000
   19.3390   -2.3730   14.8580 N   0  0  0  0  0
   23.7840   -2.8610    9.5630 O   0  0  0  0  0
   22.2010   -1.9350   13.1320 O   0  0  0  0  0
   22.0970   -1.2120   10.8050 O   0  0  0  0  0
   19.4150   -4.4060   13.9960 O   0  0  0  0  0
   19.2310   -3.0540   11.5120 O   0  0  0  0  0
   23.4220   -7.1650   11.8200 C   0  0  0  0  0
   23.5130   -5.6400   11.6880 C   0  0  0  0  0
   22.9490   -4.9300   10.6670 C   0  0  0  0  0
   23.2020   -3.4100   10.7960 C   0  0  0  0  0
   21.9010   -2.6330   11.0660 C   0  0  0  0  0
   21.3960   -2.8230   12.5030 C   0  0  0  0  0
   19.9200   -2.5230   12.6280 C   0  0  0  0  0
   22.6650   -7.7820   10.6130 C   0  0  0  0  0
   24.8260   -7.6630   11.7970 C   0  0  0  0  0
   22.6600   -7.3860   13.1490 C   0  0  0  0  0
   19.5400   -3.2260   13.8780 C   0  0  0  0  0
   18.9820   -2.9640   16.2000 C   0  0  0  0  0
   19.2210   -2.0240   17.3980 C   0  0  0  0  0
   19.8450   -2.9940   18.4350 C   0  0  0  0  0
   20.0840   -4.2720   17.9240 C   0  0  0  0  0
   19.6810   -4.2830   16.4680 C   0  0  0  0  0
   20.1980   -2.7620   19.7900 C   0  0  0  0  0
   20.7850   -3.7840   20.5710 C   0  0  0  0  0
   21.0470   -5.0490   20.0160 C   0  0  0  0  0
   20.7130   -5.3300   18.6660 C   0  0  0  0  0
   17.9100   -2.5280   11.3690 C   0  0  0  0  0
   19.4200   -1.3658   14.7188 H   0  0  0  0  0
   23.9300   -1.9184    9.6715 H   0  0  0  0  0
   22.0027   -1.9345   14.0713 H   0  0  0  0  0
   21.2788   -0.7403   10.9772 H   0  0  0  0  0
   24.5797   -5.4739   11.5372 H   0  0  0  0  0
   22.9612   -5.2888   12.5600 H   0  0  0  0  0
   21.8721   -5.0963   10.6952 H   0  0  0  0  0
   23.3973   -5.2685    9.7329 H   0  0  0  0  0
   23.8894   -3.2926   11.6337 H   0  0  0  0  0
   21.1456   -3.0347   10.3906 H   0  0  0  0  0
   21.4507   -3.8347   12.9050 H   0  0  0  0  0
   19.6829   -1.4595   12.6573 H   0  0  0  0  0
   21.6556   -7.3727   10.5711 H   0  0  0  0  0
   23.1949   -7.5406    9.6916 H   0  0  0  0  0
   22.6149   -8.8643   10.7320 H   0  0  0  0  0
   25.2967   -7.3757   10.8568 H   0  0  0  0  0
   25.3784   -7.2272   12.6294 H   0  0  0  0  0
   24.8264   -8.7492   11.8880 H   0  0  0  0  0
   23.2222   -6.9368   13.9677 H   0  0  0  0  0
   21.6763   -6.9210   13.0840 H   0  0  0  0  0
   22.5468   -8.4552   13.3280 H   0  0  0  0  0
   17.9078   -3.1300   16.1185 H   0  0  0  0  0
   18.3157   -1.5310   17.7523 H   0  0  0  0  0
   19.8568   -1.1706   17.1621 H   0  0  0  0  0
   20.5530   -4.3986   15.8243 H   0  0  0  0  0
   19.0206   -5.1233   16.2539 H   0  0  0  0  0
   20.0143   -1.7837   20.2341 H   0  0  0  0  0
   21.0369   -3.5893   21.6135 H   0  0  0  0  0
   21.5113   -5.8215   20.6290 H   0  0  0  0  0
   20.9229   -6.2995   18.2143 H   0  0  0  0  0
   17.3283   -2.7629   12.2604 H   0  0  0  0  0
   17.9626   -1.4466   11.2425 H   0  0  0  0  0
   17.4350   -2.9746   10.4955 H   0  0  0  0  0
 17  1  1  0  0  0
  1 18  1  0  0  0
 10  2  1  0  0  0
 12  3  1  0  0  0
 11  4  1  0  0  0
 17  5  2  0  0  0
 13  6  1  0  0  0
  6 27  1  0  0  0
  8  7  1  0  0  0
  7 14  1  0  0  0
  7 15  1  0  0  0
  7 16  1  0  0  0
  9  8  1  0  0  0
 10  9  1  0  0  0
 11 10  1  0  0  0
 12 11  1  0  0  0
 13 12  1  0  0  0
 13 17  1  0  0  0
 18 19  1  0  0  0
 18 22  1  0  0  0
 19 20  1  0  0  0
 20 21  4  0  0  0
 20 23  4  0  0  0
 21 22  1  0  0  0
 21 26  4  0  0  0
 23 24  4  0  0  0
 24 25  4  0  0  0
 25 26  4  0  0  0
  1 28  1  0  0  0
  2 29  1  0  0  0
  3 30  1  0  0  0
  4 31  1  0  0  0
  8 32  1  0  0  0
  8 33  1  0  0  0
  9 34  1  0  0  0
  9 35  1  0  0  0
 10 36  1  0  0  0
 11 37  1  0  0  0
 12 38  1  0  0  0
 13 39  1  0  0  0
 14 40  1  0  0  0
 14 41  1  0  0  0
 14 42  1  0  0  0
 15 43  1  0  0  0
 15 44  1  0  0  0
 15 45  1  0  0  0
 16 46  1  0  0  0
 16 47  1  0  0  0
 16 48  1  0  0  0
 18 49  1  0  0  0
 19 50  1  0  0  0
 19 51  1  0  0  0
 22 52  1  0  0  0
 22 53  1  0  0  0
 23 54  1  0  0  0
 24 55  1  0  0  0
 25 56  1  0  0  0
 26 57  1  0  0  0
 27 58  1  0  0  0
 27 59  1  0  0  0
 27 60  1  0  0  0
M  END
$$$$
