6gy1_ligand
  -I-interpret- 

 34 36  0  0  0  0  0  0  0  0999 V2000
   12.6890   -6.2710  -22.0500 C   0  0  0  0  0
   13.7070   -5.6440  -21.2970 C   0  0  0  0  0
   14.9240   -6.3270  -21.0340 C   0  0  0  0  0
   15.7470   -4.5160  -19.8440 C   0  0  0  0  0
   13.5660   -4.3450  -20.7880 C   0  0  0  0  0
   10.2300   -4.1620  -20.1840 C   0  0  0  0  0
    8.9110   -5.2830  -18.4820 C   0  0  0  0  0
    9.6570   -6.5410  -20.4170 C   0  0  0  0  0
   15.0680   -7.6200  -21.5360 C   0  0  0  0  0
   10.2730   -5.3730  -20.8790 C   0  0  0  0  0
    9.5360   -4.1340  -18.9760 C   0  0  0  0  0
    8.9740   -6.4820  -19.1990 C   0  0  0  0  0
    8.1750   -5.2160  -17.1800 C   0  0  0  0  0
   14.0450   -8.2230  -22.2780 C   0  0  0  0  0
   12.8530   -7.5610  -22.5430 C   0  0  0  0  0
   14.5990   -3.7750  -20.0510 C   0  0  0  0  0
   14.1920   -9.4610  -22.7510 F   0  0  0  0  0
   15.9270   -5.7710  -20.3210 N   0  0  0  0  0
   10.3470   -6.3470  -23.2300 O   0  0  0  0  0
   11.4690   -4.0790  -22.7820 O   0  0  0  0  0
   16.2450   -8.3130  -21.2860 O   0  0  0  0  0
   11.1450   -5.4440  -22.4140 S   0  0  0  0  0
   16.5527   -4.0654  -19.2645 H   0  0  0  0  0
   12.6495   -3.7835  -20.9693 H   0  0  0  0  0
   10.7219   -3.2705  -20.5729 H   0  0  0  0  0
    9.7081   -7.4676  -20.9887 H   0  0  0  0  0
    9.4797   -3.2047  -18.4091 H   0  0  0  0  0
    8.4880   -7.3750  -18.8060 H   0  0  0  0  0
    8.8648   -4.9219  -16.3889 H   0  0  0  0  0
    7.3723   -4.4825  -17.2552 H   0  0  0  0  0
    7.7540   -6.1951  -16.9513 H   0  0  0  0  0
   12.0651   -8.0410  -23.1234 H   0  0  0  0  0
   14.5051   -2.7673  -19.6462 H   0  0  0  0  0
   16.1960   -9.1816  -21.6920 H   0  0  0  0  0
  1  2  4  0  0  0
  1 15  4  0  0  0
 22  1  1  0  0  0
  2  3  4  0  0  0
  2  5  4  0  0  0
  3  9  4  0  0  0
  3 18  4  0  0  0
 16  4  4  0  0  0
 18  4  4  0  0  0
  5 16  4  0  0  0
 10  6  4  0  0  0
  6 11  4  0  0  0
 11  7  4  0  0  0
 12  7  4  0  0  0
  7 13  1  0  0  0
 10  8  4  0  0  0
  8 12  4  0  0  0
  9 14  4  0  0  0
  9 21  1  0  0  0
 10 22  1  0  0  0
 14 15  4  0  0  0
 14 17  1  0  0  0
 22 19  2  0  0  0
 22 20  2  0  0  0
  4 23  1  0  0  0
  5 24  1  0  0  0
  6 25  1  0  0  0
  8 26  1  0  0  0
 11 27  1  0  0  0
 12 28  1  0  0  0
 13 29  1  0  0  0
 13 30  1  0  0  0
 13 31  1  0  0  0
 15 32  1  0  0  0
 16 33  1  0  0  0
 21 34  1  0  0  0
M  END
$$$$
