5l8o_ligand
  -I-interpret- 

 69 72  0  0  0  0  0  0  0  0999 V2000
   65.7060    6.5630   73.8330 C   0  0  0  0  0
   67.1620    6.3520   73.4630 C   0  0  0  0  0
   67.2750    5.9330   72.0080 C   0  0  0  0  0
   68.6460    5.6390   71.7530 O   0  0  0  0  0
   66.4180    4.7010   71.7080 C   0  0  0  0  0
   64.9670    4.8250   72.2040 C   0  0  0  0  0
   64.2130    3.5100   71.9280 C   0  0  0  0  0
   64.3340    2.4060   72.9910 C   0  0  0  0  0
   65.5430    1.6780   72.7470 O   0  0  0  0  0
   64.2870    2.9200   74.4350 C   0  0  0  0  0
   65.2410    4.1210   74.5950 C   0  0  0  0  0
   64.8510    5.3010   73.6640 C   0  0  0  0  0
   65.4870    4.5310   76.0580 C   0  0  0  0  0
   65.6870    3.3880   77.0590 C   0  0  0  0  0
   67.0200    2.8630   76.9150 O   0  0  0  0  0
   64.6220    2.2980   76.9150 C   0  0  0  0  0
   64.6300    1.8360   75.4590 C   0  0  0  0  0
   63.7640    0.5870   75.4490 C   0  0  0  0  0
   64.0540   -0.0470   76.8090 C   0  0  0  0  0
   64.8920    0.9590   77.6180 C   0  0  0  0  0
   63.2600    2.8650   77.3680 C   0  0  0  0  0
   63.4220    5.8080   73.9110 C   0  0  0  0  0
   64.6520    0.8240   79.1390 C   0  0  0  0  0
   65.4320    1.8520   79.9730 C   0  0  0  0  0
   64.9320   -0.6390   79.5320 C   0  0  0  0  0
   65.4210   -0.9130   80.9500 C   0  0  0  0  0
   64.4980   -3.0540   81.3960 O   0  0  0  0  0
   65.5280   -2.4080   81.0960 C   0  0  0  0  0
   66.6420   -2.9330   80.8900 O   0  0  0  0  0
   65.3033    7.3265   73.1675 H   0  0  0  0  0
   65.6702    6.8480   74.8845 H   0  0  0  0  0
   67.5818    5.5689   74.0944 H   0  0  0  0  0
   67.7073    7.2843   73.6102 H   0  0  0  0  0
   66.9158    6.7392   71.3684 H   0  0  0  0  0
   69.1791    6.4146   71.9426 H   0  0  0  0  0
   66.8694    3.8547   72.2259 H   0  0  0  0  0
   66.3843    4.5820   70.6250 H   0  0  0  0  0
   64.4852    5.6206   71.6356 H   0  0  0  0  0
   64.6508    3.0991   71.0183 H   0  0  0  0  0
   63.1560    3.7734   71.8888 H   0  0  0  0  0
   63.4618    1.7591   72.8962 H   0  0  0  0  0
   65.6347    0.9831   73.4030 H   0  0  0  0  0
   63.2613    3.2310   74.6331 H   0  0  0  0  0
   66.2188    3.7802   74.2545 H   0  0  0  0  0
   64.5911    5.0624   76.3791 H   0  0  0  0  0
   66.4149    5.1030   76.0610 H   0  0  0  0  0
   65.5685    3.7821   78.0683 H   0  0  0  0  0
   67.1498    2.1464   77.5405 H   0  0  0  0  0
   65.6349    1.5982   75.1102 H   0  0  0  0  0
   63.9935   -0.0782   74.6165 H   0  0  0  0  0
   62.7066    0.8086   75.3043 H   0  0  0  0  0
   64.5973   -0.9838   76.6852 H   0  0  0  0  0
   63.1240   -0.2749   77.3298 H   0  0  0  0  0
   65.9701    0.7981   77.6171 H   0  0  0  0  0
   63.3271    3.1795   78.4095 H   0  0  0  0  0
   62.9986    3.7203   76.7450 H   0  0  0  0  0
   62.4957    2.0942   77.2684 H   0  0  0  0  0
   62.7148    4.9973   73.7356 H   0  0  0  0  0
   63.3332    6.1528   74.9412 H   0  0  0  0  0
   63.2077    6.6323   73.2308 H   0  0  0  0  0
   63.6131    1.0617   79.3679 H   0  0  0  0  0
   66.5002    1.7255   79.7968 H   0  0  0  0  0
   65.1310    2.8582   79.6813 H   0  0  0  0  0
   65.2162    1.6990   81.0304 H   0  0  0  0  0
   65.7396   -0.9666   78.8774 H   0  0  0  0  0
   63.9730   -1.1506   79.4510 H   0  0  0  0  0
   64.7277   -0.5019   81.6838 H   0  0  0  0  0
   66.3864   -0.4379   81.1242 H   0  0  0  0  0
   63.7622   -2.4475   81.5069 H   0  0  0  0  0
  1  2  1  0  0  0
  1 12  1  0  0  0
  2  3  1  0  0  0
  3  4  1  0  0  0
  3  5  1  0  0  0
  5  6  1  0  0  0
  6  7  1  0  0  0
  6 12  1  0  0  0
  7  8  1  0  0  0
  8  9  1  0  0  0
  8 10  1  0  0  0
 10 11  1  0  0  0
 10 17  1  0  0  0
 11 12  1  0  0  0
 11 13  1  0  0  0
 12 22  1  0  0  0
 13 14  1  0  0  0
 14 15  1  0  0  0
 14 16  1  0  0  0
 16 17  1  0  0  0
 16 20  1  0  0  0
 16 21  1  0  0  0
 17 18  1  0  0  0
 18 19  1  0  0  0
 19 20  1  0  0  0
 20 23  1  0  0  0
 23 24  1  0  0  0
 23 25  1  0  0  0
 25 26  1  0  0  0
 26 28  1  0  0  0
 28 27  1  0  0  0
 28 29  2  0  0  0
  1 30  1  0  0  0
  1 31  1  0  0  0
  2 32  1  0  0  0
  2 33  1  0  0  0
  3 34  1  0  0  0
  4 35  1  0  0  0
  5 36  1  0  0  0
  5 37  1  0  0  0
  6 38  1  0  0  0
  7 39  1  0  0  0
  7 40  1  0  0  0
  8 41  1  0  0  0
  9 42  1  0  0  0
 10 43  1  0  0  0
 11 44  1  0  0  0
 13 45  1  0  0  0
 13 46  1  0  0  0
 14 47  1  0  0  0
 15 48  1  0  0  0
 17 49  1  0  0  0
 18 50  1  0  0  0
 18 51  1  0  0  0
 19 52  1  0  0  0
 19 53  1  0  0  0
 20 54  1  0  0  0
 21 55  1  0  0  0
 21 56  1  0  0  0
 21 57  1  0  0  0
 22 58  1  0  0  0
 22 59  1  0  0  0
 22 60  1  0  0  0
 23 61  1  0  0  0
 24 62  1  0  0  0
 24 63  1  0  0  0
 24 64  1  0  0  0
 25 65  1  0  0  0
 25 66  1  0  0  0
 26 67  1  0  0  0
 26 68  1  0  0  0
 27 69  1  0  0  0
M  END
$$$$
