5jbi_ligand
  -I-interpret- 

 47 47  0  0  0  0  0  0  0  0999 V2000
   -0.0070   14.2650   21.6960 C   0  0  0  0  0
    0.9780   14.0890   20.5350 C   0  0  0  0  0
    2.2270   13.2920   20.9860 C   0  0  0  0  0
    3.4680   13.9090   20.3460 C   0  0  0  0  0
   -2.1190   15.8760   22.2260 O   0  0  0  0  0
    0.1190   16.8840   22.4090 O   0  0  0  0  0
    3.4430   12.1830   18.5350 C   0  0  0  0  0
    0.2830   13.4160   19.3140 C   0  0  0  0  0
   -0.1900   11.9710   19.6080 C   0  0  0  0  0
   -0.8220   11.3650   18.3340 C   0  0  0  0  0
    0.2540   11.0220   17.3160 C   0  0  0  0  0
    1.0680    9.9260   17.5190 C   0  0  0  0  0
    0.4210   11.8120   16.1800 C   0  0  0  0  0
    3.7790   11.0010   13.6410 C   0  0  0  0  0
    3.9500   14.9070   20.8650 O   0  0  0  0  0
    4.0010   13.3990   19.1900 N   0  0  0  0  0
    5.1190   14.0290   18.6170 O   0  0  0  0  0
   -0.7360   15.9280   21.6250 P   0  0  0  0  0
   -0.8330   16.3810   20.2070 O   0  0  0  0  0
    2.0500    9.6030   16.5980 C   0  0  0  0  0
    2.2380   10.3880   15.4710 C   0  0  0  0  0
    3.2150   10.0350   14.5530 O   0  0  0  0  0
    1.4060   11.4970   15.2550 C   0  0  0  0  0
    0.5200   14.1394   22.6418 H   0  0  0  0  0
   -0.7972   13.5183   21.6184 H   0  0  0  0  0
    1.3134   15.0772   20.2203 H   0  0  0  0  0
    2.1314   12.2518   20.6747 H   0  0  0  0  0
    2.3155   13.3307   22.0717 H   0  0  0  0  0
   -2.0593   15.5847   23.1388 H   0  0  0  0  0
    0.1770   16.5865   23.3199 H   0  0  0  0  0
    3.1288   12.4299   17.5209 H   0  0  0  0  0
    4.2076   11.4069   18.5010 H   0  0  0  0  0
    2.5857   11.8256   19.1055 H   0  0  0  0  0
    1.0094   13.3691   18.5026 H   0  0  0  0  0
   -0.5967   14.0091   19.0641 H   0  0  0  0  0
   -0.9303   11.9872   20.4079 H   0  0  0  0  0
    0.6630   11.3650   19.9134 H   0  0  0  0  0
   -1.5037   12.0941   17.8961 H   0  0  0  0  0
   -1.3573   10.4545   18.6034 H   0  0  0  0  0
    0.9370    9.3112   18.4095 H   0  0  0  0  0
   -0.2221   12.6771   16.0183 H   0  0  0  0  0
    2.9874   11.4134   13.0153 H   0  0  0  0  0
    4.2500   11.8032   14.2090 H   0  0  0  0  0
    4.5240   10.5134   13.0123 H   0  0  0  0  0
    5.3613   14.7921   19.1467 H   0  0  0  0  0
    2.6784    8.7272   16.7599 H   0  0  0  0  0
    1.5332   12.1097   14.3625 H   0  0  0  0  0
  2  1  1  0  0  0
  1 18  1  0  0  0
  2  3  1  0  0  0
  8  2  1  0  0  0
  3  4  1  0  0  0
  4 15  2  0  0  0
  4 16  1  0  0  0
 18  5  1  0  0  0
 18  6  1  0  0  0
 16  7  1  0  0  0
  9  8  1  0  0  0
 10  9  1  0  0  0
 11 10  1  0  0  0
 12 11  4  0  0  0
 11 13  4  0  0  0
 20 12  4  0  0  0
 13 23  4  0  0  0
 22 14  1  0  0  0
 16 17  1  0  0  0
 18 19  2  0  0  0
 21 20  4  0  0  0
 21 22  1  0  0  0
 21 23  4  0  0  0
  1 24  1  0  0  0
  1 25  1  0  0  0
  2 26  1  0  0  0
  3 27  1  0  0  0
  3 28  1  0  0  0
  5 29  1  0  0  0
  6 30  1  0  0  0
  7 31  1  0  0  0
  7 32  1  0  0  0
  7 33  1  0  0  0
  8 34  1  0  0  0
  8 35  1  0  0  0
  9 36  1  0  0  0
  9 37  1  0  0  0
 10 38  1  0  0  0
 10 39  1  0  0  0
 12 40  1  0  0  0
 13 41  1  0  0  0
 14 42  1  0  0  0
 14 43  1  0  0  0
 14 44  1  0  0  0
 17 45  1  0  0  0
 20 46  1  0  0  0
 23 47  1  0  0  0
M  END
$$$$
