### 
### Created by X-TOOL on Mon Sep 10 21:13:27 2018
### 

@<TRIPOS>MOLECULE
5jbi_ligand
   45    45     1     0     0
SMALL
GAST_HUCK


@<TRIPOS>ATOM
      1 C1         -0.0070   14.2650   21.6960 C.3       1 6J8         0.0245
      2 C2          0.9780   14.0890   20.5350 C.3       1 6J8        -0.0091
      3 C3          2.2270   13.2920   20.9860 C.3       1 6J8         0.0432
      4 C4          3.4680   13.9090   20.3460 C.2       1 6J8         0.2014
      5 O6         -2.1190   15.8760   22.2260 O.co2     1 6J8        -0.5622
      6 O7          0.1190   16.8840   22.4090 O.co2     1 6J8        -0.5622
      7 C11         3.4430   12.1830   18.5350 C.3       1 6J8         0.0516
      8 C13         0.2830   13.4160   19.3140 C.3       1 6J8        -0.0453
      9 C14        -0.1900   11.9710   19.6080 C.3       1 6J8        -0.0443
     10 C15        -0.8220   11.3650   18.3340 C.3       1 6J8        -0.0242
     11 C16         0.2540   11.0220   17.3160 C.ar      1 6J8        -0.0537
     12 C17         1.0680    9.9260   17.5190 C.ar      1 6J8        -0.0687
     13 C18         0.4210   11.8120   16.1800 C.ar      1 6J8        -0.0687
     14 C23         3.7790   11.0010   13.6410 C.3       1 6J8         0.0579
     15 O12         3.9500   14.9070   20.8650 O.2       1 6J8        -0.3968
     16 N9          4.0010   13.3990   19.1900 N.am      1 6J8        -0.1538
     17 O10         5.1190   14.0290   18.6170 O.3       1 6J8        -0.2694
     18 P5         -0.7360   15.9280   21.6250 P.3       1 6J8         0.0583
     19 O8         -0.8330   16.3810   20.2070 O.co2     1 6J8        -0.5622
     20 C19         2.0500    9.6030   16.5980 C.ar      1 6J8        -0.0396
     21 C21         2.2380   10.3880   15.4710 C.ar      1 6J8         0.0837
     22 O22         3.2150   10.0350   14.5530 O.3       1 6J8        -0.3257
     23 C20         1.4060   11.4970   15.2550 C.ar      1 6J8        -0.0396
     24 H1          0.5248   14.1383   22.6505 H         1 6J8         0.0455
     25 H2         -0.8045   13.5115   21.6177 H         1 6J8         0.0455
     26 H3          1.3129   15.0888   20.2216 H         1 6J8         0.0339
     27 H4          2.1304   12.2436   20.6675 H         1 6J8         0.0505
     28 H5          2.3166   13.3356   22.0815 H         1 6J8         0.0505
     29 H6          4.0225   11.9566   17.6278 H         1 6J8         0.0514
     30 H7          2.3922   12.3622   18.2636 H         1 6J8         0.0514
     31 H8          3.5023   11.3323   19.2298 H         1 6J8         0.0514
     32 H9          0.9956   13.3880   18.4765 H         1 6J8         0.0271
     33 H10        -0.5915   14.0204   19.0313 H         1 6J8         0.0271
     34 H11        -0.9368   11.9870   20.4154 H         1 6J8         0.0285
     35 H12         0.6706   11.3594   19.9166 H         1 6J8         0.0285
     36 H13        -1.5177   12.0942   17.8933 H         1 6J8         0.0405
     37 H14        -1.3709   10.4503   18.6023 H         1 6J8         0.0405
     38 H15         0.9377    9.3146   18.4046 H         1 6J8         0.0530
     39 H16        -0.2185   12.6723   16.0192 H         1 6J8         0.0530
     40 H17         4.5311   10.5101   13.0059 H         1 6J8         0.0575
     41 H18         4.2547   11.8112   14.2131 H         1 6J8         0.0575
     42 H19         2.9811   11.4179   13.0089 H         1 6J8         0.0575
     43 H20         5.3588   14.7841   19.1412 H         1 6J8         0.2492
     44 H21         2.6749    8.7320   16.7590 H         1 6J8         0.0525
     45 H22         1.5325   12.1063   14.3674 H         1 6J8         0.0525
@<TRIPOS>BOND
     1    2    1 1  
     2    1   18 1  
     3    2    3 1  
     4    8    2 1  
     5    3    4 1  
     6    4   15 2  
     7    4   16 am 
     8   18    5 ar 
     9   18    6 ar 
    10   16    7 1  
    11    9    8 1  
    12   10    9 1  
    13   11   10 1  
    14   12   11 ar 
    15   11   13 ar 
    16   20   12 ar 
    17   13   23 ar 
    18   22   14 1  
    19   16   17 1  
    20   18   19 ar 
    21   21   20 ar 
    22   21   22 1  
    23   21   23 ar 
    24    1   24 1  
    25    1   25 1  
    26    2   26 1  
    27    3   27 1  
    28    3   28 1  
    29    7   29 1  
    30    7   30 1  
    31    7   31 1  
    32    8   32 1  
    33    8   33 1  
    34    9   34 1  
    35    9   35 1  
    36   10   36 1  
    37   10   37 1  
    38   12   38 1  
    39   13   39 1  
    40   14   40 1  
    41   14   41 1  
    42   14   42 1  
    43   17   43 1  
    44   20   44 1  
    45   23   45 1  
@<TRIPOS>SUBSTRUCTURE
     1 6J8         1

