4iax_ligand
  -I-interpret- 

 82 83  0  0  0  0  0  0  0  0999 V2000
    2.1810  -17.3000    2.5320 N   0  3  0  0  0
    6.5500  -18.8220    3.8180 N   0  3  0  0  0
    2.0040  -16.1480    3.4070 C   0  0  0  0  0
    3.1290  -20.7250    1.6220 C   0  0  0  0  0
    3.4480  -20.9290    3.1220 C   0  0  0  0  0
    7.1390  -16.4540    3.5460 C   0  0  0  0  0
    7.0170  -17.5810    4.5440 C   0  0  0  0  0
    7.6610  -19.4120    3.0450 C   0  0  0  0  0
    4.4770  -19.6750    5.0700 C   0  0  0  0  0
    3.9770  -20.7950    6.0230 C   0  0  0  0  0
    6.3330  -21.0550    6.9730 C   0  0  0  0  0
   -0.9580  -20.4600    3.0120 C   0  0  0  0  0
   -1.6610  -21.6450    3.4190 C   0  0  0  0  0
   -2.1740  -21.7100    4.7550 C   0  0  0  0  0
   -1.2430  -19.5670    5.2420 C   0  0  0  0  0
   -3.5960  -23.7400    4.6650 C   0  0  0  0  0
    7.7950  -15.4220    3.8720 O   0  0  0  0  0
    6.6250  -16.6160    2.3920 O   0  0  0  0  0
    7.0580  -20.3400    1.9980 C   0  0  0  0  0
    5.9240  -20.0680    1.5520 O   0  0  0  0  0
    7.7030  -21.3760    1.6440 O   0  0  0  0  0
    5.9920  -19.8690    4.7490 C   0  0  0  0  0
    6.8390  -19.9380    6.0570 C   0  0  0  0  0
    4.8310  -20.8590    7.3040 C   0  0  0  0  0
    3.5730  -19.5950    3.8080 N   0  3  0  0  0
    3.3490  -19.6090    1.1030 O   0  0  0  0  0
    2.6340  -21.6540    0.9880 O   0  0  0  0  0
    2.2300  -19.1270    4.2400 C   0  0  0  0  0
    1.4340  -18.4990    3.0730 C   0  0  0  0  0
    3.2370  -15.9530    4.2540 C   0  0  0  0  0
    4.2800  -16.5880    3.9570 O   0  0  0  0  0
    3.1610  -15.1880    5.2160 O   0  0  0  0  0
    1.7470  -16.9400    1.2230 C   0  0  0  0  0
    2.6080  -16.2350    0.4160 C   0  0  0  0  0
    3.8010  -16.1130    0.7570 O   0  0  0  0  0
    2.1990  -15.7770   -0.6420 O   0  0  0  0  0
   -0.0260  -18.1270    3.5770 C   0  0  0  0  0
   -0.7730  -19.4170    3.9520 C   0  0  0  0  0
   -1.9430  -20.6910    5.6130 C   0  0  0  0  0
   -2.7770  -22.8940    5.3050 N   0  0  0  0  0
   -4.0500  -23.5030    3.0910 S   0  0  0  0  0
   -4.0880  -24.7950    5.3370 N   0  0  0  0  0
    3.1643  -17.5677    2.4897 H   0  0  0  0  0
    5.7991  -18.5256    3.1946 H   0  0  0  0  0
    1.1449  -16.3179    4.0560 H   0  0  0  0  0
    1.8398  -15.2574    2.8004 H   0  0  0  0  0
    4.3888  -21.4711    3.2180 H   0  0  0  0  0
    2.6415  -21.4966    3.5861 H   0  0  0  0  0
    7.9834  -17.7674    5.0124 H   0  0  0  0  0
    6.2992  -17.3132    5.3194 H   0  0  0  0  0
    8.3278  -19.9677    3.7044 H   0  0  0  0  0
    8.2459  -18.6279    2.5641 H   0  0  0  0  0
    4.3950  -18.7063    5.5629 H   0  0  0  0  0
    4.0532  -21.7515    5.5059 H   0  0  0  0  0
    2.9458  -20.5792    6.3027 H   0  0  0  0  0
    6.9030  -21.0327    7.9018 H   0  0  0  0  0
    6.4585  -22.0106    6.4638 H   0  0  0  0  0
   -0.5734  -20.3653    1.9965 H   0  0  0  0  0
   -1.8008  -22.4756    2.7271 H   0  0  0  0  0
   -1.0565  -18.7834    5.9764 H   0  0  0  0  0
    6.1743  -17.4630    2.3597 H   0  0  0  0  0
    8.5471  -21.3976    2.1007 H   0  0  0  0  0
    6.0630  -20.8215    4.2239 H   0  0  0  0  0
    7.8768  -20.1421    5.7936 H   0  0  0  0  0
    6.7534  -18.9866    6.5821 H   0  0  0  0  0
    4.4949  -21.7059    7.9023 H   0  0  0  0  0
    4.7153  -19.9196    7.8446 H   0  0  0  0  0
    3.9924  -18.9501    3.1383 H   0  0  0  0  0
    3.7357  -19.0234    1.7580 H   0  0  0  0  0
    2.3647  -18.3667    5.0094 H   0  0  0  0  0
    1.6717  -19.9868    4.6102 H   0  0  0  0  0
    1.3311  -19.2105    2.2537 H   0  0  0  0  0
    4.1170  -17.1214    3.1757 H   0  0  0  0  0
    0.8954  -16.2775    1.3778 H   0  0  0  0  0
    1.5840  -17.8862    0.7071 H   0  0  0  0  0
    3.9333  -16.5326    1.6103 H   0  0  0  0  0
   -0.5659  -17.6078    2.7851 H   0  0  0  0  0
    0.0419  -17.4762    4.4487 H   0  0  0  0  0
   -2.3239  -20.7627    6.6317 H   0  0  0  0  0
   -2.5601  -23.1113    6.2777 H   0  0  0  0  0
   -4.7326  -25.4375    4.8765 H   0  0  0  0  0
   -3.8167  -24.9531    6.3075 H   0  0  0  0  0
  1  3  1  0  0  0
 29  1  1  0  0  0
  1 33  1  0  0  0
  2  7  1  0  0  0
  2  8  1  0  0  0
 22  2  1  0  0  0
  3 30  1  0  0  0
  5  4  1  0  0  0
  4 26  1  0  0  0
  4 27  2  0  0  0
 25  5  1  0  0  0
  7  6  1  0  0  0
  6 17  2  0  0  0
  6 18  1  0  0  0
  8 19  1  0  0  0
  9 10  1  0  0  0
  9 22  1  0  0  0
 25  9  1  0  0  0
 10 24  1  0  0  0
 23 11  1  0  0  0
 24 11  1  0  0  0
 12 13  4  0  0  0
 38 12  4  0  0  0
 13 14  4  0  0  0
 39 14  4  0  0  0
 14 40  1  0  0  0
 38 15  4  0  0  0
 15 39  4  0  0  0
 40 16  1  0  0  0
 16 41  2  0  0  0
 16 42  1  0  0  0
 19 20  2  0  0  0
 19 21  1  0  0  0
 22 23  1  0  0  0
 28 25  1  0  0  0
 29 28  1  0  0  0
 37 29  1  0  0  0
 30 31  1  0  0  0
 30 32  2  0  0  0
 33 34  1  0  0  0
 34 35  1  0  0  0
 34 36  2  0  0  0
 37 38  1  0  0  0
  1 43  1  0  0  0
  2 44  1  0  0  0
  3 45  1  0  0  0
  3 46  1  0  0  0
  5 47  1  0  0  0
  5 48  1  0  0  0
  7 49  1  0  0  0
  7 50  1  0  0  0
  8 51  1  0  0  0
  8 52  1  0  0  0
  9 53  1  0  0  0
 10 54  1  0  0  0
 10 55  1  0  0  0
 11 56  1  0  0  0
 11 57  1  0  0  0
 12 58  1  0  0  0
 13 59  1  0  0  0
 15 60  1  0  0  0
 18 61  1  0  0  0
 21 62  1  0  0  0
 22 63  1  0  0  0
 23 64  1  0  0  0
 23 65  1  0  0  0
 24 66  1  0  0  0
 24 67  1  0  0  0
 25 68  1  0  0  0
 26 69  1  0  0  0
 28 70  1  0  0  0
 28 71  1  0  0  0
 29 72  1  0  0  0
 31 73  1  0  0  0
 33 74  1  0  0  0
 33 75  1  0  0  0
 35 76  1  0  0  0
 37 77  1  0  0  0
 37 78  1  0  0  0
 39 79  1  0  0  0
 40 80  1  0  0  0
 42 81  1  0  0  0
 42 82  1  0  0  0
M  END
$$$$
