4yff_ligand
  -I-interpret- 

 46 49  0  0  0  0  0  0  0  0999 V2000
   46.6320    9.4650   84.2960 C   0  0  0  0  0
   43.9440    7.0170   84.8530 C   0  0  0  0  0
   44.1350    7.3740   82.5380 C   0  0  0  0  0
   47.7240    9.2730   85.1380 C   0  0  0  0  0
   50.3430    8.0900   88.3730 C   0  0  0  0  0
   48.0310    5.1160   87.0050 C   0  0  0  0  0
   48.7230    6.3330   87.2790 C   0  0  0  0  0
   51.7810   12.4030   84.1080 C   0  0  0  0  0
   50.9210   12.1840   85.2890 N   0  0  0  0  0
   49.3670   12.9250   85.2010 S   0  0  0  0  0
   49.0060   13.3050   86.5580 O   0  0  0  0  0
   49.2430   13.8570   84.0810 O   0  0  0  0  0
   48.3090   11.5620   84.8380 C   0  0  0  0  0
   47.2440   11.7730   84.0010 C   0  0  0  0  0
   46.4010   10.7120   83.7360 C   0  0  0  0  0
   45.7570    8.3860   84.0140 N   0  0  0  0  0
   44.8610    8.1890   85.1540 C   0  0  0  0  0
   43.2250    7.2620   83.6400 O   0  0  0  0  0
   45.0400    8.5780   82.7560 C   0  0  0  0  0
   47.9380    7.9890   85.6860 N   0  0  0  0  0
   48.7590    7.6300   86.7680 C   0  0  0  0  0
   49.5970    8.5000   87.3410 N   0  0  0  0  0
   50.3920    6.8880   88.9590 N   0  0  0  0  0
   49.5490    6.0460   88.3530 C   0  0  0  0  0
   49.3640    4.7370   88.7030 N   0  0  0  0  0
   48.4370    4.1510   87.8880 C   0  0  0  0  0
   46.7430    4.8400   85.6340 Br  0  0  0  0  0
   48.5660   10.3380   85.4070 C   0  0  0  0  0
   43.2361    6.8940   85.6726 H   0  0  0  0  0
   44.5412    6.1120   84.7411 H   0  0  0  0  0
   43.5740    7.5012   81.6121 H   0  0  0  0  0
   44.7397    6.4697   82.4698 H   0  0  0  0  0
   51.0064    8.8435   88.7976 H   0  0  0  0  0
   51.2899   11.9992   83.2226 H   0  0  0  0  0
   51.9494   13.4718   83.9760 H   0  0  0  0  0
   52.7359   11.8991   84.2571 H   0  0  0  0  0
   51.2235   11.6364   86.0946 H   0  0  0  0  0
   47.0673   12.7524   83.5564 H   0  0  0  0  0
   45.5436   10.8566   83.0786 H   0  0  0  0  0
   45.4432    7.9834   86.0522 H   0  0  0  0  0
   44.2697    9.0893   85.3210 H   0  0  0  0  0
   44.4463    9.4911   82.7979 H   0  0  0  0  0
   45.7468    8.6705   81.9314 H   0  0  0  0  0
   47.4317    7.2246   85.2390 H   0  0  0  0  0
   48.0892    3.1189   87.9319 H   0  0  0  0  0
   49.4255   10.2069   86.0645 H   0  0  0  0  0
  4  1  4  0  0  0
  1 15  4  0  0  0
  1 16  1  0  0  0
 17  2  1  0  0  0
  2 18  1  0  0  0
  3 18  1  0  0  0
 19  3  1  0  0  0
 20  4  1  0  0  0
  4 28  4  0  0  0
 22  5  4  0  0  0
  5 23  4  0  0  0
  7  6  4  0  0  0
  6 26  4  0  0  0
  6 27  1  0  0  0
 21  7  4  0  0  0
  7 24  4  0  0  0
  9  8  1  0  0  0
 10  9  1  0  0  0
 10 11  2  0  0  0
 10 12  2  0  0  0
 13 10  1  0  0  0
 13 14  4  0  0  0
 28 13  4  0  0  0
 15 14  4  0  0  0
 16 17  1  0  0  0
 16 19  1  0  0  0
 21 20  1  0  0  0
 21 22  4  0  0  0
 23 24  4  0  0  0
 24 25  4  0  0  0
 25 26  4  0  0  0
  2 29  1  0  0  0
  2 30  1  0  0  0
  3 31  1  0  0  0
  3 32  1  0  0  0
  5 33  1  0  0  0
  8 34  1  0  0  0
  8 35  1  0  0  0
  8 36  1  0  0  0
  9 37  1  0  0  0
 14 38  1  0  0  0
 15 39  1  0  0  0
 17 40  1  0  0  0
 17 41  1  0  0  0
 19 42  1  0  0  0
 19 43  1  0  0  0
 20 44  1  0  0  0
 26 45  1  0  0  0
 28 46  1  0  0  0
M  END
$$$$
