6oio_ligand
  -I-interpret- 

 41 43  0  0  0  0  0  0  0  0999 V2000
    5.1860   10.7850   17.8550 C   0  0  0  0  0
    6.0000   11.8630   18.1960 C   0  0  0  0  0
    7.2620   13.8200   17.5460 C   0  0  0  0  0
    6.4580   12.7180   17.2150 C   0  0  0  0  0
    6.2020   12.1230   19.5910 C   0  0  0  0  0
    7.0240   13.2200   19.9350 C   0  0  0  0  0
    7.5760   14.0620   18.9300 C   0  0  0  0  0
    7.7490   14.7020   16.5400 C   0  0  0  0  0
    8.8020   16.5440   14.5500 C   0  0  0  0  0
    8.6470   15.1500   14.2570 C   0  0  0  0  0
    8.1460   14.2700   15.2690 C   0  0  0  0  0
    8.3750   16.9310   15.8320 C   0  0  0  0  0
    7.9330   16.0360   16.8380 C   0  0  0  0  0
    5.4200   10.0850   16.8960 O   0  0  0  0  0
    4.1000   10.5810   18.6230 N   0  0  0  0  0
    3.0830    9.4720   18.2430 N   0  0  0  0  0
    3.2340    8.0140   19.2950 S   0  0  0  0  0
    2.4190    6.9180   18.8180 O   0  0  0  0  0
    4.6680    7.5900   19.6530 O   0  0  0  0  0
    2.5830    8.4600   20.9640 C   0  0  0  0  0
    3.2190    9.4630   21.7100 C   0  0  0  0  0
    2.7030    9.7000   23.0160 C   0  0  0  0  0
    1.5170    9.0470   23.3820 C   0  0  0  0  0
    0.8930    8.0890   22.5730 C   0  0  0  0  0
    1.4680    7.7670   21.3100 C   0  0  0  0  0
    6.1931   12.5362   16.1734 H   0  0  0  0  0
    5.7399   11.4993   20.3563 H   0  0  0  0  0
    7.2378   13.4236   20.9842 H   0  0  0  0  0
    8.2334   14.8863   19.2064 H   0  0  0  0  0
    9.2195   17.2509   13.8329 H   0  0  0  0  0
    8.9083   14.7629   13.2721 H   0  0  0  0  0
    8.0696   13.2076   15.0377 H   0  0  0  0  0
    8.3845   17.9948   16.0692 H   0  0  0  0  0
    7.7386   16.4016   17.8463 H   0  0  0  0  0
    3.9456   11.1538   19.4528 H   0  0  0  0  0
    2.4062    9.5576   17.4847 H   0  0  0  0  0
    4.0611   10.0294   21.3124 H   0  0  0  0  0
    3.2138   10.3680   23.7095 H   0  0  0  0  0
    1.0601    9.2964   24.3397 H   0  0  0  0  0
   -0.0207    7.5962   22.9054 H   0  0  0  0  0
    1.0370    7.0071   20.6582 H   0  0  0  0  0
  2  1  1  0  0  0
  1 14  2  0  0  0
  1 15  1  0  0  0
  4  2  4  0  0  0
  2  5  4  0  0  0
  3  4  4  0  0  0
  3  7  4  0  0  0
  8  3  1  0  0  0
  6  5  4  0  0  0
  7  6  4  0  0  0
 11  8  4  0  0  0
  8 13  4  0  0  0
 10  9  4  0  0  0
  9 12  4  0  0  0
 10 11  4  0  0  0
 12 13  4  0  0  0
 15 16  1  0  0  0
 16 17  1  0  0  0
 17 18  2  0  0  0
 17 19  2  0  0  0
 17 20  1  0  0  0
 20 21  4  0  0  0
 20 25  4  0  0  0
 21 22  4  0  0  0
 22 23  4  0  0  0
 23 24  4  0  0  0
 24 25  4  0  0  0
  4 26  1  0  0  0
  5 27  1  0  0  0
  6 28  1  0  0  0
  7 29  1  0  0  0
  9 30  1  0  0  0
 10 31  1  0  0  0
 11 32  1  0  0  0
 12 33  1  0  0  0
 13 34  1  0  0  0
 15 35  1  0  0  0
 16 36  1  0  0  0
 21 37  1  0  0  0
 22 38  1  0  0  0
 23 39  1  0  0  0
 24 40  1  0  0  0
 25 41  1  0  0  0
M  END
$$$$
