3s0b_ligand
  -I-interpret- 

 30 32  0  0  0  0  0  0  0  0999 V2000
   -5.4150   -7.2970   11.5030 C   0  0  0  0  0
   -8.6620   -6.3100    9.9120 N   0  0  0  0  0
   -6.6980   -7.4250   10.9440 C   0  0  0  0  0
   -4.8190   -5.9860   11.6110 C   0  0  0  0  0
   -7.3480   -6.2990   10.5170 C   0  0  0  0  0
   -5.4760   -4.9160   11.1980 C   0  0  0  0  0
   -6.7900   -5.0460   10.6230 C   0  0  0  0  0
   -9.7590   -8.3120   10.9920 C   0  0  0  0  0
  -10.3750   -9.5280   10.8530 C   0  0  0  0  0
   -9.5930   -7.4220    9.7910 C   0  0  0  0  0
  -10.8340  -10.0870    9.5270 C   0  0  0  0  0
   -9.6860   -8.0750    8.4930 C   0  0  0  0  0
  -10.5910   -9.1880    8.3560 C   0  0  0  0  0
  -10.2080   -9.9070   13.2080 C   0  0  0  0  0
  -10.5980  -10.3390   12.0110 C   0  0  0  0  0
   -9.4110   -7.8520   12.2550 C   0  0  0  0  0
   -9.6260   -8.6290   13.3500 C   0  0  0  0  0
   -4.8755   -8.1778   11.8513 H   0  0  0  0  0
   -8.9769   -5.4230    9.5191 H   0  0  0  0  0
   -7.1674   -8.4045   10.8521 H   0  0  0  0  0
   -3.8210   -5.8782   12.0358 H   0  0  0  0  0
   -5.0209   -3.9301   11.2931 H   0  0  0  0  0
   -7.3333   -4.1664   10.2776 H   0  0  0  0  0
  -11.3040  -11.0657    9.4310 H   0  0  0  0  0
   -9.0880   -7.7317    7.6488 H   0  0  0  0  0
  -11.0943   -9.3734    7.4071 H   0  0  0  0  0
  -10.3387  -10.5435   14.0832 H   0  0  0  0  0
  -11.0863  -11.3086   11.9128 H   0  0  0  0  0
   -8.9639   -6.8645   12.3691 H   0  0  0  0  0
   -9.3485   -8.2643   14.3390 H   0  0  0  0  0
  3  1  4  0  0  0
  1  4  4  0  0  0
  2  5  1  0  0  0
 10  2  1  0  0  0
  5  3  4  0  0  0
  6  4  4  0  0  0
  5  7  4  0  0  0
  7  6  4  0  0  0
  8  9  4  0  0  0
  8 10  4  0  0  0
  8 16  4  0  0  0
  9 11  4  0  0  0
  9 15  4  0  0  0
 10 12  4  0  0  0
 11 13  4  0  0  0
 12 13  4  0  0  0
 15 14  4  0  0  0
 14 17  4  0  0  0
 16 17  4  0  0  0
  1 18  1  0  0  0
  2 19  1  0  0  0
  3 20  1  0  0  0
  4 21  1  0  0  0
  6 22  1  0  0  0
  7 23  1  0  0  0
 11 24  1  0  0  0
 12 25  1  0  0  0
 13 26  1  0  0  0
 14 27  1  0  0  0
 15 28  1  0  0  0
 16 29  1  0  0  0
 17 30  1  0  0  0
M  END
$$$$
