4nah_ligand
  -I-interpret- 

 59 62  0  0  0  0  0  0  0  0999 V2000
   -0.4300  -29.1980  -29.3290 C   0  0  0  0  0
    1.0500  -29.6020  -29.2810 C   0  0  0  0  0
    1.9720  -28.5710  -28.6740 C   0  0  0  0  0
    3.6220  -26.7560  -27.5680 N   0  0  0  0  0
    3.2290  -26.6410  -28.8030 C   0  0  0  0  0
    3.6700  -25.4480  -29.5780 C   0  0  0  0  0
    2.6330  -24.3740  -29.2180 C   0  0  0  0  0
    2.9460  -23.0390  -29.8930 C   0  0  0  0  0
    4.3690  -22.5960  -29.5640 C   0  0  0  0  0
    5.3690  -23.6900  -29.9410 C   0  0  0  0  0
    5.0640  -24.9590  -29.1620 C   0  0  0  0  0
    8.1060  -27.2110  -28.7410 C   0  0  0  0  0
    7.7090  -28.6490  -28.6800 C   0  0  0  0  0
    8.4630  -29.5470  -29.4080 C   0  0  0  0  0
    7.1020  -31.2680  -28.5920 C   0  0  0  0  0
    4.1380  -26.3000  -24.6040 C   0  0  0  0  0
    5.1750  -24.6340  -23.4830 C   0  0  0  0  0
    4.1140  -24.1300  -24.2680 C   0  0  0  0  0
    2.3960  -28.7460  -27.3740 C   0  0  0  0  0
    3.2400  -27.7850  -26.8200 C   0  0  0  0  0
    2.4110  -27.5140  -29.3510 N   0  0  0  0  0
    6.1390  -25.9940  -29.4820 C   0  0  0  0  0
    6.1930  -26.5870  -30.5390 O   0  0  0  0  0
    7.0340  -26.2640  -28.5200 N   0  0  0  0  0
    8.1630  -30.8890  -29.3830 C   0  0  0  0  0
    6.3440  -30.3880  -27.8440 C   0  0  0  0  0
    6.6590  -29.0580  -27.8820 C   0  0  0  0  0
    5.0090  -30.9880  -26.8590 Cl  0  0  0  0  0
    6.7040  -32.9240  -28.4980 Cl  0  0  0  0  0
    3.7760  -27.9540  -25.1340 S   0  0  0  0  0
    5.1440  -26.0260  -23.7200 N   0  0  0  0  0
    3.5230  -25.1610  -24.9290 N   0  0  0  0  0
    6.1170  -23.9200  -22.6180 C   0  0  0  0  0
    6.0810  -22.6930  -22.4960 O   0  0  0  0  0
    7.1090  -24.5550  -21.9170 O   0  0  0  0  0
   -0.7883  -29.0146  -28.3160 H   0  0  0  0  0
   -0.5387  -28.2912  -29.9239 H   0  0  0  0  0
   -1.0104  -30.0023  -29.7810 H   0  0  0  0  0
    1.3716  -29.7441  -30.3127 H   0  0  0  0  0
    1.1140  -30.4908  -28.6532 H   0  0  0  0  0
    3.7354  -25.6732  -30.6425 H   0  0  0  0  0
    2.6518  -24.2261  -28.1382 H   0  0  0  0  0
    1.6550  -24.7117  -29.5608 H   0  0  0  0  0
    2.2471  -22.2855  -29.5298 H   0  0  0  0  0
    2.8519  -23.1568  -30.9725 H   0  0  0  0  0
    4.4418  -22.4021  -28.4939 H   0  0  0  0  0
    4.5997  -21.6938  -30.1305 H   0  0  0  0  0
    6.3777  -23.3539  -29.7007 H   0  0  0  0  0
    5.2918  -23.8958  -31.0086 H   0  0  0  0  0
    5.0675  -24.7837  -28.0862 H   0  0  0  0  0
    8.4776  -27.0322  -29.7500 H   0  0  0  0  0
    8.8315  -27.0532  -27.9430 H   0  0  0  0  0
    9.3014  -29.1904  -30.0064 H   0  0  0  0  0
    3.8170  -23.0833  -24.3333 H   0  0  0  0  0
    2.0795  -29.6132  -26.7945 H   0  0  0  0  0
    6.9578  -25.7942  -27.6179 H   0  0  0  0  0
    8.7359  -31.6151  -29.9598 H   0  0  0  0  0
    6.0928  -28.3354  -27.2944 H   0  0  0  0  0
    7.0557  -25.5005  -22.0746 H   0  0  0  0  0
  2  1  1  0  0  0
  3  2  1  0  0  0
  3 19  4  0  0  0
 21  3  4  0  0  0
  5  4  4  0  0  0
  4 20  4  0  0  0
  6  5  1  0  0  0
  5 21  4  0  0  0
  6  7  1  0  0  0
 11  6  1  0  0  0
  7  8  1  0  0  0
  9  8  1  0  0  0
 10  9  1  0  0  0
 11 10  1  0  0  0
 22 11  1  0  0  0
 12 13  1  0  0  0
 24 12  1  0  0  0
 13 14  4  0  0  0
 13 27  4  0  0  0
 14 25  4  0  0  0
 25 15  4  0  0  0
 15 26  4  0  0  0
 15 29  1  0  0  0
 30 16  1  0  0  0
 16 31  4  0  0  0
 16 32  4  0  0  0
 18 17  4  0  0  0
 31 17  4  0  0  0
 17 33  1  0  0  0
 32 18  4  0  0  0
 20 19  4  0  0  0
 20 30  1  0  0  0
 22 23  2  0  0  0
 22 24  1  0  0  0
 26 27  4  0  0  0
 26 28  1  0  0  0
 33 34  2  0  0  0
 33 35  1  0  0  0
  1 36  1  0  0  0
  1 37  1  0  0  0
  1 38  1  0  0  0
  2 39  1  0  0  0
  2 40  1  0  0  0
  6 41  1  0  0  0
  7 42  1  0  0  0
  7 43  1  0  0  0
  8 44  1  0  0  0
  8 45  1  0  0  0
  9 46  1  0  0  0
  9 47  1  0  0  0
 10 48  1  0  0  0
 10 49  1  0  0  0
 11 50  1  0  0  0
 12 51  1  0  0  0
 12 52  1  0  0  0
 14 53  1  0  0  0
 18 54  1  0  0  0
 19 55  1  0  0  0
 24 56  1  0  0  0
 25 57  1  0  0  0
 27 58  1  0  0  0
 35 59  1  0  0  0
M  END
$$$$
