4wm9_ligand
  -I-interpret- 

 31 31  0  0  0  0  0  0  0  0999 V2000
   29.7880   -1.2800   14.6990 O   0  0  0  0  0
   29.7200   -0.1800   13.8710 C   0  0  0  0  0
   30.5750    0.8060   13.8150 N   0  0  0  0  0
   30.4230    1.9530   12.8650 C   0  0  0  0  0
   31.7560    0.8940   14.7010 C   0  0  0  0  0
   31.4290    1.8250   15.8510 C   0  0  0  0  0
   30.3180    2.3180   16.0070 O   0  0  0  0  0
   32.3790    2.1000   16.7070 N   0  0  0  0  0
   33.0060    1.3700   13.9690 C   0  0  0  0  0
   32.8760    2.1790   12.9060 C   0  0  0  0  0
   31.6650    2.1090   11.9840 C   0  0  0  0  0
   31.7900    1.0630   10.9740 N   0  3  0  0  0
   31.7590   -0.3090   11.3880 O   0  0  0  0  0
   32.0580   -1.7860   10.8090 S   0  0  0  0  0
   31.8900   -2.6590   11.9580 O   0  0  0  0  0
   33.4300   -2.0570   10.3420 O   0  0  0  0  0
   31.1330   -2.1520    9.7290 O   0  0  0  0  0
   28.8667   -0.1277   13.1948 H   0  0  0  0  0
   30.2883    2.8678   13.4422 H   0  0  0  0  0
   29.5627    1.7623   12.2235 H   0  0  0  0  0
   31.9804   -0.1066   15.0705 H   0  0  0  0  0
   32.1916    2.7196   17.4953 H   0  0  0  0  0
   33.3073    1.6948   16.5863 H   0  0  0  0  0
   33.4602    0.4614   13.5736 H   0  0  0  0  0
   33.5510    1.9618   14.7044 H   0  0  0  0  0
   33.7067    1.8917   12.2614 H   0  0  0  0  0
   32.8061    3.1734   13.3469 H   0  0  0  0  0
   31.5829    3.0276   11.4031 H   0  0  0  0  0
   32.7179    1.1954   10.5717 H   0  0  0  0  0
   30.9715    1.1758   10.3758 H   0  0  0  0  0
   33.6194   -1.5114    9.5751 H   0  0  0  0  0
  1  2  2  0  0  0
  2  3  1  0  0  0
  3  4  1  0  0  0
  3  5  1  0  0  0
  4 11  1  0  0  0
  5  6  1  0  0  0
  5  9  1  0  0  0
  6  7  2  0  0  0
  6  8  1  0  0  0
  9 10  1  0  0  0
 10 11  1  0  0  0
 11 12  1  0  0  0
 12 13  1  0  0  0
 13 14  1  0  0  0
 14 15  2  0  0  0
 14 16  1  0  0  0
 14 17  2  0  0  0
  2 18  1  0  0  0
  4 19  1  0  0  0
  4 20  1  0  0  0
  5 21  1  0  0  0
  8 22  1  0  0  0
  8 23  1  0  0  0
  9 24  1  0  0  0
  9 25  1  0  0  0
 10 26  1  0  0  0
 10 27  1  0  0  0
 11 28  1  0  0  0
 12 29  1  0  0  0
 12 30  1  0  0  0
 16 31  1  0  0  0
M  END
$$$$
