4fmu_ligand
  -I-interpret- 

 61 63  0  0  0  0  0  0  0  0999 V2000
   -1.1980   31.2530   18.2360 C   0  0  0  0  0
    0.1390   31.1310   18.1530 C   0  0  0  0  0
    0.9210   32.2130   18.3790 C   0  0  0  0  0
   -0.7370   29.2000   17.6990 C   0  0  0  0  0
    0.3880   33.4150   18.6430 N   0  0  0  0  0
   -1.7990   32.4360   18.5550 N   0  0  0  0  0
   -5.9570   25.9460   21.8640 O   0  0  0  0  0
   -5.7800   25.4600   20.7410 C   0  0  0  0  0
   -4.5970   26.0170   19.8890 C   0  0  0  0  0
   -3.6480   26.8240   20.6790 N   0  3  0  0  0
   -3.8610   24.8700   19.2060 C   0  0  0  0  0
   -2.9560   25.3050   18.0360 C   0  0  0  0  0
   -3.7340   25.5250   16.7020 C   0  0  0  0  0
   -3.5760   24.3600   15.8090 N   0  3  0  0  0
   -2.2940   24.2010   15.0770 C   0  0  0  0  0
   -2.3790   22.9280   14.2270 C   0  0  0  0  0
   -1.1180   22.7260   13.3880 C   0  0  0  0  0
   -3.3110   26.8450   15.9670 C   0  0  0  0  0
   -3.9730   28.0880   16.5540 C   0  0  0  0  0
   -3.3880   28.3950   17.8390 O   0  0  0  0  0
   -3.6860   29.2800   15.6640 C   0  0  0  0  0
   -4.7150   29.3510   14.7190 O   0  0  0  0  0
   -3.7840   30.4310   16.6450 C   0  0  0  0  0
   -5.1400   30.7550   16.8870 O   0  0  0  0  0
   -3.1830   29.8210   17.9410 C   0  0  0  0  0
   -1.7210   30.0490   18.0160 N   0  0  0  0  0
    0.4080   29.8600   17.8120 N   0  0  0  0  0
   -0.9990   33.5510   18.7760 C   0  0  0  0  0
    2.2420   32.0820   18.2570 N   0  0  0  0  0
   -6.5570   24.6200   20.2260 O   0  0  0  0  0
   -0.8545   28.1577   17.4024 H   0  0  0  0  0
   -5.0315   26.6806   19.1414 H   0  0  0  0  0
   -2.9004   27.1591   20.0713 H   0  0  0  0  0
   -4.1381   27.6198   21.0875 H   0  0  0  0  0
   -3.2515   26.2492   21.4225 H   0  0  0  0  0
   -4.6182   24.2023   18.7950 H   0  0  0  0  0
   -3.2173   24.4100   19.9558 H   0  0  0  0  0
   -2.2311   24.5087   17.8669 H   0  0  0  0  0
   -2.4974   26.2551   18.3102 H   0  0  0  0  0
   -4.7866   25.6318   16.9643 H   0  0  0  0  0
   -4.2846   24.4796   15.0851 H   0  0  0  0  0
   -3.6390   23.5448   16.4188 H   0  0  0  0  0
   -1.4674   24.1241   15.7834 H   0  0  0  0  0
   -2.1190   25.0662   14.4376 H   0  0  0  0  0
   -3.2301   23.0208   13.5524 H   0  0  0  0  0
   -2.4879   22.0742   14.8958 H   0  0  0  0  0
   -0.9869   23.5777   12.7206 H   0  0  0  0  0
   -0.2539   22.6430   14.0473 H   0  0  0  0  0
   -1.2168   21.8137   12.7998 H   0  0  0  0  0
   -3.6226   26.7614   14.9258 H   0  0  0  0  0
   -2.2325   26.9576   16.0782 H   0  0  0  0  0
   -5.0425   27.8960   16.6402 H   0  0  0  0  0
   -2.7372   29.2575   15.1279 H   0  0  0  0  0
   -4.5624   30.0991   14.1370 H   0  0  0  0  0
   -3.2874   31.3357   16.2941 H   0  0  0  0  0
   -5.1874   31.4846   17.5092 H   0  0  0  0  0
   -3.6518   30.2722   18.8155 H   0  0  0  0  0
   -1.4416   34.5096   19.0467 H   0  0  0  0  0
    2.6434   31.1807   17.9984 H   0  0  0  0  0
    2.8514   32.8831   18.4223 H   0  0  0  0  0
   -6.2329   24.3776   19.3555 H   0  0  0  0  0
  1  2  4  0  0  0
  1  6  4  0  0  0
 26  1  4  0  0  0
  2  3  4  0  0  0
 27  2  4  0  0  0
  3  5  4  0  0  0
  3 29  1  0  0  0
 26  4  4  0  0  0
  4 27  4  0  0  0
 28  5  4  0  0  0
  6 28  4  0  0  0
  8  7  2  0  0  0
  9  8  1  0  0  0
  8 30  1  0  0  0
  9 10  1  0  0  0
 11  9  1  0  0  0
 12 11  1  0  0  0
 13 12  1  0  0  0
 13 14  1  0  0  0
 18 13  1  0  0  0
 14 15  1  0  0  0
 15 16  1  0  0  0
 16 17  1  0  0  0
 19 18  1  0  0  0
 20 19  1  0  0  0
 21 19  1  0  0  0
 25 20  1  0  0  0
 21 22  1  0  0  0
 23 21  1  0  0  0
 23 24  1  0  0  0
 25 23  1  0  0  0
 25 26  1  0  0  0
  4 31  1  0  0  0
  9 32  1  0  0  0
 10 33  1  0  0  0
 10 34  1  0  0  0
 10 35  1  0  0  0
 11 36  1  0  0  0
 11 37  1  0  0  0
 12 38  1  0  0  0
 12 39  1  0  0  0
 13 40  1  0  0  0
 14 41  1  0  0  0
 14 42  1  0  0  0
 15 43  1  0  0  0
 15 44  1  0  0  0
 16 45  1  0  0  0
 16 46  1  0  0  0
 17 47  1  0  0  0
 17 48  1  0  0  0
 17 49  1  0  0  0
 18 50  1  0  0  0
 18 51  1  0  0  0
 19 52  1  0  0  0
 21 53  1  0  0  0
 22 54  1  0  0  0
 23 55  1  0  0  0
 24 56  1  0  0  0
 25 57  1  0  0  0
 28 58  1  0  0  0
 29 59  1  0  0  0
 29 60  1  0  0  0
 30 61  1  0  0  0
M  END
$$$$
