5ti7_ligand
  -I-interpret- 

 42 44  0  0  0  0  0  0  0  0999 V2000
  -10.4140   -9.5300    1.7980 N   0  0  0  0  0
  -11.4350   -8.6410    1.6620 C   0  0  0  0  0
  -12.4940   -6.6810    0.6140 C   0  0  0  0  0
  -11.1900   -5.4150   -1.0560 C   0  0  0  0  0
  -13.3800   -4.8220   -0.7330 C   0  0  0  0  0
  -13.5920   -6.8610    1.4680 C   0  0  0  0  0
  -12.5460   -8.7830    2.5090 C   0  0  0  0  0
   -8.3360   -7.9410    1.0210 O   0  0  0  0  0
   -8.8480   -8.9580    2.1330 S   0  0  0  0  0
   -8.9880   -8.0540    3.6220 C   0  0  0  0  0
   -9.5220   -8.6560    4.7670 C   0  0  0  0  0
   -9.9260   -9.9490    4.6680 O   0  0  0  0  0
  -10.2440  -10.6620    5.8820 C   0  0  0  0  0
   -9.6200   -7.9070    5.9510 C   0  0  0  0  0
   -9.1800   -6.5750    5.9540 C   0  0  0  0  0
   -8.6470   -6.0100    4.7990 C   0  0  0  0  0
   -8.0630   -4.2680    4.8110 Br  0  0  0  0  0
   -8.5560   -6.7320    3.6170 C   0  0  0  0  0
  -11.4260   -7.5940    0.7370 C   0  0  0  0  0
  -12.4070   -5.6750   -0.3320 N   0  0  0  0  0
  -11.4010   -4.0610   -1.7620 C   0  0  0  0  0
  -12.9240   -3.8910   -1.7610 C   0  0  0  0  0
  -14.5560   -4.7810   -0.3190 O   0  0  0  0  0
  -13.6220   -7.8970    2.4060 C   0  0  0  0  0
   -7.8770  -10.1980    2.2900 O   0  0  0  0  0
  -10.5864  -10.5305    1.6999 H   0  0  0  0  0
  -10.9793   -6.2075   -1.7741 H   0  0  0  0  0
  -10.3302   -5.3830   -0.3869 H   0  0  0  0  0
  -14.4394   -6.1789    1.3988 H   0  0  0  0  0
  -12.5692   -9.5846    3.2472 H   0  0  0  0  0
   -9.3648  -10.6911    6.5257 H   0  0  0  0  0
  -11.0574  -10.1525    6.3986 H   0  0  0  0  0
  -10.5491  -11.6789    5.6353 H   0  0  0  0  0
  -10.0323   -8.3546    6.8553 H   0  0  0  0  0
   -9.2558   -5.9802    6.8643 H   0  0  0  0  0
   -8.1574   -6.2759    2.7108 H   0  0  0  0  0
  -10.5601   -7.4782    0.0852 H   0  0  0  0  0
  -10.9792   -4.0435   -2.7669 H   0  0  0  0  0
  -10.8887   -3.2421   -1.2570 H   0  0  0  0  0
  -13.2260   -2.8644   -1.5534 H   0  0  0  0  0
  -13.3648   -4.1016   -2.7354 H   0  0  0  0  0
  -14.4869   -8.0142    3.0589 H   0  0  0  0  0
  2  1  1  0  0  0
  1  9  1  0  0  0
  2  7  4  0  0  0
 19  2  4  0  0  0
  3  6  4  0  0  0
  3 19  4  0  0  0
  3 20  1  0  0  0
 20  4  1  0  0  0
  4 21  1  0  0  0
 20  5  1  0  0  0
  5 22  1  0  0  0
  5 23  2  0  0  0
  6 24  4  0  0  0
  7 24  4  0  0  0
  9  8  2  0  0  0
  9 10  1  0  0  0
  9 25  2  0  0  0
 10 11  4  0  0  0
 10 18  4  0  0  0
 11 12  1  0  0  0
 11 14  4  0  0  0
 12 13  1  0  0  0
 14 15  4  0  0  0
 15 16  4  0  0  0
 16 17  1  0  0  0
 16 18  4  0  0  0
 21 22  1  0  0  0
  1 26  1  0  0  0
  4 27  1  0  0  0
  4 28  1  0  0  0
  6 29  1  0  0  0
  7 30  1  0  0  0
 13 31  1  0  0  0
 13 32  1  0  0  0
 13 33  1  0  0  0
 14 34  1  0  0  0
 15 35  1  0  0  0
 18 36  1  0  0  0
 19 37  1  0  0  0
 21 38  1  0  0  0
 21 39  1  0  0  0
 22 40  1  0  0  0
 22 41  1  0  0  0
 24 42  1  0  0  0
M  END
$$$$
