9abp_ligand
  -I-interpret- 

 24 24  0  0  0  0  0  0  0  0999 V2000
   14.2590   56.3430   54.8690 C   0  0  0  0  0
   12.8610   56.8100   54.5580 C   0  0  0  0  0
   12.4060   56.0910   53.2890 C   0  0  0  0  0
   13.3550   56.3430   52.1290 C   0  0  0  0  0
   14.7470   55.9050   52.5650 C   0  0  0  0  0
   15.7620   56.1560   51.4520 C   0  0  0  0  0
   14.8800   57.0110   55.9670 O   0  0  0  0  0
   11.9070   56.5150   55.5860 O   0  0  0  0  0
   11.0420   56.3860   52.9700 O   0  0  0  0  0
   13.2490   57.6640   51.5920 O   0  0  0  0  0
   15.1290   56.5940   53.7560 O   0  0  0  0  0
   17.0260   55.5600   51.7710 O   0  0  0  0  0
   14.1333   55.2863   55.1051 H   0  0  0  0  0
   12.8999   57.8945   54.4556 H   0  0  0  0  0
   12.4449   55.0198   53.4868 H   0  0  0  0  0
   13.0787   55.7395   51.2644 H   0  0  0  0  0
   14.7262   54.8351   52.7723 H   0  0  0  0  0
   15.8995   57.2313   51.3380 H   0  0  0  0  0
   15.3878   55.7131   50.5290 H   0  0  0  0  0
   14.3493   56.8867   56.7573 H   0  0  0  0  0
   12.1675   56.9549   56.3985 H   0  0  0  0  0
   10.4901   56.2094   53.7354 H   0  0  0  0  0
   12.3363   57.8378   51.3505 H   0  0  0  0  0
   17.6474   55.7299   51.0592 H   0  0  0  0  0
  1  2  1  0  0  0
  1  7  1  0  0  0
  1 11  1  0  0  0
  2  3  1  0  0  0
  2  8  1  0  0  0
  3  4  1  0  0  0
  3  9  1  0  0  0
  4  5  1  0  0  0
  4 10  1  0  0  0
  5  6  1  0  0  0
  5 11  1  0  0  0
  6 12  1  0  0  0
  1 13  1  0  0  0
  2 14  1  0  0  0
  3 15  1  0  0  0
  4 16  1  0  0  0
  5 17  1  0  0  0
  6 18  1  0  0  0
  6 19  1  0  0  0
  7 20  1  0  0  0
  8 21  1  0  0  0
  9 22  1  0  0  0
 10 23  1  0  0  0
 12 24  1  0  0  0
M  END
$$$$
