4cxy_ligand
  -I-interpret- 

 28 28  0  0  0  0  0  0  0  0999 V2000
  -24.6080  -25.6570    5.4120 O   0  0  0  0  0
  -23.4950  -25.9400    5.8390 C   0  0  0  0  0
  -23.1840  -26.6080    6.8130 O   0  0  0  0  0
  -22.2860  -25.3250    5.0230 C   0  0  0  0  0
  -22.5600  -24.9360    3.6080 C   0  0  0  0  0
  -21.3210  -24.4230    2.9210 C   0  0  0  0  0
  -20.3000  -25.0260    2.8610 O   0  0  0  0  0
  -21.3710  -23.1070    2.3770 N   0  0  0  0  0
  -20.3460  -22.4370    1.6950 N   0  0  0  0  0
  -20.7000  -21.8680    0.4440 C   0  0  0  0  0
  -21.7880  -21.9910   -0.0300 O   0  0  0  0  0
  -19.6880  -21.1050   -0.4040 C   0  0  0  0  0
  -19.4310  -21.4810   -1.7050 C   0  0  0  0  0
  -18.5010  -20.7680   -2.4780 C   0  0  0  0  0
  -17.8510  -19.6600   -1.9170 C   0  0  0  0  0
  -18.0950  -19.2440   -0.6480 N   0  0  0  0  0
  -18.9910  -19.9590    0.0810 C   0  0  0  0  0
  -24.5192  -25.1140    4.6253 H   0  0  0  0  0
  -21.5267  -26.1057    4.9778 H   0  0  0  0  0
  -22.0128  -24.4048    5.5395 H   0  0  0  0  0
  -23.3062  -24.1414    3.6087 H   0  0  0  0  0
  -22.9102  -25.8176    3.0712 H   0  0  0  0  0
  -22.2467  -22.5979    2.4967 H   0  0  0  0  0
  -19.4023  -22.3628    2.0750 H   0  0  0  0  0
  -19.9523  -22.3359   -2.1356 H   0  0  0  0  0
  -18.2869  -21.0724   -3.5025 H   0  0  0  0  0
  -17.1253  -19.1141   -2.5199 H   0  0  0  0  0
  -19.1902  -19.6360    1.1028 H   0  0  0  0  0
  1  2  1  0  0  0
  2  3  2  0  0  0
  2  4  1  0  0  0
  4  5  1  0  0  0
  5  6  1  0  0  0
  6  7  2  0  0  0
  6  8  1  0  0  0
  8  9  1  0  0  0
  9 10  1  0  0  0
 10 11  2  0  0  0
 10 12  1  0  0  0
 12 13  4  0  0  0
 12 17  4  0  0  0
 13 14  4  0  0  0
 14 15  4  0  0  0
 15 16  4  0  0  0
 16 17  4  0  0  0
  1 18  1  0  0  0
  4 19  1  0  0  0
  4 20  1  0  0  0
  5 21  1  0  0  0
  5 22  1  0  0  0
  8 23  1  0  0  0
  9 24  1  0  0  0
 13 25  1  0  0  0
 14 26  1  0  0  0
 15 27  1  0  0  0
 17 28  1  0  0  0
M  END
$$$$
