4wkb_ligand
  -I-interpret- 

 39 41  0  0  0  0  0  0  0  0999 V2000
   14.7240   -6.7530   19.1230 C   0  0  0  0  0
   12.9990   -7.6870   20.3370 C   0  0  0  0  0
   13.7960   -8.8820   20.5720 C   0  0  0  0  0
   15.1360   -8.8840   20.0250 C   0  0  0  0  0
    8.7900   -9.6320   14.9250 C   0  0  0  0  0
   10.0120   -8.4120   15.2510 S   0  0  0  0  0
   10.1510   -8.4870   17.0080 C   0  0  0  0  0
    9.0800   -7.6910   17.7560 C   0  0  0  0  0
    9.1320   -8.0240   19.2540 C   0  0  0  0  0
    9.6520   -6.7900   19.9080 N   0  3  0  0  0
   10.5180   -7.0180   21.0860 C   0  0  0  0  0
   11.7070   -7.9270   20.9560 C   0  0  0  0  0
   11.8230   -9.1690   21.5470 C   0  0  0  0  0
   13.0450   -9.7110   21.3090 N   0  0  0  0  0
   15.9460   -9.9510   20.2070 N   0  0  0  0  0
   15.5430   -7.8240   19.3210 N   0  0  0  0  0
   13.4710   -6.6490   19.6010 N   0  0  0  0  0
   10.2960   -5.9770   18.8370 C   0  0  0  0  0
    9.3270   -6.1950   17.6890 C   0  0  0  0  0
    8.0700   -5.5400   17.9470 O   0  0  0  0  0
   15.1120   -5.9211   18.5352 H   0  0  0  0  0
    9.1398  -10.5998   15.2843 H   0  0  0  0  0
    7.8660   -9.3650   15.4378 H   0  0  0  0  0
    8.6090   -9.6853   13.8515 H   0  0  0  0  0
   11.1163   -8.0556   17.2731 H   0  0  0  0  0
   10.0347   -9.5319   17.2956 H   0  0  0  0  0
    8.1314   -7.9538   17.2879 H   0  0  0  0  0
    9.7696   -8.8853   19.4536 H   0  0  0  0  0
    8.1510   -8.3017   19.6395 H   0  0  0  0  0
    8.8741   -6.2815   20.3284 H   0  0  0  0  0
    9.8726   -7.5051   21.8170 H   0  0  0  0  0
   10.9386   -6.0393   21.3171 H   0  0  0  0  0
   11.0371   -9.6512   22.1283 H   0  0  0  0  0
   15.6137  -10.7599   20.7320 H   0  0  0  0  0
   16.8894   -9.9471   19.8193 H   0  0  0  0  0
   11.3206   -6.2737   18.6128 H   0  0  0  0  0
   10.4380   -4.9294   19.1025 H   0  0  0  0  0
    9.7113   -5.8198   16.7405 H   0  0  0  0  0
    8.1930   -4.5886   17.9116 H   0  0  0  0  0
  1 16  4  0  0  0
 17  1  4  0  0  0
  2  3  4  0  0  0
 12  2  4  0  0  0
  2 17  4  0  0  0
  3  4  4  0  0  0
  3 14  4  0  0  0
  4 15  1  0  0  0
  4 16  4  0  0  0
  6  5  1  0  0  0
  7  6  1  0  0  0
  8  7  1  0  0  0
  9  8  1  0  0  0
  8 19  1  0  0  0
 10  9  1  0  0  0
 11 10  1  0  0  0
 10 18  1  0  0  0
 11 12  1  0  0  0
 12 13  4  0  0  0
 13 14  4  0  0  0
 18 19  1  0  0  0
 19 20  1  0  0  0
  1 21  1  0  0  0
  5 22  1  0  0  0
  5 23  1  0  0  0
  5 24  1  0  0  0
  7 25  1  0  0  0
  7 26  1  0  0  0
  8 27  1  0  0  0
  9 28  1  0  0  0
  9 29  1  0  0  0
 10 30  1  0  0  0
 11 31  1  0  0  0
 11 32  1  0  0  0
 13 33  1  0  0  0
 15 34  1  0  0  0
 15 35  1  0  0  0
 18 36  1  0  0  0
 18 37  1  0  0  0
 19 38  1  0  0  0
 20 39  1  0  0  0
M  END
$$$$
