5uwl_ligand
  -I-interpret- 

 62 65  0  0  0  0  0  0  0  0999 V2000
   53.9750  -29.1320   14.1730 C   0  0  0  0  0
   54.7320  -28.0040   14.7130 N   0  0  0  0  0
   54.1720  -27.0540   15.4760 C   0  0  0  0  0
   52.9970  -27.1060   15.8610 O   0  0  0  0  0
   55.0290  -25.8530   15.8010 C   0  0  0  0  0
   55.3280  -25.8170   17.2770 C   0  0  0  0  0
   56.1400  -24.5660   17.5760 C   0  0  0  0  0
   56.0930  -27.0590   17.6790 C   0  0  0  0  0
   54.3440  -24.6490   15.3840 N   0  0  0  0  0
   54.6620  -23.9290   14.2880 C   0  0  0  0  0
   55.7190  -23.9820   13.6870 O   0  0  0  0  0
   53.5810  -23.0870   13.7250 C   0  0  0  0  0
   53.4520  -22.1260   12.7510 C   0  0  0  0  0
   52.0980  -21.7910   12.7430 C   0  0  0  0  0
   51.4620  -22.5730   13.7030 C   0  0  0  0  0
   52.3790  -23.3880   14.2760 O   0  0  0  0  0
   50.0400  -22.6310   14.0860 C   0  0  0  0  0
   49.7050  -22.8520   15.4220 C   0  0  0  0  0
   48.3730  -22.9330   15.7740 C   0  0  0  0  0
   47.4090  -22.7920   14.7900 C   0  0  0  0  0
   47.7510  -22.5700   13.4600 C   0  0  0  0  0
   49.0760  -22.4960   13.1090 C   0  0  0  0  0
   45.9450  -22.8810   15.1420 C   0  0  0  0  0
   45.3890  -24.5020   14.7160 S   0  0  0  0  0
   43.7100  -24.4750   15.0500 C   0  0  0  0  0
   43.1490  -23.3500   15.5690 N   0  0  0  0  0
   41.8140  -23.3290   15.7740 C   0  0  0  0  0
   41.0430  -24.4230   15.4900 C   0  0  0  0  0
   41.6250  -25.5610   14.9800 C   0  0  0  0  0
   42.9210  -25.5440   14.7790 N   0  0  0  0  0
   39.5930  -24.2030   15.8160 C   0  0  0  0  0
   39.5530  -22.7860   16.4020 C   0  0  0  0  0
   40.9820  -22.2020   16.3380 C   0  0  0  0  0
   41.0120  -26.6020   14.6890 O   0  0  0  0  0
   53.5490  -29.7084   14.9942 H   0  0  0  0  0
   53.1736  -28.7583   13.5356 H   0  0  0  0  0
   54.6399  -29.7674   13.5880 H   0  0  0  0  0
   55.7274  -27.9368   14.5006 H   0  0  0  0  0
   55.9758  -25.9218   15.2654 H   0  0  0  0  0
   54.4000  -25.7924   17.8482 H   0  0  0  0  0
   56.3531  -24.5193   18.6439 H   0  0  0  0  0
   57.0761  -24.6001   17.0186 H   0  0  0  0  0
   55.5707  -23.6852   17.2790 H   0  0  0  0  0
   57.0289  -27.1039   17.1220 H   0  0  0  0  0
   56.3059  -27.0231   18.7474 H   0  0  0  0  0
   55.4934  -27.9415   17.4561 H   0  0  0  0  0
   53.5670  -24.3217   15.9581 H   0  0  0  0  0
   54.2393  -21.7138   12.1198 H   0  0  0  0  0
   51.6231  -21.0498   12.1003 H   0  0  0  0  0
   50.4839  -22.9592   16.1769 H   0  0  0  0  0
   48.0842  -23.1053   16.8108 H   0  0  0  0  0
   46.9743  -22.4559   12.7038 H   0  0  0  0  0
   49.3629  -22.3324   12.0702 H   0  0  0  0  0
   45.3766  -22.1288   14.5950 H   0  0  0  0  0
   45.7986  -22.6970   16.2063 H   0  0  0  0  0
   40.8677  -25.4029   15.0460 H   0  0  0  0  0
   39.2093  -24.9483   16.5126 H   0  0  0  0  0
   38.9532  -24.3050   14.9395 H   0  0  0  0  0
   39.2041  -22.8152   17.4342 H   0  0  0  0  0
   38.8653  -22.1619   15.8313 H   0  0  0  0  0
   41.0334  -21.3035   15.7231 H   0  0  0  0  0
   41.3382  -21.8750   17.3149 H   0  0  0  0  0
  1  2  1  0  0  0
  2  3  1  0  0  0
  3  4  2  0  0  0
  3  5  1  0  0  0
  5  6  1  0  0  0
  5  9  1  0  0  0
  6  7  1  0  0  0
  6  8  1  0  0  0
  9 10  1  0  0  0
 10 11  2  0  0  0
 10 12  1  0  0  0
 12 13  4  0  0  0
 12 16  4  0  0  0
 13 14  4  0  0  0
 14 15  4  0  0  0
 15 16  4  0  0  0
 15 17  1  0  0  0
 17 18  4  0  0  0
 17 22  4  0  0  0
 18 19  4  0  0  0
 19 20  4  0  0  0
 20 21  4  0  0  0
 20 23  1  0  0  0
 21 22  4  0  0  0
 23 24  1  0  0  0
 24 25  1  0  0  0
 25 26  1  0  0  0
 25 30  2  0  0  0
 26 27  2  0  0  0
 27 28  1  0  0  0
 27 33  1  0  0  0
 28 29  1  0  0  0
 28 31  1  0  0  0
 29 30  1  0  0  0
 29 34  2  0  0  0
 31 32  1  0  0  0
 32 33  1  0  0  0
  1 35  1  0  0  0
  1 36  1  0  0  0
  1 37  1  0  0  0
  2 38  1  0  0  0
  5 39  1  0  0  0
  6 40  1  0  0  0
  7 41  1  0  0  0
  7 42  1  0  0  0
  7 43  1  0  0  0
  8 44  1  0  0  0
  8 45  1  0  0  0
  8 46  1  0  0  0
  9 47  1  0  0  0
 13 48  1  0  0  0
 14 49  1  0  0  0
 18 50  1  0  0  0
 19 51  1  0  0  0
 21 52  1  0  0  0
 22 53  1  0  0  0
 23 54  1  0  0  0
 23 55  1  0  0  0
 28 56  1  0  0  0
 31 57  1  0  0  0
 31 58  1  0  0  0
 32 59  1  0  0  0
 32 60  1  0  0  0
 33 61  1  0  0  0
 33 62  1  0  0  0
M  END
$$$$
