3da9_ligand
  -I-interpret- 

 58 60  0  0  0  0  0  0  0  0999 V2000
   12.3680   -9.6120   20.9670 C   0  0  0  0  0
   13.8190   -9.7540   21.4300 C   0  0  0  0  0
   14.6080  -10.5260   20.3690 C   0  0  0  0  0
   18.0940  -11.9150   21.1850 C   0  0  0  0  0
   19.1180  -11.9150   20.0260 C   0  0  0  0  0
   20.2430  -12.8380   20.5760 C   0  0  0  0  0
   19.4040  -13.9100   21.3130 C   0  0  0  0  0
   17.4560  -13.6380   22.9020 C   0  0  0  0  0
   17.7290  -14.9700   23.5520 C   0  0  0  0  0
   18.6010  -17.2540   25.3790 C   0  0  0  0  0
   18.5180  -18.3870   26.1880 C   0  0  0  0  0
   17.9700  -18.2900   27.4660 C   0  0  0  0  0
   17.5220  -17.0590   27.9360 C   0  0  0  0  0
   19.6440  -14.1980   25.0770 C   0  0  0  0  0
   22.2420  -13.1420   25.2250 C   0  0  0  0  0
   15.9920  -10.6640   20.8190 N   0  0  0  0  0
   16.6700  -11.8280   20.6760 C   0  0  0  0  0
   16.1580  -12.8160   20.1620 O   0  0  0  0  0
   18.2500  -13.1920   21.9080 N   0  0  0  0  0
   16.5110  -12.9810   23.3160 O   0  0  0  0  0
   18.2290  -14.7630   25.0000 C   0  0  0  0  0
   18.1420  -16.0200   25.8480 C   0  0  0  0  0
   17.6130  -15.9280   27.1250 C   0  0  0  0  0
   20.6890  -14.7470   24.3330 C   0  0  0  0  0
   21.9760  -14.2260   24.4040 C   0  0  0  0  0
   21.2100  -12.5910   25.9820 C   0  0  0  0  0
   19.9220  -13.1170   25.9120 C   0  0  0  0  0
   16.4940  -15.7640   23.4780 N   0  3  0  0  0
   12.3410   -9.0702   20.0216 H   0  0  0  0  0
   11.9324  -10.6021   20.8324 H   0  0  0  0  0
   11.8003   -9.0630   21.7183 H   0  0  0  0  0
   13.8515  -10.2933   22.3767 H   0  0  0  0  0
   14.2588   -8.7663   21.5686 H   0  0  0  0  0
   14.5794   -9.9867   19.4222 H   0  0  0  0  0
   14.1663  -11.5120   20.2249 H   0  0  0  0  0
   18.2784  -11.0502   21.8224 H   0  0  0  0  0
   19.4712  -10.9170   19.7664 H   0  0  0  0  0
   18.6982  -12.2662   19.0834 H   0  0  0  0  0
   20.9647  -12.3258   21.2123 H   0  0  0  0  0
   20.9003  -13.2421   19.8061 H   0  0  0  0  0
   19.9932  -14.4125   22.0801 H   0  0  0  0  0
   19.0718  -14.6898   20.6277 H   0  0  0  0  0
   18.5210  -15.5122   23.0354 H   0  0  0  0  0
   19.0251  -17.3311   24.3779 H   0  0  0  0  0
   18.8812  -19.3471   25.8214 H   0  0  0  0  0
   17.8925  -19.1762   28.0958 H   0  0  0  0  0
   17.1001  -16.9788   28.9378 H   0  0  0  0  0
   23.2476  -12.7248   25.2781 H   0  0  0  0  0
   16.4578   -9.8657   21.2505 H   0  0  0  0  0
   17.5435  -14.0219   25.4111 H   0  0  0  0  0
   17.2654  -14.9648   27.4986 H   0  0  0  0  0
   20.4926  -15.6004   23.6839 H   0  0  0  0  0
   22.7767  -14.6708   23.8131 H   0  0  0  0  0
   21.4122  -11.7414   26.6343 H   0  0  0  0  0
   19.1257  -12.6801   26.5146 H   0  0  0  0  0
   16.6497  -16.6739   23.9119 H   0  0  0  0  0
   15.7466  -15.2747   23.9703 H   0  0  0  0  0
   16.2318  -15.8924   22.5007 H   0  0  0  0  0
  2  1  1  0  0  0
  3  2  1  0  0  0
 16  3  1  0  0  0
  4  5  1  0  0  0
  4 17  1  0  0  0
 19  4  1  0  0  0
  6  5  1  0  0  0
  7  6  1  0  0  0
 19  7  1  0  0  0
  9  8  1  0  0  0
  8 19  1  0  0  0
  8 20  2  0  0  0
 21  9  1  0  0  0
  9 28  1  0  0  0
 10 11  4  0  0  0
 22 10  4  0  0  0
 11 12  4  0  0  0
 13 12  4  0  0  0
 23 13  4  0  0  0
 14 21  1  0  0  0
 24 14  4  0  0  0
 14 27  4  0  0  0
 25 15  4  0  0  0
 15 26  4  0  0  0
 17 16  1  0  0  0
 17 18  2  0  0  0
 21 22  1  0  0  0
 22 23  4  0  0  0
 24 25  4  0  0  0
 26 27  4  0  0  0
  1 29  1  0  0  0
  1 30  1  0  0  0
  1 31  1  0  0  0
  2 32  1  0  0  0
  2 33  1  0  0  0
  3 34  1  0  0  0
  3 35  1  0  0  0
  4 36  1  0  0  0
  5 37  1  0  0  0
  5 38  1  0  0  0
  6 39  1  0  0  0
  6 40  1  0  0  0
  7 41  1  0  0  0
  7 42  1  0  0  0
  9 43  1  0  0  0
 10 44  1  0  0  0
 11 45  1  0  0  0
 12 46  1  0  0  0
 13 47  1  0  0  0
 15 48  1  0  0  0
 16 49  1  0  0  0
 21 50  1  0  0  0
 23 51  1  0  0  0
 24 52  1  0  0  0
 25 53  1  0  0  0
 26 54  1  0  0  0
 27 55  1  0  0  0
 28 56  1  0  0  0
 28 57  1  0  0  0
 28 58  1  0  0  0
M  END
$$$$
