6j7e_ligand
  -I-interpret- 

 47 49  0  0  0  0  0  0  0  0999 V2000
  -76.8160   74.0850    0.7560 P   0  0  0  0  0
  -75.1470   73.4340    1.5560 S   0  0  0  0  0
  -76.7000   74.1000   -0.8120 O   0  0  0  0  0
  -77.1260   75.5330    1.2560 O   0  0  0  0  0
  -79.4850   73.4330    1.0360 P   0  0  0  0  0
  -80.0980   74.0330    2.2330 O   0  0  0  0  0
  -79.7000   74.3080   -0.1970 O   0  0  0  0  0
  -77.9560   73.1470    1.2670 O   0  0  0  0  0
  -80.5670   71.4020   -0.6380 P   0  0  0  0  0
  -82.0330   71.5950   -0.7390 O   0  0  0  0  0
  -79.8120   72.0970   -1.7820 O   0  0  0  0  0
  -80.0740   71.9610    0.7730 O   0  0  0  0  0
  -80.1760   69.8430   -0.6850 O   0  0  0  0  0
  -80.8640   68.7790    0.0140 C   0  0  0  0  0
  -81.0080   67.5860   -0.9100 C   0  0  0  0  0
  -82.0410   66.7060   -0.4210 O   0  0  0  0  0
  -81.4270   67.9070   -2.3360 C   0  0  0  0  0
  -80.9280   66.9200   -3.2300 O   0  0  0  0  0
  -82.9620   67.9380   -2.2430 C   0  0  0  0  0
  -83.5950   67.4930   -3.4390 O   0  0  0  0  0
  -83.2630   66.9670   -1.0920 C   0  0  0  0  0
  -84.2440   67.4400   -0.1020 N   0  0  0  0  0
  -84.0360   68.3810    0.8750 C   0  0  0  0  0
  -85.0760   68.5880    1.6470 N   0  0  0  0  0
  -86.0340   67.7110    1.1550 C   0  0  0  0  0
  -87.3610   67.4360    1.5450 C   0  0  0  0  0
  -87.9810   68.0400    2.5620 N   0  0  0  0  0
  -88.0420   66.5120    0.8400 N   0  0  0  0  0
  -87.4280   65.8970   -0.1750 C   0  0  0  0  0
  -86.1860   66.0690   -0.6330 N   0  0  0  0  0
  -85.5360   66.9970    0.0780 C   0  0  0  0  0
  -74.8992   72.2022    1.1200 H   0  0  0  0  0
  -76.5095   73.2131   -1.1262 H   0  0  0  0  0
  -79.2903   73.8917   -0.9588 H   0  0  0  0  0
  -78.8693   71.9476   -1.6790 H   0  0  0  0  0
  -81.8510   69.1232    0.3230 H   0  0  0  0  0
  -80.2917   68.4912    0.8959 H   0  0  0  0  0
  -80.0077   67.1531   -0.9220 H   0  0  0  0  0
  -81.0333   68.8449   -2.7277 H   0  0  0  0  0
  -81.1994   67.1345   -4.1255 H   0  0  0  0  0
  -83.3368   68.9493   -2.0852 H   0  0  0  0  0
  -84.5479   67.5317   -3.3289 H   0  0  0  0  0
  -83.7117   66.0838   -1.5467 H   0  0  0  0  0
  -83.0907   68.9094    0.9985 H   0  0  0  0  0
  -87.4917   68.7480    3.1095 H   0  0  0  0  0
  -88.9438   67.7933    2.7912 H   0  0  0  0  0
  -88.0238   65.1517   -0.7019 H   0  0  0  0  0
  1  2  1  0  0  0
  1  3  1  0  0  0
  1  4  2  0  0  0
  8  1  1  0  0  0
  5  6  2  0  0  0
  5  7  1  0  0  0
  5  8  1  0  0  0
 12  5  1  0  0  0
  9 10  2  0  0  0
  9 11  1  0  0  0
  9 12  1  0  0  0
  9 13  1  0  0  0
 13 14  1  0  0  0
 14 15  1  0  0  0
 15 16  1  0  0  0
 15 17  1  0  0  0
 16 21  1  0  0  0
 17 18  1  0  0  0
 17 19  1  0  0  0
 19 20  1  0  0  0
 19 21  1  0  0  0
 21 22  1  0  0  0
 22 23  4  0  0  0
 22 31  4  0  0  0
 23 24  4  0  0  0
 24 25  4  0  0  0
 25 26  4  0  0  0
 25 31  4  0  0  0
 26 27  1  0  0  0
 26 28  4  0  0  0
 28 29  4  0  0  0
 29 30  4  0  0  0
 30 31  4  0  0  0
  2 32  1  0  0  0
  3 33  1  0  0  0
  7 34  1  0  0  0
 11 35  1  0  0  0
 14 36  1  0  0  0
 14 37  1  0  0  0
 15 38  1  0  0  0
 17 39  1  0  0  0
 18 40  1  0  0  0
 19 41  1  0  0  0
 20 42  1  0  0  0
 21 43  1  0  0  0
 23 44  1  0  0  0
 27 45  1  0  0  0
 27 46  1  0  0  0
 29 47  1  0  0  0
M  END
$$$$
