### 
### Created by X-TOOL on Mon Aug  2 16:14:26 2021
### 

@<TRIPOS>MOLECULE
6j7e_ligand
   44    46     1     0     0
SMALL
GAST_HUCK


@<TRIPOS>ATOM
      1 PG        -76.8160   74.0850    0.7560 P.3       1 AGS         0.2197
      2 S1G       -75.1470   73.4340    1.5560 S.3       1 AGS        -0.0461
      3 O2G       -76.7000   74.1000   -0.8120 O.co2     1 AGS        -0.6077
      4 O3G       -77.1260   75.5330    1.2560 O.co2     1 AGS        -0.6077
      5 PB        -79.4850   73.4330    1.0360 P.3       1 AGS         0.3347
      6 O1B       -80.0980   74.0330    2.2330 O.co2     1 AGS        -0.6076
      7 O2B       -79.7000   74.3080   -0.1970 O.co2     1 AGS        -0.6076
      8 O3B       -77.9560   73.1470    1.2670 O.3       1 AGS        -0.1434
      9 PA        -80.5670   71.4020   -0.6380 P.3       1 AGS         0.2978
     10 O1A       -82.0330   71.5950   -0.7390 O.co2     1 AGS        -0.6127
     11 O2A       -79.8120   72.0970   -1.7820 O.co2     1 AGS        -0.6127
     12 O3A       -80.0740   71.9610    0.7730 O.3       1 AGS        -0.1263
     13 O5'       -80.1760   69.8430   -0.6850 O.3       1 AGS        -0.2476
     14 C5'       -80.8640   68.7790    0.0140 C.3       1 AGS         0.1128
     15 C4'       -81.0080   67.5860   -0.9100 C.3       1 AGS         0.1189
     16 O4'       -82.0410   66.7060   -0.4210 O.3       1 AGS        -0.3364
     17 C3'       -81.4270   67.9070   -2.3360 C.3       1 AGS         0.1149
     18 O3'       -80.9280   66.9200   -3.2300 O.3       1 AGS        -0.3864
     19 C2'       -82.9620   67.9380   -2.2430 C.3       1 AGS         0.1385
     20 O2'       -83.5950   67.4930   -3.4390 O.3       1 AGS        -0.3836
     21 C1'       -83.2630   66.9670   -1.0920 C.3       1 AGS         0.2010
     22 N9        -84.2440   67.4400   -0.1020 N.pl3     1 AGS        -0.1919
     23 C8        -84.0360   68.3810    0.8750 C.2       1 AGS         0.1123
     24 N7        -85.0760   68.5880    1.6470 N.2       1 AGS        -0.2958
     25 C5        -86.0340   67.7110    1.1550 C.ar      1 AGS         0.1045
     26 C6        -87.3610   67.4360    1.5450 C.ar      1 AGS         0.1298
     27 N6        -87.9810   68.0400    2.5620 N.pl3     1 AGS        -0.3152
     28 N1        -88.0420   66.5120    0.8400 N.ar      1 AGS        -0.2698
     29 C2        -87.4280   65.8970   -0.1750 C.ar      1 AGS         0.0533
     30 N3        -86.1860   66.0690   -0.6330 N.ar      1 AGS        -0.2714
     31 C4        -85.5360   66.9970    0.0780 C.ar      1 AGS         0.1613
     32 H1        -75.2362   73.4300    2.5600 H         1 AGS         0.1255
     33 H2        -81.8606   69.1267    0.3236 H         1 AGS         0.0648
     34 H3        -80.2847   68.4880    0.9026 H         1 AGS         0.0648
     35 H4        -80.0428   67.0588   -0.9325 H         1 AGS         0.0651
     36 H5        -81.0451   68.8909   -2.6459 H         1 AGS         0.0648
     37 H6        -81.1966   67.1322   -4.1162 H         1 AGS         0.2100
     38 H7        -83.3131   68.9530   -2.0053 H         1 AGS         0.0676
     39 H8        -83.3322   66.5984   -3.6211 H         1 AGS         0.2101
     40 H9        -83.6480   66.0332   -1.5276 H         1 AGS         0.0996
     41 H10       -83.0915   68.9089    0.9984 H         1 AGS         0.1349
     42 H11       -88.9532   67.7909    2.7935 H         1 AGS         0.1820
     43 H12       -87.4869   68.7549    3.1149 H         1 AGS         0.1820
     44 H13       -88.0205   65.1558   -0.6991 H         1 AGS         0.0996
@<TRIPOS>BOND
     1    1    2 1  
     2    1    3 ar 
     3    1    4 ar 
     4    8    1 1  
     5    5    6 ar 
     6    5    7 ar 
     7    5    8 1  
     8   12    5 1  
     9    9   10 ar 
    10    9   11 ar 
    11    9   12 1  
    12    9   13 1  
    13   13   14 1  
    14   14   15 1  
    15   15   16 1  
    16   15   17 1  
    17   16   21 1  
    18   17   18 1  
    19   17   19 1  
    20   19   20 1  
    21   19   21 1  
    22   21   22 1  
    23   22   23 1  
    24   22   31 1  
    25   23   24 2  
    26   24   25 1  
    27   25   26 ar 
    28   25   31 ar 
    29   26   27 1  
    30   26   28 ar 
    31   28   29 ar 
    32   29   30 ar 
    33   30   31 ar 
    34    2   32 1  
    35   14   33 1  
    36   14   34 1  
    37   15   35 1  
    38   17   36 1  
    39   18   37 1  
    40   19   38 1  
    41   20   39 1  
    42   21   40 1  
    43   23   41 1  
    44   27   42 1  
    45   27   43 1  
    46   29   44 1  
@<TRIPOS>SUBSTRUCTURE
     1 AGS         1

