### 
### Created by X-TOOL on Mon Sep 10 21:13:12 2018
### 

@<TRIPOS>MOLECULE
4l58_ligand
  123   122     1     0     0
SMALL
GAST_HUCK


@<TRIPOS>ATOM
      1 N          -6.0160   10.2320   16.9550 N.4       1 ALA         0.2377
      2 CA         -5.5090    8.9070   17.3950 C.3       1 ALA         0.0621
      3 C          -3.9970    8.9450   17.3250 C.2       1 ALA         0.2264
      4 O          -3.4380    9.8580   16.7130 O.2       1 ALA        -0.3907
      5 CB         -6.0450    7.8160   16.4850 C.3       1 ALA        -0.0040
      6 N          -3.3230    7.9790   17.9480 N.am      1 ARG        -0.2610
      7 CA         -1.8970    7.8380   17.7000 C.3       1 ARG         0.1312
      8 C          -1.6770    6.9780   16.4720 C.2       1 ARG         0.2040
      9 O          -2.1840    5.8650   16.3760 O.2       1 ARG        -0.3944
     10 CB         -1.1140    7.2370   18.8660 C.3       1 ARG        -0.0092
     11 CG          0.3690    7.2240   18.5190 C.3       1 ARG        -0.0156
     12 CD          1.3070    7.3580   19.6910 C.3       1 ARG         0.0627
     13 NE          2.6820    7.4390   19.1930 N.pl3     1 ARG        -0.2723
     14 CZ          3.6870    6.6500   19.5680 C.cat     1 ARG         0.2882
     15 NH1         3.5180    5.6970   20.4750 N.pl3     1 ARG        -0.2849
     16 NH2         4.8880    6.8250   19.0310 N.pl3     1 ARG        -0.2849
     17 N          -0.9050    7.5120   15.5370 N.am      1 THR        -0.2613
     18 CA         -0.5820    6.7990   14.3160 C.3       1 THR         0.1565
     19 C           0.9250    6.7550   14.1830 C.2       1 THR         0.2065
     20 O           1.6440    7.3630   14.9790 O.2       1 THR        -0.3943
     21 CB         -1.1690    7.5120   13.0830 C.3       1 THR         0.0924
     22 OG1        -0.5220    8.7800   12.9040 O.3       1 THR        -0.3874
     23 CG2        -2.6640    7.7320   13.2490 C.3       1 THR        -0.0346
     24 N           1.4070    6.0350   13.1770 N.am      1 M3L        -0.2637
     25 CA          2.8100    6.1260   12.8090 C.3       1 M3L         0.1310
     26 CB          3.7440    5.2030   13.5450 C.3       1 M3L        -0.0122
     27 CG          3.5950    3.7250   13.2860 C.3       1 M3L        -0.0440
     28 CD          4.5350    2.8120   14.0420 C.3       1 M3L        -0.0123
     29 CE          4.2640    1.2990   13.9600 C.3       1 M3L        -0.0309
     30 NZ          5.1460    0.3980   14.7630 N.4       1 M3L         0.2369
     31 C           2.9210    5.9270   11.3420 C.2       1 M3L         0.2039
     32 O           2.2460    5.0300   10.7350 O.2       1 M3L        -0.3944
     33 CM1         4.9740    0.6920   16.1770 C.3       1 M3L        -0.0418
     34 CM2         6.5030    0.5800   14.3390 C.3       1 M3L        -0.0418
     35 CM3         4.7490   -0.9740   14.5230 C.3       1 M3L        -0.0418
     36 N           3.7520    6.7570   10.7250 N.am      1 GLN        -0.2636
     37 CA          4.0140    6.6760    9.3020 C.3       1 GLN         0.1330
     38 C           5.5040    6.5150    9.0930 C.2       1 GLN         0.2041
     39 O           6.2380    7.4950    8.9330 O.2       1 GLN        -0.3944
     40 CB          3.5210    7.9320    8.5970 C.3       1 GLN         0.0045
     41 CG          2.0180    8.0000    8.4590 C.3       1 GLN         0.0412
     42 CD          1.5630    9.2990    7.8410 C.2       1 GLN         0.1737
     43 OE1         1.0110   10.1620    8.5240 O.2       1 GLN        -0.3973
     44 NE2         1.7960    9.4510    6.5400 N.am      1 GLN        -0.3009
     45 N           5.9420    5.2660    9.1010 N.am      1 THR        -0.2613
     46 CA          7.3490    4.9470    8.9780 C.3       1 THR         0.1564
     47 C           7.8000    5.1420    7.5390 C.2       1 THR         0.2059
     48 O           7.1650    4.6440    6.6070 O.2       1 THR        -0.3943
     49 CB          7.6100    3.5020    9.4060 C.3       1 THR         0.0924
     50 OG1         7.1880    3.3260   10.7640 O.3       1 THR        -0.3874
     51 CG2         9.0810    3.1710    9.2820 C.3       1 THR        -0.0346
     52 N           8.8850    5.8900    7.3630 N.am      1 ALA        -0.2697
     53 CA          9.4760    6.0930    6.0440 C.3       1 ALA         0.0916
     54 C          10.9230    5.6210    6.0480 C.2       1 ALA         0.0598
     55 O          11.5999    5.6507    7.1103 O.co2     1 ALA        -0.5666
     56 CB          9.3950    7.5650    5.6390 C.3       1 ALA        -0.0300
     57 O          11.4470    5.1982    4.9830 O.co2     1 ALA        -0.5666
     58 H1         -7.0233   10.2354   16.9917 H         1 ALA         0.2015
     59 H2         -5.7136   10.4106   16.0102 H         1 ALA         0.2015
     60 H3         -5.6552   10.9492   17.5645 H         1 ALA         0.2015
     61 H4         -5.8295    8.7096   18.4286 H         1 ALA         0.1095
     62 H5         -5.6639    6.8397   16.8192 H         1 ALA         0.0310
     63 H6         -5.7150    8.0045   15.4527 H         1 ALA         0.0310
     64 H7         -7.1443    7.8133   16.5239 H         1 ALA         0.0310
     65 H8         -3.7915    7.3593   18.5777 H         1 ARG         0.1884
     66 H9         -1.4920    8.8420   17.5052 H         1 ARG         0.0800
     67 H10        -1.4581    6.2084   19.0490 H         1 ARG         0.0313
     68 H11        -1.2752    7.8438   19.7692 H         1 ARG         0.0313
     69 H12         0.5641    8.0595   17.8307 H         1 ARG         0.0301
     70 H13         0.5912    6.2727   18.0133 H         1 ARG         0.0301
     71 H14         1.2037    6.4821   20.3484 H         1 ARG         0.0689
     72 H15         1.0646    8.2706   20.2552 H         1 ARG         0.0689
     73 H16         2.8889    8.1671   18.4944 H         1 ARG         0.2642
     74 H17         4.3113    5.0996   20.7483 H         1 ARG         0.2615
     75 H18         2.5935    5.5544   20.9060 H         1 ARG         0.2615
     76 H19         5.0344    7.5610   18.3255 H         1 ARG         0.2615
     77 H20         5.6737    6.2248   19.3198 H         1 ARG         0.2615
     78 H21        -0.5354    8.4306   15.6768 H         1 THR         0.1884
     79 H22        -0.9841    5.7766   14.3710 H         1 THR         0.0826
     80 H23        -0.9952    6.8881   12.1939 H         1 THR         0.0639
     81 H24         0.4094    8.6437   12.7759 H         1 THR         0.2101
     82 H25        -3.0607    8.2415   12.3585 H         1 THR         0.0257
     83 H26        -2.8468    8.3528   14.1385 H         1 THR         0.0257
     84 H27        -3.1663    6.7609   13.3701 H         1 THR         0.0257
     85 H28         0.7995    5.4250   12.6682 H         1 M3L         0.1883
     86 H29         3.1370    7.1507   13.0392 H         1 M3L         0.0800
     87 H30         3.5920    5.3676   14.6219 H         1 M3L         0.0312
     88 H31         4.7716    5.4851   13.2724 H         1 M3L         0.0312
     89 H32         3.7562    3.5555   12.2112 H         1 M3L         0.0269
     90 H33         2.5662    3.4406   13.5519 H         1 M3L         0.0269
     91 H34         4.4925    3.0986   15.1031 H         1 M3L         0.0317
     92 H35         5.5495    2.9878   13.6550 H         1 M3L         0.0317
     93 H36         4.3624    1.0028   12.9052 H         1 M3L         0.0815
     94 H37         3.2293    1.1305   14.2932 H         1 M3L         0.0815
     95 H38         5.6220    0.0303   16.7705 H         1 M3L         0.0778
     96 H39         3.9240    0.5276   16.4606 H         1 M3L         0.0778
     97 H40         5.2460    1.7403   16.3693 H         1 M3L         0.0778
     98 H41         6.5865    0.3474   13.2671 H         1 M3L         0.0778
     99 H42         7.1594   -0.0914   14.9121 H         1 M3L         0.0778
    100 H43         6.8045    1.6236   14.5123 H         1 M3L         0.0778
    101 H44         3.7077   -1.1165   14.8476 H         1 M3L         0.0778
    102 H45         5.4056   -1.6503   15.0900 H         1 M3L         0.0778
    103 H46         4.8321   -1.1973   13.4491 H         1 M3L         0.0778
    104 H47         4.2140    7.4636   11.2609 H         1 GLN         0.1883
    105 H48         3.4907    5.8027    8.8854 H         1 GLN         0.0801
    106 H49         3.9639    7.9620    7.5906 H         1 GLN         0.0337
    107 H50         3.8570    8.8076    9.1718 H         1 GLN         0.0337
    108 H51         1.5655    7.9044    9.4570 H         1 GLN         0.0504
    109 H52         1.6822    7.1678    7.8229 H         1 GLN         0.0504
    110 H53         1.5162   10.2919    6.0768 H         1 GLN         0.1814
    111 H54         2.2510    8.7243    6.0253 H         1 GLN         0.1814
    112 H55         5.2818    4.5208    9.1947 H         1 THR         0.1884
    113 H56         7.9247    5.6213    9.6290 H         1 THR         0.0826
    114 H57         7.0347    2.8253    8.7572 H         1 THR         0.0639
    115 H58         7.6758    3.9173   11.3252 H         1 THR         0.2101
    116 H59         9.2500    2.1296    9.5934 H         1 THR         0.0257
    117 H60         9.6642    3.8455    9.9261 H         1 THR         0.0257
    118 H61         9.3984    3.2970    8.2364 H         1 THR         0.0257
    119 H62         9.3083    6.3260    8.1572 H         1 ALA         0.1875
    120 H63         8.9130    5.4971    5.3106 H         1 ALA         0.0723
    121 H64         9.8449    7.6968    4.6439 H         1 ALA         0.0270
    122 H65         9.9405    8.1775    6.3720 H         1 ALA         0.0270
    123 H66         8.3414    7.8798    5.6097 H         1 ALA         0.0270
@<TRIPOS>BOND
     1    1    2 1  
     2    2    3 1  
     3    2    5 1  
     4    3    4 2  
     5    3    6 am 
     6    6    7 1  
     7    7    8 1  
     8    7   10 1  
     9    8    9 2  
    10    8   17 am 
    11   10   11 1  
    12   11   12 1  
    13   12   13 1  
    14   13   14 ar 
    15   14   15 ar 
    16   14   16 ar 
    17   17   18 1  
    18   18   19 1  
    19   18   21 1  
    20   19   20 2  
    21   19   24 am 
    22   21   22 1  
    23   21   23 1  
    24   24   25 1  
    25   25   26 1  
    26   25   31 1  
    27   26   27 1  
    28   27   28 1  
    29   28   29 1  
    30   29   30 1  
    31   30   33 1  
    32   30   34 1  
    33   30   35 1  
    34   31   32 2  
    35   31   36 am 
    36   36   37 1  
    37   37   38 1  
    38   37   40 1  
    39   38   39 2  
    40   38   45 am 
    41   40   41 1  
    42   41   42 1  
    43   42   43 2  
    44   42   44 am 
    45   45   46 1  
    46   46   47 1  
    47   46   49 1  
    48   47   48 2  
    49   47   52 am 
    50   49   50 1  
    51   49   51 1  
    52   52   53 1  
    53   53   54 1  
    54   53   56 1  
    55   54   55 ar 
    56   54   57 ar 
    57    1   58 1  
    58    1   59 1  
    59    1   60 1  
    60    2   61 1  
    61    5   62 1  
    62    5   63 1  
    63    5   64 1  
    64    6   65 1  
    65    7   66 1  
    66   10   67 1  
    67   10   68 1  
    68   11   69 1  
    69   11   70 1  
    70   12   71 1  
    71   12   72 1  
    72   13   73 1  
    73   15   74 1  
    74   15   75 1  
    75   16   76 1  
    76   16   77 1  
    77   17   78 1  
    78   18   79 1  
    79   21   80 1  
    80   22   81 1  
    81   23   82 1  
    82   23   83 1  
    83   23   84 1  
    84   24   85 1  
    85   25   86 1  
    86   26   87 1  
    87   26   88 1  
    88   27   89 1  
    89   27   90 1  
    90   28   91 1  
    91   28   92 1  
    92   29   93 1  
    93   29   94 1  
    94   33   95 1  
    95   33   96 1  
    96   33   97 1  
    97   34   98 1  
    98   34   99 1  
    99   34  100 1  
   100   35  101 1  
   101   35  102 1  
   102   35  103 1  
   103   36  104 1  
   104   37  105 1  
   105   40  106 1  
   106   40  107 1  
   107   41  108 1  
   108   41  109 1  
   109   44  110 1  
   110   44  111 1  
   111   45  112 1  
   112   46  113 1  
   113   49  114 1  
   114   50  115 1  
   115   51  116 1  
   116   51  117 1  
   117   51  118 1  
   118   52  119 1  
   119   53  120 1  
   120   56  121 1  
   121   56  122 1  
   122   56  123 1  
@<TRIPOS>SUBSTRUCTURE
     1 ALA         1

