4l58_ligand
  -I-interpret- 

123122  0  0  0  0  0  0  0  0999 V2000
   -6.0160   10.2320   16.9550 N   0  3  0  0  0
   -5.5090    8.9070   17.3950 C   0  0  0  0  0
   -3.9970    8.9450   17.3250 C   0  0  0  0  0
   -3.4380    9.8580   16.7130 O   0  0  0  0  0
   -6.0450    7.8160   16.4850 C   0  0  0  0  0
   -3.3230    7.9790   17.9480 N   0  0  0  0  0
   -1.8970    7.8380   17.7000 C   0  0  0  0  0
   -1.6770    6.9780   16.4720 C   0  0  0  0  0
   -2.1840    5.8650   16.3760 O   0  0  0  0  0
   -1.1140    7.2370   18.8660 C   0  0  0  0  0
    0.3690    7.2240   18.5190 C   0  0  0  0  0
    1.3070    7.3580   19.6910 C   0  0  0  0  0
    2.6820    7.4390   19.1930 N   0  0  0  0  0
    3.6870    6.6500   19.5680 C   0  0  0  0  0
    3.5180    5.6970   20.4750 N   0  0  0  0  0
    4.8880    6.8250   19.0310 N   0  0  0  0  0
   -0.9050    7.5120   15.5370 N   0  0  0  0  0
   -0.5820    6.7990   14.3160 C   0  0  0  0  0
    0.9250    6.7550   14.1830 C   0  0  0  0  0
    1.6440    7.3630   14.9790 O   0  0  0  0  0
   -1.1690    7.5120   13.0830 C   0  0  0  0  0
   -0.5220    8.7800   12.9040 O   0  0  0  0  0
   -2.6640    7.7320   13.2490 C   0  0  0  0  0
    1.4070    6.0350   13.1770 N   0  0  0  0  0
    2.8100    6.1260   12.8090 C   0  0  0  0  0
    3.7440    5.2030   13.5450 C   0  0  0  0  0
    3.5950    3.7250   13.2860 C   0  0  0  0  0
    4.5350    2.8120   14.0420 C   0  0  0  0  0
    4.2640    1.2990   13.9600 C   0  0  0  0  0
    5.1460    0.3980   14.7630 N   0  3  0  0  0
    2.9210    5.9270   11.3420 C   0  0  0  0  0
    2.2460    5.0300   10.7350 O   0  0  0  0  0
    4.9740    0.6920   16.1770 C   0  0  0  0  0
    6.5030    0.5800   14.3390 C   0  0  0  0  0
    4.7490   -0.9740   14.5230 C   0  0  0  0  0
    3.7520    6.7570   10.7250 N   0  0  0  0  0
    4.0140    6.6760    9.3020 C   0  0  0  0  0
    5.5040    6.5150    9.0930 C   0  0  0  0  0
    6.2380    7.4950    8.9330 O   0  0  0  0  0
    3.5210    7.9320    8.5970 C   0  0  0  0  0
    2.0180    8.0000    8.4590 C   0  0  0  0  0
    1.5630    9.2990    7.8410 C   0  0  0  0  0
    1.0110   10.1620    8.5240 O   0  0  0  0  0
    1.7960    9.4510    6.5400 N   0  0  0  0  0
    5.9420    5.2660    9.1010 N   0  0  0  0  0
    7.3490    4.9470    8.9780 C   0  0  0  0  0
    7.8000    5.1420    7.5390 C   0  0  0  0  0
    7.1650    4.6440    6.6070 O   0  0  0  0  0
    7.6100    3.5020    9.4060 C   0  0  0  0  0
    7.1880    3.3260   10.7640 O   0  0  0  0  0
    9.0810    3.1710    9.2820 C   0  0  0  0  0
    8.8850    5.8900    7.3630 N   0  0  0  0  0
    9.4760    6.0930    6.0440 C   0  0  0  0  0
   10.9230    5.6210    6.0480 C   0  0  0  0  0
   11.5999    5.6507    7.1103 O   0  0  0  0  0
    9.3950    7.5650    5.6390 C   0  0  0  0  0
   11.4470    5.1982    4.9830 O   0  0  0  0  0
   -5.6502   10.9568   17.5725 H   0  0  0  0  0
   -5.7094   10.4116   15.9989 H   0  0  0  0  0
   -7.0353   10.2342   16.9925 H   0  0  0  0  0
   -5.8376    8.6925   18.4119 H   0  0  0  0  0
   -5.7383    8.0175   15.4586 H   0  0  0  0  0
   -5.6468    6.8521   16.8020 H   0  0  0  0  0
   -7.1333    7.7980   16.5435 H   0  0  0  0  0
   -3.8009    7.3469   18.5903 H   0  0  0  0  0
   -1.5188    8.8500   17.5555 H   0  0  0  0  0
   -1.4557    6.2184   19.0500 H   0  0  0  0  0
   -1.2749    7.8361   19.7623 H   0  0  0  0  0
    0.5466    8.0871   17.8774 H   0  0  0  0  0
    0.5743    6.2547   18.0647 H   0  0  0  0  0
    1.2033    6.4931   20.3461 H   0  0  0  0  0
    1.0659    8.2596   20.2541 H   0  0  0  0  0
    2.8869    8.1600   18.5012 H   0  0  0  0  0
    2.6024    5.5557   20.9018 H   0  0  0  0  0
    5.6660    6.2306   19.3170 H   0  0  0  0  0
    5.0330    7.5539   18.3323 H   0  0  0  0  0
   -0.5280    8.4490   15.6796 H   0  0  0  0  0
   -1.0067    5.7964   14.3663 H   0  0  0  0  0
   -1.0004    6.8823   12.2094 H   0  0  0  0  0
   -0.8909    9.2204   12.1349 H   0  0  0  0  0
   -3.1605    6.7691   13.3689 H   0  0  0  0  0
   -2.8437    8.3472   14.1307 H   0  0  0  0  0
   -3.0559    8.2369   12.3660 H   0  0  0  0  0
    0.7874    5.4128   12.6581 H   0  0  0  0  0
    3.1414    7.1196   13.1108 H   0  0  0  0  0
    3.5253    5.3422   14.6037 H   0  0  0  0  0
    4.7467    5.4639   13.2064 H   0  0  0  0  0
    3.8161    3.5790   12.2287 H   0  0  0  0  0
    2.5889    3.4604   13.6114 H   0  0  0  0  0
    4.4221    3.0762   15.0935 H   0  0  0  0  0
    5.5171    2.9614   13.5933 H   0  0  0  0  0
    4.4339    1.0256   12.9186 H   0  0  0  0  0
    3.2590    1.1580   14.3578 H   0  0  0  0  0
    5.2438    1.7310   16.3662 H   0  0  0  0  0
    3.9332    0.5288   16.4567 H   0  0  0  0  0
    5.6165    0.0358   16.7640 H   0  0  0  0  0
    6.5879    0.3329   13.2808 H   0  0  0  0  0
    6.7951    1.6184   14.4956 H   0  0  0  0  0
    7.1544   -0.0734   14.9194 H   0  0  0  0  0
    3.7098   -1.1080   14.8233 H   0  0  0  0  0
    4.8541   -1.2010   13.4621 H   0  0  0  0  0
    5.3854   -1.6419   15.1036 H   0  0  0  0  0
    4.2232    7.4778   11.2716 H   0  0  0  0  0
    3.4842    5.8211    8.8818 H   0  0  0  0  0
    3.9410    7.9276    7.5912 H   0  0  0  0  0
    3.8324    8.7866    9.1976 H   0  0  0  0  0
    1.5814    7.9261    9.4550 H   0  0  0  0  0
    1.6989    7.1845    7.8099 H   0  0  0  0  0
    1.5140   10.3103    6.0684 H   0  0  0  0  0
    2.2567    8.7082    6.0142 H   0  0  0  0  0
    5.2686    4.5059    9.1966 H   0  0  0  0  0
    7.9137    5.6144    9.6290 H   0  0  0  0  0
    7.0470    2.8325    8.7556 H   0  0  0  0  0
    7.3514    2.4193   11.0337 H   0  0  0  0  0
    9.3942    3.2963    8.2455 H   0  0  0  0  0
    9.6577    3.8401    9.9206 H   0  0  0  0  0
    9.2472    2.1390    9.5909 H   0  0  0  0  0
    9.3168    6.3348    8.1730 H   0  0  0  0  0
    8.9154    5.5087    5.3143 H   0  0  0  0  0
    8.3506    7.8757    5.6103 H   0  0  0  0  0
    9.9358    8.1708    6.3660 H   0  0  0  0  0
    9.8410    7.6943    4.6529 H   0  0  0  0  0
   10.8032    5.2407    4.2721 H   0  0  0  0  0
  1  2  1  0  0  0
  2  3  1  0  0  0
  2  5  1  0  0  0
  3  4  2  0  0  0
  3  6  1  0  0  0
  6  7  1  0  0  0
  7  8  1  0  0  0
  7 10  1  0  0  0
  8  9  2  0  0  0
  8 17  1  0  0  0
 10 11  1  0  0  0
 11 12  1  0  0  0
 12 13  1  0  0  0
 13 14  1  0  0  0
 14 15  2  0  0  0
 14 16  1  0  0  0
 17 18  1  0  0  0
 18 19  1  0  0  0
 18 21  1  0  0  0
 19 20  2  0  0  0
 19 24  1  0  0  0
 21 22  1  0  0  0
 21 23  1  0  0  0
 24 25  1  0  0  0
 25 26  1  0  0  0
 25 31  1  0  0  0
 26 27  1  0  0  0
 27 28  1  0  0  0
 28 29  1  0  0  0
 29 30  1  0  0  0
 30 33  1  0  0  0
 30 34  1  0  0  0
 30 35  1  0  0  0
 31 32  2  0  0  0
 31 36  1  0  0  0
 36 37  1  0  0  0
 37 38  1  0  0  0
 37 40  1  0  0  0
 38 39  2  0  0  0
 38 45  1  0  0  0
 40 41  1  0  0  0
 41 42  1  0  0  0
 42 43  2  0  0  0
 42 44  1  0  0  0
 45 46  1  0  0  0
 46 47  1  0  0  0
 46 49  1  0  0  0
 47 48  2  0  0  0
 47 52  1  0  0  0
 49 50  1  0  0  0
 49 51  1  0  0  0
 52 53  1  0  0  0
 53 54  1  0  0  0
 53 56  1  0  0  0
 54 55  2  0  0  0
 54 57  1  0  0  0
  1 58  1  0  0  0
  1 59  1  0  0  0
  1 60  1  0  0  0
  2 61  1  0  0  0
  5 62  1  0  0  0
  5 63  1  0  0  0
  5 64  1  0  0  0
  6 65  1  0  0  0
  7 66  1  0  0  0
 10 67  1  0  0  0
 10 68  1  0  0  0
 11 69  1  0  0  0
 11 70  1  0  0  0
 12 71  1  0  0  0
 12 72  1  0  0  0
 13 73  1  0  0  0
 15 74  1  0  0  0
 16 75  1  0  0  0
 16 76  1  0  0  0
 17 77  1  0  0  0
 18 78  1  0  0  0
 21 79  1  0  0  0
 22 80  1  0  0  0
 23 81  1  0  0  0
 23 82  1  0  0  0
 23 83  1  0  0  0
 24 84  1  0  0  0
 25 85  1  0  0  0
 26 86  1  0  0  0
 26 87  1  0  0  0
 27 88  1  0  0  0
 27 89  1  0  0  0
 28 90  1  0  0  0
 28 91  1  0  0  0
 29 92  1  0  0  0
 29 93  1  0  0  0
 33 94  1  0  0  0
 33 95  1  0  0  0
 33 96  1  0  0  0
 34 97  1  0  0  0
 34 98  1  0  0  0
 34 99  1  0  0  0
 35100  1  0  0  0
 35101  1  0  0  0
 35102  1  0  0  0
 36103  1  0  0  0
 37104  1  0  0  0
 40105  1  0  0  0
 40106  1  0  0  0
 41107  1  0  0  0
 41108  1  0  0  0
 44109  1  0  0  0
 44110  1  0  0  0
 45111  1  0  0  0
 46112  1  0  0  0
 49113  1  0  0  0
 50114  1  0  0  0
 51115  1  0  0  0
 51116  1  0  0  0
 51117  1  0  0  0
 52118  1  0  0  0
 53119  1  0  0  0
 56120  1  0  0  0
 56121  1  0  0  0
 56122  1  0  0  0
 57123  1  0  0  0
M  END
$$$$
