1oay_ligand
  -I-interpret- 

 21 22  0  0  0  0  0  0  0  0999 V2000
   40.5940   53.8500   81.7770 O   0  0  0  0  0
   39.4910   54.2830   81.4830 N   0  0  0  0  0
   38.9170   55.0460   82.2420 O   0  0  0  0  0
   38.9110   53.9290   80.3370 C   0  0  0  0  0
   37.8950   54.6490   79.4890 O   0  0  0  0  0
   39.0260   52.9210   79.6500 C   0  0  0  0  0
   38.4440   52.8150   78.7030 C   0  0  0  0  0
   37.6690   53.6930   78.3500 C   0  0  0  0  0
   36.9260   53.7860   77.3400 C   0  0  0  0  0
   36.1130   53.9850   76.4430 N   0  0  0  0  0
   35.6940   52.9440   75.5820 N   0  0  0  0  0
   34.5700   53.0240   74.8980 C   0  0  0  0  0
   33.7560   53.9340   74.8900 O   0  0  0  0  0
   36.4580   51.7210   75.3730 C   0  0  0  0  0
   35.5630   50.9720   74.3700 C   0  0  0  0  0
   34.4330   51.8160   74.1190 O   0  0  0  0  0
   39.6996   52.1240   79.9648 H   0  0  0  0  0
   38.5673   51.9230   78.0889 H   0  0  0  0  0
   37.5065   53.0719   76.7559 H   0  0  0  0  0
   37.4093   51.4177   75.8103 H   0  0  0  0  0
   35.7520   49.9905   73.9352 H   0  0  0  0  0
  1  2  2  0  0  0
  2  3  2  0  0  0
  2  4  1  0  0  0
  4  5  4  0  0  0
  4  6  4  0  0  0
  5  8  4  0  0  0
  6  7  4  0  0  0
  7  8  4  0  0  0
  8  9  1  0  0  0
  9 10  2  0  0  0
 10 11  1  0  0  0
 11 12  1  0  0  0
 11 14  1  0  0  0
 12 13  2  0  0  0
 12 16  1  0  0  0
 14 15  2  0  0  0
 15 16  1  0  0  0
  6 17  1  0  0  0
  7 18  1  0  0  0
  9 19  1  0  0  0
 14 20  1  0  0  0
 15 21  1  0  0  0
M  END
$$$$
