5g45_ligand
  -I-interpret- 

 20 21  0  0  0  0  0  0  0  0999 V2000
  -29.3720    6.8300  -17.6620 C   0  0  0  0  0
  -29.2640    6.7070  -16.2920 C   0  0  0  0  0
  -29.3810    5.7070  -18.4690 C   0  0  0  0  0
  -29.0490    5.3210  -14.3590 C   0  0  0  0  0
  -29.0120    2.9450  -14.6990 C   0  0  0  0  0
  -29.1470    5.4470  -15.7360 C   0  0  0  0  0
  -29.1570    4.2990  -16.5340 C   0  0  0  0  0
  -29.2760    4.4460  -17.9080 C   0  0  0  0  0
  -28.9840    4.0340  -13.8550 C   0  0  0  0  0
  -29.1060    3.0550  -16.0250 N   0  0  0  0  0
  -29.3220    3.3010  -18.7270 N   0  0  0  0  0
  -28.8860    3.7910  -12.5160 O   0  0  0  0  0
  -29.4508    7.8198  -18.1116 H   0  0  0  0  0
  -29.2709    7.5923  -15.6562 H   0  0  0  0  0
  -29.4710    5.8152  -19.5499 H   0  0  0  0  0
  -29.0244    6.1929  -13.7054 H   0  0  0  0  0
  -28.9547    1.9477  -14.2629 H   0  0  0  0  0
  -29.4329    3.3999  -19.7361 H   0  0  0  0  0
  -29.2444    2.3729  -18.3110 H   0  0  0  0  0
  -28.8533    2.8434  -12.3654 H   0  0  0  0  0
  1  2  4  0  0  0
  1  3  4  0  0  0
  2  6  4  0  0  0
  3  8  4  0  0  0
  6  4  4  0  0  0
  4  9  4  0  0  0
  9  5  4  0  0  0
  5 10  4  0  0  0
  6  7  4  0  0  0
  7  8  4  0  0  0
  7 10  4  0  0  0
  8 11  1  0  0  0
  9 12  1  0  0  0
  1 13  1  0  0  0
  2 14  1  0  0  0
  3 15  1  0  0  0
  4 16  1  0  0  0
  5 17  1  0  0  0
 11 18  1  0  0  0
 11 19  1  0  0  0
 12 20  1  0  0  0
M  END
$$$$
