5h14_ligand
  -I-interpret- 

 46 49  0  0  0  0  0  0  0  0999 V2000
   35.1280   78.8130   -7.7310 C   0  0  0  0  0
   35.3710   78.1180   -8.9420 C   0  0  0  0  0
   36.9320   81.7590   -7.6060 C   0  0  0  0  0
   32.8470   74.8330   -5.9540 C   0  0  0  0  0
   34.9780   76.7760   -9.0540 C   0  0  0  0  0
   31.3490   75.0880   -5.6960 C   0  0  0  0  0
   33.4210   76.6590   -4.3660 C   0  0  0  0  0
   34.3930   76.1110   -7.9760 C   0  0  0  0  0
   30.9370   76.0940   -4.7760 C   0  0  0  0  0
   31.9430   76.9810   -4.0130 C   0  0  0  0  0
   33.2880   81.3020   -7.3090 C   0  0  0  0  0
   38.2220   82.5240   -7.6670 C   0  0  0  0  0
   30.3870   74.3770   -6.4360 C   0  0  0  0  0
   29.5670   76.3290   -4.5940 C   0  0  0  0  0
   29.0200   74.6030   -6.2230 C   0  0  0  0  0
   28.6110   75.5810   -5.3130 C   0  0  0  0  0
   35.5240   80.1180   -7.6090 N   0  0  0  0  0
   35.9190   78.7130  -10.0330 N   0  0  0  0  0
   36.8180   80.5020   -7.7080 N   0  0  0  0  0
   34.7870   81.2080   -7.4690 C   0  0  0  0  0
   34.5530   78.1190   -6.6440 C   0  0  0  0  0
   33.5700   76.0840   -5.7120 N   0  0  0  0  0
   35.5740   82.2890   -7.4520 C   0  0  0  0  0
   34.1990   76.7510   -6.7370 C   0  0  0  0  0
   35.1390   79.5740  -10.8170 O   0  0  0  0  0
   37.0740   78.5160  -10.3530 O   0  0  0  0  0
   33.0004   74.5032   -6.9815 H   0  0  0  0  0
   33.2151   74.0517   -5.2890 H   0  0  0  0  0
   35.1315   76.2466   -9.9943 H   0  0  0  0  0
   33.7853   75.9259   -3.6463 H   0  0  0  0  0
   33.9835   77.5922   -4.3362 H   0  0  0  0  0
   34.0795   75.0739   -8.0955 H   0  0  0  0  0
   31.7520   78.0172   -4.2921 H   0  0  0  0  0
   31.8075   76.7973   -2.9472 H   0  0  0  0  0
   32.8026   80.8643   -8.1813 H   0  0  0  0  0
   32.9849   80.7604   -6.4130 H   0  0  0  0  0
   32.9986   82.3489   -7.2177 H   0  0  0  0  0
   38.8799   82.1890   -6.8651 H   0  0  0  0  0
   38.7019   82.3483   -8.6297 H   0  0  0  0  0
   38.0176   83.5883   -7.5503 H   0  0  0  0  0
   30.7062   73.6463   -7.1791 H   0  0  0  0  0
   29.2380   77.0951   -3.8919 H   0  0  0  0  0
   28.2782   74.0173   -6.7659 H   0  0  0  0  0
   27.5483   75.7670   -5.1578 H   0  0  0  0  0
   34.3770   78.6503   -5.7086 H   0  0  0  0  0
   35.2730   83.3313   -7.3471 H   0  0  0  0  0
  1  2  4  0  0  0
  1 17  1  0  0  0
 21  1  4  0  0  0
  5  2  4  0  0  0
  2 18  1  0  0  0
  3 12  1  0  0  0
 19  3  4  0  0  0
 23  3  4  0  0  0
  4  6  1  0  0  0
 22  4  1  0  0  0
  8  5  4  0  0  0
  6  9  4  0  0  0
  6 13  4  0  0  0
  7 10  1  0  0  0
 22  7  1  0  0  0
 24  8  4  0  0  0
 10  9  1  0  0  0
  9 14  4  0  0  0
 20 11  1  0  0  0
 13 15  4  0  0  0
 14 16  4  0  0  0
 15 16  4  0  0  0
 17 19  4  0  0  0
 17 20  4  0  0  0
 18 25  2  0  0  0
 18 26  2  0  0  0
 20 23  4  0  0  0
 24 21  4  0  0  0
 22 24  1  0  0  0
  4 27  1  0  0  0
  4 28  1  0  0  0
  5 29  1  0  0  0
  7 30  1  0  0  0
  7 31  1  0  0  0
  8 32  1  0  0  0
 10 33  1  0  0  0
 10 34  1  0  0  0
 11 35  1  0  0  0
 11 36  1  0  0  0
 11 37  1  0  0  0
 12 38  1  0  0  0
 12 39  1  0  0  0
 12 40  1  0  0  0
 13 41  1  0  0  0
 14 42  1  0  0  0
 15 43  1  0  0  0
 16 44  1  0  0  0
 21 45  1  0  0  0
 23 46  1  0  0  0
M  END
$$$$
