2wi1_ligand
  -I-interpret- 

 26 26  0  0  0  0  0  0  0  0999 V2000
   28.8590   11.2400   23.5270 N   0  0  0  0  0
   29.9340   10.8100   24.2300 C   0  0  0  0  0
   29.7570   10.2490   25.4470 N   0  0  0  0  0
   30.8160    9.8140   26.1630 C   0  0  0  0  0
   32.0970    9.9450   25.6420 C   0  0  0  0  0
   32.2570   10.5230   24.3910 C   0  0  0  0  0
   33.6340   10.6780   23.7990 C   0  0  0  0  0
   31.1730   10.9460   23.7060 N   0  0  0  0  0
   30.6280    9.2470   27.3950 O   0  0  0  0  0
   31.4410    8.1500   27.8070 C   0  0  0  0  0
   32.1620    7.5690   26.5960 C   0  0  0  0  0
   31.3850    6.5080   26.0440 O   0  0  0  0  0
   31.2920    6.6040   24.6240 C   0  0  0  0  0
   27.9216   11.1397   23.9164 H   0  0  0  0  0
   28.9869   11.6641   22.6082 H   0  0  0  0  0
   32.9626    9.5992   26.2070 H   0  0  0  0  0
   34.2424   11.3002   24.4554 H   0  0  0  0  0
   34.0963    9.6963   23.6957 H   0  0  0  0  0
   33.5559   11.1492   22.8192 H   0  0  0  0  0
   30.8132    7.3821   28.2591 H   0  0  0  0  0
   32.1746    8.4949   28.5357 H   0  0  0  0  0
   33.1353    7.1854   26.9021 H   0  0  0  0  0
   32.2981    8.3480   25.8459 H   0  0  0  0  0
   30.8215    7.5497   24.3551 H   0  0  0  0  0
   32.2916    6.5581   24.1918 H   0  0  0  0  0
   30.6921    5.7772   24.2437 H   0  0  0  0  0
  1  2  1  0  0  0
  2  3  4  0  0  0
  2  8  4  0  0  0
  3  4  4  0  0  0
  4  5  4  0  0  0
  4  9  1  0  0  0
  5  6  4  0  0  0
  6  7  1  0  0  0
  6  8  4  0  0  0
  9 10  1  0  0  0
 10 11  1  0  0  0
 11 12  1  0  0  0
 12 13  1  0  0  0
  1 14  1  0  0  0
  1 15  1  0  0  0
  5 16  1  0  0  0
  7 17  1  0  0  0
  7 18  1  0  0  0
  7 19  1  0  0  0
 10 20  1  0  0  0
 10 21  1  0  0  0
 11 22  1  0  0  0
 11 23  1  0  0  0
 13 24  1  0  0  0
 13 25  1  0  0  0
 13 26  1  0  0  0
M  END
$$$$
