6s88_ligand
  -I-interpret- 

 63 67  0  0  0  0  0  0  0  0999 V2000
  170.4300  -12.9280   31.5280 O   0  0  0  0  0
  172.3140   -7.1270   31.6310 C   0  0  0  0  0
  170.3210  -10.1490   32.1080 C   0  0  0  0  0
  166.1420  -10.2310   33.7290 O   0  0  0  0  0
  171.3870  -12.3370   32.0360 C   0  0  0  0  0
  172.5580  -15.4560   32.6640 N   0  0  0  0  0
  172.6000  -13.0780   32.5430 C   0  0  0  0  0
  172.8510  -14.4290   31.9380 C   0  0  0  0  0
  172.6870  -16.7020   32.0820 N   0  0  0  0  0
  173.2980  -14.5510   30.5430 C   0  0  0  0  0
  173.4020  -15.8460   29.9990 C   0  0  0  0  0
  173.7540  -16.0200   28.6520 C   0  0  0  0  0
  174.0470  -14.9040   27.8810 C   0  0  0  0  0
  166.1510  -11.6040   31.6920 N   0  0  0  0  0
  173.9630  -13.6130   28.4270 C   0  0  0  0  0
  173.5760  -13.4260   29.7500 C   0  0  0  0  0
  173.0810  -16.9920   30.8410 C   0  0  0  0  0
  166.3080  -10.1210   32.3270 S   0  0  0  0  0
  165.4850   -9.2350   31.5760 O   0  0  0  0  0
  165.3250  -12.6150   32.3850 C   0  0  0  0  0
  165.9420  -13.9990   32.3880 C   0  0  0  0  0
  165.8670  -14.7970   31.1050 C   0  0  0  0  0
  165.3360  -16.0890   31.1520 C   0  0  0  0  0
  165.4250  -16.9290   30.0480 C   0  0  0  0  0
  166.0270  -16.4870   28.8790 C   0  0  0  0  0
  166.5340  -15.1970   28.8040 C   0  0  0  0  0
  166.4690  -14.3440   29.9100 C   0  0  0  0  0
  167.1360  -12.9940   29.8800 C   0  0  0  0  0
  166.2360  -11.8160   30.2410 C   0  0  0  0  0
  167.9790   -9.6330   32.0510 C   0  0  0  0  0
  168.9930  -10.5610   32.2260 C   0  0  0  0  0
  170.6030   -8.8060   31.8130 C   0  0  0  0  0
  171.9400   -8.4980   31.7620 O   0  0  0  0  0
  169.5680   -7.9070   31.6370 C   0  0  0  0  0
  168.2560   -8.3230   31.7440 C   0  0  0  0  0
  171.4250  -11.0110   32.2330 N   0  0  0  0  0
  173.1580  -18.1580   30.4590 O   0  0  0  0  0
  171.8976   -6.7248   30.7075 H   0  0  0  0  0
  171.9281   -6.5637   32.4806 H   0  0  0  0  0
  173.4009   -7.0491   31.6052 H   0  0  0  0  0
  172.4314  -13.2469   33.6066 H   0  0  0  0  0
  173.4625  -12.4635   32.2849 H   0  0  0  0  0
  172.4520  -17.4986   32.6742 H   0  0  0  0  0
  173.7967  -17.0185   28.2169 H   0  0  0  0  0
  174.3456  -15.0309   26.8404 H   0  0  0  0  0
  174.2035  -12.7487   27.8079 H   0  0  0  0  0
  173.4899  -12.4217   30.1647 H   0  0  0  0  0
  164.3744  -12.6808   31.8557 H   0  0  0  0  0
  165.2226  -12.2992   33.4232 H   0  0  0  0  0
  165.3774  -14.5714   33.1241 H   0  0  0  0  0
  167.0044  -13.8472   32.5785 H   0  0  0  0  0
  164.8484  -16.4406   32.0612 H   0  0  0  0  0
  165.0199  -17.9395   30.1011 H   0  0  0  0  0
  166.1019  -17.1528   28.0192 H   0  0  0  0  0
  166.9861  -14.8464   27.8762 H   0  0  0  0  0
  167.4674  -12.8316   28.8544 H   0  0  0  0  0
  167.9303  -13.0209   30.6260 H   0  0  0  0  0
  166.6588  -10.9172   29.7920 H   0  0  0  0  0
  165.2334  -12.0305   29.8712 H   0  0  0  0  0
  168.7562  -11.6004   32.4531 H   0  0  0  0  0
  169.7890   -6.8635   31.4124 H   0  0  0  0  0
  167.4429   -7.6146   31.5855 H   0  0  0  0  0
  172.3205  -10.5973   32.4926 H   0  0  0  0  0
  5  1  2  0  0  0
 33  2  1  0  0  0
  3 31  4  0  0  0
 32  3  4  0  0  0
  3 36  1  0  0  0
 18  4  2  0  0  0
  5  7  1  0  0  0
 36  5  1  0  0  0
  8  6  2  0  0  0
  6  9  1  0  0  0
  7  8  1  0  0  0
  8 10  1  0  0  0
  9 17  1  0  0  0
 10 11  4  0  0  0
 10 16  4  0  0  0
 11 12  4  0  0  0
 11 17  1  0  0  0
 12 13  4  0  0  0
 15 13  4  0  0  0
 18 14  1  0  0  0
 14 20  1  0  0  0
 14 29  1  0  0  0
 16 15  4  0  0  0
 17 37  2  0  0  0
 18 19  2  0  0  0
 30 18  1  0  0  0
 20 21  1  0  0  0
 21 22  1  0  0  0
 22 23  4  0  0  0
 27 22  4  0  0  0
 23 24  4  0  0  0
 25 24  4  0  0  0
 26 25  4  0  0  0
 27 26  4  0  0  0
 28 27  1  0  0  0
 29 28  1  0  0  0
 31 30  4  0  0  0
 30 35  4  0  0  0
 32 33  1  0  0  0
 32 34  4  0  0  0
 34 35  4  0  0  0
  2 38  1  0  0  0
  2 39  1  0  0  0
  2 40  1  0  0  0
  7 41  1  0  0  0
  7 42  1  0  0  0
  9 43  1  0  0  0
 12 44  1  0  0  0
 13 45  1  0  0  0
 15 46  1  0  0  0
 16 47  1  0  0  0
 20 48  1  0  0  0
 20 49  1  0  0  0
 21 50  1  0  0  0
 21 51  1  0  0  0
 23 52  1  0  0  0
 24 53  1  0  0  0
 25 54  1  0  0  0
 26 55  1  0  0  0
 28 56  1  0  0  0
 28 57  1  0  0  0
 29 58  1  0  0  0
 29 59  1  0  0  0
 31 60  1  0  0  0
 34 61  1  0  0  0
 35 62  1  0  0  0
 36 63  1  0  0  0
M  END
$$$$
