6bsx_ligand
  -I-interpret- 

 24 25  0  0  0  0  0  0  0  0999 V2000
  -16.8980   -6.3940  -49.0220 C   0  0  0  0  0
  -18.6830   -7.9010  -52.7340 C   0  0  0  0  0
  -17.9970   -7.3260  -51.3090 C   0  0  0  0  0
  -17.9640   -5.9630  -51.1440 C   0  0  0  0  0
  -17.4020   -5.4930  -49.9610 C   0  0  0  0  0
  -17.2000   -4.1720  -49.5200 N   0  0  0  0  0
  -16.6230   -4.2860  -48.3190 C   0  0  0  0  0
  -16.2060   -3.2090  -47.3440 C   0  0  0  0  0
  -16.9460   -3.4570  -46.1070 O   0  0  0  0  0
  -16.4140   -5.6330  -47.9730 N   0  0  0  0  0
  -16.9330   -7.7720  -49.1900 C   0  0  0  0  0
  -17.4970   -8.2190  -50.3290 C   0  0  0  0  0
  -17.5150   -9.9240  -50.5160 C   0  0  0  0  0
  -19.7198   -7.5704  -52.7958 H   0  0  0  0  0
  -18.1253   -7.5133  -53.5865 H   0  0  0  0  0
  -18.6467   -8.9904  -52.7395 H   0  0  0  0  0
  -18.3577   -5.2844  -51.9007 H   0  0  0  0  0
  -16.4290   -2.2180  -47.7394 H   0  0  0  0  0
  -15.1308   -3.2385  -47.1674 H   0  0  0  0  0
  -16.7104   -2.7922  -45.4557 H   0  0  0  0  0
  -16.5271   -8.4536  -48.4425 H   0  0  0  0  0
  -18.5435  -10.2641  -50.6367 H   0  0  0  0  0
  -16.9346  -10.1977  -51.3971 H   0  0  0  0  0
  -17.0783  -10.3897  -49.6326 H   0  0  0  0  0
  5  1  4  0  0  0
  1 10  4  0  0  0
  1 11  4  0  0  0
  3  2  1  0  0  0
  4  3  4  0  0  0
  3 12  4  0  0  0
  4  5  4  0  0  0
  5  6  4  0  0  0
  6  7  4  0  0  0
  7  8  1  0  0  0
  7 10  4  0  0  0
  8  9  1  0  0  0
 11 12  4  0  0  0
 12 13  1  0  0  0
  2 14  1  0  0  0
  2 15  1  0  0  0
  2 16  1  0  0  0
  4 17  1  0  0  0
  8 18  1  0  0  0
  8 19  1  0  0  0
  9 20  1  0  0  0
 11 21  1  0  0  0
 13 22  1  0  0  0
 13 23  1  0  0  0
 13 24  1  0  0  0
M  END
$$$$
