### 
### Created by X-TOOL on Mon Sep 10 21:12:52 2018
### 

@<TRIPOS>MOLECULE
1z6d_ligand
   34    36     1     0     0
SMALL
GAST_HUCK


@<TRIPOS>ATOM
      1 P          36.2720   -2.8330   23.3730 P.3       1 IMP         0.2008
      2 O1P        34.8620   -3.1660   22.9990 O.co2     1 IMP        -0.5537
      3 O2P        36.3110   -1.8870   24.5510 O.co2     1 IMP        -0.5537
      4 O3P        37.0690   -2.3120   22.2100 O.co2     1 IMP        -0.5537
      5 O5         36.9420   -4.2480   23.7920 O.3       1 IMP        -0.2734
      6 C5         36.9850   -5.3160   22.8450 C.3       1 IMP         0.1072
      7 C4         38.1660   -6.2560   23.1370 C.3       1 IMP         0.1182
      8 O4         38.1630   -7.3940   22.2700 O.3       1 IMP        -0.3362
      9 C3         39.5110   -5.5630   22.9200 C.3       1 IMP         0.1149
     10 O3         40.3050   -5.6430   24.0860 O.3       1 IMP        -0.3864
     11 C2         40.1780   -6.3450   21.8140 C.3       1 IMP         0.1389
     12 O2         41.1220   -7.2010   22.4050 O.3       1 IMP        -0.3835
     13 C1         39.0930   -7.2310   21.2310 C.3       1 IMP         0.2003
     14 N9         38.4090   -6.5920   20.0800 N.pl3     1 IMP        -0.2045
     15 C8         38.5020   -5.2790   19.6790 C.2       1 IMP         0.1004
     16 N7         37.7150   -5.1010   18.5890 N.2       1 IMP        -0.3155
     17 C5         37.1150   -6.2890   18.3100 C.2       1 IMP         0.1044
     18 C6         36.2310   -6.6650   17.3100 C.2       1 IMP         0.2200
     19 O6         35.8330   -5.8520   16.4660 O.2       1 IMP        -0.4066
     20 N1         35.8020   -7.9750   17.2550 N.am      1 IMP        -0.2042
     21 C2         36.2340   -8.8990   18.1880 C.2       1 IMP         0.1273
     22 N3         37.1010   -8.5190   19.1930 N.2       1 IMP        -0.2683
     23 C4         37.5500   -7.2310   19.2330 C.2       1 IMP         0.1354
     24 H1         37.0984   -4.8975   21.8341 H         1 IMP         0.0639
     25 H2         36.0466   -5.8871   22.9023 H         1 IMP         0.0639
     26 H3         38.0913   -6.5911   24.1820 H         1 IMP         0.0650
     27 H4         39.3680   -4.5109   22.6325 H         1 IMP         0.0648
     28 H5         40.4593   -6.5555   24.3007 H         1 IMP         0.2100
     29 H6         40.6342   -5.6887   21.0583 H         1 IMP         0.0677
     30 H7         41.7636   -6.6845   22.8783 H         1 IMP         0.2101
     31 H8         39.5141   -8.1986   20.9206 H         1 IMP         0.1001
     32 H9         39.1071   -4.5104   20.1575 H         1 IMP         0.1213
     33 H10        35.1718   -8.2592   16.5325 H         1 IMP         0.2557
     34 H11        35.8892   -9.9304   18.1301 H         1 IMP         0.1493
@<TRIPOS>BOND
     1    1    2 ar 
     2    1    3 ar 
     3    1    4 ar 
     4    1    5 1  
     5    5    6 1  
     6    6    7 1  
     7    7    8 1  
     8    7    9 1  
     9    8   13 1  
    10    9   10 1  
    11    9   11 1  
    12   11   12 1  
    13   11   13 1  
    14   13   14 1  
    15   14   15 1  
    16   14   23 1  
    17   15   16 2  
    18   16   17 1  
    19   17   18 1  
    20   17   23 2  
    21   18   19 2  
    22   18   20 am 
    23   20   21 1  
    24   21   22 2  
    25   22   23 1  
    26    6   24 1  
    27    6   25 1  
    28    7   26 1  
    29    9   27 1  
    30   10   28 1  
    31   11   29 1  
    32   12   30 1  
    33   13   31 1  
    34   15   32 1  
    35   20   33 1  
    36   21   34 1  
@<TRIPOS>SUBSTRUCTURE
     1 IMP         1

