1z6d_ligand
  -I-interpret- 

 36 38  0  0  0  0  0  0  0  0999 V2000
   36.2720   -2.8330   23.3730 P   0  0  0  0  0
   34.8620   -3.1660   22.9990 O   0  0  0  0  0
   36.3110   -1.8870   24.5510 O   0  0  0  0  0
   37.0690   -2.3120   22.2100 O   0  0  0  0  0
   36.9420   -4.2480   23.7920 O   0  0  0  0  0
   36.9850   -5.3160   22.8450 C   0  0  0  0  0
   38.1660   -6.2560   23.1370 C   0  0  0  0  0
   38.1630   -7.3940   22.2700 O   0  0  0  0  0
   39.5110   -5.5630   22.9200 C   0  0  0  0  0
   40.3050   -5.6430   24.0860 O   0  0  0  0  0
   40.1780   -6.3450   21.8140 C   0  0  0  0  0
   41.1220   -7.2010   22.4050 O   0  0  0  0  0
   39.0930   -7.2310   21.2310 C   0  0  0  0  0
   38.4090   -6.5920   20.0800 N   0  0  0  0  0
   38.5020   -5.2790   19.6790 C   0  0  0  0  0
   37.7150   -5.1010   18.5890 N   0  0  0  0  0
   37.1150   -6.2890   18.3100 C   0  0  0  0  0
   36.2310   -6.6650   17.3100 C   0  0  0  0  0
   35.8330   -5.8520   16.4660 O   0  0  0  0  0
   35.8020   -7.9750   17.2550 N   0  0  0  0  0
   36.2340   -8.8990   18.1880 C   0  0  0  0  0
   37.1010   -8.5190   19.1930 N   0  0  0  0  0
   37.5500   -7.2310   19.2330 C   0  0  0  0  0
   37.2243   -1.6892   24.7710 H   0  0  0  0  0
   37.9626   -2.1136   22.4992 H   0  0  0  0  0
   37.1080   -4.8962   21.8466 H   0  0  0  0  0
   36.0575   -5.8845   22.9135 H   0  0  0  0  0
   38.0443   -6.5550   24.1781 H   0  0  0  0  0
   39.3839   -4.5076   22.6791 H   0  0  0  0  0
   41.1442   -5.2033   23.9311 H   0  0  0  0  0
   40.6446   -5.6950   21.0739 H   0  0  0  0  0
   41.5618   -7.7114   21.7211 H   0  0  0  0  0
   39.5183   -8.1667   20.8681 H   0  0  0  0  0
   39.1077   -4.5097   20.1579 H   0  0  0  0  0
   35.1592   -8.2649   16.5180 H   0  0  0  0  0
   35.8889   -9.9313   18.1300 H   0  0  0  0  0
  1  2  2  0  0  0
  1  3  1  0  0  0
  1  4  1  0  0  0
  1  5  1  0  0  0
  5  6  1  0  0  0
  6  7  1  0  0  0
  7  8  1  0  0  0
  7  9  1  0  0  0
  8 13  1  0  0  0
  9 10  1  0  0  0
  9 11  1  0  0  0
 11 12  1  0  0  0
 11 13  1  0  0  0
 13 14  1  0  0  0
 14 15  4  0  0  0
 14 23  4  0  0  0
 15 16  4  0  0  0
 16 17  4  0  0  0
 17 18  1  0  0  0
 17 23  4  0  0  0
 18 19  2  0  0  0
 18 20  1  0  0  0
 20 21  1  0  0  0
 21 22  2  0  0  0
 22 23  1  0  0  0
  3 24  1  0  0  0
  4 25  1  0  0  0
  6 26  1  0  0  0
  6 27  1  0  0  0
  7 28  1  0  0  0
  9 29  1  0  0  0
 10 30  1  0  0  0
 11 31  1  0  0  0
 12 32  1  0  0  0
 13 33  1  0  0  0
 15 34  1  0  0  0
 20 35  1  0  0  0
 21 36  1  0  0  0
M  END
$$$$
