5or9_ligand
  -I-interpret- 

 48 51  0  0  0  0  0  0  0  0999 V2000
   24.7100   11.3480    0.4990 C   0  0  0  0  0
   25.7020    7.8550    0.9280 C   0  0  0  0  0
   26.9280    8.4230    0.5470 C   0  0  0  0  0
   26.6970    9.7710    0.3670 C   0  0  0  0  0
   28.8400   10.6100   -0.8640 C   0  0  0  0  0
   29.6640   11.8300   -1.3110 C   0  0  0  0  0
   29.3670   12.0560   -2.5390 C   0  0  0  0  0
   30.7120   12.1980   -3.3340 C   0  0  0  0  0
   31.8170   11.6920   -2.3960 C   0  0  0  0  0
   33.1810   12.5600    0.6710 C   0  0  0  0  0
   34.3930   12.2830    1.3040 C   0  0  0  0  0
   35.2570   13.3310    1.6400 C   0  0  0  0  0
   34.9030   14.6690    1.3340 C   0  0  0  0  0
   33.6830   14.9450    0.6890 C   0  0  0  0  0
   32.8190   13.9020    0.3600 C   0  0  0  0  0
   28.0110    7.3490    0.5300 C   0  0  0  0  0
   27.4070    6.1490    1.2280 C   0  0  0  0  0
   25.9020    6.3590    1.1690 C   0  0  0  0  0
   35.7660   15.7020    1.6710 F   0  0  0  0  0
   25.3590   10.0050    0.5930 N   0  0  0  0  0
   24.7610    8.8590    0.9360 N   0  0  0  0  0
   27.6540   10.8750   -0.0740 N   0  0  0  0  0
   31.2630   11.4900   -1.2260 N   0  0  0  0  0
   29.1360    9.5210   -1.1760 O   0  0  0  0  0
   31.0380   10.9250    1.2640 O   0  0  0  0  0
   32.7340    9.8540    0.1540 O   0  0  0  0  0
   32.0340   11.1650    0.2280 S   0  0  0  0  0
   25.1758   12.0261    1.2141 H   0  0  0  0  0
   24.8347   11.7405   -0.5102 H   0  0  0  0  0
   23.6479   11.2534    0.7248 H   0  0  0  0  0
   29.4460   12.6864   -0.6729 H   0  0  0  0  0
   28.7761   12.9678   -2.6256 H   0  0  0  0  0
   28.7712   11.2375   -2.9429 H   0  0  0  0  0
   30.8883   13.2327   -3.6278 H   0  0  0  0  0
   30.6857   11.6212   -4.2585 H   0  0  0  0  0
   32.6230   12.4218   -2.3204 H   0  0  0  0  0
   32.2564   10.7709   -2.7790 H   0  0  0  0  0
   34.6659   11.2536    1.5360 H   0  0  0  0  0
   36.2032   13.1183    2.1375 H   0  0  0  0  0
   33.4141   15.9732    0.4470 H   0  0  0  0  0
   31.8701   14.1125   -0.1333 H   0  0  0  0  0
   28.9161    7.6885    1.0336 H   0  0  0  0  0
   28.3146    7.1060   -0.4883 H   0  0  0  0  0
   27.7586    6.0666    2.2564 H   0  0  0  0  0
   27.6993    5.2169    0.7444 H   0  0  0  0  0
   25.4486    5.7646    0.3758 H   0  0  0  0  0
   25.4193    6.0371    2.0918 H   0  0  0  0  0
   27.4511   11.8369    0.1978 H   0  0  0  0  0
 20  1  1  0  0  0
  3  2  4  0  0  0
  2 18  1  0  0  0
 21  2  4  0  0  0
  4  3  4  0  0  0
  3 16  1  0  0  0
  4 20  4  0  0  0
 22  4  1  0  0  0
  6  5  1  0  0  0
  5 22  1  0  0  0
  5 24  2  0  0  0
  6  7  1  0  0  0
 23  6  1  0  0  0
  8  7  1  0  0  0
  9  8  1  0  0  0
 23  9  1  0  0  0
 10 11  4  0  0  0
 10 15  4  0  0  0
 27 10  1  0  0  0
 11 12  4  0  0  0
 12 13  4  0  0  0
 14 13  4  0  0  0
 13 19  1  0  0  0
 15 14  4  0  0  0
 16 17  1  0  0  0
 17 18  1  0  0  0
 20 21  4  0  0  0
 23 27  1  0  0  0
 27 25  2  0  0  0
 27 26  2  0  0  0
  1 28  1  0  0  0
  1 29  1  0  0  0
  1 30  1  0  0  0
  6 31  1  0  0  0
  7 32  1  0  0  0
  7 33  1  0  0  0
  8 34  1  0  0  0
  8 35  1  0  0  0
  9 36  1  0  0  0
  9 37  1  0  0  0
 11 38  1  0  0  0
 12 39  1  0  0  0
 14 40  1  0  0  0
 15 41  1  0  0  0
 16 42  1  0  0  0
 16 43  1  0  0  0
 17 44  1  0  0  0
 17 45  1  0  0  0
 18 46  1  0  0  0
 18 47  1  0  0  0
 22 48  1  0  0  0
M  END
$$$$
