4d83_ligand
  -I-interpret- 

 69 72  0  0  0  0  0  0  0  0999 V2000
   30.0710    7.6790   21.4130 F   0  0  0  0  0
   29.6720    8.4240   20.3420 C   0  0  0  0  0
   28.3860    8.8350   20.5070 F   0  0  0  0  0
   30.5910    9.6570   20.2080 C   0  0  0  0  0
   30.5790   10.2250   18.8130 C   0  0  0  0  0
   30.1620   11.4460   18.4390 C   0  0  0  0  0
   30.3130   11.5990   17.1490 N   0  0  0  0  0
   30.8340   10.4970   16.5820 C   0  0  0  0  0
   31.0440    9.5270   17.5630 C   0  0  0  0  0
   31.5710    8.2580   17.2510 C   0  0  0  0  0
   31.8940    7.9870   15.8940 C   0  0  0  0  0
   31.6890    8.9820   14.8930 C   0  0  0  0  0
   31.1550   10.2540   15.2260 C   0  0  0  0  0
   32.4570    6.6020   15.5210 C   0  0  0  0  0
   31.4310    5.7570   14.6870 C   0  0  0  0  0
   32.0150    4.3680   14.2720 C   0  0  0  0  0
   31.0670    3.5180   13.3760 C   0  0  0  0  0
   29.6510    3.2520   13.9670 C   0  0  0  0  0
   28.8670    4.8320   14.3210 S   0  0  0  0  0
   30.0710    5.5740   15.4280 C   0  0  0  0  0
   28.8020    5.6370   13.1200 O   0  0  0  0  0
   27.6540    4.5940   15.0650 O   0  0  0  0  0
   31.7430    2.2830   12.8850 N   0  3  0  0  0
   31.1390    1.4650   11.8010 C   0  0  0  0  0
   30.9620    2.3210   10.5280 C   0  0  0  0  0
   32.1030    2.7990    9.8390 C   0  0  0  0  0
   32.0120    3.5950    8.6650 C   0  0  0  0  0
   30.7000    3.8970    8.1930 C   0  0  0  0  0
   29.5420    3.4320    8.8630 C   0  0  0  0  0
   29.6670    2.6380   10.0330 C   0  0  0  0  0
   33.3380    4.0690    7.9820 C   0  0  0  0  0
   33.1210    4.7000    6.5630 C   0  0  0  0  0
   34.1410    5.1230    8.8190 C   0  0  0  0  0
   34.2710    2.8320    7.7880 C   0  0  0  0  0
   33.2190    4.5660   13.5190 O   0  0  0  0  0
   29.7354    7.8139   19.4409 H   0  0  0  0  0
   31.6101    9.3478   20.4400 H   0  0  0  0  0
   30.2295   10.4258   20.8909 H   0  0  0  0  0
   29.7564   12.2002   19.1133 H   0  0  0  0  0
   31.7261    7.5077   18.0263 H   0  0  0  0  0
   31.9463    8.7622   13.8569 H   0  0  0  0  0
   30.9977   11.0170   14.4636 H   0  0  0  0  0
   32.6741    6.0623   16.4428 H   0  0  0  0  0
   33.3508    6.7489   14.9147 H   0  0  0  0  0
   31.2406    6.3297   13.7793 H   0  0  0  0  0
   32.1748    3.8300   15.2064 H   0  0  0  0  0
   30.8553    4.1451   12.5100 H   0  0  0  0  0
   29.7361    2.6676   14.8831 H   0  0  0  0  0
   29.0498    2.6929   13.2500 H   0  0  0  0  0
   29.7062    6.5475   15.7557 H   0  0  0  0  0
   30.2160    4.9229   16.2901 H   0  0  0  0  0
   31.7450    1.6618   13.6940 H   0  0  0  0  0
   32.6180    2.6207   12.4840 H   0  0  0  0  0
   30.1643    1.1020   12.1269 H   0  0  0  0  0
   31.7957    0.6239   11.5786 H   0  0  0  0  0
   33.0908    2.5464   10.2244 H   0  0  0  0  0
   30.5858    4.5014    7.2932 H   0  0  0  0  0
   28.5533    3.6842    8.4796 H   0  0  0  0  0
   28.7777    2.2743   10.5478 H   0  0  0  0  0
   32.6604    3.9627    5.9055 H   0  0  0  0  0
   32.4692    5.5694    6.6492 H   0  0  0  0  0
   34.0831    5.0050    6.1514 H   0  0  0  0  0
   33.5235    6.0075    8.9755 H   0  0  0  0  0
   34.4100    4.6910    9.7829 H   0  0  0  0  0
   35.0459    5.4010    8.2787 H   0  0  0  0  0
   34.4918    2.3892    8.7592 H   0  0  0  0  0
   33.7711    2.0969    7.1573 H   0  0  0  0  0
   35.1990    3.1495    7.3126 H   0  0  0  0  0
   33.5790    3.7136   13.2633 H   0  0  0  0  0
  1  2  1  0  0  0
  2  3  1  0  0  0
  2  4  1  0  0  0
  4  5  1  0  0  0
  5  6  4  0  0  0
  5  9  4  0  0  0
  6  7  4  0  0  0
  7  8  4  0  0  0
  8  9  4  0  0  0
  8 13  4  0  0  0
  9 10  4  0  0  0
 10 11  4  0  0  0
 11 12  4  0  0  0
 11 14  1  0  0  0
 12 13  4  0  0  0
 14 15  1  0  0  0
 15 16  1  0  0  0
 15 20  1  0  0  0
 16 17  1  0  0  0
 16 35  1  0  0  0
 17 18  1  0  0  0
 17 23  1  0  0  0
 18 19  1  0  0  0
 19 20  1  0  0  0
 19 21  2  0  0  0
 19 22  2  0  0  0
 23 24  1  0  0  0
 24 25  1  0  0  0
 25 26  4  0  0  0
 25 30  4  0  0  0
 26 27  4  0  0  0
 27 28  4  0  0  0
 27 31  1  0  0  0
 28 29  4  0  0  0
 29 30  4  0  0  0
 31 32  1  0  0  0
 31 33  1  0  0  0
 31 34  1  0  0  0
  2 36  1  0  0  0
  4 37  1  0  0  0
  4 38  1  0  0  0
  6 39  1  0  0  0
 10 40  1  0  0  0
 12 41  1  0  0  0
 13 42  1  0  0  0
 14 43  1  0  0  0
 14 44  1  0  0  0
 15 45  1  0  0  0
 16 46  1  0  0  0
 17 47  1  0  0  0
 18 48  1  0  0  0
 18 49  1  0  0  0
 20 50  1  0  0  0
 20 51  1  0  0  0
 23 52  1  0  0  0
 23 53  1  0  0  0
 24 54  1  0  0  0
 24 55  1  0  0  0
 26 56  1  0  0  0
 28 57  1  0  0  0
 29 58  1  0  0  0
 30 59  1  0  0  0
 32 60  1  0  0  0
 32 61  1  0  0  0
 32 62  1  0  0  0
 33 63  1  0  0  0
 33 64  1  0  0  0
 33 65  1  0  0  0
 34 66  1  0  0  0
 34 67  1  0  0  0
 34 68  1  0  0  0
 35 69  1  0  0  0
M  END
$$$$
