3ecn_ligand
  -I-interpret- 

 29 30  0  0  0  0  0  0  0  0999 V2000
   -1.3710  -10.2650   19.1130 N   0  0  0  0  0
   -1.6880   -9.5450   20.2390 C   0  0  0  0  0
   -1.5960  -10.2340   21.3490 N   0  0  0  0  0
   -1.1910  -11.4920   20.9250 C   0  0  0  0  0
   -1.0490  -11.5280   19.5530 C   0  0  0  0  0
   -0.6760  -12.5810   18.7920 N   0  0  0  0  0
   -0.4000  -13.7210   19.4950 C   0  0  0  0  0
   -0.5190  -13.7800   20.8890 N   0  0  0  0  0
   -0.9150  -12.6740   21.6040 C   0  0  0  0  0
   -1.0170  -12.7230   22.8260 O   0  0  0  0  0
   -0.0400  -14.7230   18.8870 O   0  0  0  0  0
   -0.2280  -15.0230   21.5860 C   0  0  0  0  0
   -0.6190  -12.5140   17.3340 C   0  0  0  0  0
    0.8320  -12.3490   16.8690 C   0  0  0  0  0
    1.4340  -13.7060   16.5190 C   0  0  0  0  0
    0.8870  -11.4190   15.6580 C   0  0  0  0  0
   -1.9882   -8.4975   20.2113 H   0  0  0  0  0
   -0.8982  -15.8044   21.2278 H   0  0  0  0  0
    0.8052  -15.3125   21.3940 H   0  0  0  0  0
   -0.3737  -14.8803   22.6568 H   0  0  0  0  0
   -1.2028  -11.6591   16.9927 H   0  0  0  0  0
   -1.0246  -13.4362   16.9180 H   0  0  0  0  0
    1.4141  -11.9106   17.6796 H   0  0  0  0  0
    1.4128  -14.3492   17.3987 H   0  0  0  0  0
    0.8533  -14.1641   15.7183 H   0  0  0  0  0
    2.4646  -13.5711   16.1907 H   0  0  0  0  0
    0.2951  -11.8445   14.8476 H   0  0  0  0  0
    0.4833  -10.4442   15.9315 H   0  0  0  0  0
    1.9217  -11.3072   15.3340 H   0  0  0  0  0
  1  2  4  0  0  0
  1  5  4  0  0  0
  2  3  4  0  0  0
  3  4  4  0  0  0
  4  5  4  0  0  0
  4  9  1  0  0  0
  5  6  1  0  0  0
  6  7  1  0  0  0
  6 13  1  0  0  0
  7  8  1  0  0  0
  7 11  2  0  0  0
  8  9  1  0  0  0
  8 12  1  0  0  0
  9 10  2  0  0  0
 13 14  1  0  0  0
 14 15  1  0  0  0
 14 16  1  0  0  0
  2 17  1  0  0  0
 12 18  1  0  0  0
 12 19  1  0  0  0
 12 20  1  0  0  0
 13 21  1  0  0  0
 13 22  1  0  0  0
 14 23  1  0  0  0
 15 24  1  0  0  0
 15 25  1  0  0  0
 15 26  1  0  0  0
 16 27  1  0  0  0
 16 28  1  0  0  0
 16 29  1  0  0  0
M  END
$$$$
