2a4l_ligand
  -I-interpret- 

 52 54  0  0  0  0  0  0  0  0999 V2000
   96.9410   98.3980   81.7010 O   0  0  0  0  0
   97.8200   99.3160   82.3990 C   0  0  0  0  0
   99.3030   99.0600   82.1250 C   0  0  0  0  0
   99.5800   97.5390   82.1130 C   0  0  0  0  0
  100.8690   97.0700   82.8130 C   0  0  0  0  0
   99.6890   99.6750   80.7710 N   0  0  0  0  0
  100.6050  100.5790   80.3970 C   0  0  0  0  0
  101.5800  100.7310   81.2850 N   0  0  0  0  0
  102.5660  101.6080   81.0000 C   0  0  0  0  0
  103.6710  101.8700   81.7690 N   0  0  0  0  0
  103.9420  101.2080   83.0530 C   0  0  0  0  0
  104.1430   99.6920   82.8200 C   0  0  0  0  0
  102.7500  101.4540   84.0120 C   0  0  0  0  0
  104.3850  102.7950   81.0530 C   0  0  0  0  0
  102.6270  102.3520   79.8510 C   0  0  0  0  0
  103.7980  103.0970   79.9180 N   0  0  0  0  0
  100.6130  101.2930   79.2400 N   0  0  0  0  0
  101.5820  102.1980   78.8950 C   0  0  0  0  0
  101.4790  102.7930   77.7210 N   0  0  0  0  0
  100.2390  102.4850   76.9830 C   0  0  0  0  0
   99.6080  103.8320   76.5810 C   0  0  0  0  0
  100.4390  104.8910   76.2360 C   0  0  0  0  0
   99.8830  106.1120   75.8700 C   0  0  0  0  0
   98.4980  106.2290   75.8640 C   0  0  0  0  0
   97.6480  105.1730   76.1880 C   0  0  0  0  0
   98.2240  103.9610   76.5500 C   0  0  0  0  0
   96.0283   98.6080   81.9118 H   0  0  0  0  0
   97.6546   99.1820   83.4680 H   0  0  0  0  0
   97.5894  100.3225   82.0499 H   0  0  0  0  0
   99.9003   99.5211   82.9116 H   0  0  0  0  0
   99.6870   97.2599   81.0648 H   0  0  0  0  0
   98.7559   97.0778   82.6573 H   0  0  0  0  0
  101.7308   97.5342   82.3336 H   0  0  0  0  0
  100.8364   97.3593   83.8634 H   0  0  0  0  0
  100.9490   95.9857   82.7357 H   0  0  0  0  0
   99.1312   99.3211   79.9938 H   0  0  0  0  0
  104.8488  101.6163   83.4992 H   0  0  0  0  0
  103.2404   99.2710   82.3771 H   0  0  0  0  0
  104.9859   99.5379   82.1463 H   0  0  0  0  0
  104.3438   99.2027   83.7731 H   0  0  0  0  0
  102.6275  102.5255   84.1699 H   0  0  0  0  0
  101.8409  101.0440   83.5721 H   0  0  0  0  0
  102.9461  100.9649   84.9662 H   0  0  0  0  0
  105.3280  103.2284   81.3861 H   0  0  0  0  0
  102.1987  103.4155   77.3537 H   0  0  0  0  0
   99.5537  101.9080   77.6039 H   0  0  0  0  0
  100.4546  101.8816   76.1012 H   0  0  0  0  0
  101.5216  104.7652   76.2522 H   0  0  0  0  0
  100.5167  106.9552   75.5950 H   0  0  0  0  0
   98.0573  107.1887   75.5941 H   0  0  0  0  0
   96.5651  105.2939   76.1584 H   0  0  0  0  0
   97.5912  103.1123   76.8094 H   0  0  0  0  0
  1  2  1  0  0  0
  2  3  1  0  0  0
  3  4  1  0  0  0
  3  6  1  0  0  0
  4  5  1  0  0  0
  6  7  1  0  0  0
  7  8  4  0  0  0
  7 17  4  0  0  0
  8  9  4  0  0  0
  9 10  4  0  0  0
  9 15  4  0  0  0
 10 11  1  0  0  0
 10 14  4  0  0  0
 11 12  1  0  0  0
 11 13  1  0  0  0
 14 16  4  0  0  0
 15 16  4  0  0  0
 15 18  4  0  0  0
 17 18  4  0  0  0
 18 19  1  0  0  0
 19 20  1  0  0  0
 20 21  1  0  0  0
 21 22  4  0  0  0
 21 26  4  0  0  0
 22 23  4  0  0  0
 23 24  4  0  0  0
 24 25  4  0  0  0
 25 26  4  0  0  0
  1 27  1  0  0  0
  2 28  1  0  0  0
  2 29  1  0  0  0
  3 30  1  0  0  0
  4 31  1  0  0  0
  4 32  1  0  0  0
  5 33  1  0  0  0
  5 34  1  0  0  0
  5 35  1  0  0  0
  6 36  1  0  0  0
 11 37  1  0  0  0
 12 38  1  0  0  0
 12 39  1  0  0  0
 12 40  1  0  0  0
 13 41  1  0  0  0
 13 42  1  0  0  0
 13 43  1  0  0  0
 14 44  1  0  0  0
 19 45  1  0  0  0
 20 46  1  0  0  0
 20 47  1  0  0  0
 22 48  1  0  0  0
 23 49  1  0  0  0
 24 50  1  0  0  0
 25 51  1  0  0  0
 26 52  1  0  0  0
M  END
$$$$
