### 
### Created by X-TOOL on Wed Jan  1 15:39:37 2020
### 

@<TRIPOS>MOLECULE
6fjf_ligand
  145   153     1     0     0
SMALL
GAST_HUCK


@<TRIPOS>ATOM
      1 C4         30.7380  -20.2640  -46.5970 C.3       1 DKE         0.1831
      2 C14        28.7850  -24.2940  -47.8960 C.2       1 DKE        -0.0938
      3 C6         32.5990  -19.1870  -45.2580 C.2       1 DKE         0.3220
      4 C11        30.0540  -19.9000  -49.6530 C.3       1 DKE         0.0372
      5 C7         30.6350  -21.1020  -42.7580 C.3       1 DKE         0.0160
      6 C8         31.0090  -21.1310  -47.8530 C.3       1 DKE         0.1147
      7 C10        29.8950  -22.1180  -48.1100 C.3       1 DKE        -0.0052
      8 C13        29.8900  -23.3680  -47.6220 C.2       1 DKE        -0.0956
      9 C3         30.6470  -21.1550  -45.3470 C.3       1 DKE         0.0314
     10 C16        28.7100  -25.5610  -47.4450 C.3       1 DKE        -0.0180
     11 C17        29.7740  -26.1860  -46.5860 C.3       1 DKE        -0.0539
     12 C18        27.5330  -26.4370  -47.7780 C.3       1 DKE        -0.0156
     13 C19        26.8240  -26.8590  -46.5180 C.ar      1 DKE        -0.0627
     14 C2         30.7920  -20.3000  -44.0780 C.3       1 DKE         0.0978
     15 C20        26.0310  -25.9440  -45.8290 C.ar      1 DKE        -0.0502
     16 C21        25.3630  -26.3100  -44.6610 C.ar      1 DKE         0.0676
     17 C22        25.4880  -27.6140  -44.1560 C.ar      1 DKE         0.0784
     18 C23        26.2870  -28.5270  -44.8500 C.ar      1 DKE         0.0854
     19 C24        26.9520  -28.1580  -46.0240 C.ar      1 DKE        -0.0463
     20 C26        27.7140  -30.2570  -44.0220 C.3       1 DKE         0.0591
     21 C28        31.0350  -20.2550  -41.5380 C.3       1 DKE        -0.0573
     22 C29        29.2990  -21.8430  -42.4630 C.3       1 DKE         0.0964
     23 C31        25.1060  -24.2820  -43.1730 C.2       1 DKE         0.2087
     24 C32        23.1060  -25.3000  -44.2660 C.3       1 DKE         0.0443
     25 C33        26.5950  -24.3320  -42.9610 C.3       1 DKE         0.0769
     26 C35        27.3220  -23.0680  -43.4600 C.3       1 DKE         0.1356
     27 C38        28.8350  -23.0700  -43.1370 C.3       1 DKE         0.1260
     28 C39        29.7150  -23.9720  -44.0210 C.3       1 DKE        -0.0304
     29 C41        26.7000  -21.4920  -45.1340 C.2       1 DKE         0.2342
     30 C43        26.3470  -21.2440  -46.5730 C.3       1 DKE         0.0488
     31 C44        24.8850  -20.7970  -46.7190 C.3       1 DKE        -0.0335
     32 C45        24.1320  -21.5570  -47.8310 C.3       1 DKE        -0.0440
     33 C46        23.0440  -22.5100  -47.3000 C.3       1 DKE        -0.0183
     34 C47        23.2130  -23.9210  -47.8040 C.2       1 DKE         0.0370
     35 C48        22.4720  -24.9950  -47.4320 C.2       1 DKE         0.0693
     36 C52        22.5290  -27.4400  -48.0990 C.3       1 DKE         0.0772
     37 C53        22.4850  -27.9380  -46.6430 C.3       1 DKE        -0.0023
     38 C54        23.5130  -29.0540  -46.3780 C.3       1 DKE         0.0332
     39 C56        23.7700  -31.5110  -47.0070 C.2       1 DKE         0.2082
     40 C58        23.9440  -32.1550  -45.7000 C.ar      1 DKE         0.0604
     41 C59        24.6020  -33.3840  -45.5910 C.ar      1 DKE        -0.0321
     42 C60        24.7590  -33.9710  -44.3460 C.ar      1 DKE        -0.0347
     43 C61        24.2770  -33.3760  -43.1670 C.ar      1 DKE         0.0315
     44 C62        23.5990  -32.1160  -43.2570 C.ar      1 DKE         0.0241
     45 C63        23.4650  -31.5530  -44.5380 C.ar      1 DKE        -0.0204
     46 C64        23.0290  -31.3290  -42.1440 C.2       1 DKE         0.0254
     47 C65        23.8560  -30.8980  -41.0200 C.ar      1 DKE         0.0433
     48 C66        23.2940  -30.1400  -39.9680 C.ar      1 DKE         0.1463
     49 C68        21.1310  -30.1700  -41.0470 C.2       1 DKE         0.1270
     50 C69        21.6840  -30.9490  -42.1370 C.2       1 DKE         0.0390
     51 C70        19.8180  -29.7820  -40.9960 C.2       1 DKE        -0.0203
     52 C71        18.9140  -30.1420  -42.0490 C.2       1 DKE         0.0657
     53 C72        19.4330  -30.9170  -43.1500 C.2       1 DKE        -0.0379
     54 C73        20.7390  -31.2950  -43.1820 C.2       1 DKE        -0.0506
     55 C74        25.2350  -31.2050  -40.9140 C.ar      1 DKE        -0.0499
     56 C75        25.9970  -30.7980  -39.8310 C.ar      1 DKE        -0.0279
     57 C76        25.3960  -30.0480  -38.8130 C.ar      1 DKE         0.0948
     58 C77        24.0470  -29.7140  -38.8720 C.ar      1 DKE         0.0165
     59 C80        24.5370  -34.1500  -41.9390 C.2       1 DKE         0.0700
     60 N30        24.5660  -25.2860  -44.0170 N.am      1 DKE        -0.2262
     61 N49        23.0080  -26.0460  -48.1670 N.pl3     1 DKE        -0.1812
     62 N5         31.8420  -19.2950  -46.4160 N.am      1 DKE        -0.2310
     63 N50        24.0180  -25.5900  -48.9330 N.2       1 DKE        -0.1020
     64 N51        24.1460  -24.2920  -48.7150 N.2       1 DKE        -0.2265
     65 N55        23.0990  -30.3010  -47.0470 N.am      1 DKE        -0.2856
     66 O1         32.1070  -19.7330  -44.1080 O.3       1 DKE        -0.2600
     67 O12        33.6980  -18.6150  -45.2460 O.2       1 DKE        -0.3775
     68 O15        29.5230  -19.5310  -46.7570 O.3       1 DKE        -0.3651
     69 O25        26.3970  -29.8110  -44.3430 O.3       1 DKE        -0.3258
     70 O34        24.3820  -23.4350  -42.6480 O.2       1 DKE        -0.3844
     71 O36        27.0100  -22.7710  -44.8220 O.3       1 DKE        -0.2681
     72 O40        29.2460  -23.0300  -41.7510 O.3       1 DKE        -0.3615
     73 O42        26.7160  -20.6190  -44.2710 O.2       1 DKE        -0.3704
     74 O57        24.1770  -32.0090  -48.0740 O.2       1 DKE        -0.3836
     75 O67        21.9460  -29.7810  -39.9840 O.3       1 DKE        -0.2389
     76 O78        17.7050  -29.7970  -42.0250 O.2       1 DKE        -0.4450
     77 O79        26.1520  -29.6400  -37.7470 O.3       1 DKE        -0.3270
     78 O81        25.2000  -35.3210  -42.0970 O.co2     1 DKE        -0.5582
     79 O82        24.2190  -33.8550  -40.7810 O.co2     1 DKE        -0.5582
     80 O9         31.2590  -20.3170  -49.0070 O.3       1 DKE        -0.3730
     81 CL27       24.6660  -28.1120  -42.6850 Cl        1 DKE        -0.0977
     82 H1         27.9633  -23.9291  -48.5106 H         1 DKE         0.0454
     83 H2         30.3023  -19.2812  -50.5279 H         1 DKE         0.0524
     84 H3         29.4451  -19.3130  -48.9497 H         1 DKE         0.0524
     85 H4         29.4874  -20.7848  -49.9787 H         1 DKE         0.0524
     86 H5         31.3850  -21.9029  -42.8362 H         1 DKE         0.0352
     87 H6         31.9219  -21.7126  -47.6570 H         1 DKE         0.0667
     88 H7         29.8299  -22.2210  -49.2032 H         1 DKE         0.0415
     89 H8         28.9781  -21.6430  -47.7312 H         1 DKE         0.0415
     90 H9         30.7251  -23.7030  -47.0086 H         1 DKE         0.0451
     91 H10        31.4518  -21.9043  -45.3748 H         1 DKE         0.0343
     92 H11        29.6721  -21.6642  -45.3332 H         1 DKE         0.0343
     93 H12        29.2343  -25.8994  -48.3508 H         1 DKE         0.0443
     94 H13        29.4902  -27.2213  -46.3461 H         1 DKE         0.0253
     95 H14        29.8792  -25.6096  -45.6551 H         1 DKE         0.0253
     96 H15        30.7310  -26.1844  -47.1284 H         1 DKE         0.0253
     97 H16        27.8856  -27.3311  -48.3130 H         1 DKE         0.0445
     98 H17        26.8342  -25.8785  -48.4181 H         1 DKE         0.0445
     99 H18        30.0358  -19.5014  -44.0968 H         1 DKE         0.0653
    100 H19        25.9318  -24.9327  -46.2064 H         1 DKE         0.0352
    101 H20        27.5661  -28.8803  -46.5496 H         1 DKE         0.0359
    102 H21        27.6682  -31.2843  -43.6315 H         1 DKE         0.0578
    103 H22        28.1500  -29.5943  -43.2600 H         1 DKE         0.0578
    104 H23        28.3389  -30.2363  -44.9270 H         1 DKE         0.0578
    105 H24        30.9125  -20.8512  -40.6217 H         1 DKE         0.0234
    106 H25        30.3928  -19.3636  -41.4840 H         1 DKE         0.0234
    107 H26        32.0858  -19.9446  -41.6357 H         1 DKE         0.0234
    108 H27        28.5465  -21.0711  -42.2442 H         1 DKE         0.0630
    109 H28        22.8563  -26.1359  -44.9360 H         1 DKE         0.0550
    110 H29        22.8049  -24.3517  -44.7350 H         1 DKE         0.0550
    111 H30        22.5725  -25.4229  -43.3120 H         1 DKE         0.0550
    112 H31        26.9961  -25.2022  -43.5013 H         1 DKE         0.0538
    113 H32        26.7913  -24.4462  -41.8847 H         1 DKE         0.0538
    114 H33        26.9035  -22.2350  -42.8762 H         1 DKE         0.0705
    115 H34        30.7636  -23.8906  -43.6987 H         1 DKE         0.0259
    116 H35        29.6283  -23.6539  -45.0704 H         1 DKE         0.0259
    117 H36        29.3821  -25.0161  -43.9256 H         1 DKE         0.0259
    118 H37        26.4967  -22.1722  -47.1440 H         1 DKE         0.0518
    119 H38        27.0039  -20.4575  -46.9729 H         1 DKE         0.0518
    120 H39        24.8685  -19.7228  -46.9552 H         1 DKE         0.0292
    121 H40        24.3680  -20.9704  -45.7637 H         1 DKE         0.0292
    122 H41        24.8619  -22.1477  -48.4040 H         1 DKE         0.0283
    123 H42        23.6552  -20.8202  -48.4941 H         1 DKE         0.0283
    124 H43        22.0607  -22.1364  -47.6218 H         1 DKE         0.0380
    125 H44        23.0906  -22.5205  -46.2010 H         1 DKE         0.0380
    126 H45        21.6474  -25.0264  -46.7214 H         1 DKE         0.0898
    127 H46        21.5177  -27.4941  -48.5284 H         1 DKE         0.0648
    128 H47        23.2083  -28.0824  -48.6785 H         1 DKE         0.0648
    129 H48        21.4779  -28.3268  -46.4319 H         1 DKE         0.0314
    130 H49        22.6995  -27.0925  -45.9729 H         1 DKE         0.0314
    131 H50        23.5858  -29.2304  -45.2947 H         1 DKE         0.0520
    132 H51        24.4943  -28.7429  -46.7657 H         1 DKE         0.0520
    133 H52        24.9876  -33.8754  -46.4769 H         1 DKE         0.0729
    134 H53        25.2720  -34.9235  -44.2785 H         1 DKE         0.0681
    135 H54        22.9610  -30.5974  -44.6270 H         1 DKE         0.0751
    136 H55        19.4589  -29.1968  -40.1507 H         1 DKE         0.0188
    137 H56        18.7705  -31.2028  -43.9657 H         1 DKE         0.0512
    138 H57        21.0906  -31.8828  -44.0286 H         1 DKE         0.0659
    139 H58        25.7084  -31.7759  -41.7046 H         1 DKE         0.0652
    140 H59        27.0478  -31.0576  -39.7724 H         1 DKE         0.0527
    141 H60        23.5880  -29.1328  -38.0804 H         1 DKE         0.0506
    142 H61        32.0556  -18.6801  -47.1751 H         1 DKE         0.1897
    143 H62        22.2535  -30.2696  -47.5800 H         1 DKE         0.1845
    144 H63        29.3698  -19.0014  -45.9833 H         1 DKE         0.2126
    145 H64        27.0443  -29.9469  -37.8571 H         1 DKE         0.2529
@<TRIPOS>BOND
     1    1    6 1  
     2    9    1 1  
     3    1   62 1  
     4    1   68 1  
     5    8    2 2  
     6   10    2 1  
     7    3   62 am 
     8   66    3 1  
     9    3   67 2  
    10   80    4 1  
    11    5   14 1  
    12    5   21 1  
    13   22    5 1  
    14    6    7 1  
    15    6   80 1  
    16    7    8 1  
    17   14    9 1  
    18   10   11 1  
    19   12   10 1  
    20   13   12 1  
    21   15   13 ar 
    22   13   19 ar 
    23   14   66 1  
    24   16   15 ar 
    25   16   17 ar 
    26   60   16 1  
    27   17   18 ar 
    28   17   81 1  
    29   18   19 ar 
    30   18   69 1  
    31   69   20 1  
    32   27   22 1  
    33   72   22 1  
    34   25   23 1  
    35   23   60 am 
    36   23   70 2  
    37   60   24 1  
    38   26   25 1  
    39   26   27 1  
    40   71   26 1  
    41   27   28 1  
    42   27   72 1  
    43   30   29 1  
    44   29   71 1  
    45   29   73 2  
    46   31   30 1  
    47   32   31 1  
    48   33   32 1  
    49   34   33 1  
    50   35   34 2  
    51   34   64 1  
    52   61   35 1  
    53   37   36 1  
    54   36   61 1  
    55   38   37 1  
    56   65   38 1  
    57   39   40 1  
    58   39   65 am 
    59   39   74 2  
    60   40   41 ar 
    61   40   45 ar 
    62   41   42 ar 
    63   42   43 ar 
    64   43   44 ar 
    65   43   59 1  
    66   44   45 ar 
    67   44   46 1  
    68   46   47 1  
    69   46   50 2  
    70   47   48 ar 
    71   47   55 ar 
    72   48   58 ar 
    73   48   75 1  
    74   50   49 1  
    75   49   51 2  
    76   49   75 1  
    77   50   54 1  
    78   51   52 1  
    79   52   53 1  
    80   52   76 2  
    81   53   54 2  
    82   55   56 ar 
    83   56   57 ar 
    84   57   58 ar 
    85   57   77 1  
    86   59   78 ar 
    87   59   79 ar 
    88   61   63 1  
    89   63   64 2  
    90    2   82 1  
    91    4   83 1  
    92    4   84 1  
    93    4   85 1  
    94    5   86 1  
    95    6   87 1  
    96    7   88 1  
    97    7   89 1  
    98    8   90 1  
    99    9   91 1  
   100    9   92 1  
   101   10   93 1  
   102   11   94 1  
   103   11   95 1  
   104   11   96 1  
   105   12   97 1  
   106   12   98 1  
   107   14   99 1  
   108   15  100 1  
   109   19  101 1  
   110   20  102 1  
   111   20  103 1  
   112   20  104 1  
   113   21  105 1  
   114   21  106 1  
   115   21  107 1  
   116   22  108 1  
   117   24  109 1  
   118   24  110 1  
   119   24  111 1  
   120   25  112 1  
   121   25  113 1  
   122   26  114 1  
   123   28  115 1  
   124   28  116 1  
   125   28  117 1  
   126   30  118 1  
   127   30  119 1  
   128   31  120 1  
   129   31  121 1  
   130   32  122 1  
   131   32  123 1  
   132   33  124 1  
   133   33  125 1  
   134   35  126 1  
   135   36  127 1  
   136   36  128 1  
   137   37  129 1  
   138   37  130 1  
   139   38  131 1  
   140   38  132 1  
   141   41  133 1  
   142   42  134 1  
   143   45  135 1  
   144   51  136 1  
   145   53  137 1  
   146   54  138 1  
   147   55  139 1  
   148   56  140 1  
   149   58  141 1  
   150   62  142 1  
   151   65  143 1  
   152   68  144 1  
   153   77  145 1  
@<TRIPOS>SUBSTRUCTURE
     1 DKE         1

