6fjf_ligand
  -I-interpret- 

146154  0  0  0  0  0  0  0  0999 V2000
   30.7380  -20.2640  -46.5970 C   0  0  0  0  0
   28.7850  -24.2940  -47.8960 C   0  0  0  0  0
   32.5990  -19.1870  -45.2580 C   0  0  0  0  0
   30.0540  -19.9000  -49.6530 C   0  0  0  0  0
   30.6350  -21.1020  -42.7580 C   0  0  0  0  0
   31.0090  -21.1310  -47.8530 C   0  0  0  0  0
   29.8950  -22.1180  -48.1100 C   0  0  0  0  0
   29.8900  -23.3680  -47.6220 C   0  0  0  0  0
   30.6470  -21.1550  -45.3470 C   0  0  0  0  0
   28.7100  -25.5610  -47.4450 C   0  0  0  0  0
   29.7740  -26.1860  -46.5860 C   0  0  0  0  0
   27.5330  -26.4370  -47.7780 C   0  0  0  0  0
   26.8240  -26.8590  -46.5180 C   0  0  0  0  0
   30.7920  -20.3000  -44.0780 C   0  0  0  0  0
   26.0310  -25.9440  -45.8290 C   0  0  0  0  0
   25.3630  -26.3100  -44.6610 C   0  0  0  0  0
   25.4880  -27.6140  -44.1560 C   0  0  0  0  0
   26.2870  -28.5270  -44.8500 C   0  0  0  0  0
   26.9520  -28.1580  -46.0240 C   0  0  0  0  0
   27.7140  -30.2570  -44.0220 C   0  0  0  0  0
   31.0350  -20.2550  -41.5380 C   0  0  0  0  0
   29.2990  -21.8430  -42.4630 C   0  0  0  0  0
   25.1060  -24.2820  -43.1730 C   0  0  0  0  0
   23.1060  -25.3000  -44.2660 C   0  0  0  0  0
   26.5950  -24.3320  -42.9610 C   0  0  0  0  0
   27.3220  -23.0680  -43.4600 C   0  0  0  0  0
   28.8350  -23.0700  -43.1370 C   0  0  0  0  0
   29.7150  -23.9720  -44.0210 C   0  0  0  0  0
   26.7000  -21.4920  -45.1340 C   0  0  0  0  0
   26.3470  -21.2440  -46.5730 C   0  0  0  0  0
   24.8850  -20.7970  -46.7190 C   0  0  0  0  0
   24.1320  -21.5570  -47.8310 C   0  0  0  0  0
   23.0440  -22.5100  -47.3000 C   0  0  0  0  0
   23.2130  -23.9210  -47.8040 C   0  0  0  0  0
   22.4720  -24.9950  -47.4320 C   0  0  0  0  0
   22.5290  -27.4400  -48.0990 C   0  0  0  0  0
   22.4850  -27.9380  -46.6430 C   0  0  0  0  0
   23.5130  -29.0540  -46.3780 C   0  0  0  0  0
   23.7700  -31.5110  -47.0070 C   0  0  0  0  0
   23.9440  -32.1550  -45.7000 C   0  0  0  0  0
   24.6020  -33.3840  -45.5910 C   0  0  0  0  0
   24.7590  -33.9710  -44.3460 C   0  0  0  0  0
   24.2770  -33.3760  -43.1670 C   0  0  0  0  0
   23.5990  -32.1160  -43.2570 C   0  0  0  0  0
   23.4650  -31.5530  -44.5380 C   0  0  0  0  0
   23.0290  -31.3290  -42.1440 C   0  0  0  0  0
   23.8560  -30.8980  -41.0200 C   0  0  0  0  0
   23.2940  -30.1400  -39.9680 C   0  0  0  0  0
   21.1310  -30.1700  -41.0470 C   0  0  0  0  0
   21.6840  -30.9490  -42.1370 C   0  0  0  0  0
   19.8180  -29.7820  -40.9960 C   0  0  0  0  0
   18.9140  -30.1420  -42.0490 C   0  0  0  0  0
   19.4330  -30.9170  -43.1500 C   0  0  0  0  0
   20.7390  -31.2950  -43.1820 C   0  0  0  0  0
   25.2350  -31.2050  -40.9140 C   0  0  0  0  0
   25.9970  -30.7980  -39.8310 C   0  0  0  0  0
   25.3960  -30.0480  -38.8130 C   0  0  0  0  0
   24.0470  -29.7140  -38.8720 C   0  0  0  0  0
   24.5370  -34.1500  -41.9390 C   0  0  0  0  0
   24.5660  -25.2860  -44.0170 N   0  0  0  0  0
   23.0080  -26.0460  -48.1670 N   0  0  0  0  0
   31.8420  -19.2950  -46.4160 N   0  0  0  0  0
   24.0180  -25.5900  -48.9330 N   0  0  0  0  0
   24.1460  -24.2920  -48.7150 N   0  0  0  0  0
   23.0990  -30.3010  -47.0470 N   0  0  0  0  0
   32.1070  -19.7330  -44.1080 O   0  0  0  0  0
   33.6980  -18.6150  -45.2460 O   0  0  0  0  0
   29.5230  -19.5310  -46.7570 O   0  0  0  0  0
   26.3970  -29.8110  -44.3430 O   0  0  0  0  0
   24.3820  -23.4350  -42.6480 O   0  0  0  0  0
   27.0100  -22.7710  -44.8220 O   0  0  0  0  0
   29.2460  -23.0300  -41.7510 O   0  0  0  0  0
   26.7160  -20.6190  -44.2710 O   0  0  0  0  0
   24.1770  -32.0090  -48.0740 O   0  0  0  0  0
   21.9460  -29.7810  -39.9840 O   0  0  0  0  0
   17.7050  -29.7970  -42.0250 O   0  0  0  0  0
   26.1520  -29.6400  -37.7470 O   0  0  0  0  0
   25.2000  -35.3210  -42.0970 O   0  0  0  0  0
   24.2190  -33.8550  -40.7810 O   0  0  0  0  0
   31.2590  -20.3170  -49.0070 O   0  0  0  0  0
   24.6660  -28.1120  -42.6850 Cl  0  0  0  0  0
   27.9626  -23.9288  -48.5111 H   0  0  0  0  0
   29.4935  -20.7776  -49.9751 H   0  0  0  0  0
   29.4516  -19.3186  -48.9551 H   0  0  0  0  0
   30.3013  -19.2870  -50.5197 H   0  0  0  0  0
   31.3268  -21.9239  -42.9423 H   0  0  0  0  0
   31.9107  -21.7094  -47.6520 H   0  0  0  0  0
   29.9500  -22.2752  -49.1872 H   0  0  0  0  0
   29.0401  -21.6577  -47.6147 H   0  0  0  0  0
   30.7259  -23.7033  -47.0080 H   0  0  0  0  0
   31.4484  -21.8934  -45.3746 H   0  0  0  0  0
   29.6783  -21.6546  -45.3333 H   0  0  0  0  0
   29.0421  -24.5574  -47.7106 H   0  0  0  0  0
   29.3395  -26.4860  -45.6324 H   0  0  0  0  0
   30.1807  -27.0611  -47.0928 H   0  0  0  0  0
   30.5704  -25.4624  -46.4122 H   0  0  0  0  0
   27.8866  -27.3248  -48.3022 H   0  0  0  0  0
   26.8398  -25.8784  -48.4069 H   0  0  0  0  0
   29.9966  -19.5548  -44.0820 H   0  0  0  0  0
   25.9312  -24.9271  -46.2085 H   0  0  0  0  0
   27.5695  -28.8843  -46.5525 H   0  0  0  0  0
   28.3322  -30.2360  -44.9195 H   0  0  0  0  0
   28.1449  -29.5995  -43.2670 H   0  0  0  0  0
   27.6673  -31.2750  -43.6352 H   0  0  0  0  0
   32.0763  -19.9481  -41.6360 H   0  0  0  0  0
   30.3980  -19.3721  -41.4857 H   0  0  0  0  0
   30.9132  -20.8468  -40.6308 H   0  0  0  0  0
   28.8815  -20.8421  -42.3536 H   0  0  0  0  0
   22.9196  -25.1830  -45.3336 H   0  0  0  0  0
   22.6896  -26.2479  -43.9250 H   0  0  0  0  0
   22.6381  -24.4795  -43.7221 H   0  0  0  0  0
   26.9809  -25.1800  -43.5267 H   0  0  0  0  0
   26.7734  -24.4141  -41.8888 H   0  0  0  0  0
   26.9287  -22.2297  -42.8849 H   0  0  0  0  0
   30.0952  -23.3937  -44.8631 H   0  0  0  0  0
   30.5503  -24.3516  -43.4326 H   0  0  0  0  0
   29.1204  -24.8072  -44.3911 H   0  0  0  0  0
   26.4837  -22.1715  -47.1289 H   0  0  0  0  0
   26.9918  -20.4538  -46.9575 H   0  0  0  0  0
   24.8853  -19.7389  -46.9808 H   0  0  0  0  0
   24.3790  -21.0010  -45.7754 H   0  0  0  0  0
   24.8638  -22.1625  -48.3658 H   0  0  0  0  0
   23.6381  -20.8142  -48.4573 H   0  0  0  0  0
   22.0781  -22.1432  -47.6473 H   0  0  0  0  0
   23.1180  -22.5310  -46.2127 H   0  0  0  0  0
   21.6466  -25.0264  -46.7207 H   0  0  0  0  0
   21.5222  -27.4844  -48.5143 H   0  0  0  0  0
   23.2131  -28.0727  -48.6644 H   0  0  0  0  0
   21.4904  -28.3411  -46.4525 H   0  0  0  0  0
   22.7210  -27.0977  -45.9901 H   0  0  0  0  0
   23.5773  -29.2308  -45.3044 H   0  0  0  0  0
   24.4822  -28.7451  -46.7695 H   0  0  0  0  0
   24.9898  -33.8781  -46.4819 H   0  0  0  0  0
   25.2749  -34.9288  -44.2781 H   0  0  0  0  0
   22.9582  -30.5921  -44.6274 H   0  0  0  0  0
   19.4586  -29.1962  -40.1500 H   0  0  0  0  0
   18.7699  -31.2031  -43.9664 H   0  0  0  0  0
   21.0909  -31.8833  -44.0294 H   0  0  0  0  0
   25.7110  -31.7790  -41.7090 H   0  0  0  0  0
   27.0536  -31.0590  -39.7721 H   0  0  0  0  0
   23.5855  -29.1296  -38.0761 H   0  0  0  0  0
   32.0599  -18.6678  -47.1903 H   0  0  0  0  0
   22.2366  -30.2690  -47.5907 H   0  0  0  0  0
   29.5855  -18.9768  -47.5384 H   0  0  0  0  0
   25.6024  -29.1401  -37.1390 H   0  0  0  0  0
   25.3977  -35.4525  -43.0272 H   0  0  0  0  0
  1  6  1  0  0  0
  9  1  1  0  0  0
  1 62  1  0  0  0
  1 68  1  0  0  0
  8  2  2  0  0  0
 10  2  1  0  0  0
  3 62  1  0  0  0
 66  3  1  0  0  0
  3 67  2  0  0  0
 80  4  1  0  0  0
  5 14  1  0  0  0
  5 21  1  0  0  0
 22  5  1  0  0  0
  6  7  1  0  0  0
  6 80  1  0  0  0
  7  8  1  0  0  0
 14  9  1  0  0  0
 10 11  1  0  0  0
 12 10  1  0  0  0
 13 12  1  0  0  0
 15 13  4  0  0  0
 13 19  4  0  0  0
 14 66  1  0  0  0
 16 15  4  0  0  0
 16 17  4  0  0  0
 60 16  1  0  0  0
 17 18  4  0  0  0
 17 81  1  0  0  0
 18 19  4  0  0  0
 18 69  1  0  0  0
 69 20  1  0  0  0
 27 22  1  0  0  0
 72 22  1  0  0  0
 25 23  1  0  0  0
 23 60  1  0  0  0
 23 70  2  0  0  0
 60 24  1  0  0  0
 26 25  1  0  0  0
 26 27  1  0  0  0
 71 26  1  0  0  0
 27 28  1  0  0  0
 27 72  1  0  0  0
 30 29  1  0  0  0
 29 71  1  0  0  0
 29 73  2  0  0  0
 31 30  1  0  0  0
 32 31  1  0  0  0
 33 32  1  0  0  0
 34 33  1  0  0  0
 35 34  4  0  0  0
 34 64  4  0  0  0
 61 35  4  0  0  0
 37 36  1  0  0  0
 36 61  1  0  0  0
 38 37  1  0  0  0
 65 38  1  0  0  0
 39 40  1  0  0  0
 39 65  1  0  0  0
 39 74  2  0  0  0
 40 41  4  0  0  0
 40 45  4  0  0  0
 41 42  4  0  0  0
 42 43  4  0  0  0
 43 44  4  0  0  0
 43 59  1  0  0  0
 44 45  4  0  0  0
 44 46  1  0  0  0
 46 47  1  0  0  0
 46 50  2  0  0  0
 47 48  4  0  0  0
 47 55  4  0  0  0
 48 58  4  0  0  0
 48 75  1  0  0  0
 50 49  1  0  0  0
 49 51  2  0  0  0
 49 75  1  0  0  0
 50 54  1  0  0  0
 51 52  1  0  0  0
 52 53  1  0  0  0
 52 76  2  0  0  0
 53 54  2  0  0  0
 55 56  4  0  0  0
 56 57  4  0  0  0
 57 58  4  0  0  0
 57 77  1  0  0  0
 59 78  1  0  0  0
 59 79  2  0  0  0
 61 63  4  0  0  0
 63 64  4  0  0  0
  2 82  1  0  0  0
  4 83  1  0  0  0
  4 84  1  0  0  0
  4 85  1  0  0  0
  5 86  1  0  0  0
  6 87  1  0  0  0
  7 88  1  0  0  0
  7 89  1  0  0  0
  8 90  1  0  0  0
  9 91  1  0  0  0
  9 92  1  0  0  0
 10 93  1  0  0  0
 11 94  1  0  0  0
 11 95  1  0  0  0
 11 96  1  0  0  0
 12 97  1  0  0  0
 12 98  1  0  0  0
 14 99  1  0  0  0
 15100  1  0  0  0
 19101  1  0  0  0
 20102  1  0  0  0
 20103  1  0  0  0
 20104  1  0  0  0
 21105  1  0  0  0
 21106  1  0  0  0
 21107  1  0  0  0
 22108  1  0  0  0
 24109  1  0  0  0
 24110  1  0  0  0
 24111  1  0  0  0
 25112  1  0  0  0
 25113  1  0  0  0
 26114  1  0  0  0
 28115  1  0  0  0
 28116  1  0  0  0
 28117  1  0  0  0
 30118  1  0  0  0
 30119  1  0  0  0
 31120  1  0  0  0
 31121  1  0  0  0
 32122  1  0  0  0
 32123  1  0  0  0
 33124  1  0  0  0
 33125  1  0  0  0
 35126  1  0  0  0
 36127  1  0  0  0
 36128  1  0  0  0
 37129  1  0  0  0
 37130  1  0  0  0
 38131  1  0  0  0
 38132  1  0  0  0
 41133  1  0  0  0
 42134  1  0  0  0
 45135  1  0  0  0
 51136  1  0  0  0
 53137  1  0  0  0
 54138  1  0  0  0
 55139  1  0  0  0
 56140  1  0  0  0
 58141  1  0  0  0
 62142  1  0  0  0
 65143  1  0  0  0
 68144  1  0  0  0
 77145  1  0  0  0
 78146  1  0  0  0
M  END
$$$$
