3r0h_ligand
  -I-interpret- 

154156  0  0  0  0  0  0  0  0999 V2000
  -12.6390   -5.9970  -14.8020 N   0  3  0  0  0
  -11.3890   -5.3330  -15.1230 C   0  0  0  0  0
  -11.5270   -3.8270  -14.9370 C   0  0  0  0  0
  -12.6440   -3.2960  -14.8100 O   0  0  0  0  0
  -10.9720   -5.6500  -16.5420 C   0  0  0  0  0
  -10.3770   -3.1540  -14.8990 N   0  0  0  0  0
  -10.3310   -1.7100  -14.8750 C   0  0  0  0  0
   -9.7700   -1.2280  -16.2120 C   0  0  0  0  0
   -8.6700   -1.6200  -16.6290 O   0  0  0  0  0
   -9.4850   -1.2350  -13.6990 C   0  0  0  0  0
   -9.1400    0.2500  -13.6000 C   0  0  0  0  0
  -10.3420    1.0840  -13.1040 C   0  0  0  0  0
   -7.9090    0.4050  -12.6970 C   0  0  0  0  0
  -10.5550   -0.4080  -16.9010 N   0  0  0  0  0
  -10.1970    0.0580  -18.2420 C   0  0  0  0  0
  -10.8120    1.4140  -18.3950 C   0  0  0  0  0
  -11.9870    1.5810  -18.1100 O   0  0  0  0  0
  -10.7570   -0.8510  -19.3310 C   0  0  0  0  0
   -9.8990   -2.0220  -19.7390 C   0  0  0  0  0
  -10.3720   -2.6070  -21.0810 C   0  0  0  0  0
  -11.8170   -2.4320  -21.2580 N   0  0  0  0  0
  -12.7490   -3.2700  -20.8060 C   0  0  0  0  0
  -12.4060   -4.3800  -20.1540 N   0  0  0  0  0
  -14.0310   -2.9910  -21.0090 N   0  0  0  0  0
   -9.9900    2.3700  -18.8260 N   0  0  0  0  0
  -10.3450    3.7890  -18.9390 C   0  0  0  0  0
  -11.0860    4.3460  -17.7170 C   0  0  0  0  0
  -12.0910    5.0460  -17.8640 O   0  0  0  0  0
  -11.1460    4.0240  -20.2280 C   0  0  0  0  0
  -10.5400    3.3080  -21.4190 C   0  0  0  0  0
   -9.4100    3.5880  -21.8140 O   0  0  0  0  0
  -11.2840    2.3630  -21.9870 N   0  0  0  0  0
  -10.6000    4.0160  -16.5180 N   0  0  0  0  0
  -11.1530    4.5710  -15.2770 C   0  0  0  0  0
  -12.4240    3.9590  -14.7000 C   0  0  0  0  0
  -12.9400    4.4350  -13.6750 O   0  0  0  0  0
  -12.9360    2.9070  -15.3420 N   0  0  0  0  0
  -14.1640    2.2370  -14.8810 C   0  0  0  0  0
  -13.9300    0.7410  -14.5980 C   0  0  0  0  0
  -12.9870    0.1580  -15.1460 O   0  0  0  0  0
  -15.2870    2.4210  -15.9140 C   0  0  0  0  0
  -15.9140    3.8290  -15.9820 C   0  0  0  0  0
  -17.0780    3.9090  -16.9970 C   0  0  0  0  0
  -16.8710    3.8510  -18.2190 O   0  0  0  0  0
  -18.3050    4.0400  -16.4820 N   0  0  0  0  0
  -14.7750    0.1500  -13.7400 N   0  0  0  0  0
  -14.7780   -1.2970  -13.4360 C   0  0  0  0  0
  -15.8700   -2.0640  -14.1860 C   0  0  0  0  0
  -17.0690   -1.7920  -14.0200 O   0  0  0  0  0
  -14.9460   -1.5650  -11.9320 C   0  0  0  0  0
  -13.8300   -1.0270  -11.0670 C   0  0  0  0  0
  -12.6900   -1.7780  -10.8160 C   0  0  0  0  0
  -13.9260    0.2320  -10.4880 C   0  0  0  0  0
  -11.6800   -1.2910  -10.0240 C   0  0  0  0  0
  -12.9210    0.7300   -9.6980 C   0  0  0  0  0
  -11.7990   -0.0290   -9.4680 C   0  0  0  0  0
  -10.8050    0.4770   -8.6670 O   0  0  0  0  0
  -15.4370   -3.0440  -14.9780 N   0  0  0  0  0
  -16.2950   -3.8370  -15.8530 C   0  0  0  0  0
  -16.4810   -5.2610  -15.3680 C   0  0  0  0  0
  -15.5370   -5.8990  -14.8670 O   0  0  0  0  0
  -15.6950   -3.8810  -17.2570 C   0  0  0  0  0
  -15.4980   -2.5290  -17.7910 C   0  0  0  0  0
  -14.3580   -1.7800  -17.7290 C   0  0  0  0  0
  -16.4790   -1.7170  -18.4320 C   0  0  0  0  0
  -14.5650   -0.5530  -18.3080 N   0  0  0  0  0
  -15.8600   -0.4850  -18.7480 C   0  0  0  0  0
  -17.8240   -1.9080  -18.7740 C   0  0  0  0  0
  -16.5380    0.5540  -19.4000 C   0  0  0  0  0
  -18.5030   -0.8650  -19.4240 C   0  0  0  0  0
  -17.8560    0.3480  -19.7220 C   0  0  0  0  0
  -17.7060   -5.7510  -15.5260 N   0  0  0  0  0
  -18.0160   -7.1610  -15.3410 C   0  0  0  0  0
  -18.4360   -7.7500  -16.6930 C   0  0  0  0  0
  -18.7720   -6.9650  -17.5940 O   0  0  0  0  0
  -19.1150   -7.3940  -14.2680 C   0  0  0  0  0
  -18.6640   -6.8870  -12.9020 C   0  0  0  0  0
  -20.4350   -6.7510  -14.6750 C   0  0  0  0  0
  -18.4220   -8.9810  -16.9200 O   0  0  0  0  0
  -12.9052   -5.7729  -13.8432 H   0  0  0  0  0
  -13.3664   -5.6774  -15.4416 H   0  0  0  0  0
  -12.5208   -7.0057  -14.8964 H   0  0  0  0  0
  -10.6182   -5.6993  -14.4449 H   0  0  0  0  0
  -11.7253   -5.2727  -17.2336 H   0  0  0  0  0
  -10.0136   -5.1753  -16.7523 H   0  0  0  0  0
  -10.8777   -6.7296  -16.6590 H   0  0  0  0  0
   -9.5005   -3.6756  -14.8864 H   0  0  0  0  0
  -11.3289   -1.2926  -14.7402 H   0  0  0  0  0
   -8.5272   -1.7424  -13.8143 H   0  0  0  0  0
  -10.0841   -1.4475  -12.8135 H   0  0  0  0  0
   -8.9034    0.6383  -14.5906 H   0  0  0  0  0
  -11.1735    0.9699  -13.7995 H   0  0  0  0  0
  -10.6423    0.7343  -12.1163 H   0  0  0  0  0
  -10.0554    2.1341  -13.0475 H   0  0  0  0  0
   -8.1338    0.0080  -11.7071 H   0  0  0  0  0
   -7.0720   -0.1439  -13.1285 H   0  0  0  0  0
   -7.6498    1.4607  -12.6162 H   0  0  0  0  0
  -11.4316   -0.0941  -16.4845 H   0  0  0  0  0
   -9.1122    0.0669  -18.3477 H   0  0  0  0  0
  -10.8596   -0.2285  -20.2198 H   0  0  0  0  0
  -11.6749   -1.2768  -18.9256 H   0  0  0  0  0
   -9.9733   -2.7947  -18.9738 H   0  0  0  0  0
   -8.8694   -1.6813  -19.8483 H   0  0  0  0  0
  -10.1473   -3.6735  -21.0933 H   0  0  0  0  0
   -9.8576   -2.0850  -21.8879 H   0  0  0  0  0
  -12.1328   -1.6057  -21.7659 H   0  0  0  0  0
  -13.1279   -5.0141  -19.8116 H   0  0  0  0  0
  -11.4215   -4.5958  -19.9972 H   0  0  0  0  0
  -14.2953   -2.1411  -21.5073 H   0  0  0  0  0
   -9.0457    2.0954  -19.0969 H   0  0  0  0  0
   -9.4075    4.3434  -18.9812 H   0  0  0  0  0
  -11.1430    5.0935  -20.4384 H   0  0  0  0  0
  -12.1533    3.6361  -20.0762 H   0  0  0  0  0
  -10.9215    1.8381  -22.7829 H   0  0  0  0  0
  -12.2171    2.1632  -21.6267 H   0  0  0  0  0
   -9.8217    3.3590  -16.4629 H   0  0  0  0  0
  -11.4210    5.5986  -15.5225 H   0  0  0  0  0
  -10.3867    4.3933  -14.5225 H   0  0  0  0  0
  -12.4636    2.5570  -16.1755 H   0  0  0  0  0
  -14.4629    2.7019  -13.9415 H   0  0  0  0  0
  -16.0878    1.7416  -15.6219 H   0  0  0  0  0
  -14.8397    2.2361  -16.8906 H   0  0  0  0  0
  -15.1402    4.5272  -16.3012 H   0  0  0  0  0
  -16.3103    4.0692  -14.9954 H   0  0  0  0  0
  -19.1143    4.0961  -17.1003 H   0  0  0  0  0
  -18.4317    4.0838  -15.4708 H   0  0  0  0  0
  -15.4608    0.7377  -13.2660 H   0  0  0  0  0
  -13.8052   -1.6564  -13.7715 H   0  0  0  0  0
  -14.9555   -2.6471  -11.8014 H   0  0  0  0  0
  -15.8607   -1.0611  -11.6199 H   0  0  0  0  0
  -12.5951   -2.7711  -11.2551 H   0  0  0  0  0
  -14.8164    0.8355  -10.6646 H   0  0  0  0  0
  -10.7915   -1.8933   -9.8345 H   0  0  0  0  0
  -13.0121    1.7219   -9.2554 H   0  0  0  0  0
  -11.0512    1.3562   -8.3703 H   0  0  0  0  0
  -14.4389   -3.2542  -14.9725 H   0  0  0  0  0
  -17.2717   -3.3532  -15.8533 H   0  0  0  0  0
  -16.3809   -4.4179  -17.9123 H   0  0  0  0  0
  -14.7273   -4.3802  -17.2068 H   0  0  0  0  0
  -13.4190   -2.1091  -17.2839 H   0  0  0  0  0
  -18.3314   -2.8441  -18.5410 H   0  0  0  0  0
  -16.0369    1.4911  -19.6424 H   0  0  0  0  0
  -19.5485   -0.9974  -19.7022 H   0  0  0  0  0
  -18.4136    1.1415  -20.2195 H   0  0  0  0  0
  -18.4586   -5.1140  -15.7872 H   0  0  0  0  0
  -17.1235   -7.6659  -14.9714 H   0  0  0  0  0
  -19.2776   -8.4693  -14.1940 H   0  0  0  0  0
  -17.7614   -7.4176  -12.5988 H   0  0  0  0  0
  -18.4559   -5.8188  -12.9629 H   0  0  0  0  0
  -19.4535   -7.0636  -12.1715 H   0  0  0  0  0
  -20.2922   -5.6773  -14.7971 H   0  0  0  0  0
  -20.7731   -7.1833  -15.6167 H   0  0  0  0  0
  -21.1806   -6.9340  -13.9013 H   0  0  0  0  0
  -18.1424   -9.4479  -16.1292 H   0  0  0  0  0
  1  2  1  0  0  0
  2  3  1  0  0  0
  2  5  1  0  0  0
  3  4  2  0  0  0
  3  6  1  0  0  0
  6  7  1  0  0  0
  7  8  1  0  0  0
  7 10  1  0  0  0
  8  9  2  0  0  0
  8 14  1  0  0  0
 10 11  1  0  0  0
 11 12  1  0  0  0
 11 13  1  0  0  0
 14 15  1  0  0  0
 15 16  1  0  0  0
 15 18  1  0  0  0
 16 17  2  0  0  0
 16 25  1  0  0  0
 18 19  1  0  0  0
 19 20  1  0  0  0
 20 21  1  0  0  0
 21 22  1  0  0  0
 22 23  1  0  0  0
 22 24  2  0  0  0
 25 26  1  0  0  0
 26 27  1  0  0  0
 26 29  1  0  0  0
 27 28  2  0  0  0
 27 33  1  0  0  0
 29 30  1  0  0  0
 30 31  2  0  0  0
 30 32  1  0  0  0
 33 34  1  0  0  0
 34 35  1  0  0  0
 35 36  2  0  0  0
 35 37  1  0  0  0
 37 38  1  0  0  0
 38 39  1  0  0  0
 38 41  1  0  0  0
 39 40  2  0  0  0
 39 46  1  0  0  0
 41 42  1  0  0  0
 42 43  1  0  0  0
 43 44  2  0  0  0
 43 45  1  0  0  0
 46 47  1  0  0  0
 47 48  1  0  0  0
 47 50  1  0  0  0
 48 49  2  0  0  0
 48 58  1  0  0  0
 50 51  1  0  0  0
 51 52  4  0  0  0
 51 53  4  0  0  0
 52 54  4  0  0  0
 53 55  4  0  0  0
 54 56  4  0  0  0
 55 56  4  0  0  0
 56 57  1  0  0  0
 58 59  1  0  0  0
 59 60  1  0  0  0
 59 62  1  0  0  0
 60 61  2  0  0  0
 60 72  1  0  0  0
 62 63  1  0  0  0
 63 64  4  0  0  0
 63 65  4  0  0  0
 64 66  4  0  0  0
 65 67  4  0  0  0
 65 68  4  0  0  0
 66 67  4  0  0  0
 67 69  4  0  0  0
 68 70  4  0  0  0
 69 71  4  0  0  0
 70 71  4  0  0  0
 72 73  1  0  0  0
 73 74  1  0  0  0
 73 76  1  0  0  0
 74 75  2  0  0  0
 74 79  1  0  0  0
 76 77  1  0  0  0
 76 78  1  0  0  0
  1 80  1  0  0  0
  1 81  1  0  0  0
  1 82  1  0  0  0
  2 83  1  0  0  0
  5 84  1  0  0  0
  5 85  1  0  0  0
  5 86  1  0  0  0
  6 87  1  0  0  0
  7 88  1  0  0  0
 10 89  1  0  0  0
 10 90  1  0  0  0
 11 91  1  0  0  0
 12 92  1  0  0  0
 12 93  1  0  0  0
 12 94  1  0  0  0
 13 95  1  0  0  0
 13 96  1  0  0  0
 13 97  1  0  0  0
 14 98  1  0  0  0
 15 99  1  0  0  0
 18100  1  0  0  0
 18101  1  0  0  0
 19102  1  0  0  0
 19103  1  0  0  0
 20104  1  0  0  0
 20105  1  0  0  0
 21106  1  0  0  0
 23107  1  0  0  0
 23108  1  0  0  0
 24109  1  0  0  0
 25110  1  0  0  0
 26111  1  0  0  0
 29112  1  0  0  0
 29113  1  0  0  0
 32114  1  0  0  0
 32115  1  0  0  0
 33116  1  0  0  0
 34117  1  0  0  0
 34118  1  0  0  0
 37119  1  0  0  0
 38120  1  0  0  0
 41121  1  0  0  0
 41122  1  0  0  0
 42123  1  0  0  0
 42124  1  0  0  0
 45125  1  0  0  0
 45126  1  0  0  0
 46127  1  0  0  0
 47128  1  0  0  0
 50129  1  0  0  0
 50130  1  0  0  0
 52131  1  0  0  0
 53132  1  0  0  0
 54133  1  0  0  0
 55134  1  0  0  0
 57135  1  0  0  0
 58136  1  0  0  0
 59137  1  0  0  0
 62138  1  0  0  0
 62139  1  0  0  0
 64140  1  0  0  0
 68141  1  0  0  0
 69142  1  0  0  0
 70143  1  0  0  0
 71144  1  0  0  0
 72145  1  0  0  0
 73146  1  0  0  0
 76147  1  0  0  0
 77148  1  0  0  0
 77149  1  0  0  0
 77150  1  0  0  0
 78151  1  0  0  0
 78152  1  0  0  0
 78153  1  0  0  0
 79154  1  0  0  0
M  END
$$$$
