### 
### Created by X-TOOL on Mon Sep 10 21:13:07 2018
### 

@<TRIPOS>MOLECULE
3r0h_ligand
  155   157     1     0     0
SMALL
GAST_HUCK


@<TRIPOS>ATOM
      1 N         -12.6390   -5.9970  -14.8020 N.4       1 ALA         0.2377
      2 CA        -11.3890   -5.3330  -15.1230 C.3       1 ALA         0.0621
      3 C         -11.5270   -3.8270  -14.9370 C.2       1 ALA         0.2264
      4 O         -12.6440   -3.2960  -14.8100 O.2       1 ALA        -0.3907
      5 CB        -10.9720   -5.6500  -16.5420 C.3       1 ALA        -0.0040
      6 N         -10.3770   -3.1540  -14.8990 N.am      1 LEU        -0.2610
      7 CA        -10.3310   -1.7100  -14.8750 C.3       1 LEU         0.1313
      8 C          -9.7700   -1.2280  -16.2120 C.2       1 LEU         0.2039
      9 O          -8.6700   -1.6200  -16.6290 O.2       1 LEU        -0.3944
     10 CB         -9.4850   -1.2350  -13.6990 C.3       1 LEU        -0.0101
     11 CG         -9.1400    0.2500  -13.6000 C.3       1 LEU        -0.0425
     12 CD1       -10.3420    1.0840  -13.1040 C.3       1 LEU        -0.0625
     13 CD2        -7.9090    0.4050  -12.6970 C.3       1 LEU        -0.0625
     14 N         -10.5550   -0.4080  -16.9010 N.am      1 ARG        -0.2637
     15 CA        -10.1970    0.0580  -18.2420 C.3       1 ARG         0.1311
     16 C         -10.8120    1.4140  -18.3950 C.2       1 ARG         0.2040
     17 O         -11.9870    1.5810  -18.1100 O.2       1 ARG        -0.3944
     18 CB        -10.7570   -0.8510  -19.3310 C.3       1 ARG        -0.0092
     19 CG         -9.8990   -2.0220  -19.7390 C.3       1 ARG        -0.0156
     20 CD        -10.3720   -2.6070  -21.0810 C.3       1 ARG         0.0627
     21 NE        -11.8170   -2.4320  -21.2580 N.pl3     1 ARG        -0.2723
     22 CZ        -12.7490   -3.2700  -20.8060 C.cat     1 ARG         0.2882
     23 NH1       -12.4060   -4.3800  -20.1540 N.pl3     1 ARG        -0.2849
     24 NH2       -14.0310   -2.9910  -21.0090 N.pl3     1 ARG        -0.2849
     25 N          -9.9900    2.3700  -18.8260 N.am      1 ASN        -0.2616
     26 CA        -10.3450    3.7890  -18.9390 C.3       1 ASN         0.1476
     27 C         -11.0860    4.3460  -17.7170 C.2       1 ASN         0.2061
     28 O         -12.0910    5.0460  -17.8640 O.2       1 ASN        -0.3942
     29 CB        -11.1460    4.0240  -20.2280 C.3       1 ASN         0.0773
     30 CG        -10.5400    3.3080  -21.4190 C.2       1 ASN         0.1780
     31 OD1        -9.4100    3.5880  -21.8140 O.2       1 ASN        -0.3970
     32 ND2       -11.2840    2.3630  -21.9870 N.am      1 ASN        -0.3007
     33 N         -10.6000    4.0160  -16.5180 N.am      1 GLY        -0.2663
     34 CA        -11.1530    4.5710  -15.2770 C.3       1 GLY         0.1201
     35 C         -12.4240    3.9590  -14.7000 C.2       1 GLY         0.2007
     36 O         -12.9400    4.4350  -13.6750 O.2       1 GLY        -0.3947
     37 N         -12.9360    2.9070  -15.3420 N.am      1 GLN        -0.2638
     38 CA        -14.1640    2.2370  -14.8810 C.3       1 GLN         0.1330
     39 C         -13.9300    0.7410  -14.5980 C.2       1 GLN         0.2042
     40 O         -12.9870    0.1580  -15.1460 O.2       1 GLN        -0.3944
     41 CB        -15.2870    2.4210  -15.9140 C.3       1 GLN         0.0045
     42 CG        -15.9140    3.8290  -15.9820 C.3       1 GLN         0.0412
     43 CD        -17.0780    3.9090  -16.9970 C.2       1 GLN         0.1737
     44 OE1       -16.8710    3.8510  -18.2190 O.2       1 GLN        -0.3973
     45 NE2       -18.3050    4.0400  -16.4820 N.am      1 GLN        -0.3009
     46 N         -14.7750    0.1500  -13.7400 N.am      1 TYR        -0.2621
     47 CA        -14.7780   -1.2970  -13.4360 C.3       1 TYR         0.1390
     48 C         -15.8700   -2.0640  -14.1860 C.2       1 TYR         0.2058
     49 O         -17.0690   -1.7920  -14.0200 O.2       1 TYR        -0.3942
     50 CB        -14.9460   -1.5650  -11.9320 C.3       1 TYR         0.0163
     51 CG        -13.8300   -1.0270  -11.0670 C.ar      1 TYR        -0.0493
     52 CD1       -12.6900   -1.7780  -10.8160 C.ar      1 TYR        -0.0685
     53 CD2       -13.9260    0.2320  -10.4880 C.ar      1 TYR        -0.0685
     54 CE1       -11.6800   -1.2910  -10.0240 C.ar      1 TYR        -0.0398
     55 CE2       -12.9210    0.7300   -9.6980 C.ar      1 TYR        -0.0398
     56 CZ        -11.7990   -0.0290   -9.4680 C.ar      1 TYR         0.0805
     57 OH        -10.8050    0.4770   -8.6670 O.3       1 TYR        -0.3376
     58 N         -15.4370   -3.0440  -14.9780 N.am      1 TRP        -0.2625
     59 CA        -16.2950   -3.8370  -15.8530 C.3       1 TRP         0.1351
     60 C         -16.4810   -5.2610  -15.3680 C.2       1 TRP         0.2046
     61 O         -15.5370   -5.8990  -14.8670 O.2       1 TRP        -0.3943
     62 CB        -15.6950   -3.8810  -17.2570 C.3       1 TRP         0.0042
     63 CG        -15.4980   -2.5290  -17.7910 C.2       1 TRP        -0.0418
     64 CD1       -14.3580   -1.7800  -17.7290 C.2       1 TRP         0.0167
     65 CD2       -16.4790   -1.7170  -18.4320 C.ar      1 TRP        -0.0214
     66 NE1       -14.5650   -0.5530  -18.3080 N.pl3     1 TRP        -0.2890
     67 CE2       -15.8600   -0.4850  -18.7480 C.ar      1 TRP         0.0603
     68 CE3       -17.8240   -1.9080  -18.7740 C.ar      1 TRP        -0.0747
     69 CZ2       -16.5380    0.5540  -19.4000 C.ar      1 TRP        -0.0443
     70 CZ3       -18.5030   -0.8650  -19.4240 C.ar      1 TRP        -0.0792
     71 CH2       -17.8560    0.3480  -19.7220 C.ar      1 TRP        -0.0768
     72 N         -17.7060   -5.7510  -15.5260 N.am      1 VAL        -0.2691
     73 CA        -18.0160   -7.1610  -15.3410 C.3       1 VAL         0.0967
     74 C         -18.4360   -7.7500  -16.6930 C.2       1 VAL         0.0603
     75 O         -18.7720   -6.9650  -17.5940 O.co2     1 VAL        -0.5666
     76 CB        -19.1150   -7.3940  -14.2680 C.3       1 VAL        -0.0118
     77 CG1       -18.6640   -6.8870  -12.9020 C.3       1 VAL        -0.0590
     78 CG2       -20.4350   -6.7510  -14.6750 C.3       1 VAL        -0.0590
     79 OXT       -18.4220   -8.9810  -16.9200 O.co2     1 VAL        -0.5666
     80 H         -12.9052   -5.7729  -13.8432 H         1 ALA         0.2015
     81 H         -13.3664   -5.6774  -15.4416 H         1 ALA         0.2015
     82 H         -12.5208   -7.0057  -14.8964 H         1 ALA         0.2015
     83 H         -10.6182   -5.6993  -14.4449 H         1 ALA         0.1095
     84 H         -11.7253   -5.2727  -17.2336 H         1 ALA         0.0310
     85 H         -10.0136   -5.1753  -16.7523 H         1 ALA         0.0310
     86 H         -10.8777   -6.7296  -16.6590 H         1 ALA         0.0310
     87 H          -9.5005   -3.6756  -14.8864 H         1 LEU         0.1884
     88 H         -11.3289   -1.2926  -14.7402 H         1 LEU         0.0800
     89 H          -8.5272   -1.7424  -13.8143 H         1 LEU         0.0315
     90 H         -10.0841   -1.4475  -12.8135 H         1 LEU         0.0315
     91 H          -8.9034    0.6383  -14.5906 H         1 LEU         0.0298
     92 H         -11.1735    0.9699  -13.7995 H         1 LEU         0.0232
     93 H         -10.6423    0.7343  -12.1163 H         1 LEU         0.0232
     94 H         -10.0554    2.1341  -13.0475 H         1 LEU         0.0232
     95 H          -8.1338    0.0080  -11.7071 H         1 LEU         0.0232
     96 H          -7.0720   -0.1439  -13.1285 H         1 LEU         0.0232
     97 H          -7.6498    1.4607  -12.6162 H         1 LEU         0.0232
     98 H         -11.4316   -0.0941  -16.4845 H         1 ARG         0.1883
     99 H          -9.1122    0.0669  -18.3477 H         1 ARG         0.0800
    100 H         -10.8596   -0.2285  -20.2198 H         1 ARG         0.0313
    101 H         -11.6749   -1.2768  -18.9256 H         1 ARG         0.0313
    102 H          -9.9733   -2.7947  -18.9738 H         1 ARG         0.0301
    103 H          -8.8694   -1.6813  -19.8483 H         1 ARG         0.0301
    104 H         -10.1473   -3.6735  -21.0933 H         1 ARG         0.0689
    105 H          -9.8576   -2.0850  -21.8879 H         1 ARG         0.0689
    106 H         -12.1328   -1.6057  -21.7659 H         1 ARG         0.2642
    107 H         -11.4215   -4.5954  -19.9965 H         1 ARG         0.2615
    108 H         -13.1279   -5.0145  -19.8123 H         1 ARG         0.2615
    109 H         -14.2953   -2.1411  -21.5073 H         1 ARG         0.2615
    110 H         -14.7517   -3.6265  -20.6667 H         1 ARG         0.2615
    111 H          -9.0457    2.0954  -19.0969 H         1 ASN         0.1885
    112 H          -9.4075    4.3434  -18.9812 H         1 ASN         0.0826
    113 H         -11.1430    5.0935  -20.4384 H         1 ASN         0.0551
    114 H         -12.1533    3.6361  -20.0762 H         1 ASN         0.0551
    115 H         -10.9215    1.8381  -22.7829 H         1 ASN         0.1814
    116 H         -12.2171    2.1632  -21.6267 H         1 ASN         0.1814
    117 H          -9.8217    3.3590  -16.4629 H         1 GLY         0.1881
    118 H         -11.4210    5.5986  -15.5225 H         1 GLY         0.0763
    119 H         -10.3867    4.3933  -14.5225 H         1 GLY         0.0763
    120 H         -12.4636    2.5570  -16.1755 H         1 GLN         0.1883
    121 H         -14.4629    2.7019  -13.9415 H         1 GLN         0.0801
    122 H         -16.0878    1.7416  -15.6219 H         1 GLN         0.0337
    123 H         -14.8397    2.2361  -16.8906 H         1 GLN         0.0337
    124 H         -15.1402    4.5272  -16.3012 H         1 GLN         0.0504
    125 H         -16.3103    4.0692  -14.9954 H         1 GLN         0.0504
    126 H         -19.1143    4.0961  -17.1003 H         1 GLN         0.1814
    127 H         -18.4317    4.0838  -15.4708 H         1 GLN         0.1814
    128 H         -15.4608    0.7377  -13.2660 H         1 TYR         0.1885
    129 H         -13.8052   -1.6564  -13.7715 H         1 TYR         0.0821
    130 H         -14.9555   -2.6471  -11.8014 H         1 TYR         0.0453
    131 H         -15.8607   -1.0611  -11.6199 H         1 TYR         0.0453
    132 H         -12.5951   -2.7711  -11.2551 H         1 TYR         0.0530
    133 H         -14.8164    0.8355  -10.6646 H         1 TYR         0.0530
    134 H         -10.7915   -1.8933   -9.8345 H         1 TYR         0.0525
    135 H         -13.0121    1.7219   -9.2554 H         1 TYR         0.0525
    136 H         -10.0922   -0.1627   -8.6007 H         1 TYR         0.2458
    137 H         -14.4389   -3.2542  -14.9725 H         1 TRP         0.1884
    138 H         -17.2717   -3.3532  -15.8533 H         1 TRP         0.0815
    139 H         -16.3809   -4.4179  -17.9123 H         1 TRP         0.0397
    140 H         -14.7273   -4.3802  -17.2068 H         1 TRP         0.0397
    141 H         -13.4190   -2.1091  -17.2839 H         1 TRP         0.0795
    142 H         -13.8685    0.1869  -18.3961 H         1 TRP         0.2216
    143 H         -18.3314   -2.8441  -18.5410 H         1 TRP         0.0540
    144 H         -16.0369    1.4911  -19.6424 H         1 TRP         0.0541
    145 H         -19.5485   -0.9974  -19.7022 H         1 TRP         0.0510
    146 H         -18.4136    1.1415  -20.2195 H         1 TRP         0.0530
    147 H         -18.4586   -5.1140  -15.7872 H         1 VAL         0.1875
    148 H         -17.1235   -7.6659  -14.9714 H         1 VAL         0.0729
    149 H         -19.2776   -8.4693  -14.1940 H         1 VAL         0.0336
    150 H         -17.7614   -7.4176  -12.5988 H         1 VAL         0.0234
    151 H         -18.4559   -5.8188  -12.9629 H         1 VAL         0.0234
    152 H         -19.4535   -7.0636  -12.1715 H         1 VAL         0.0234
    153 H         -20.2922   -5.6773  -14.7971 H         1 VAL         0.0234
    154 H         -20.7731   -7.1833  -15.6167 H         1 VAL         0.0234
    155 H         -21.1806   -6.9340  -13.9013 H         1 VAL         0.0234
@<TRIPOS>BOND
     1    1    2 1  
     2    2    3 1  
     3    2    5 1  
     4    3    4 2  
     5    3    6 am 
     6    6    7 1  
     7    7    8 1  
     8    7   10 1  
     9    8    9 2  
    10    8   14 am 
    11   10   11 1  
    12   11   12 1  
    13   11   13 1  
    14   14   15 1  
    15   15   16 1  
    16   15   18 1  
    17   16   17 2  
    18   16   25 am 
    19   18   19 1  
    20   19   20 1  
    21   20   21 1  
    22   21   22 ar 
    23   22   23 ar 
    24   22   24 ar 
    25   25   26 1  
    26   26   27 1  
    27   26   29 1  
    28   27   28 2  
    29   27   33 am 
    30   29   30 1  
    31   30   31 2  
    32   30   32 am 
    33   33   34 1  
    34   34   35 1  
    35   35   36 2  
    36   35   37 am 
    37   37   38 1  
    38   38   39 1  
    39   38   41 1  
    40   39   40 2  
    41   39   46 am 
    42   41   42 1  
    43   42   43 1  
    44   43   44 2  
    45   43   45 am 
    46   46   47 1  
    47   47   48 1  
    48   47   50 1  
    49   48   49 2  
    50   48   58 am 
    51   50   51 1  
    52   51   52 ar 
    53   51   53 ar 
    54   52   54 ar 
    55   53   55 ar 
    56   54   56 ar 
    57   55   56 ar 
    58   56   57 1  
    59   58   59 1  
    60   59   60 1  
    61   59   62 1  
    62   60   61 2  
    63   60   72 am 
    64   62   63 1  
    65   63   64 2  
    66   63   65 1  
    67   64   66 1  
    68   65   67 ar 
    69   65   68 ar 
    70   66   67 1  
    71   67   69 ar 
    72   68   70 ar 
    73   69   71 ar 
    74   70   71 ar 
    75   72   73 1  
    76   73   74 1  
    77   73   76 1  
    78   74   75 ar 
    79   74   79 ar 
    80   76   77 1  
    81   76   78 1  
    82    1   80 1  
    83    1   81 1  
    84    1   82 1  
    85    2   83 1  
    86    5   84 1  
    87    5   85 1  
    88    5   86 1  
    89    6   87 1  
    90    7   88 1  
    91   10   89 1  
    92   10   90 1  
    93   11   91 1  
    94   12   92 1  
    95   12   93 1  
    96   12   94 1  
    97   13   95 1  
    98   13   96 1  
    99   13   97 1  
   100   14   98 1  
   101   15   99 1  
   102   18  100 1  
   103   18  101 1  
   104   19  102 1  
   105   19  103 1  
   106   20  104 1  
   107   20  105 1  
   108   21  106 1  
   109   23  107 1  
   110   23  108 1  
   111   24  109 1  
   112   24  110 1  
   113   25  111 1  
   114   26  112 1  
   115   29  113 1  
   116   29  114 1  
   117   32  115 1  
   118   32  116 1  
   119   33  117 1  
   120   34  118 1  
   121   34  119 1  
   122   37  120 1  
   123   38  121 1  
   124   41  122 1  
   125   41  123 1  
   126   42  124 1  
   127   42  125 1  
   128   45  126 1  
   129   45  127 1  
   130   46  128 1  
   131   47  129 1  
   132   50  130 1  
   133   50  131 1  
   134   52  132 1  
   135   53  133 1  
   136   54  134 1  
   137   55  135 1  
   138   57  136 1  
   139   58  137 1  
   140   59  138 1  
   141   62  139 1  
   142   62  140 1  
   143   64  141 1  
   144   66  142 1  
   145   68  143 1  
   146   69  144 1  
   147   70  145 1  
   148   71  146 1  
   149   72  147 1  
   150   73  148 1  
   151   76  149 1  
   152   77  150 1  
   153   77  151 1  
   154   77  152 1  
   155   78  153 1  
   156   78  154 1  
   157   78  155 1  
@<TRIPOS>SUBSTRUCTURE
     1 ALA         1

