4od9_ligand
  -I-interpret- 

 72 74  0  0  0  0  0  0  0  0999 V2000
   -9.4870   11.8840  -38.2550 C   0  0  0  0  0
   -8.9030   12.9180  -38.9920 C   0  0  0  0  0
   -8.0060   13.8010  -38.3880 C   0  0  0  0  0
   -5.3180   14.2750  -36.7360 C   0  0  0  0  0
   -4.8180   12.9450  -36.1860 C   0  0  0  0  0
   -8.3100   12.6160  -36.2890 C   0  0  0  0  0
   -3.6920   10.7370  -36.6550 C   0  0  0  0  0
   -4.6360    9.8460  -35.8930 C   0  0  0  0  0
   -4.1650    9.1450  -34.7810 C   0  0  0  0  0
   -5.0190    8.2860  -34.0630 C   0  0  0  0  0
    0.5060   16.8510  -31.4510 C   0  0  0  0  0
    1.5370   16.6820  -32.3870 C   0  0  0  0  0
    0.1090   17.5840  -34.1100 C   0  0  0  0  0
    2.4140   16.8950  -34.5650 O   0  0  0  0  0
    3.0800   15.8400  -30.6900 C   0  0  0  0  0
   -2.2740   18.2220  -33.6320 C   0  0  0  0  0
   -2.9920   17.1160  -34.3670 C   0  0  0  0  0
   -6.8200    8.8870  -35.5640 C   0  0  0  0  0
   -6.3630    8.1690  -34.4480 C   0  0  0  0  0
   -7.7440   13.6640  -37.0260 C   0  0  0  0  0
   -9.1940   11.7300  -36.9040 C   0  0  0  0  0
   -6.7780   14.5910  -36.3300 C   0  0  0  0  0
   -4.4930   15.2380  -36.0170 N   0  0  0  0  0
   -4.8150   12.7710  -34.9710 O   0  0  0  0  0
   -4.2940   12.0340  -37.0460 N   0  0  0  0  0
   -5.9500    9.6820  -36.3130 C   0  0  0  0  0
   -4.2500   16.5480  -36.3980 C   0  0  0  0  0
   -4.6140   17.0140  -37.5580 N   0  0  0  0  0
   -3.5500   17.3960  -35.5630 N   0  0  0  0  0
    1.3450   17.0560  -33.7190 C   0  0  0  0  0
   -0.9240   17.7060  -33.1890 C   0  0  0  0  0
   -0.7300   17.3500  -31.8510 C   0  0  0  0  0
    2.7880   16.2340  -32.0480 O   0  0  0  0  0
    2.3560   17.1290  -35.9750 C   0  0  0  0  0
   -3.0530   16.0150  -33.8770 O   0  0  0  0  0
   -7.1940    7.3360  -33.7360 O   0  0  0  0  0
   -4.5910    7.5970  -32.9640 O   0  0  0  0  0
   -3.1930    7.3090  -32.7850 C   0  0  0  0  0
   -8.5690    7.1720  -34.1300 C   0  0  0  0  0
  -10.1763   11.1941  -38.7419 H   0  0  0  0  0
   -9.1499   13.0360  -40.0471 H   0  0  0  0  0
   -7.5195   14.5831  -38.9709 H   0  0  0  0  0
   -5.2702   14.2830  -37.8249 H   0  0  0  0  0
   -8.0596   12.4930  -35.2353 H   0  0  0  0  0
   -3.4135   10.2146  -37.5702 H   0  0  0  0  0
   -2.8443   10.9509  -36.0041 H   0  0  0  0  0
   -3.1282    9.2637  -34.4663 H   0  0  0  0  0
    0.6736   16.5904  -30.4060 H   0  0  0  0  0
   -0.0437   17.9009  -35.1417 H   0  0  0  0  0
    2.9181   16.6878  -30.0243 H   0  0  0  0  0
    2.4229   15.0194  -30.4019 H   0  0  0  0  0
    4.1187   15.5164  -30.6223 H   0  0  0  0  0
   -2.8568   18.5317  -32.7646 H   0  0  0  0  0
   -2.1462   19.0829  -34.2882 H   0  0  0  0  0
   -7.8698    8.8231  -35.8504 H   0  0  0  0  0
   -9.6515   10.9236  -36.3308 H   0  0  0  0  0
   -7.0075   15.6168  -36.6184 H   0  0  0  0  0
   -6.8787   14.4574  -35.2529 H   0  0  0  0  0
   -4.0540   14.9180  -35.1537 H   0  0  0  0  0
   -4.3164   12.2602  -38.0403 H   0  0  0  0  0
   -6.2999   10.1711  -37.2221 H   0  0  0  0  0
   -4.3802   17.9719  -37.8190 H   0  0  0  0  0
   -1.5385   17.4621  -31.1286 H   0  0  0  0  0
    1.6135   16.4676  -36.4215 H   0  0  0  0  0
    2.0774   18.1667  -36.1586 H   0  0  0  0  0
    3.3331   16.9304  -36.4155 H   0  0  0  0  0
   -2.8365    6.7100  -33.6230 H   0  0  0  0  0
   -2.6336    8.2435  -32.7407 H   0  0  0  0  0
   -3.0533    6.7560  -31.8561 H   0  0  0  0  0
   -9.0736    8.1375  -34.0940 H   0  0  0  0  0
   -8.6101    6.7768  -35.1450 H   0  0  0  0  0
   -9.0607    6.4780  -33.4483 H   0  0  0  0  0
  2  1  4  0  0  0
 21  1  4  0  0  0
  3  2  4  0  0  0
 20  3  4  0  0  0
  4  5  1  0  0  0
  4 22  1  0  0  0
 23  4  1  0  0  0
  5 24  2  0  0  0
  5 25  1  0  0  0
 20  6  4  0  0  0
  6 21  4  0  0  0
  7  8  1  0  0  0
 25  7  1  0  0  0
  8  9  4  0  0  0
  8 26  4  0  0  0
  9 10  4  0  0  0
 10 19  4  0  0  0
 10 37  1  0  0  0
 12 11  4  0  0  0
 11 32  4  0  0  0
 30 12  4  0  0  0
 12 33  1  0  0  0
 13 30  4  0  0  0
 31 13  4  0  0  0
 30 14  1  0  0  0
 14 34  1  0  0  0
 33 15  1  0  0  0
 17 16  1  0  0  0
 16 31  1  0  0  0
 29 17  1  0  0  0
 17 35  2  0  0  0
 18 19  4  0  0  0
 26 18  4  0  0  0
 19 36  1  0  0  0
 22 20  1  0  0  0
 27 23  1  0  0  0
 27 28  2  0  0  0
 27 29  4  0  0  0
 31 32  4  0  0  0
 36 39  1  0  0  0
 37 38  1  0  0  0
  1 40  1  0  0  0
  2 41  1  0  0  0
  3 42  1  0  0  0
  4 43  1  0  0  0
  6 44  1  0  0  0
  7 45  1  0  0  0
  7 46  1  0  0  0
  9 47  1  0  0  0
 11 48  1  0  0  0
 13 49  1  0  0  0
 15 50  1  0  0  0
 15 51  1  0  0  0
 15 52  1  0  0  0
 16 53  1  0  0  0
 16 54  1  0  0  0
 18 55  1  0  0  0
 21 56  1  0  0  0
 22 57  1  0  0  0
 22 58  1  0  0  0
 23 59  1  0  0  0
 25 60  1  0  0  0
 26 61  1  0  0  0
 28 62  1  0  0  0
 32 63  1  0  0  0
 34 64  1  0  0  0
 34 65  1  0  0  0
 34 66  1  0  0  0
 38 67  1  0  0  0
 38 68  1  0  0  0
 38 69  1  0  0  0
 39 70  1  0  0  0
 39 71  1  0  0  0
 39 72  1  0  0  0
M  END
$$$$
