1w1p_ligand
  -I-interpret- 

 21 22  0  0  0  0  0  0  0  0999 V2000
   15.9870   43.6500  101.1850 O   0  0  0  0  0
   16.9460   43.5230  101.9460 C   0  0  0  0  0
   17.3080   44.6340  102.9360 C   0  0  0  0  0
   17.0650   46.0150  102.3230 C   0  0  0  0  0
   17.8910   46.8710  103.2870 C   0  0  0  0  0
   19.2180   46.1080  103.3300 C   0  0  0  0  0
   18.7570   44.7080  103.1820 N   0  0  0  0  0
   19.5130   43.5290  103.1500 C   0  0  0  0  0
   20.7240   43.5790  103.3540 O   0  0  0  0  0
   18.8510   42.1780  102.8620 C   0  0  0  0  0
   17.7320   42.3640  101.9090 N   0  0  0  0  0
   16.7148   44.4053  103.8214 H   0  0  0  0  0
   16.0157   46.3002  102.2475 H   0  0  0  0  0
   17.3532   46.1041  101.2756 H   0  0  0  0  0
   17.4277   46.9882  104.2666 H   0  0  0  0  0
   17.9978   47.9062  102.9630 H   0  0  0  0  0
   19.7942   46.2845  104.2383 H   0  0  0  0  0
   19.9256   46.4185  102.5612 H   0  0  0  0  0
   18.4679   41.7576  103.7918 H   0  0  0  0  0
   19.5863   41.5002  102.4284 H   0  0  0  0  0
   17.5318   41.6404  101.2185 H   0  0  0  0  0
  1  2  2  0  0  0
  2  3  1  0  0  0
  2 11  1  0  0  0
  3  4  1  0  0  0
  3  7  1  0  0  0
  4  5  1  0  0  0
  5  6  1  0  0  0
  6  7  1  0  0  0
  7  8  1  0  0  0
  8  9  2  0  0  0
  8 10  1  0  0  0
 10 11  1  0  0  0
  3 12  1  0  0  0
  4 13  1  0  0  0
  4 14  1  0  0  0
  5 15  1  0  0  0
  5 16  1  0  0  0
  6 17  1  0  0  0
  6 18  1  0  0  0
 10 19  1  0  0  0
 10 20  1  0  0  0
 11 21  1  0  0  0
M  END
$$$$
