1dl7_ligand
  -I-interpret- 

 38 38  0  0  0  0  0  0  0  0999 V2000
  106.0490   23.8740   17.7300 O   0  0  0  0  0
  106.5490   23.7800   19.1090 P   0  0  0  0  0
  107.4320   22.6010   19.2430 O   0  0  0  0  0
  107.3350   25.0890   19.4760 O   0  0  0  0  0
  105.3290   23.5560   20.1330 O   0  0  0  0  0
  104.4020   22.5820   19.6700 C   0  0  0  0  0
  103.8450   21.7860   20.8170 C   0  0  0  0  0
  102.5080   21.2700   20.3740 N   0  3  0  0  0
  102.6780   20.2140   19.3010 C   0  0  0  0  0
  101.6490   22.4260   19.9000 C   0  0  0  0  0
  101.8120   20.4330   21.4370 C   0  0  0  0  0
  107.3880   28.2420   16.4320 C   0  0  0  0  0
  107.3880   29.2840   15.4390 N   0  0  0  0  0
  108.6020   29.8800   15.0700 O   0  0  0  0  0
  106.1330   29.6270   14.9180 O   0  0  0  0  0
  108.5520   27.8280   17.0170 C   0  0  0  0  0
  108.5220   26.8300   17.9650 C   0  0  0  0  0
  107.3380   26.2260   18.3450 C   0  0  0  0  0
  106.1800   26.6650   17.7510 C   0  0  0  0  0
  106.2120   27.6680   16.7950 C   0  0  0  0  0
  107.7550   22.5454   20.1453 H   0  0  0  0  0
  104.9161   21.9038   18.9889 H   0  0  0  0  0
  103.5813   23.0908   19.1645 H   0  0  0  0  0
  103.7464   22.4056   21.7083 H   0  0  0  0  0
  104.5112   20.9641   21.0793 H   0  0  0  0  0
  103.1931   20.6482   18.4441 H   0  0  0  0  0
  103.2649   19.3857   19.6979 H   0  0  0  0  0
  101.6978   19.8511   18.9917 H   0  0  0  0  0
  101.5122   23.1343   20.7171 H   0  0  0  0  0
  102.1410   22.9239   19.0645 H   0  0  0  0  0
  100.6784   22.0480   19.5788 H   0  0  0  0  0
  102.4339   19.5729   21.6852 H   0  0  0  0  0
  101.6547   21.0389   22.3293 H   0  0  0  0  0
  100.8505   20.0896   21.0553 H   0  0  0  0  0
  109.4998   28.2860   16.7342 H   0  0  0  0  0
  109.4551   26.5081   18.4274 H   0  0  0  0  0
  105.2261   26.2201   18.0343 H   0  0  0  0  0
  105.2837   27.9995   16.3297 H   0  0  0  0  0
  1  2  2  0  0  0
  2  5  1  0  0  0
  2  4  1  0  0  0
  2  3  1  0  0  0
  4 18  1  0  0  0
 18 19  4  0  0  0
 18 17  4  0  0  0
 17 16  4  0  0  0
 16 12  4  0  0  0
 12 20  4  0  0  0
 12 13  1  0  0  0
 13 15  2  0  0  0
 13 14  2  0  0  0
 20 19  4  0  0  0
  5  6  1  0  0  0
  6  7  1  0  0  0
  7  8  1  0  0  0
  8 11  1  0  0  0
  8 10  1  0  0  0
  8  9  1  0  0  0
  3 21  1  0  0  0
  6 22  1  0  0  0
  6 23  1  0  0  0
  7 24  1  0  0  0
  7 25  1  0  0  0
  9 26  1  0  0  0
  9 27  1  0  0  0
  9 28  1  0  0  0
 10 29  1  0  0  0
 10 30  1  0  0  0
 10 31  1  0  0  0
 11 32  1  0  0  0
 11 33  1  0  0  0
 11 34  1  0  0  0
 16 35  1  0  0  0
 17 36  1  0  0  0
 19 37  1  0  0  0
 20 38  1  0  0  0
M  END
$$$$
