4pft_ligand
  -I-interpret- 

 43 44  0  0  0  0  0  0  0  0999 V2000
  123.7010  102.7260   11.4060 C   0  0  0  0  0
  125.0530  102.4110   11.9460 C   0  0  0  0  0
  124.6340  101.0740   12.4780 C   0  0  0  0  0
  123.4910  101.2310   13.4760 C   0  0  0  0  0
  122.3170  101.9960   12.8860 C   0  0  0  0  0
  121.1480  102.1940   13.8260 C   0  0  0  0  0
  125.4320  103.2300   13.0600 O   0  0  0  0  0
  125.7570  100.3940   13.0460 O   0  0  0  0  0
  123.0260   99.8930   13.8420 O   0  0  0  0  0
  122.7650  103.3120   12.3800 O   0  0  0  0  0
  120.0360  102.7660   13.1300 O   0  0  0  0  0
  123.2900   99.6360   15.2030 C   0  0  0  0  0
  122.4980   98.4410   15.6730 C   0  0  0  0  0
  122.8670   98.0690   17.0860 C   0  0  0  0  0
  124.3550   97.8870   17.2660 C   0  0  0  0  0
  125.0790   99.1400   16.7530 C   0  0  0  0  0
  126.5810   99.1050   16.8720 C   0  0  0  0  0
  122.7880   97.3460   14.7400 O   0  0  0  0  0
  122.1850   96.8290   17.4490 O   0  0  0  0  0
  124.6470   97.7060   18.6600 O   0  0  0  0  0
  124.7430   99.3860   15.3630 O   0  0  0  0  0
  127.1250   97.9720   16.1940 O   0  0  0  0  0
  123.5320  103.0340   10.1080 O   0  0  0  0  0
  125.8867  102.5098   11.2509 H   0  0  0  0  0
  124.2621  100.4612   11.6569 H   0  0  0  0  0
  123.8609  101.7894   14.3359 H   0  0  0  0  0
  121.9495  101.3673   12.0750 H   0  0  0  0  0
  121.4487  102.8685   14.6277 H   0  0  0  0  0
  120.8521  101.2265   14.2316 H   0  0  0  0  0
  125.7049  104.0939   12.7424 H   0  0  0  0  0
  126.4503  100.3172   12.3864 H   0  0  0  0  0
  119.3046  102.8845   13.7404 H   0  0  0  0  0
  122.9947  100.4951   15.8054 H   0  0  0  0  0
  121.4308   98.6626   15.6837 H   0  0  0  0  0
  122.5561   98.8892   17.7331 H   0  0  0  0  0
  124.6900   97.0128   16.7077 H   0  0  0  0  0
  124.7282   99.9406   17.4042 H   0  0  0  0  0
  126.8455   99.0397   17.9274 H   0  0  0  0  0
  126.9875  100.0098   16.4202 H   0  0  0  0  0
  122.3004   96.5630   15.0059 H   0  0  0  0  0
  122.4177   96.5887   18.3488 H   0  0  0  0  0
  125.5930   97.5902   18.7752 H   0  0  0  0  0
  128.0806   97.9742   16.2855 H   0  0  0  0  0
  1  2  1  0  0  0
  1 10  1  0  0  0
  1 23  2  0  0  0
  2  3  1  0  0  0
  2  7  1  0  0  0
  3  4  1  0  0  0
  3  8  1  0  0  0
  4  5  1  0  0  0
  4  9  1  0  0  0
  5  6  1  0  0  0
  5 10  1  0  0  0
  6 11  1  0  0  0
  9 12  1  0  0  0
 12 13  1  0  0  0
 12 21  1  0  0  0
 13 14  1  0  0  0
 13 18  1  0  0  0
 14 15  1  0  0  0
 14 19  1  0  0  0
 15 16  1  0  0  0
 15 20  1  0  0  0
 16 17  1  0  0  0
 16 21  1  0  0  0
 17 22  1  0  0  0
  2 24  1  0  0  0
  3 25  1  0  0  0
  4 26  1  0  0  0
  5 27  1  0  0  0
  6 28  1  0  0  0
  6 29  1  0  0  0
  7 30  1  0  0  0
  8 31  1  0  0  0
 11 32  1  0  0  0
 12 33  1  0  0  0
 13 34  1  0  0  0
 14 35  1  0  0  0
 15 36  1  0  0  0
 16 37  1  0  0  0
 17 38  1  0  0  0
 17 39  1  0  0  0
 18 40  1  0  0  0
 19 41  1  0  0  0
 20 42  1  0  0  0
 22 43  1  0  0  0
M  END
$$$$
