### 
### Created by X-TOOL on Mon Sep 10 21:13:14 2018
### 

@<TRIPOS>MOLECULE
4mdt_ligand
  102   104     1     0     0
SMALL
GAST_HUCK


@<TRIPOS>ATOM
      1 C36        29.0680  -38.8820  -14.0840 C.2       1 24G         0.0062
      2 C37        30.2910  -38.3450  -14.1230 C.2       1 24G         0.0591
      3 C35        28.5440  -39.4010  -15.3660 C.2       1 24G         0.1822
      4 C33        30.6290  -38.7260  -16.4840 C.2       1 24G         0.3328
      5 C13        37.0830  -43.7490   -8.4160 C.2       1 24G         0.2367
      6 C3         33.8870  -42.7610   -8.1100 C.3       1 24G         0.0667
      7 C2         34.9680  -43.0120   -9.1480 C.3       1 24G         0.1629
      8 C1         34.4520  -43.2170  -10.5830 C.3       1 24G         0.1195
      9 C26        33.6760  -36.0110  -13.8570 C.3       1 24G         0.1149
     10 C27        32.4060  -36.1700  -14.6640 C.3       1 24G         0.1387
     11 C25        34.1070  -37.4230  -13.5190 C.3       1 24G         0.1189
     12 C6         33.3060  -42.2480  -10.8950 C.3       1 24G         0.1139
     13 C28        32.4050  -37.6220  -15.1240 C.3       1 24G         0.2059
     14 C4         32.7220  -41.9110   -8.6240 C.3       1 24G         0.2398
     15 C52        46.7650  -55.1670   -9.8290 C.3       1 24G        -0.0653
     16 C14        37.8970  -44.8310   -7.7560 C.3       1 24G         0.0747
     17 C24        34.0700  -37.6520  -12.0110 C.3       1 24G         0.1128
     18 C7         32.7030  -42.4300  -12.2690 C.3       1 24G         0.0730
     19 C51        45.6520  -54.5250   -9.0290 C.3       1 24G        -0.0559
     20 C50        45.1110  -53.2920   -9.7300 C.3       1 24G        -0.0533
     21 C49        43.5980  -53.3110   -9.8380 C.3       1 24G        -0.0531
     22 C48        43.0090  -52.5180   -8.6950 C.3       1 24G        -0.0531
     23 C47        41.8580  -51.6650   -9.1580 C.3       1 24G        -0.0531
     24 C46        41.2460  -50.9420   -7.9750 C.3       1 24G        -0.0531
     25 C45        39.7930  -50.5490   -8.1650 C.3       1 24G        -0.0531
     26 C44        39.4750  -49.3200   -7.3370 C.3       1 24G        -0.0530
     27 C43        38.4910  -48.3880   -8.0210 C.3       1 24G        -0.0506
     28 C42        38.2210  -47.1880   -7.1400 C.3       1 24G        -0.0246
     29 C40        37.2690  -46.2090   -7.7870 C.3       1 24G         0.0732
     30 N34        29.3600  -39.2740  -16.4680 N.am      1 24G        -0.1865
     31 N32        31.0800  -38.2410  -15.2490 N.am      1 24G        -0.1592
     32 N11        34.5190  -42.1520   -6.9520 N.4       1 24G         0.2268
     33 O39        27.4350  -39.9050  -15.3980 O.2       1 24G        -0.4124
     34 O38        31.2670  -38.6920  -17.5330 O.2       1 24G        -0.3815
     35 O15        37.5870  -42.6650   -8.6850 O.2       1 24G        -0.3703
     36 O18        31.9720  -38.3380   -7.2440 O.co2     1 24G        -0.6127
     37 O21        32.4760  -36.6150   -9.5080 O.co2     1 24G        -0.6127
     38 O29        33.2630  -38.3480  -14.2240 O.3       1 24G        -0.3363
     39 O5         32.2670  -42.3550   -9.9170 O.3       1 24G        -0.3342
     40 O9         35.5170  -42.9140  -11.4830 O.3       1 24G        -0.3860
     41 O30        34.7150  -35.3640  -14.5830 O.3       1 24G        -0.3864
     42 O31        32.3040  -35.2380  -15.7390 O.3       1 24G        -0.3836
     43 O8         31.6840  -41.4590  -12.4350 O.3       1 24G        -0.3924
     44 O41        36.0950  -46.1680   -6.9840 O.3       1 24G        -0.3893
     45 O17        30.3770  -40.3390   -7.8780 O.co2     1 24G        -0.6127
     46 O22        30.5100  -37.1890  -11.2170 O.co2     1 24G        -0.6127
     47 O10        35.7710  -44.1030   -8.6670 O.3       1 24G        -0.2649
     48 O12        32.9640  -40.5000   -8.4860 O.3       1 24G        -0.2122
     49 O23        32.8610  -38.2890  -11.6220 O.3       1 24G        -0.2476
     50 O19        31.3750  -38.9590   -9.7030 O.3       1 24G        -0.1318
     51 P16        31.7170  -39.4680   -8.2110 P.3       1 24G         0.2998
     52 P20        31.8940  -37.6310  -10.4670 P.3       1 24G         0.2972
     53 H1         28.4908  -38.9344  -13.1620 H         1 24G         0.0258
     54 H2         30.6975  -37.9581  -13.1897 H         1 24G         0.1178
     55 H3         33.4727  -43.7345   -7.8089 H         1 24G         0.0935
     56 H4         35.6068  -42.1170   -9.1786 H         1 24G         0.0736
     57 H5         34.1153  -44.2558  -10.7155 H         1 24G         0.0652
     58 H6         33.4681  -35.4393  -12.9406 H         1 24G         0.0648
     59 H7         31.5414  -36.0050  -14.0043 H         1 24G         0.0676
     60 H8         35.1426  -37.5669  -13.8608 H         1 24G         0.0651
     61 H9         33.7196  -41.2299  -10.8464 H         1 24G         0.0647
     62 H10        32.8581  -37.6511  -16.1259 H         1 24G         0.0997
     63 H11        31.8829  -42.1179   -7.9435 H         1 24G         0.1032
     64 H12        47.1345  -56.0553   -9.2957 H         1 24G         0.0230
     65 H13        47.5872  -54.4474   -9.9564 H         1 24G         0.0230
     66 H14        46.3822  -55.4650  -10.8162 H         1 24G         0.0230
     67 H15        38.0512  -44.5492   -6.7040 H         1 24G         0.0544
     68 H16        38.8695  -44.8870   -8.2670 H         1 24G         0.0544
     69 H17        34.1467  -36.6820  -11.4979 H         1 24G         0.0648
     70 H18        34.9203  -38.2876  -11.7227 H         1 24G         0.0648
     71 H19        32.2743  -43.4391  -12.3573 H         1 24G         0.0584
     72 H20        33.4779  -42.2923  -13.0375 H         1 24G         0.0584
     73 H21        46.0413  -54.2345   -8.0421 H         1 24G         0.0263
     74 H22        44.8363  -55.2520   -8.9019 H         1 24G         0.0263
     75 H23        45.5377  -53.2445  -10.7427 H         1 24G         0.0265
     76 H24        45.4143  -52.4001   -9.1621 H         1 24G         0.0265
     77 H25        43.2385  -54.3494   -9.7891 H         1 24G         0.0265
     78 H26        43.2916  -52.8615  -10.7941 H         1 24G         0.0265
     79 H27        43.7884  -51.8684   -8.2702 H         1 24G         0.0265
     80 H28        42.6510  -53.2144   -7.9225 H         1 24G         0.0265
     81 H29        41.0965  -52.3038   -9.6292 H         1 24G         0.0265
     82 H30        42.2210  -50.9273   -9.8887 H         1 24G         0.0265
     83 H31        41.8288  -50.0273   -7.7916 H         1 24G         0.0265
     84 H32        41.3122  -51.6012   -7.0969 H         1 24G         0.0265
     85 H33        39.1464  -51.3799   -7.8464 H         1 24G         0.0265
     86 H34        39.6111  -50.3293   -9.2274 H         1 24G         0.0265
     87 H35        40.4093  -48.7698   -7.1515 H         1 24G         0.0265
     88 H36        39.0438  -49.6440   -6.3783 H         1 24G         0.0265
     89 H37        37.5485  -48.9243   -8.2056 H         1 24G         0.0266
     90 H38        38.9141  -48.0498   -8.9784 H         1 24G         0.0266
     91 H39        39.1730  -46.6755   -6.9376 H         1 24G         0.0292
     92 H40        37.7827  -47.5352   -6.1927 H         1 24G         0.0292
     93 H41        37.0345  -46.5104   -8.8186 H         1 24G         0.0620
     94 H42        29.0007  -39.6098  -17.3387 H         1 24G         0.2259
     95 H43        35.2797  -42.7347   -6.6391 H         1 24G         0.2000
     96 H44        33.8422  -42.0566   -6.2111 H         1 24G         0.2000
     97 H45        34.8736  -41.2423   -7.2023 H         1 24G         0.2000
     98 H46        36.2469  -43.4987  -11.3164 H         1 24G         0.2100
     99 H47        34.4466  -34.4780  -14.7960 H         1 24G         0.2100
    100 H48        33.0410  -35.3530  -16.3273 H         1 24G         0.2101
    101 H49        31.0199  -41.5811  -11.7668 H         1 24G         0.2095
    102 H50        35.4733  -45.5590   -7.3649 H         1 24G         0.2100
@<TRIPOS>BOND
     1    2    1 2  
     2    1    3 1  
     3   31    2 1  
     4   30    3 am 
     5    3   33 2  
     6    4   30 am 
     7   31    4 am 
     8    4   34 2  
     9    5   16 1  
    10    5   35 2  
    11   47    5 1  
    12    6    7 1  
    13   14    6 1  
    14    6   32 1  
    15    7    8 1  
    16    7   47 1  
    17   12    8 1  
    18    8   40 1  
    19    9   10 1  
    20   11    9 1  
    21    9   41 1  
    22   13   10 1  
    23   10   42 1  
    24   17   11 1  
    25   11   38 1  
    26   12   18 1  
    27   39   12 1  
    28   13   31 1  
    29   38   13 1  
    30   14   39 1  
    31   48   14 1  
    32   19   15 1  
    33   16   29 1  
    34   49   17 1  
    35   18   43 1  
    36   20   19 1  
    37   21   20 1  
    38   22   21 1  
    39   23   22 1  
    40   24   23 1  
    41   25   24 1  
    42   26   25 1  
    43   27   26 1  
    44   28   27 1  
    45   29   28 1  
    46   29   44 1  
    47   51   36 ar 
    48   52   37 ar 
    49   51   45 ar 
    50   52   46 ar 
    51   51   48 1  
    52   52   49 1  
    53   50   51 1  
    54   50   52 1  
    55    1   53 1  
    56    2   54 1  
    57    6   55 1  
    58    7   56 1  
    59    8   57 1  
    60    9   58 1  
    61   10   59 1  
    62   11   60 1  
    63   12   61 1  
    64   13   62 1  
    65   14   63 1  
    66   15   64 1  
    67   15   65 1  
    68   15   66 1  
    69   16   67 1  
    70   16   68 1  
    71   17   69 1  
    72   17   70 1  
    73   18   71 1  
    74   18   72 1  
    75   19   73 1  
    76   19   74 1  
    77   20   75 1  
    78   20   76 1  
    79   21   77 1  
    80   21   78 1  
    81   22   79 1  
    82   22   80 1  
    83   23   81 1  
    84   23   82 1  
    85   24   83 1  
    86   24   84 1  
    87   25   85 1  
    88   25   86 1  
    89   26   87 1  
    90   26   88 1  
    91   27   89 1  
    92   27   90 1  
    93   28   91 1  
    94   28   92 1  
    95   29   93 1  
    96   30   94 1  
    97   32   95 1  
    98   32   96 1  
    99   32   97 1  
   100   40   98 1  
   101   41   99 1  
   102   42  100 1  
   103   43  101 1  
   104   44  102 1  
@<TRIPOS>SUBSTRUCTURE
     1 24G         1

