4mdt_ligand
  -I-interpret- 

104106  0  0  0  0  0  0  0  0999 V2000
   29.0680  -38.8820  -14.0840 C   0  0  0  0  0
   30.2910  -38.3450  -14.1230 C   0  0  0  0  0
   28.5440  -39.4010  -15.3660 C   0  0  0  0  0
   30.6290  -38.7260  -16.4840 C   0  0  0  0  0
   37.0830  -43.7490   -8.4160 C   0  0  0  0  0
   33.8870  -42.7610   -8.1100 C   0  0  0  0  0
   34.9680  -43.0120   -9.1480 C   0  0  0  0  0
   34.4520  -43.2170  -10.5830 C   0  0  0  0  0
   33.6760  -36.0110  -13.8570 C   0  0  0  0  0
   32.4060  -36.1700  -14.6640 C   0  0  0  0  0
   34.1070  -37.4230  -13.5190 C   0  0  0  0  0
   33.3060  -42.2480  -10.8950 C   0  0  0  0  0
   32.4050  -37.6220  -15.1240 C   0  0  0  0  0
   32.7220  -41.9110   -8.6240 C   0  0  0  0  0
   46.7650  -55.1670   -9.8290 C   0  0  0  0  0
   37.8970  -44.8310   -7.7560 C   0  0  0  0  0
   34.0700  -37.6520  -12.0110 C   0  0  0  0  0
   32.7030  -42.4300  -12.2690 C   0  0  0  0  0
   45.6520  -54.5250   -9.0290 C   0  0  0  0  0
   45.1110  -53.2920   -9.7300 C   0  0  0  0  0
   43.5980  -53.3110   -9.8380 C   0  0  0  0  0
   43.0090  -52.5180   -8.6950 C   0  0  0  0  0
   41.8580  -51.6650   -9.1580 C   0  0  0  0  0
   41.2460  -50.9420   -7.9750 C   0  0  0  0  0
   39.7930  -50.5490   -8.1650 C   0  0  0  0  0
   39.4750  -49.3200   -7.3370 C   0  0  0  0  0
   38.4910  -48.3880   -8.0210 C   0  0  0  0  0
   38.2210  -47.1880   -7.1400 C   0  0  0  0  0
   37.2690  -46.2090   -7.7870 C   0  0  0  0  0
   29.3600  -39.2740  -16.4680 N   0  0  0  0  0
   31.0800  -38.2410  -15.2490 N   0  0  0  0  0
   34.5190  -42.1520   -6.9520 N   0  3  0  0  0
   27.4350  -39.9050  -15.3980 O   0  0  0  0  0
   31.2670  -38.6920  -17.5330 O   0  0  0  0  0
   37.5870  -42.6650   -8.6850 O   0  0  0  0  0
   31.9720  -38.3380   -7.2440 O   0  0  0  0  0
   32.4760  -36.6150   -9.5080 O   0  0  0  0  0
   33.2630  -38.3480  -14.2240 O   0  0  0  0  0
   32.2670  -42.3550   -9.9170 O   0  0  0  0  0
   35.5170  -42.9140  -11.4830 O   0  0  0  0  0
   34.7150  -35.3640  -14.5830 O   0  0  0  0  0
   32.3040  -35.2380  -15.7390 O   0  0  0  0  0
   31.6840  -41.4590  -12.4350 O   0  0  0  0  0
   36.0950  -46.1680   -6.9840 O   0  0  0  0  0
   30.3770  -40.3390   -7.8780 O   0  0  0  0  0
   30.5100  -37.1890  -11.2170 O   0  0  0  0  0
   35.7710  -44.1030   -8.6670 O   0  0  0  0  0
   32.9640  -40.5000   -8.4860 O   0  0  0  0  0
   32.8610  -38.2890  -11.6220 O   0  0  0  0  0
   31.3750  -38.9590   -9.7030 O   0  0  0  0  0
   31.7170  -39.4680   -8.2110 P   0  0  0  0  0
   31.8940  -37.6310  -10.4670 P   0  0  0  0  0
   28.4903  -38.9345  -13.1612 H   0  0  0  0  0
   30.6979  -37.9578  -13.1889 H   0  0  0  0  0
   33.4320  -43.7162   -7.8481 H   0  0  0  0  0
   35.5728  -42.1113   -9.2534 H   0  0  0  0  0
   34.1011  -44.2438  -10.6863 H   0  0  0  0  0
   33.4889  -35.3891  -12.9816 H   0  0  0  0  0
   31.5242  -35.9461  -14.0637 H   0  0  0  0  0
   35.1380  -37.5824  -13.8349 H   0  0  0  0  0
   33.7583  -41.2566  -10.8686 H   0  0  0  0  0
   32.7774  -37.6553  -16.1479 H   0  0  0  0  0
   31.8638  -42.0757   -7.9725 H   0  0  0  0  0
   46.3844  -55.4617  -10.8070 H   0  0  0  0  0
   47.5790  -54.4530   -9.9546 H   0  0  0  0  0
   47.1303  -56.0470   -9.2996 H   0  0  0  0  0
   37.9990  -44.5539   -6.7067 H   0  0  0  0  0
   38.8360  -44.8994   -8.3053 H   0  0  0  0  0
   34.1337  -36.6865  -11.5091 H   0  0  0  0  0
   34.9074  -38.2924  -11.7340 H   0  0  0  0  0
   32.2861  -43.4324  -12.3665 H   0  0  0  0  0
   33.4687  -42.3056  -13.0347 H   0  0  0  0  0
   46.0490  -54.2269   -8.0586 H   0  0  0  0  0
   44.8420  -55.2461   -8.9199 H   0  0  0  0  0
   45.5225  -53.2679  -10.7390 H   0  0  0  0  0
   45.3982  -52.4171   -9.1467 H   0  0  0  0  0
   43.2407  -54.3397   -9.7922 H   0  0  0  0  0
   43.2931  -52.8681  -10.7861 H   0  0  0  0  0
   43.7829  -51.8664   -8.2892 H   0  0  0  0  0
   42.6434  -53.2149   -7.9409 H   0  0  0  0  0
   41.1031  -52.2997   -9.6222 H   0  0  0  0  0
   42.2198  -50.9328   -9.8799 H   0  0  0  0  0
   41.8113  -50.0205   -7.8356 H   0  0  0  0  0
   41.2844  -51.6258   -7.1271 H   0  0  0  0  0
   39.1543  -51.3721   -7.8444 H   0  0  0  0  0
   39.6164  -50.3274   -9.2175 H   0  0  0  0  0
   40.4041  -48.7708   -7.1845 H   0  0  0  0  0
   39.0237  -49.6545   -6.4029 H   0  0  0  0  0
   37.5567  -48.9201   -8.2000 H   0  0  0  0  0
   38.9133  -48.0513   -8.9678 H   0  0  0  0  0
   39.1671  -46.6760   -6.9643 H   0  0  0  0  0
   37.7671  -47.5417   -6.2143 H   0  0  0  0  0
   37.0467  -46.5034   -8.8127 H   0  0  0  0  0
   28.9935  -39.6166  -17.3561 H   0  0  0  0  0
   33.8143  -41.9719   -6.2369 H   0  0  0  0  0
   35.2277  -42.7848   -6.5809 H   0  0  0  0  0
   34.9571  -41.2733   -7.2281 H   0  0  0  0  0
   35.2156  -43.0358  -12.3863 H   0  0  0  0  0
   35.4939  -35.2893  -14.0268 H   0  0  0  0  0
   31.4823  -35.3862  -16.2127 H   0  0  0  0  0
   31.2876  -41.5581  -13.3037 H   0  0  0  0  0
   35.6765  -47.0320   -6.9867 H   0  0  0  0  0
   30.2794  -41.0361   -8.5308 H   0  0  0  0  0
   30.2234  -37.8959  -11.7999 H   0  0  0  0  0
  2  1  2  0  0  0
  1  3  1  0  0  0
 31  2  1  0  0  0
 30  3  1  0  0  0
  3 33  2  0  0  0
  4 30  1  0  0  0
 31  4  1  0  0  0
  4 34  2  0  0  0
  5 16  1  0  0  0
  5 35  2  0  0  0
 47  5  1  0  0  0
  6  7  1  0  0  0
 14  6  1  0  0  0
  6 32  1  0  0  0
  7  8  1  0  0  0
  7 47  1  0  0  0
 12  8  1  0  0  0
  8 40  1  0  0  0
  9 10  1  0  0  0
 11  9  1  0  0  0
  9 41  1  0  0  0
 13 10  1  0  0  0
 10 42  1  0  0  0
 17 11  1  0  0  0
 11 38  1  0  0  0
 12 18  1  0  0  0
 39 12  1  0  0  0
 13 31  1  0  0  0
 38 13  1  0  0  0
 14 39  1  0  0  0
 48 14  1  0  0  0
 19 15  1  0  0  0
 16 29  1  0  0  0
 49 17  1  0  0  0
 18 43  1  0  0  0
 20 19  1  0  0  0
 21 20  1  0  0  0
 22 21  1  0  0  0
 23 22  1  0  0  0
 24 23  1  0  0  0
 25 24  1  0  0  0
 26 25  1  0  0  0
 27 26  1  0  0  0
 28 27  1  0  0  0
 29 28  1  0  0  0
 29 44  1  0  0  0
 51 36  2  0  0  0
 52 37  2  0  0  0
 51 45  1  0  0  0
 52 46  1  0  0  0
 51 48  1  0  0  0
 52 49  1  0  0  0
 50 51  1  0  0  0
 50 52  1  0  0  0
  1 53  1  0  0  0
  2 54  1  0  0  0
  6 55  1  0  0  0
  7 56  1  0  0  0
  8 57  1  0  0  0
  9 58  1  0  0  0
 10 59  1  0  0  0
 11 60  1  0  0  0
 12 61  1  0  0  0
 13 62  1  0  0  0
 14 63  1  0  0  0
 15 64  1  0  0  0
 15 65  1  0  0  0
 15 66  1  0  0  0
 16 67  1  0  0  0
 16 68  1  0  0  0
 17 69  1  0  0  0
 17 70  1  0  0  0
 18 71  1  0  0  0
 18 72  1  0  0  0
 19 73  1  0  0  0
 19 74  1  0  0  0
 20 75  1  0  0  0
 20 76  1  0  0  0
 21 77  1  0  0  0
 21 78  1  0  0  0
 22 79  1  0  0  0
 22 80  1  0  0  0
 23 81  1  0  0  0
 23 82  1  0  0  0
 24 83  1  0  0  0
 24 84  1  0  0  0
 25 85  1  0  0  0
 25 86  1  0  0  0
 26 87  1  0  0  0
 26 88  1  0  0  0
 27 89  1  0  0  0
 27 90  1  0  0  0
 28 91  1  0  0  0
 28 92  1  0  0  0
 29 93  1  0  0  0
 30 94  1  0  0  0
 32 95  1  0  0  0
 32 96  1  0  0  0
 32 97  1  0  0  0
 40 98  1  0  0  0
 41 99  1  0  0  0
 42100  1  0  0  0
 43101  1  0  0  0
 44102  1  0  0  0
 45103  1  0  0  0
 46104  1  0  0  0
M  END
$$$$
