1qw7_ligand
  -I-interpret- 

 35 35  0  0  0  0  0  0  0  0999 V2000
   30.8390   11.0220   -4.8710 C   0  0  0  0  0
   29.4360   11.3290   -4.6990 C   0  0  0  0  0
   28.4050   10.7800   -5.6010 C   0  0  0  0  0
   28.8350    9.9310   -6.6580 C   0  0  0  0  0
   30.1870    9.6320   -6.8170 C   0  0  0  0  0
   31.2150   10.1750   -5.9200 C   0  0  0  0  0
   31.8810   11.6210   -3.9330 C   0  0  0  0  0
   27.8160    9.3660   -7.6080 C   0  0  0  0  0
   34.6050   11.0510   -5.4570 C   0  0  0  0  0
   35.9960   11.4240   -5.1000 C   0  0  0  0  0
   32.1190   15.2480   -5.4460 C   0  0  0  0  0
   31.3440   15.9500   -4.3710 C   0  0  0  0  0
   32.7920   12.8840   -4.4960 P   0  0  0  0  0
   33.7530   12.2560   -5.6230 O   0  0  0  0  0
   31.8390   13.8080   -5.2910 O   0  0  0  0  0
   33.5080   13.5690   -3.4280 O   0  0  0  0  0
   29.1322   11.9831   -3.8817 H   0  0  0  0  0
   27.3502   11.0170   -5.4619 H   0  0  0  0  0
   30.4905    8.9750   -7.6321 H   0  0  0  0  0
   32.2641    9.9201   -6.0701 H   0  0  0  0  0
   32.5898   10.8171   -3.7344 H   0  0  0  0  0
   31.3175   12.0218   -3.0904 H   0  0  0  0  0
   27.0971    8.7642   -7.0520 H   0  0  0  0  0
   27.2970   10.1826   -8.1099 H   0  0  0  0  0
   28.3176    8.7430   -8.3485 H   0  0  0  0  0
   34.1914   10.4397   -4.6549 H   0  0  0  0  0
   34.6220   10.5038   -6.3996 H   0  0  0  0  0
   36.4188   12.0440   -5.8905 H   0  0  0  0  0
   35.9924   11.9805   -4.1628 H   0  0  0  0  0
   36.5950   10.5206   -4.9854 H   0  0  0  0  0
   33.1860   15.4505   -5.3537 H   0  0  0  0  0
   31.8221   15.5994   -6.4342 H   0  0  0  0  0
   30.2812   15.7433   -4.4971 H   0  0  0  0  0
   31.6720   15.5914   -3.3953 H   0  0  0  0  0
   31.5175   17.0238   -4.4420 H   0  0  0  0  0
  1  2  4  0  0  0
  1  6  4  0  0  0
  7  1  1  0  0  0
  2  3  4  0  0  0
  3  4  4  0  0  0
  5  4  4  0  0  0
  4  8  1  0  0  0
  6  5  4  0  0  0
 13  7  1  0  0  0
  9 10  1  0  0  0
 14  9  1  0  0  0
 11 12  1  0  0  0
 15 11  1  0  0  0
 13 14  1  0  0  0
 13 15  1  0  0  0
 13 16  2  0  0  0
  2 17  1  0  0  0
  3 18  1  0  0  0
  5 19  1  0  0  0
  6 20  1  0  0  0
  7 21  1  0  0  0
  7 22  1  0  0  0
  8 23  1  0  0  0
  8 24  1  0  0  0
  8 25  1  0  0  0
  9 26  1  0  0  0
  9 27  1  0  0  0
 10 28  1  0  0  0
 10 29  1  0  0  0
 10 30  1  0  0  0
 11 31  1  0  0  0
 11 32  1  0  0  0
 12 33  1  0  0  0
 12 34  1  0  0  0
 12 35  1  0  0  0
M  END
$$$$
