### 
### Created by X-TOOL on Mon Sep 10 21:13:34 2018
### 

@<TRIPOS>MOLECULE
5myd_ligand
   40    41     1     0     0
SMALL
GAST_HUCK


@<TRIPOS>ATOM
      1 O4         -2.0330   75.5550   39.8560 O.2       1 DUP        -0.4124
      2 C4         -2.0890   74.3190   40.0610 C.2       1 DUP         0.1822
      3 C5         -1.5200   73.7780   41.2090 C.2       1 DUP         0.0062
      4 C6         -1.5630   72.4050   41.4470 C.2       1 DUP         0.0590
      5 N3         -2.6910   73.5040   39.1840 N.am      1 DUP        -0.1865
      6 C2         -2.7460   72.1750   39.3970 C.2       1 DUP         0.3327
      7 O2         -3.3180   71.4540   38.5520 O.2       1 DUP        -0.3815
      8 N1         -2.1650   71.5900   40.5600 N.am      1 DUP        -0.1618
      9 C1'        -2.2450   70.1270   40.7430 C.3       1 DUP         0.1800
     10 C2'        -1.4420   69.4140   39.6550 C.3       1 DUP         0.0316
     11 C3'        -0.6900   68.2930   40.3410 C.3       1 DUP         0.0890
     12 O3'        -1.3460   67.0380   40.1190 O.3       1 DUP        -0.3889
     13 O4'        -1.7240   69.6560   41.9960 O.3       1 DUP        -0.3386
     14 C4'        -0.7050   68.6590   41.8160 C.3       1 DUP         0.1166
     15 C5'         0.6400   69.2100   42.2680 C.3       1 DUP         0.1132
     16 O5'         0.4830   69.8820   43.5150 O.3       1 DUP        -0.2529
     17 PA          1.5130   69.6540   44.7250 P.3       1 DUP         0.2362
     18 O1A         3.0150   69.8260   44.1640 O.co2     1 DUP        -0.6036
     19 O2A         1.2570   70.6980   45.7440 O.co2     1 DUP        -0.6036
     20 N3A         1.2320   68.0790   45.4480 N.am      1 DUP        -0.1581
     21 PB          2.2200   66.6640   45.1220 P.3       1 DUP         0.2871
     22 O1B         3.0080   66.8530   43.8790 O.co2     1 DUP        -0.5685
     23 O2B         1.1980   65.4270   44.9200 O.co2     1 DUP        -0.5685
     24 O3B         3.1980   66.3150   46.3790 O.3       1 DUP        -0.1659
     25 PG          4.6170   67.0170   46.7810 P.3       1 DUP         0.2047
     26 O2G         5.6310   66.6290   45.7280 O.co2     1 DUP        -0.5893
     27 O1G         4.3130   68.4880   46.8140 O.co2     1 DUP        -0.5893
     28 O3G         4.9110   66.4270   48.1330 O.co2     1 DUP        -0.5893
     29 H1         -1.0353   74.4344   41.9302 H         1 DUP         0.0258
     30 H2         -1.1109   71.9927   42.3479 H         1 DUP         0.1178
     31 H3         -3.1056   73.8882   38.3591 H         1 DUP         0.2259
     32 H4         -3.3030   69.8351   40.6698 H         1 DUP         0.0970
     33 H5         -0.7353   70.1133   39.1843 H         1 DUP         0.0345
     34 H6         -2.1182   69.0053   38.8897 H         1 DUP         0.0345
     35 H7          0.3434   68.2358   39.9686 H         1 DUP         0.0622
     36 H8         -0.8616   66.3472   40.5556 H         1 DUP         0.2099
     37 H9         -0.9454   67.7671   42.4132 H         1 DUP         0.0650
     38 H10         1.0182   69.9174   41.5153 H         1 DUP         0.0651
     39 H11         1.3548   68.3822   42.3850 H         1 DUP         0.0651
     40 H12         0.4649   67.9819   46.0822 H         1 DUP         0.2175
@<TRIPOS>BOND
     1    1    2 2  
     2    2    3 1  
     3    2    5 am 
     4    3    4 2  
     5    4    8 1  
     6    5    6 am 
     7    6    7 2  
     8    6    8 am 
     9    8    9 1  
    10    9   10 1  
    11    9   13 1  
    12   10   11 1  
    13   11   12 1  
    14   11   14 1  
    15   13   14 1  
    16   14   15 1  
    17   15   16 1  
    18   16   17 1  
    19   17   18 ar 
    20   17   19 ar 
    21   17   20 am 
    22   20   21 1  
    23   21   22 ar 
    24   21   23 ar 
    25   21   24 1  
    26   24   25 1  
    27   25   26 ar 
    28   25   27 ar 
    29   25   28 ar 
    30    3   29 1  
    31    4   30 1  
    32    5   31 1  
    33    9   32 1  
    34   10   33 1  
    35   10   34 1  
    36   11   35 1  
    37   12   36 1  
    38   14   37 1  
    39   15   38 1  
    40   15   39 1  
    41   20   40 1  
@<TRIPOS>SUBSTRUCTURE
     1 DUP         1

