5myd_ligand
  -I-interpret- 

 44 45  0  0  0  0  0  0  0  0999 V2000
   -2.0330   75.5550   39.8560 O   0  0  0  0  0
   -2.0890   74.3190   40.0610 C   0  0  0  0  0
   -1.5200   73.7780   41.2090 C   0  0  0  0  0
   -1.5630   72.4050   41.4470 C   0  0  0  0  0
   -2.6910   73.5040   39.1840 N   0  0  0  0  0
   -2.7460   72.1750   39.3970 C   0  0  0  0  0
   -3.3180   71.4540   38.5520 O   0  0  0  0  0
   -2.1650   71.5900   40.5600 N   0  0  0  0  0
   -2.2450   70.1270   40.7430 C   0  0  0  0  0
   -1.4420   69.4140   39.6550 C   0  0  0  0  0
   -0.6900   68.2930   40.3410 C   0  0  0  0  0
   -1.3460   67.0380   40.1190 O   0  0  0  0  0
   -1.7240   69.6560   41.9960 O   0  0  0  0  0
   -0.7050   68.6590   41.8160 C   0  0  0  0  0
    0.6400   69.2100   42.2680 C   0  0  0  0  0
    0.4830   69.8820   43.5150 O   0  0  0  0  0
    1.5130   69.6540   44.7250 P   0  0  0  0  0
    3.0150   69.8260   44.1640 O   0  0  0  0  0
    1.2570   70.6980   45.7440 O   0  0  0  0  0
    1.2320   68.0790   45.4480 N   0  0  0  0  0
    2.2200   66.6640   45.1220 P   0  0  0  0  0
    3.0080   66.8530   43.8790 O   0  0  0  0  0
    1.1980   65.4270   44.9200 O   0  0  0  0  0
    3.1980   66.3150   46.3790 O   0  0  0  0  0
    4.6170   67.0170   46.7810 P   0  0  0  0  0
    5.6310   66.6290   45.7280 O   0  0  0  0  0
    4.3130   68.4880   46.8140 O   0  0  0  0  0
    4.9110   66.4270   48.1330 O   0  0  0  0  0
   -1.0349   74.4350   41.9309 H   0  0  0  0  0
   -1.1105   71.9923   42.3487 H   0  0  0  0  0
   -3.1139   73.8958   38.3426 H   0  0  0  0  0
   -3.3113   69.9046   40.7015 H   0  0  0  0  0
   -0.7541   70.1019   39.1634 H   0  0  0  0  0
   -2.0987   69.0247   38.8770 H   0  0  0  0  0
    0.3249   68.1818   39.9593 H   0  0  0  0  0
   -0.8565   66.3399   40.5602 H   0  0  0  0  0
   -0.9060   67.7701   42.4140 H   0  0  0  0  0
    1.0148   69.9109   41.5221 H   0  0  0  0  0
    1.3484   68.3897   42.3839 H   0  0  0  0  0
    3.1875   69.1519   43.5026 H   0  0  0  0  0
    0.4496   67.9800   46.0949 H   0  0  0  0  0
    0.6863   65.3018   45.7226 H   0  0  0  0  0
    5.7783   65.6809   45.7611 H   0  0  0  0  0
    5.0955   65.4896   48.0386 H   0  0  0  0  0
  1  2  2  0  0  0
  2  3  1  0  0  0
  2  5  1  0  0  0
  3  4  2  0  0  0
  4  8  1  0  0  0
  5  6  1  0  0  0
  6  7  2  0  0  0
  6  8  1  0  0  0
  8  9  1  0  0  0
  9 10  1  0  0  0
  9 13  1  0  0  0
 10 11  1  0  0  0
 11 12  1  0  0  0
 11 14  1  0  0  0
 13 14  1  0  0  0
 14 15  1  0  0  0
 15 16  1  0  0  0
 16 17  1  0  0  0
 17 18  1  0  0  0
 17 19  2  0  0  0
 17 20  1  0  0  0
 20 21  1  0  0  0
 21 22  2  0  0  0
 21 23  1  0  0  0
 21 24  1  0  0  0
 24 25  1  0  0  0
 25 26  1  0  0  0
 25 27  2  0  0  0
 25 28  1  0  0  0
  3 29  1  0  0  0
  4 30  1  0  0  0
  5 31  1  0  0  0
  9 32  1  0  0  0
 10 33  1  0  0  0
 10 34  1  0  0  0
 11 35  1  0  0  0
 12 36  1  0  0  0
 14 37  1  0  0  0
 15 38  1  0  0  0
 15 39  1  0  0  0
 18 40  1  0  0  0
 20 41  1  0  0  0
 23 42  1  0  0  0
 26 43  1  0  0  0
 28 44  1  0  0  0
M  END
$$$$
