2hm1_ligand
  -I-interpret- 

 88 90  0  0  0  0  0  0  0  0999 V2000
    8.9890   -1.3060   16.7700 C   0  0  0  0  0
   12.9980   -2.6930   18.4070 C   0  0  0  0  0
   14.0650   -4.3850   16.9370 N   0  0  0  0  0
   14.7490   -5.5930   16.4430 C   0  0  0  0  0
   12.3400   -6.4720   16.1240 C   0  0  0  0  0
    9.7520   -6.2670   16.1600 C   0  0  0  0  0
   12.2540   -7.2140   17.4890 C   0  0  0  0  0
   16.1010   -5.2850   15.7960 C   0  0  0  0  0
   17.0230   -4.7990   16.8000 C   0  0  0  0  0
   19.2000   -4.0780   17.5270 C   0  0  0  0  0
   19.8080   -6.7000   17.7130 C   0  0  0  0  0
   20.3670   -9.1630   17.9000 C   0  0  0  0  0
    8.8770   -3.1350   13.4440 C   0  0  0  0  0
   10.1860   -3.1440   12.6670 C   0  0  0  0  0
    8.9550   -2.0370   14.5040 C   0  0  0  0  0
    8.8600   -2.5460   15.9570 C   0  0  0  0  0
   10.5910   -1.3750   17.7340 S   0  0  0  0  0
   11.4130   -0.2940   17.2680 O   0  0  0  0  0
   10.2240   -1.1580   19.1310 O   0  0  0  0  0
   11.6870   -2.8160   17.5990 C   0  0  0  0  0
   13.7550   -3.9860   18.2150 C   0  0  0  0  0
   14.0480   -4.6490   19.2360 O   0  0  0  0  0
   13.7070   -6.1790   15.3980 C   0  0  0  0  0
   11.0730   -6.0150   15.4920 C   0  0  0  0  0
    9.6600   -6.9930   17.5000 C   0  0  0  0  0
   10.9280   -7.4610   18.1510 C   0  0  0  0  0
   16.6300   -6.5100   15.3430 O   0  0  0  0  0
   18.4280   -4.4640   16.3520 N   0  3  0  0  0
   19.4410   -5.3110   18.3870 C   0  0  0  0  0
   20.0110   -7.8510   18.5870 C   0  0  0  0  0
   19.9210   -7.9030   20.0340 C   0  0  0  0  0
   19.5690   -6.5760   20.7210 C   0  0  0  0  0
   19.3300   -5.2900   19.9130 C   0  0  0  0  0
   19.1470   -9.8580   17.3090 C   0  0  0  0  0
   12.6720   -2.3500   19.8250 N   0  0  0  0  0
   13.3510   -1.3590   20.5580 C   0  0  0  0  0
   14.3490   -0.7900   20.1000 O   0  0  0  0  0
   10.8890   -8.0870   19.2920 F   0  0  0  0  0
    8.7010   -5.8520   15.5710 F   0  0  0  0  0
   12.8470   -0.9920   21.9400 C   0  0  0  0  0
   13.5210   -0.0310   22.6710 C   0  0  0  0  0
   13.0710    0.3040   23.9330 N   0  0  0  0  0
   11.9270   -0.2890   24.5550 C   0  0  0  0  0
   11.2130   -1.2890   23.8110 C   0  0  0  0  0
   11.6730   -1.6540   22.4870 C   0  0  0  0  0
    8.1480   -1.2287   17.4591 H   0  0  0  0  0
    8.9912   -0.4350   16.1147 H   0  0  0  0  0
   13.6451   -1.8850   18.0655 H   0  0  0  0  0
   13.7722   -3.7353   16.2073 H   0  0  0  0  0
   15.0025   -6.2908   17.2410 H   0  0  0  0  0
   13.1683   -7.5593   17.9716 H   0  0  0  0  0
   15.9721   -4.5504   15.0011 H   0  0  0  0  0
   17.1296   -5.6113   17.5189 H   0  0  0  0  0
   16.5981   -3.8621   17.1602 H   0  0  0  0  0
   18.6499   -3.3315   18.0999 H   0  0  0  0  0
   20.1547   -3.6532   17.2169 H   0  0  0  0  0
   19.9054   -6.7915   16.6312 H   0  0  0  0  0
   20.8051   -9.8264   18.6457 H   0  0  0  0  0
   21.0566   -8.9412   17.0855 H   0  0  0  0  0
    8.7181   -4.1028   13.9195 H   0  0  0  0  0
    8.0430   -2.9439   12.7687 H   0  0  0  0  0
   10.3312   -2.1742   12.1911 H   0  0  0  0  0
   11.0115   -3.3419   13.3507 H   0  0  0  0  0
   10.1492   -3.9223   11.9048 H   0  0  0  0  0
    8.1051   -1.3742   14.3411 H   0  0  0  0  0
    9.9276   -1.5569   14.3962 H   0  0  0  0  0
    7.9292   -3.0784   16.1527 H   0  0  0  0  0
    9.6292   -3.2814   16.1927 H   0  0  0  0  0
   11.1428   -3.6722   17.9977 H   0  0  0  0  0
   11.9642   -2.9118   16.5492 H   0  0  0  0  0
   14.0987   -7.1043   14.9754 H   0  0  0  0  0
   13.5459   -5.4533   14.6009 H   0  0  0  0  0
   11.1039   -5.4927   14.5358 H   0  0  0  0  0
    8.6938   -7.1675   17.9735 H   0  0  0  0  0
   16.0520   -6.8777   14.6705 H   0  0  0  0  0
   18.4084   -3.6987   15.6780 H   0  0  0  0  0
   18.8552   -5.2734   15.9018 H   0  0  0  0  0
   20.0917   -8.8217   20.5952 H   0  0  0  0  0
   19.4866   -6.5448   21.8074 H   0  0  0  0  0
   19.0812   -4.3621   20.4279 H   0  0  0  0  0
   18.4340  -10.0760   18.1041 H   0  0  0  0  0
   18.6812   -9.2058   16.5703 H   0  0  0  0  0
   19.4560  -10.7877   16.8313 H   0  0  0  0  0
   11.9184   -2.8607   20.2851 H   0  0  0  0  0
   14.4011    0.4586   22.2542 H   0  0  0  0  0
   11.6095    0.0067   25.5549 H   0  0  0  0  0
   10.3329   -1.7689   24.2390 H   0  0  0  0  0
   11.1470   -2.4138   21.9089 H   0  0  0  0  0
  1 16  1  0  0  0
 17  1  1  0  0  0
 20  2  1  0  0  0
  2 21  1  0  0  0
  2 35  1  0  0  0
  3  4  1  0  0  0
 21  3  1  0  0  0
  4  8  1  0  0  0
  4 23  1  0  0  0
  5  7  4  0  0  0
 23  5  1  0  0  0
  5 24  4  0  0  0
 24  6  4  0  0  0
  6 25  4  0  0  0
  6 39  1  0  0  0
  7 26  4  0  0  0
  8  9  1  0  0  0
  8 27  1  0  0  0
  9 28  1  0  0  0
 28 10  1  0  0  0
 10 29  1  0  0  0
 29 11  4  0  0  0
 11 30  4  0  0  0
 30 12  1  0  0  0
 12 34  1  0  0  0
 13 14  1  0  0  0
 15 13  1  0  0  0
 16 15  1  0  0  0
 17 18  2  0  0  0
 17 19  2  0  0  0
 17 20  1  0  0  0
 21 22  2  0  0  0
 25 26  4  0  0  0
 26 38  1  0  0  0
 29 33  4  0  0  0
 30 31  4  0  0  0
 31 32  4  0  0  0
 32 33  4  0  0  0
 35 36  1  0  0  0
 36 37  2  0  0  0
 36 40  1  0  0  0
 40 41  4  0  0  0
 40 45  4  0  0  0
 41 42  4  0  0  0
 42 43  4  0  0  0
 43 44  4  0  0  0
 44 45  4  0  0  0
  1 46  1  0  0  0
  1 47  1  0  0  0
  2 48  1  0  0  0
  3 49  1  0  0  0
  4 50  1  0  0  0
  7 51  1  0  0  0
  8 52  1  0  0  0
  9 53  1  0  0  0
  9 54  1  0  0  0
 10 55  1  0  0  0
 10 56  1  0  0  0
 11 57  1  0  0  0
 12 58  1  0  0  0
 12 59  1  0  0  0
 13 60  1  0  0  0
 13 61  1  0  0  0
 14 62  1  0  0  0
 14 63  1  0  0  0
 14 64  1  0  0  0
 15 65  1  0  0  0
 15 66  1  0  0  0
 16 67  1  0  0  0
 16 68  1  0  0  0
 20 69  1  0  0  0
 20 70  1  0  0  0
 23 71  1  0  0  0
 23 72  1  0  0  0
 24 73  1  0  0  0
 25 74  1  0  0  0
 27 75  1  0  0  0
 28 76  1  0  0  0
 28 77  1  0  0  0
 31 78  1  0  0  0
 32 79  1  0  0  0
 33 80  1  0  0  0
 34 81  1  0  0  0
 34 82  1  0  0  0
 34 83  1  0  0  0
 35 84  1  0  0  0
 41 85  1  0  0  0
 43 86  1  0  0  0
 44 87  1  0  0  0
 45 88  1  0  0  0
M  END
$$$$
