3k8q_ligand
  -I-interpret- 

 31 32  0  0  0  0  0  0  0  0999 V2000
   13.5820    8.6130   55.8030 N   0  0  0  0  0
   12.8260    8.9380   56.8700 C   0  0  0  0  0
   12.9660   10.1000   57.5260 N   0  0  0  0  0
   13.9120   10.9840   57.1120 C   0  0  0  0  0
   14.6340   10.7580   55.9170 C   0  0  0  0  0
   14.5560    9.4240   55.3290 C   0  0  0  0  0
   15.2240    9.1190   54.3140 O   0  0  0  0  0
   15.6390   11.7880   55.7830 N   0  0  0  0  0
   15.2810   12.6930   56.7570 C   0  0  0  0  0
   14.2300   12.2470   57.5760 C   0  0  0  0  0
   14.6380   12.8270   59.8540 N   0  3  0  0  0
   13.6670   12.9790   58.7680 C   0  0  0  0  0
   14.8310   11.5130   60.4760 C   0  0  0  0  0
   13.9640   11.3940   61.7230 C   0  0  0  0  0
   16.2940   11.1840   60.8190 C   0  0  0  0  0
   17.1840   12.3160   60.7860 O   0  0  0  0  0
   13.9400   12.6120   62.4980 O   0  0  0  0  0
   13.4138    7.7224   55.3351 H   0  0  0  0  0
   12.0719    8.2298   57.2133 H   0  0  0  0  0
   15.7658   13.6614   56.8807 H   0  0  0  0  0
   14.2796   13.4173   60.6047 H   0  0  0  0  0
   15.5384   13.0447   59.4270 H   0  0  0  0  0
   12.6984   12.5684   59.0534 H   0  0  0  0  0
   13.5060   14.0318   58.5361 H   0  0  0  0  0
   14.5275   10.7809   59.7277 H   0  0  0  0  0
   14.3815   10.6053   62.3489 H   0  0  0  0  0
   12.9443   11.1781   61.4043 H   0  0  0  0  0
   16.6472   10.4784   60.0670 H   0  0  0  0  0
   16.3040   10.7998   61.8390 H   0  0  0  0  0
   18.0725   12.0297   61.0100 H   0  0  0  0  0
   13.3831   12.4878   63.2700 H   0  0  0  0  0
  1  2  1  0  0  0
  1  6  1  0  0  0
  2  3  2  0  0  0
  3  4  1  0  0  0
  4  5  4  0  0  0
  4 10  4  0  0  0
  5  6  1  0  0  0
  5  8  4  0  0  0
  6  7  2  0  0  0
  8  9  4  0  0  0
  9 10  4  0  0  0
 10 12  1  0  0  0
 12 11  1  0  0  0
 11 13  1  0  0  0
 13 14  1  0  0  0
 13 15  1  0  0  0
 14 17  1  0  0  0
 15 16  1  0  0  0
  1 18  1  0  0  0
  2 19  1  0  0  0
  9 20  1  0  0  0
 11 21  1  0  0  0
 11 22  1  0  0  0
 12 23  1  0  0  0
 12 24  1  0  0  0
 13 25  1  0  0  0
 14 26  1  0  0  0
 14 27  1  0  0  0
 15 28  1  0  0  0
 15 29  1  0  0  0
 16 30  1  0  0  0
 17 31  1  0  0  0
M  END
$$$$
