### 
### Created by X-TOOL on Mon Sep 10 21:13:15 2018
### 

@<TRIPOS>MOLECULE
4e1e_ligand
   35    34     1     0     0
SMALL
GAST_HUCK


@<TRIPOS>ATOM
      1 O1        -14.6310  -14.4680  -21.0800 O.co2     1 0MW        -0.5610
      2 P1        -13.4190  -14.7250  -20.2120 P.3       1 0MW         0.0831
      3 O2        -13.5930  -14.2890  -18.7760 O.co2     1 0MW        -0.5610
      4 O3        -12.1350  -14.2480  -20.8480 O.co2     1 0MW        -0.5610
      5 C9        -13.3180  -16.5370  -20.2180 C.3       1 0MW         0.1400
      6 P2        -14.3050  -17.1600  -18.8170 P.3       1 0MW         0.0831
      7 O5        -13.9540  -16.3400  -17.6190 O.co2     1 0MW        -0.5610
      8 O4        -15.6960  -16.9050  -19.3320 O.co2     1 0MW        -0.5610
      9 O6        -13.9430  -18.6090  -18.6220 O.co2     1 0MW        -0.5610
     10 C8        -11.8620  -17.0010  -20.2220 C.3       1 0MW         0.0001
     11 N1        -11.7030  -18.4570  -20.0460 N.4       1 0MW         0.2292
     12 C7        -11.5560  -19.1380  -21.3420 C.3       1 0MW        -0.0336
     13 C6        -12.3340  -20.4480  -21.2840 C.3       1 0MW        -0.0126
     14 C5        -11.6880  -21.5400  -22.1300 C.3       1 0MW        -0.0483
     15 C4        -12.4300  -21.6140  -23.4540 C.3       1 0MW        -0.0531
     16 C3        -12.3870  -23.0030  -24.0760 C.3       1 0MW        -0.0559
     17 C2        -13.2720  -23.0310  -25.3020 C.3       1 0MW        -0.0653
     18 H1        -13.7798  -16.9085  -21.1447 H         1 0MW         0.0732
     19 H2        -11.3332  -16.4924  -19.4024 H         1 0MW         0.0845
     20 H3        -11.4093  -16.7160  -21.1832 H         1 0MW         0.0845
     21 H4        -12.5154  -18.8215  -19.5736 H         1 0MW         0.2014
     22 H5        -10.8825  -18.6328  -19.4876 H         1 0MW         0.2014
     23 H6        -10.4931  -19.3447  -21.5354 H         1 0MW         0.0814
     24 H7        -11.9577  -18.5018  -22.1444 H         1 0MW         0.0814
     25 H8        -13.3546  -20.2705  -21.6540 H         1 0MW         0.0317
     26 H9        -12.3769  -20.7885  -20.2389 H         1 0MW         0.0317
     27 H10       -11.7587  -22.5061  -21.6088 H         1 0MW         0.0267
     28 H11       -10.6303  -21.2963  -22.3087 H         1 0MW         0.0267
     29 H12       -11.9714  -20.9006  -24.1546 H         1 0MW         0.0265
     30 H13       -13.4809  -21.3371  -23.2842 H         1 0MW         0.0265
     31 H14       -12.7470  -23.7433  -23.3464 H         1 0MW         0.0263
     32 H15       -11.3532  -23.2445  -24.3639 H         1 0MW         0.0263
     33 H16       -13.2422  -24.0339  -25.7528 H         1 0MW         0.0230
     34 H17       -12.9119  -22.2904  -26.0312 H         1 0MW         0.0230
     35 H18       -14.3056  -22.7892  -25.0137 H         1 0MW         0.0230
@<TRIPOS>BOND
     1    1    2 ar 
     2    2    3 ar 
     3    2    4 ar 
     4    2    5 1  
     5    5    6 1  
     6    5   10 1  
     7    6    7 ar 
     8    6    8 ar 
     9    6    9 ar 
    10   10   11 1  
    11   11   12 1  
    12   12   13 1  
    13   13   14 1  
    14   14   15 1  
    15   15   16 1  
    16   16   17 1  
    17    5   18 1  
    18   10   19 1  
    19   10   20 1  
    20   11   21 1  
    21   11   22 1  
    22   12   23 1  
    23   12   24 1  
    24   13   25 1  
    25   13   26 1  
    26   14   27 1  
    27   14   28 1  
    28   15   29 1  
    29   15   30 1  
    30   16   31 1  
    31   16   32 1  
    32   17   33 1  
    33   17   34 1  
    34   17   35 1  
@<TRIPOS>SUBSTRUCTURE
     1 0MW         1

