4e1e_ligand
  -I-interpret- 

 39 38  0  0  0  0  0  0  0  0999 V2000
  -14.6310  -14.4680  -21.0800 O   0  0  0  0  0
  -13.4190  -14.7250  -20.2120 P   0  0  0  0  0
  -13.5930  -14.2890  -18.7760 O   0  0  0  0  0
  -12.1350  -14.2480  -20.8480 O   0  0  0  0  0
  -13.3180  -16.5370  -20.2180 C   0  0  0  0  0
  -14.3050  -17.1600  -18.8170 P   0  0  0  0  0
  -13.9540  -16.3400  -17.6190 O   0  0  0  0  0
  -15.6960  -16.9050  -19.3320 O   0  0  0  0  0
  -13.9430  -18.6090  -18.6220 O   0  0  0  0  0
  -11.8620  -17.0010  -20.2220 C   0  0  0  0  0
  -11.7030  -18.4570  -20.0460 N   0  3  0  0  0
  -11.5560  -19.1380  -21.3420 C   0  0  0  0  0
  -12.3340  -20.4480  -21.2840 C   0  0  0  0  0
  -11.6880  -21.5400  -22.1300 C   0  0  0  0  0
  -12.4300  -21.6140  -23.4540 C   0  0  0  0  0
  -12.3870  -23.0030  -24.0760 C   0  0  0  0  0
  -13.2720  -23.0310  -25.3020 C   0  0  0  0  0
  -15.4175  -14.7882  -20.6323 H   0  0  0  0  0
  -14.4261  -14.6266  -18.4390 H   0  0  0  0  0
  -13.7405  -16.9563  -21.1311 H   0  0  0  0  0
  -15.8590  -17.4597  -20.0984 H   0  0  0  0  0
  -14.1813  -19.1058  -19.4081 H   0  0  0  0  0
  -11.3628  -16.5150  -19.3837 H   0  0  0  0  0
  -11.4402  -16.7422  -21.1932 H   0  0  0  0  0
  -12.5342  -18.8208  -19.5800 H   0  0  0  0  0
  -10.8638  -18.6278  -19.4919 H   0  0  0  0  0
  -10.5033  -19.3364  -21.5433 H   0  0  0  0  0
  -11.9436  -18.5075  -22.1422 H   0  0  0  0  0
  -13.3354  -20.2651  -21.6737 H   0  0  0  0  0
  -12.3505  -20.7869  -20.2481 H   0  0  0  0  0
  -11.7454  -22.4982  -21.6135 H   0  0  0  0  0
  -10.6366  -21.3093  -22.3014 H   0  0  0  0  0
  -11.9488  -20.9228  -24.1460 H   0  0  0  0  0
  -13.4742  -21.3639  -23.2665 H   0  0  0  0  0
  -12.7428  -23.7371  -23.3530 H   0  0  0  0  0
  -11.3626  -23.2432  -24.3606 H   0  0  0  0  0
  -14.2958  -22.7912  -25.0150 H   0  0  0  0  0
  -12.9141  -22.2967  -26.0237 H   0  0  0  0  0
  -13.2417  -24.0252  -25.7478 H   0  0  0  0  0
  1  2  1  0  0  0
  2  3  1  0  0  0
  2  4  2  0  0  0
  2  5  1  0  0  0
  5  6  1  0  0  0
  5 10  1  0  0  0
  6  7  2  0  0  0
  6  8  1  0  0  0
  6  9  1  0  0  0
 10 11  1  0  0  0
 11 12  1  0  0  0
 12 13  1  0  0  0
 13 14  1  0  0  0
 14 15  1  0  0  0
 15 16  1  0  0  0
 16 17  1  0  0  0
  1 18  1  0  0  0
  3 19  1  0  0  0
  5 20  1  0  0  0
  8 21  1  0  0  0
  9 22  1  0  0  0
 10 23  1  0  0  0
 10 24  1  0  0  0
 11 25  1  0  0  0
 11 26  1  0  0  0
 12 27  1  0  0  0
 12 28  1  0  0  0
 13 29  1  0  0  0
 13 30  1  0  0  0
 14 31  1  0  0  0
 14 32  1  0  0  0
 15 33  1  0  0  0
 15 34  1  0  0  0
 16 35  1  0  0  0
 16 36  1  0  0  0
 17 37  1  0  0  0
 17 38  1  0  0  0
 17 39  1  0  0  0
M  END
$$$$
