5mwp_ligand
  -I-interpret- 

 47 50  0  0  0  0  0  0  0  0999 V2000
    7.6680   19.6960   13.4720 C   0  0  0  0  0
    7.7920   17.3020   13.1310 C   0  0  0  0  0
    7.7620   17.3680   11.9100 O   0  0  0  0  0
    6.8580   14.5920   15.6860 C   0  0  0  0  0
    9.1180   14.1310   16.1940 C   0  0  0  0  0
   10.1220   13.1910   16.3610 C   0  0  0  0  0
   11.3290   13.6200   16.8690 C   0  0  0  0  0
   11.5460   14.9450   17.1940 C   0  0  0  0  0
   10.5420   15.8780   17.0320 C   0  0  0  0  0
    9.3110   15.4660   16.5420 C   0  0  0  0  0
    8.1960   17.5260   18.6070 C   0  0  0  0  0
    8.2310   16.4430   19.4730 C   0  0  0  0  0
    8.5750   16.6370   20.8070 C   0  0  0  0  0
    8.8740   17.9170   21.2520 C   0  0  0  0  0
   10.0700   19.2540   22.7630 C   0  0  0  0  0
    7.9000   18.3720   13.9500 N   0  0  0  0  0
    7.7900   15.9830   13.8490 C   0  0  0  0  0
    7.3000   15.9800   15.2900 C   0  0  0  0  0
    7.9250   13.6410   15.6390 O   0  0  0  0  0
   12.3030   12.7170   17.0280 F   0  0  0  0  0
    8.2570   16.3940   16.3180 N   0  0  0  0  0
    7.8470   17.4400   17.1630 C   0  0  0  0  0
    7.1730   18.3730   16.7490 O   0  0  0  0  0
    9.1780   18.1420   22.5880 O   0  0  0  0  0
    9.5520   20.5090   22.1250 C   0  0  0  0  0
    9.6090   21.6080   22.6690 O   0  0  0  0  0
    9.0730   20.2820   20.8590 N   0  0  0  0  0
    8.8080   18.9910   20.3900 C   0  0  0  0  0
    8.4920   18.7980   19.0630 C   0  0  0  0  0
    8.3721   19.9202   12.6707 H   0  0  0  0  0
    6.6487   19.7708   13.0932 H   0  0  0  0  0
    7.8066   20.4051   14.2882 H   0  0  0  0  0
    6.0907   14.2705   14.9817 H   0  0  0  0  0
    6.4928   14.6361   16.7121 H   0  0  0  0  0
    9.9622   12.1451   16.0988 H   0  0  0  0  0
   12.5165   15.2556   17.5809 H   0  0  0  0  0
   10.7137   16.9241   17.2855 H   0  0  0  0  0
    7.9899   15.4440   19.1098 H   0  0  0  0  0
    8.6093   15.7926   21.4954 H   0  0  0  0  0
   11.0193   19.0024   22.2900 H   0  0  0  0  0
   10.1741   19.4376   23.8324 H   0  0  0  0  0
    8.1521   18.2301   14.9281 H   0  0  0  0  0
    8.8317   15.6648   13.8887 H   0  0  0  0  0
    7.0977   15.3460   13.2984 H   0  0  0  0  0
    6.5019   16.7221   15.2694 H   0  0  0  0  0
    8.9055   21.0772   20.2426 H   0  0  0  0  0
    8.4753   19.6437   18.3756 H   0  0  0  0  0
 16  1  1  0  0  0
  2  3  2  0  0  0
  2 16  1  0  0  0
 17  2  1  0  0  0
 18  4  1  0  0  0
  4 19  1  0  0  0
  5  6  4  0  0  0
 10  5  4  0  0  0
  5 19  1  0  0  0
  6  7  4  0  0  0
  8  7  4  0  0  0
  7 20  1  0  0  0
  9  8  4  0  0  0
 10  9  4  0  0  0
 21 10  1  0  0  0
 11 12  4  0  0  0
 22 11  1  0  0  0
 11 29  4  0  0  0
 12 13  4  0  0  0
 13 14  4  0  0  0
 14 24  1  0  0  0
 14 28  4  0  0  0
 24 15  1  0  0  0
 15 25  1  0  0  0
 18 17  1  0  0  0
 21 18  1  0  0  0
 21 22  1  0  0  0
 22 23  2  0  0  0
 25 26  2  0  0  0
 25 27  1  0  0  0
 27 28  1  0  0  0
 28 29  4  0  0  0
  1 30  1  0  0  0
  1 31  1  0  0  0
  1 32  1  0  0  0
  4 33  1  0  0  0
  4 34  1  0  0  0
  6 35  1  0  0  0
  8 36  1  0  0  0
  9 37  1  0  0  0
 12 38  1  0  0  0
 13 39  1  0  0  0
 15 40  1  0  0  0
 15 41  1  0  0  0
 16 42  1  0  0  0
 17 43  1  0  0  0
 17 44  1  0  0  0
 18 45  1  0  0  0
 27 46  1  0  0  0
 29 47  1  0  0  0
M  END
$$$$
