1ork_ligand
  -I-interpret- 

 69 72  0  0  0  0  0  0  0  0999 V2000
   20.1080   34.6170   34.3910 C   0  0  0  0  0
   19.5650   35.0790   33.3520 O   0  0  0  0  0
   19.5800   33.5690   35.1430 C   0  0  0  0  0
   18.3890   32.9210   34.7890 C   0  0  0  0  0
   17.9770   31.9310   35.4430 O   0  0  0  0  0
   17.6220   33.2860   33.7120 N   0  0  0  0  0
   20.3030   33.2330   36.2800 C   0  0  0  0  0
   20.1970   31.9680   36.8680 O   0  0  0  0  0
   21.1460   34.2540   37.0370 C   0  0  0  0  0
   22.2030   33.4360   37.8140 N   0  3  0  0  0
   23.0250   34.3640   38.7750 C   0  0  0  0  0
   23.1010   32.5310   36.9330 C   0  0  0  0  0
   21.7550   35.3480   36.1090 C   0  0  0  0  0
   21.0970   36.6880   36.3310 C   0  0  0  0  0
   21.7490   37.8560   35.6340 C   0  0  0  0  0
   20.9410   39.1710   35.6270 C   0  0  0  0  0
   21.6780   40.2670   34.8170 C   0  0  0  0  0
   21.5120   41.5900   35.2210 C   0  0  0  0  0
   22.1040   42.6150   34.4800 C   0  0  0  0  0
   22.8610   42.3360   33.3310 C   0  0  0  0  0
   23.0370   40.9940   32.9340 C   0  0  0  0  0
   23.8360   40.7110   31.7950 O   0  0  0  0  0
   22.4490   39.9410   33.6780 C   0  0  0  0  0
   22.5210   38.5980   33.2820 C   0  0  0  0  0
   23.0760   38.3460   32.2170 O   0  0  0  0  0
   22.1020   37.5260   34.1290 C   0  0  0  0  0
   22.0630   36.1760   33.7350 C   0  0  0  0  0
   22.5610   35.7380   32.4420 O   0  0  0  0  0
   21.5830   35.0130   34.6220 C   0  0  0  0  0
   22.4380   33.9040   34.3300 O   0  0  0  0  0
   23.3350   43.3880   32.5860 N   0  0  0  0  0
   24.5980   43.8150   32.6060 C   0  0  0  0  0
   25.3500   43.5610   33.5560 O   0  0  0  0  0
   25.2290   44.6000   31.4630 C   0  0  0  0  0
   26.6690   43.9970   31.1130 N   0  3  0  0  0
   27.8470   44.3910   32.1230 C   0  0  0  0  0
   26.5830   42.4470   30.7370 C   0  0  0  0  0
   16.7763   32.7620   33.4872 H   0  0  0  0  0
   17.8974   34.0814   33.1359 H   0  0  0  0  0
   20.7683   31.9255   37.6383 H   0  0  0  0  0
   20.5349   34.8357   37.7271 H   0  0  0  0  0
   21.6816   32.7694   38.3833 H   0  0  0  0  0
   23.5323   35.1317   38.1907 H   0  0  0  0  0
   22.3493   34.8357   39.4884 H   0  0  0  0  0
   23.7627   33.7671   39.3113 H   0  0  0  0  0
   22.4784   31.8136   36.3984 H   0  0  0  0  0
   23.6442   33.1474   36.2166 H   0  0  0  0  0
   23.8099   31.9977   37.5665 H   0  0  0  0  0
   22.8139   35.3847   36.3649 H   0  0  0  0  0
   21.1594   36.8908   37.4002 H   0  0  0  0  0
   20.0882   36.6090   35.9259 H   0  0  0  0  0
   22.6426   38.0160   36.2374 H   0  0  0  0  0
   20.8212   39.5148   36.6544 H   0  0  0  0  0
   19.9717   38.9849   35.1645 H   0  0  0  0  0
   20.9244   41.8233   36.1089 H   0  0  0  0  0
   21.9762   43.6494   34.7991 H   0  0  0  0  0
   23.8616   39.7622   31.6512 H   0  0  0  0  0
   22.4473   34.7882   32.3616 H   0  0  0  0  0
   22.3518   33.6704   33.4029 H   0  0  0  0  0
   22.6773   43.8749   31.9771 H   0  0  0  0  0
   25.3402   45.6421   31.7626 H   0  0  0  0  0
   24.5882   44.5304   30.5840 H   0  0  0  0  0
   26.9702   44.4768   30.2647 H   0  0  0  0  0
   27.9630   45.4747   32.1389 H   0  0  0  0  0
   27.5999   44.0361   33.1235 H   0  0  0  0  0
   28.7773   43.9295   31.7918 H   0  0  0  0  0
   26.1731   41.8920   31.5808 H   0  0  0  0  0
   25.9364   42.3204   29.8687 H   0  0  0  0  0
   27.5810   42.0746   30.5058 H   0  0  0  0  0
  1 29  1  0  0  0
  1  3  1  0  0  0
  1  2  2  0  0  0
  3  7  2  0  0  0
  3  4  1  0  0  0
  4  6  1  0  0  0
  4  5  2  0  0  0
  7  9  1  0  0  0
  7  8  1  0  0  0
  9 13  1  0  0  0
  9 10  1  0  0  0
 10 12  1  0  0  0
 10 11  1  0  0  0
 13 29  1  0  0  0
 13 14  1  0  0  0
 14 15  1  0  0  0
 15 26  1  0  0  0
 15 16  1  0  0  0
 16 17  1  0  0  0
 17 23  4  0  0  0
 17 18  4  0  0  0
 18 19  4  0  0  0
 19 20  4  0  0  0
 20 31  1  0  0  0
 20 21  4  0  0  0
 21 23  4  0  0  0
 21 22  1  0  0  0
 23 24  1  0  0  0
 24 26  1  0  0  0
 24 25  2  0  0  0
 26 27  2  0  0  0
 27 29  1  0  0  0
 27 28  1  0  0  0
 29 30  1  0  0  0
 31 32  1  0  0  0
 32 34  1  0  0  0
 32 33  2  0  0  0
 34 35  1  0  0  0
 35 37  1  0  0  0
 35 36  1  0  0  0
  6 38  1  0  0  0
  6 39  1  0  0  0
  8 40  1  0  0  0
  9 41  1  0  0  0
 10 42  1  0  0  0
 11 43  1  0  0  0
 11 44  1  0  0  0
 11 45  1  0  0  0
 12 46  1  0  0  0
 12 47  1  0  0  0
 12 48  1  0  0  0
 13 49  1  0  0  0
 14 50  1  0  0  0
 14 51  1  0  0  0
 15 52  1  0  0  0
 16 53  1  0  0  0
 16 54  1  0  0  0
 18 55  1  0  0  0
 19 56  1  0  0  0
 22 57  1  0  0  0
 28 58  1  0  0  0
 30 59  1  0  0  0
 31 60  1  0  0  0
 34 61  1  0  0  0
 34 62  1  0  0  0
 35 63  1  0  0  0
 36 64  1  0  0  0
 36 65  1  0  0  0
 36 66  1  0  0  0
 37 67  1  0  0  0
 37 68  1  0  0  0
 37 69  1  0  0  0
M  END
$$$$
