5m55_ligand
  -I-interpret- 

 42 44  0  0  0  0  0  0  0  0999 V2000
   27.8460   11.0320  -22.7330 C   0  0  0  0  0
   25.8000    7.7000  -20.3860 C   0  0  0  0  0
   26.8650    8.8350  -22.5240 C   0  0  0  0  0
   27.1830   10.0570  -21.9550 C   0  0  0  0  0
   26.8690   13.5280  -18.9610 C   0  0  0  0  0
   26.1180   12.4030  -18.3200 C   0  0  0  0  0
   26.9750   11.6410  -17.4730 N   0  0  0  0  0
   28.0320   12.3810  -16.8320 C   0  0  0  0  0
   27.7160   12.6330  -15.3580 C   0  0  0  0  0
   26.4100   10.6300  -16.6550 C   0  0  0  0  0
   25.9100    9.3310  -16.9110 C   0  0  0  0  0
   25.6870    8.4090  -18.1590 C   0  0  0  0  0
   26.0920    8.6100  -19.4740 N   0  0  0  0  0
   26.1710    7.7780  -21.8020 N   0  0  0  0  0
   28.1740   10.7730  -24.0580 C   0  0  0  0  0
   27.8450    9.5480  -24.6310 C   0  0  0  0  0
   27.1870    8.5800  -23.8540 C   0  0  0  0  0
   25.1190    6.5710  -20.1040 N   0  0  0  0  0
   24.6710    6.2940  -18.8440 C   0  0  0  0  0
   24.9450    7.2030  -17.8420 C   0  0  0  0  0
   24.4080    6.7080  -16.6900 N   0  0  0  0  0
   23.8120    5.5260  -16.9770 C   0  0  0  0  0
   23.9690    5.2750  -18.2800 N   0  0  0  0  0
   28.1022   11.9947  -22.2905 H   0  0  0  0  0
   26.9241   10.2644  -20.9167 H   0  0  0  0  0
   27.2717   14.1817  -18.1873 H   0  0  0  0  0
   27.6862   13.1238  -19.5585 H   0  0  0  0  0
   26.1941   14.0948  -19.6024 H   0  0  0  0  0
   25.7257   11.7518  -19.1011 H   0  0  0  0  0
   25.3082   12.8176  -17.7197 H   0  0  0  0  0
   28.1373   13.3426  -17.3343 H   0  0  0  0  0
   28.9517   11.7995  -16.8959 H   0  0  0  0  0
   26.7922   13.2061  -15.2786 H   0  0  0  0  0
   27.5983   11.6787  -14.8446 H   0  0  0  0  0
   28.5329   13.1934  -14.9033 H   0  0  0  0  0
   26.3474   10.9140  -15.6045 H   0  0  0  0  0
   25.5946    8.8382  -15.9914 H   0  0  0  0  0
   25.9030    6.9713  -22.3658 H   0  0  0  0  0
   28.6894   11.5298  -24.6493 H   0  0  0  0  0
   28.0952    9.3418  -25.6717 H   0  0  0  0  0
   26.9259    7.6191  -24.2973 H   0  0  0  0  0
   23.2914    4.8865  -16.2642 H   0  0  0  0  0
  4  1  4  0  0  0
  1 15  4  0  0  0
 13  2  4  0  0  0
  2 14  1  0  0  0
  2 18  4  0  0  0
  3  4  4  0  0  0
 14  3  1  0  0  0
  3 17  4  0  0  0
  6  5  1  0  0  0
  7  6  1  0  0  0
  7  8  1  0  0  0
 10  7  1  0  0  0
  8  9  1  0  0  0
 11 10  2  0  0  0
 12 11  1  0  0  0
 12 13  4  0  0  0
 12 20  4  0  0  0
 15 16  4  0  0  0
 16 17  4  0  0  0
 18 19  4  0  0  0
 19 20  4  0  0  0
 19 23  4  0  0  0
 20 21  4  0  0  0
 21 22  4  0  0  0
 22 23  4  0  0  0
  1 24  1  0  0  0
  4 25  1  0  0  0
  5 26  1  0  0  0
  5 27  1  0  0  0
  5 28  1  0  0  0
  6 29  1  0  0  0
  6 30  1  0  0  0
  8 31  1  0  0  0
  8 32  1  0  0  0
  9 33  1  0  0  0
  9 34  1  0  0  0
  9 35  1  0  0  0
 10 36  1  0  0  0
 11 37  1  0  0  0
 14 38  1  0  0  0
 15 39  1  0  0  0
 16 40  1  0  0  0
 17 41  1  0  0  0
 22 42  1  0  0  0
M  END
$$$$
