5gmi_ligand
  -I-interpret- 

 81 81  0  0  0  0  0  0  0  0999 V2000
   80.4840   13.3420  -10.0350 N   0  3  0  0  0
   80.9840   12.6230   -8.8680 C   0  0  0  0  0
   81.5450   13.5730   -7.8140 C   0  0  0  0  0
   81.5390   14.7890   -8.0020 O   0  0  0  0  0
   82.0570   11.6180   -9.2820 C   0  0  0  0  0
   82.3600   10.7430   -8.2140 O   0  0  0  0  0
   82.0280   13.0170   -6.7060 N   0  0  0  0  0
   82.6990   13.8250   -5.6930 C   0  0  0  0  0
   84.0970   14.2020   -6.1350 C   0  0  0  0  0
   84.7490   13.4640   -6.8730 O   0  0  0  0  0
   82.7620   13.0910   -4.3510 C   0  0  0  0  0
   83.2190   11.7630   -4.5140 O   0  0  0  0  0
   84.5550   15.3530   -5.6620 N   0  0  0  0  0
   85.9090   15.7990   -5.9330 C   0  0  0  0  0
   86.3770   16.7640   -4.8490 C   0  0  0  0  0
   85.5740   17.4840   -4.2540 O   0  0  0  0  0
   85.9970   16.4470   -7.3210 C   0  0  0  0  0
   85.0870   17.6330   -7.5110 C   0  0  0  0  0
   83.7300   17.4600   -7.7420 C   0  0  0  0  0
   85.5950   18.9210   -7.4860 C   0  0  0  0  0
   82.8960   18.5500   -7.9230 C   0  0  0  0  0
   84.7670   20.0140   -7.6690 C   0  0  0  0  0
   83.4160   19.8280   -7.8890 C   0  0  0  0  0
   87.6800   16.7650   -4.5920 N   0  0  0  0  0
   88.2470   17.5810   -3.5280 C   0  0  0  0  0
   88.5280   18.9890   -4.0400 C   0  0  0  0  0
   88.9580   19.1700   -5.1780 O   0  0  0  0  0
   89.5450   16.9480   -2.9740 C   0  0  0  0  0
   90.0440   17.7040   -1.7500 C   0  0  0  0  0
   89.3100   15.4850   -2.6330 C   0  0  0  0  0
   88.2710   19.9830   -3.1960 N   0  0  0  0  0
   88.6110   21.3680   -3.5020 C   0  0  0  0  0
   89.2880   22.0370   -2.3100 C   0  0  0  0  0
   89.4260   21.4270   -1.2500 O   0  0  0  0  0
   87.3600   22.1750   -3.9210 C   0  0  0  0  0
   86.1670   21.8140   -3.0380 C   0  0  0  0  0
   86.9830   21.8660   -5.3560 C   0  0  0  0  0
   86.0180   22.6440   -1.7970 C   0  0  0  0  0
   89.7010   23.1950   -2.3750 O   0  0  0  0  0
   79.7693   14.0082   -9.7420 H   0  0  0  0  0
   81.2537   13.8413  -10.4807 H   0  0  0  0  0
   80.0807   12.6774  -10.6953 H   0  0  0  0  0
   80.1401   12.0924   -8.4271 H   0  0  0  0  0
   82.9603   12.1611   -9.5599 H   0  0  0  0  0
   81.6858   11.0324  -10.1231 H   0  0  0  0  0
   83.0350   10.1203   -8.4936 H   0  0  0  0  0
   81.9279   12.0121   -6.5627 H   0  0  0  0  0
   82.1131   14.7353   -5.5658 H   0  0  0  0  0
   81.7600   13.0635   -3.9227 H   0  0  0  0  0
   83.4565   13.6197   -3.6981 H   0  0  0  0  0
   83.2482   11.3285   -3.6584 H   0  0  0  0  0
   83.9416   15.9382   -5.0948 H   0  0  0  0  0
   86.5689   14.9315   -5.9249 H   0  0  0  0  0
   85.6954   15.6920   -8.0470 H   0  0  0  0  0
   87.0194   16.8045   -7.4436 H   0  0  0  0  0
   83.3151   16.4528   -7.7815 H   0  0  0  0  0
   86.6611   19.0756   -7.3200 H   0  0  0  0  0
   81.8298   18.3991   -8.0922 H   0  0  0  0  0
   85.1807   21.0220   -7.6396 H   0  0  0  0  0
   82.7625   20.6881   -8.0353 H   0  0  0  0  0
   88.2985   16.1799   -5.1537 H   0  0  0  0  0
   87.5210   17.6337   -2.7167 H   0  0  0  0  0
   90.3121   17.0130   -3.7456 H   0  0  0  0  0
   90.2489   18.7393   -2.0225 H   0  0  0  0  0
   89.2817   17.6759   -0.9714 H   0  0  0  0  0
   90.9574   17.2360   -1.3829 H   0  0  0  0  0
   88.5256   15.4103   -1.8799 H   0  0  0  0  0
   89.0052   14.9483   -3.5314 H   0  0  0  0  0
   90.2313   15.0514   -2.2441 H   0  0  0  0  0
   87.8214   19.7704   -2.3054 H   0  0  0  0  0
   89.3073   21.3554   -4.3405 H   0  0  0  0  0
   87.6027   23.2322   -3.8135 H   0  0  0  0  0
   86.3192   20.7855   -2.7107 H   0  0  0  0  0
   85.2718   21.9819   -3.6367 H   0  0  0  0  0
   87.8115   22.1306   -6.0130 H   0  0  0  0  0
   86.7667   20.8020   -5.4524 H   0  0  0  0  0
   86.1006   22.4439   -5.6310 H   0  0  0  0  0
   86.9084   22.5331   -1.1782 H   0  0  0  0  0
   85.8948   23.6909   -2.0743 H   0  0  0  0  0
   85.1429   22.3089   -1.2402 H   0  0  0  0  0
   89.5291   23.5461   -3.2518 H   0  0  0  0  0
  1  2  1  0  0  0
  2  3  1  0  0  0
  2  5  1  0  0  0
  3  4  2  0  0  0
  3  7  1  0  0  0
  5  6  1  0  0  0
  7  8  1  0  0  0
  8  9  1  0  0  0
  8 11  1  0  0  0
  9 10  2  0  0  0
  9 13  1  0  0  0
 11 12  1  0  0  0
 13 14  1  0  0  0
 14 15  1  0  0  0
 14 17  1  0  0  0
 15 16  2  0  0  0
 15 24  1  0  0  0
 17 18  1  0  0  0
 18 19  4  0  0  0
 18 20  4  0  0  0
 19 21  4  0  0  0
 20 22  4  0  0  0
 21 23  4  0  0  0
 22 23  4  0  0  0
 24 25  1  0  0  0
 25 26  1  0  0  0
 25 28  1  0  0  0
 26 27  2  0  0  0
 26 31  1  0  0  0
 28 29  1  0  0  0
 28 30  1  0  0  0
 31 32  1  0  0  0
 32 33  1  0  0  0
 32 35  1  0  0  0
 33 34  2  0  0  0
 33 39  1  0  0  0
 35 36  1  0  0  0
 35 37  1  0  0  0
 36 38  1  0  0  0
  1 40  1  0  0  0
  1 41  1  0  0  0
  1 42  1  0  0  0
  2 43  1  0  0  0
  5 44  1  0  0  0
  5 45  1  0  0  0
  6 46  1  0  0  0
  7 47  1  0  0  0
  8 48  1  0  0  0
 11 49  1  0  0  0
 11 50  1  0  0  0
 12 51  1  0  0  0
 13 52  1  0  0  0
 14 53  1  0  0  0
 17 54  1  0  0  0
 17 55  1  0  0  0
 19 56  1  0  0  0
 20 57  1  0  0  0
 21 58  1  0  0  0
 22 59  1  0  0  0
 23 60  1  0  0  0
 24 61  1  0  0  0
 25 62  1  0  0  0
 28 63  1  0  0  0
 29 64  1  0  0  0
 29 65  1  0  0  0
 29 66  1  0  0  0
 30 67  1  0  0  0
 30 68  1  0  0  0
 30 69  1  0  0  0
 31 70  1  0  0  0
 32 71  1  0  0  0
 35 72  1  0  0  0
 36 73  1  0  0  0
 36 74  1  0  0  0
 37 75  1  0  0  0
 37 76  1  0  0  0
 37 77  1  0  0  0
 38 78  1  0  0  0
 38 79  1  0  0  0
 38 80  1  0  0  0
 39 81  1  0  0  0
M  END
$$$$
