3t1a_ligand
  -I-interpret- 

 45 49  0  0  0  0  0  0  0  0999 V2000
   11.4080   12.3660   15.5530 C   0  0  0  0  0
    7.2630   12.6130   15.4030 N   0  0  0  0  0
   11.2640   12.1160   17.8480 O   0  0  0  0  0
   10.8530   12.6120   14.2850 C   0  0  0  0  0
   13.0820   12.2060   15.7200 Cl  0  0  0  0  0
    9.4610   12.6660   14.1140 C   0  0  0  0  0
   10.7730   16.5220   20.1850 Cl  0  0  0  0  0
    8.6380   12.5630   15.2060 C   0  0  0  0  0
   10.0370   10.4940   19.9580 Cl  0  0  0  0  0
    9.1530   12.3540   16.4660 C   0  0  0  0  0
   10.6050   12.2760   16.6450 C   0  0  0  0  0
   10.9570   14.1900   19.0090 C   0  0  0  0  0
   10.8060   12.8470   18.9610 C   0  0  0  0  0
   10.2340   12.1840   20.0430 C   0  0  0  0  0
    9.8010   12.8410   21.2080 C   0  0  0  0  0
    9.9730   14.2300   21.2680 C   0  0  0  0  0
   10.5600   14.8460   20.1640 C   0  0  0  0  0
    6.9380   12.4490   16.7120 N   0  0  0  0  0
    8.1230   12.2960   17.3600 N   0  0  0  0  0
    6.1970   12.6620   14.4410 C   0  0  0  0  0
    6.2050   11.1540   14.0800 C   0  0  0  0  0
    6.5770   10.7610   12.8400 N   0  0  0  0  0
    6.5230    9.4050   12.8480 N   0  0  0  0  0
    6.1700    8.8790   14.0340 C   0  0  0  0  0
    5.9430    9.9850   14.8960 C   0  0  0  0  0
    6.0760    7.5410   14.3510 N   0  0  0  0  0
    5.7170    7.3070   15.6800 C   0  0  0  0  0
    5.4210    8.2970   16.6630 C   0  0  0  0  0
    5.5570    9.6550   16.2430 C   0  0  0  0  0
    9.1700   12.1090   22.3640 C   0  0  0  0  0
   10.0950   11.1680   22.9820 N   0  3  0  0  0
   11.5091   12.7620   13.4276 H   0  0  0  0  0
    9.0361   12.7892   13.1178 H   0  0  0  0  0
   11.3774   14.7392   18.1665 H   0  0  0  0  0
    9.6612   14.8043   22.1404 H   0  0  0  0  0
    6.3310   13.3553   13.6106 H   0  0  0  0  0
    5.2486   13.0659   14.7953 H   0  0  0  0  0
    5.6571    6.2659   15.9971 H   0  0  0  0  0
    5.1098    8.0330   17.6737 H   0  0  0  0  0
    5.3649   10.4569   16.9558 H   0  0  0  0  0
    8.3140   11.5491   21.9874 H   0  0  0  0  0
    8.8776   12.8433   23.1146 H   0  0  0  0  0
    9.6300   10.6954   23.7571 H   0  0  0  0  0
   10.3902   10.4791   22.2901 H   0  0  0  0  0
   10.9101   11.6730   23.3299 H   0  0  0  0  0
  1  4  4  0  0  0
  1  5  1  0  0  0
 11  1  4  0  0  0
  8  2  4  0  0  0
  2 18  4  0  0  0
  2 20  1  0  0  0
  3 11  1  0  0  0
 13  3  1  0  0  0
  4  6  4  0  0  0
  8  6  4  0  0  0
 17  7  1  0  0  0
 10  8  4  0  0  0
 14  9  1  0  0  0
 11 10  4  0  0  0
 10 19  4  0  0  0
 13 12  4  0  0  0
 12 17  4  0  0  0
 13 14  4  0  0  0
 14 15  4  0  0  0
 15 16  4  0  0  0
 15 30  1  0  0  0
 16 17  4  0  0  0
 18 19  4  0  0  0
 20 21  1  0  0  0
 21 22  4  0  0  0
 21 25  4  0  0  0
 22 23  4  0  0  0
 23 24  4  0  0  0
 24 25  4  0  0  0
 24 26  4  0  0  0
 25 29  4  0  0  0
 26 27  4  0  0  0
 27 28  4  0  0  0
 28 29  4  0  0  0
 30 31  1  0  0  0
  4 32  1  0  0  0
  6 33  1  0  0  0
 12 34  1  0  0  0
 16 35  1  0  0  0
 20 36  1  0  0  0
 20 37  1  0  0  0
 27 38  1  0  0  0
 28 39  1  0  0  0
 29 40  1  0  0  0
 30 41  1  0  0  0
 30 42  1  0  0  0
 31 43  1  0  0  0
 31 44  1  0  0  0
 31 45  1  0  0  0
M  END
$$$$
