### 
### Created by X-TOOL on Mon Sep 10 21:12:58 2018
### 

@<TRIPOS>MOLECULE
3bu6_ligand
  218   222     1     0     0
SMALL
GAST_HUCK


@<TRIPOS>ATOM
      1 N          -4.9750    3.8910   24.1130 N.4       1 TYR         0.2392
      2 CA         -5.0180    5.3670   24.3490 C.3       1 TYR         0.0730
      3 C          -5.2260    5.7240   25.8190 C.2       1 TYR         0.2287
      4 O          -5.1100    6.8970   26.2100 O.2       1 TYR        -0.3905
      5 CB         -6.1130    5.9990   23.4880 C.3       1 TYR         0.0365
      6 CG         -5.9230    5.7280   22.0120 C.ar      1 TYR        -0.0460
      7 CD1        -6.6540    4.7240   21.3670 C.ar      1 TYR        -0.0684
      8 CD2        -5.0000    6.4610   21.2610 C.ar      1 TYR        -0.0684
      9 CE1        -6.4820    4.4700   20.0070 C.ar      1 TYR        -0.0398
     10 CE2        -4.8190    6.2060   19.8950 C.ar      1 TYR        -0.0398
     11 CZ         -5.5610    5.2080   19.2800 C.ar      1 TYR         0.0805
     12 OH         -5.3920    4.9590   17.9300 O.3       1 TYR        -0.3376
     13 N          -5.5340    4.7060   26.6270 N.am      1 ASN        -0.2587
     14 CA         -5.6740    4.8770   28.0690 C.3       1 ASN         0.1479
     15 C          -4.3280    5.2040   28.7360 C.2       1 ASN         0.2088
     16 O          -3.3200    4.5310   28.4690 O.2       1 ASN        -0.3940
     17 CB         -6.3230    3.6350   28.6940 C.3       1 ASN         0.0773
     18 CG         -7.7920    3.4780   28.3060 C.2       1 ASN         0.1780
     19 OD1        -8.5090    4.4600   28.1290 O.2       1 ASN        -0.3970
     20 ND2        -8.2470    2.2360   28.1920 N.am      1 ASN        -0.3007
     21 N          -4.2900    6.2770   29.5570 N.am      1 PRO        -0.2497
     22 CA         -3.0900    6.5880   30.3340 C.3       1 PRO         0.1338
     23 C          -3.0000    5.7290   31.5930 C.2       1 PRO         0.2042
     24 O          -4.0340    5.3740   32.1760 O.2       1 PRO        -0.3944
     25 CB         -3.2870    8.0630   30.6990 C.3       1 PRO        -0.0104
     26 CG         -4.7650    8.2220   30.7820 C.3       1 PRO        -0.0281
     27 CD         -5.3620    7.2730   29.7710 C.3       1 PRO         0.0369
     28 N          -1.7740    5.3890   31.9980 N.am      1 TYR        -0.2621
     29 CA         -1.5450    4.5950   33.2110 C.3       1 TYR         0.1392
     30 C          -0.5560    5.2930   34.1470 C.2       1 TYR         0.2082
     31 O           0.6290    4.9380   34.1900 O.2       1 TYR        -0.3940
     32 CB         -1.0910    3.1660   32.8630 C.3       1 TYR         0.0164
     33 CG         -2.1630    2.3540   32.1730 C.ar      1 TYR        -0.0493
     34 CD1        -3.1170    1.6510   32.9110 C.ar      1 TYR        -0.0685
     35 CD2        -2.2370    2.3090   30.7830 C.ar      1 TYR        -0.0685
     36 CE1        -4.1120    0.9170   32.2810 C.ar      1 TYR        -0.0398
     37 CE2        -3.2220    1.5810   30.1380 C.ar      1 TYR        -0.0398
     38 CZ         -4.1540    0.8880   30.8850 C.ar      1 TYR         0.0805
     39 OH         -5.1280    0.1720   30.2370 O.3       1 TYR        -0.3376
     40 N          -1.0390    6.3100   34.8920 N.am      1 PRO        -0.2497
     41 CA         -0.1780    7.0980   35.7800 C.3       1 PRO         0.1338
     42 C           0.5920    6.2560   36.8100 C.2       1 PRO         0.2041
     43 O           1.7080    6.6190   37.1850 O.2       1 PRO        -0.3944
     44 CB         -1.1660    8.0550   36.4780 C.3       1 PRO        -0.0104
     45 CG         -2.5270    7.4460   36.2650 C.3       1 PRO        -0.0281
     46 CD         -2.4400    6.7770   34.9360 C.3       1 PRO         0.0369
     47 N           0.0140    5.1350   37.2340 N.am      1 GLU        -0.2636
     48 CA          0.6520    4.2610   38.2190 C.3       1 GLU         0.1325
     49 C           1.8580    3.4770   37.6540 C.2       1 GLU         0.2041
     50 O           2.6250    2.8970   38.4150 O.2       1 GLU        -0.3944
     51 CB         -0.3890    3.3290   38.8490 C.3       1 GLU        -0.0008
     52 CG         -1.5710    4.1140   39.4560 C.3       1 GLU         0.0044
     53 CD         -2.6170    3.2480   40.1390 C.2       1 GLU         0.0350
     54 OE1        -2.5220    1.9980   40.0580 O.co2     1 GLU        -0.5690
     55 OE2        -3.5440    3.8270   40.7690 O.co2     1 GLU        -0.5690
     56 N           2.0130    3.4830   36.3250 N.am      1 ASP        -0.2622
     57 CA          3.1270    2.8170   35.6340 C.3       1 ASP         0.1423
     58 C           4.4060    3.6640   35.6030 C.2       1 ASP         0.2058
     59 O           5.4280    3.2540   35.0330 O.2       1 ASP        -0.3942
     60 CB          2.7210    2.4430   34.1970 C.3       1 ASP         0.0406
     61 CG          1.7200    1.2900   34.1440 C.2       1 ASP         0.0393
     62 OD1         1.2590    0.8350   35.2050 O.co2     1 ASP        -0.5688
     63 OD2         1.4020    0.8210   33.0330 O.co2     1 ASP        -0.5688
     64 N           4.3440    4.8410   36.2180 N.am      1 PTR        -0.2606
     65 CA          5.5090    5.7060   36.3360 C.3       1 PTR         0.1468
     66 C           5.7930    5.9970   37.8040 C.2       1 PTR         0.2072
     67 O           4.8750    6.0320   38.6280 O.2       1 PTR        -0.3941
     68 CB          5.3540    6.9790   35.4860 C.3       1 PTR         0.0400
     69 CG          5.1520    6.6780   34.0150 C.ar      1 PTR        -0.0004
     70 CD1         3.8750    6.4610   33.4910 C.ar      1 PTR        -0.0239
     71 CD2         6.2450    6.5580   33.1560 C.ar      1 PTR        -0.0239
     72 CE1         3.6950    6.1580   32.1400 C.ar      1 PTR         0.0115
     73 CE2         6.0740    6.2580   31.8080 C.ar      1 PTR         0.0115
     74 CZ          4.8010    6.0610   31.3020 C.ar      1 PTR         0.1728
     75 OH          4.6840    5.7630   30.0900 O.3       1 PTR        -0.2040
     76 P           3.6640    6.4860   29.0830 P.3       1 PTR         0.1348
     77 O1P         4.0010    6.0370   27.7180 O.co2     1 PTR        -0.6653
     78 O2P         3.7980    8.0180   29.1850 O.co2     1 PTR        -0.6653
     79 O3P         2.2100    6.0540   29.3660 O.co2     1 PTR        -0.6653
     80 N           7.0690    6.1830   38.1200 N.am      1 GLY        -0.2662
     81 CA          7.4890    6.6020   39.4580 C.3       1 GLY         0.1201
     82 C           8.5510    7.6810   39.3830 C.2       1 GLY         0.2008
     83 O           9.3150    7.7400   38.4210 O.2       1 GLY        -0.3947
     84 N           8.5890    8.5500   40.3920 N.am      1 ASP        -0.2624
     85 CA          9.6480    9.5470   40.5060 C.3       1 ASP         0.1423
     86 C          10.8890    8.8860   41.0760 C.2       1 ASP         0.2056
     87 O          10.9550    8.6010   42.2720 O.2       1 ASP        -0.3943
     88 CB          9.2100   10.7010   41.4100 C.3       1 ASP         0.0406
     89 CG          8.1220   11.5440   40.7900 C.2       1 ASP         0.0393
     90 OD1         8.3820   12.1990   39.7600 O.co2     1 ASP        -0.5688
     91 OD2         7.0100   11.5580   41.3450 O.co2     1 ASP        -0.5688
     92 N          11.8590    8.6090   40.2140 N.am      1 ILE        -0.2634
     93 CA         13.1050    7.9760   40.6460 C.3       1 ILE         0.1335
     94 C          14.3000    8.7050   40.0550 C.2       1 ILE         0.2042
     95 O          14.1390    9.5680   39.1900 O.2       1 ILE        -0.3944
     96 CB         13.1810    6.4690   40.2460 C.3       1 ILE        -0.0037
     97 CG1        12.9310    6.2860   38.7380 C.3       1 ILE        -0.0491
     98 CG2        12.2310    5.6300   41.0980 C.3       1 ILE        -0.0582
     99 CD1        13.6050    5.0710   38.1660 C.3       1 ILE        -0.0648
    100 N          15.4920    8.3540   40.5350 N.am      1 GLU        -0.2636
    101 CA         16.7440    8.8480   39.9720 C.3       1 GLU         0.1325
    102 C          17.5150    7.6980   39.3330 C.2       1 GLU         0.2040
    103 O          17.6580    6.6400   39.9420 O.2       1 GLU        -0.3944
    104 CB         17.5900    9.5100   41.0650 C.3       1 GLU        -0.0008
    105 CG         18.8980   10.0980   40.5700 C.3       1 GLU         0.0044
    106 CD         19.6790   10.8190   41.6520 C.2       1 GLU         0.0350
    107 OE1        19.1210   11.0850   42.7400 O.co2     1 GLU        -0.5690
    108 OE2        20.8620   11.1300   41.4050 O.co2     1 GLU        -0.5690
    109 N          17.9910    7.9130   38.1060 N.am      1 ILE        -0.2635
    110 CA         18.8070    6.9310   37.3810 C.3       1 ILE         0.1335
    111 C          20.1670    7.5340   37.0190 C.2       1 ILE         0.2040
    112 O          20.3740    8.7450   37.1710 O.2       1 ILE        -0.3944
    113 CB         18.0970    6.3940   36.0930 C.3       1 ILE        -0.0037
    114 CG1        17.9370    7.5040   35.0450 C.3       1 ILE        -0.0491
    115 CG2        16.7550    5.7460   36.4420 C.3       1 ILE        -0.0582
    116 CD1        17.4390    7.0200   33.6600 C.3       1 ILE        -0.0648
    117 N          21.0930    6.6940   36.5590 N.am      1 GLY        -0.2650
    118 CA         22.4180    7.1600   36.1480 C.3       1 GLY         0.1312
    119 C          23.3150    7.5990   37.2970 C.2       1 GLY         0.2539
    120 O          23.4900    6.8710   38.2780 O.2       1 GLY        -0.3683
    121 H1         -4.8364    3.7117   23.1308 H         1 TYR         0.2017
    122 H2         -5.8449    3.4777   24.4105 H         1 TYR         0.2017
    123 H3         -4.2147    3.4887   24.6385 H         1 TYR         0.2017
    124 H4         -4.0497    5.7855   24.0372 H         1 TYR         0.1120
    125 H5         -6.1044    7.0869   23.6501 H         1 TYR         0.0486
    126 H6         -7.0855    5.5896   23.7988 H         1 TYR         0.0486
    127 H7         -7.3654    4.1344   21.9339 H         1 TYR         0.0530
    128 H8         -4.4161    7.2375   21.7418 H         1 TYR         0.0530
    129 H9         -7.0665    3.6980   19.5197 H         1 TYR         0.0525
    130 H10        -4.1036    6.7850   19.3223 H         1 TYR         0.0525
    131 H11        -4.4896    4.7122   17.7652 H         1 TYR         0.2458
    132 H12        -5.6730    3.7983   26.2311 H         1 ASN         0.1886
    133 H13        -6.3459    5.7306   28.2420 H         1 ASN         0.0826
    134 H14        -6.2552    3.7160   29.7889 H         1 ASN         0.0551
    135 H15        -5.7732    2.7437   28.3574 H         1 ASN         0.0551
    136 H16        -9.2012    2.0742   27.9403 H         1 ASN         0.1814
    137 H17        -7.6355    1.4623   28.3578 H         1 ASN         0.1814
    138 H18        -2.1823    6.4472   29.7289 H         1 PRO         0.0802
    139 H19        -2.8670    8.7173   29.9209 H         1 PRO         0.0313
    140 H20        -2.8147    8.2926   31.6655 H         1 PRO         0.0313
    141 H21        -5.0487    9.2576   30.5432 H         1 PRO         0.0287
    142 H22        -5.1171    7.9692   31.7930 H         1 PRO         0.0287
    143 H23        -6.2693    6.7948   30.1687 H         1 PRO         0.0524
    144 H24        -5.6041    7.7973   28.8348 H         1 PRO         0.0524
    145 H25        -0.9864    5.6849   31.4575 H         1 TYR         0.1885
    146 H26        -2.5045    4.5162   33.7432 H         1 TYR         0.0821
    147 H27        -0.8076    2.6524   33.7936 H         1 TYR         0.0453
    148 H28        -0.2171    3.2286   32.1980 H         1 TYR         0.0453
    149 H29        -3.0799    1.6790   33.9940 H         1 TYR         0.0530
    150 H30        -1.5087    2.8550   30.1944 H         1 TYR         0.0530
    151 H31        -4.8466    0.3736   32.8642 H         1 TYR         0.0525
    152 H32        -3.2614    1.5551   29.0550 H         1 TYR         0.0525
    153 H33        -5.6441    0.7586   29.6966 H         1 TYR         0.2458
    154 H34         0.5508    7.6668   35.1839 H         1 PRO         0.0802
    155 H35        -1.1170    9.0565   36.0257 H         1 PRO         0.0313
    156 H36        -0.9397    8.1263   37.5521 H         1 PRO         0.0313
    157 H37        -3.3034    8.2252   36.2566 H         1 PRO         0.0287
    158 H38        -2.7515    6.7131   37.0539 H         1 PRO         0.0287
    159 H39        -3.1410    5.9317   34.8720 H         1 PRO         0.0524
    160 H40        -2.6462    7.4869   34.1215 H         1 PRO         0.0524
    161 H41        -0.8821    4.8826   36.8690 H         1 GLU         0.1883
    162 H42         1.0414    4.9071   39.0195 H         1 GLU         0.0801
    163 H43         0.0939    2.7421   39.6442 H         1 GLU         0.0330
    164 H44        -0.7737    2.6498   38.0740 H         1 GLU         0.0330
    165 H45        -2.0632    4.6741   38.6473 H         1 GLU         0.0433
    166 H46        -1.1701    4.8191   40.1990 H         1 GLU         0.0433
    167 H47         1.3346    3.9665   35.7718 H         1 ASP         0.1884
    168 H48         3.3515    1.8898   36.1816 H         1 ASP         0.0819
    169 H49         3.6242    2.1496   33.6420 H         1 ASP         0.0478
    170 H50         2.2673    3.3241   33.7197 H         1 ASP         0.0478
    171 H51         3.4740    5.1401   36.6100 H         1 PTR         0.1886
    172 H52         6.3745    5.1563   35.9376 H         1 PTR         0.0840
    173 H53         6.2615    7.5903   35.5988 H         1 PTR         0.0584
    174 H54         4.4838    7.5433   35.8525 H         1 PTR         0.0584
    175 H55         3.0115    6.5289   34.1428 H         1 PTR         0.0703
    176 H56         7.2462    6.7012   33.5461 H         1 PTR         0.0703
    177 H57         2.6978    5.9990   31.7459 H         1 PTR         0.0736
    178 H58         6.9361    6.1788   31.1556 H         1 PTR         0.0736
    179 H59         7.7669    6.0317   37.4200 H         1 GLY         0.1881
    180 H60         7.8969    5.7331   39.9952 H         1 GLY         0.0763
    181 H61         6.6169    6.9934   40.0023 H         1 GLY         0.0763
    182 H62         7.8730    8.5181   41.0894 H         1 ASP         0.1884
    183 H63         9.8762    9.9449   39.5062 H         1 ASP         0.0819
    184 H64        10.0813   11.3420   41.6100 H         1 ASP         0.0478
    185 H65         8.8362   10.2843   42.3569 H         1 ASP         0.0478
    186 H66        11.7356    8.8379   39.2484 H         1 ILE         0.1883
    187 H67        13.1578    8.0441   41.7426 H         1 ILE         0.0803
    188 H68        14.2033    6.1201   40.4539 H         1 ILE         0.0345
    189 H69        13.3085    7.1749   38.2113 H         1 ILE         0.0267
    190 H70        11.8474    6.1943   38.5725 H         1 ILE         0.0267
    191 H71        12.4502    5.7960   42.1631 H         1 ILE         0.0235
    192 H72        12.3663    4.5652   40.8575 H         1 ILE         0.0235
    193 H73        11.1923    5.9245   40.8872 H         1 ILE         0.0235
    194 H74        13.3853    5.0021   37.0904 H         1 ILE         0.0230
    195 H75        13.2310    4.1704   38.6750 H         1 ILE         0.0230
    196 H76        14.6921    5.1510   38.3138 H         1 ILE         0.0230
    197 H77        15.5302    7.7265   41.3127 H         1 GLU         0.1883
    198 H78        16.5156    9.5961   39.1986 H         1 GLU         0.0801
    199 H79        17.8197    8.7529   41.8292 H         1 GLU         0.0330
    200 H80        16.9975   10.3191   41.5170 H         1 GLU         0.0330
    201 H81        18.6766   10.8130   39.7640 H         1 GLU         0.0433
    202 H82        19.5206    9.2816   40.1752 H         1 GLU         0.0433
    203 H83        17.7826    8.7830   37.6591 H         1 ILE         0.1883
    204 H84        18.9772    6.0761   38.0519 H         1 ILE         0.0803
    205 H85        18.7393    5.6152   35.6561 H         1 ILE         0.0345
    206 H86        18.9148    7.9887   34.9072 H         1 ILE         0.0267
    207 H87        17.2149    8.2384   35.4312 H         1 ILE         0.0267
    208 H88        16.9126    4.9585   37.1936 H         1 ILE         0.0235
    209 H89        16.3140    5.3050   35.5359 H         1 ILE         0.0235
    210 H90        16.0739    6.5087   36.8474 H         1 ILE         0.0235
    211 H91        17.3555    7.8801   32.9793 H         1 ILE         0.0230
    212 H92        16.4540    6.5430   33.7706 H         1 ILE         0.0230
    213 H93        18.1539    6.2934   33.2467 H         1 ILE         0.0230
    214 H94        20.8771    5.7198   36.4928 H         1 GLY         0.1882
    215 H95        22.2865    8.0149   35.4684 H         1 GLY         0.0780
    216 H96        22.9203    6.3404   35.6133 H         1 GLY         0.0780
    217 O          23.9183    8.7831   37.2428 O.3       1 GLY        -0.2912
    218 H97        24.8596    8.6596   37.2777 H         1 GLY         0.2540
@<TRIPOS>BOND
     1    1    2 1  
     2    2    3 1  
     3    2    5 1  
     4    3    4 2  
     5    3   13 am 
     6    5    6 1  
     7    6    7 ar 
     8    6    8 ar 
     9    7    9 ar 
    10    8   10 ar 
    11    9   11 ar 
    12   10   11 ar 
    13   11   12 1  
    14   13   14 1  
    15   14   15 1  
    16   14   17 1  
    17   15   16 2  
    18   15   21 am 
    19   17   18 1  
    20   18   19 2  
    21   18   20 am 
    22   21   22 1  
    23   21   27 1  
    24   22   23 1  
    25   22   25 1  
    26   23   24 2  
    27   23   28 am 
    28   25   26 1  
    29   26   27 1  
    30   28   29 1  
    31   29   30 1  
    32   29   32 1  
    33   30   31 2  
    34   30   40 am 
    35   32   33 1  
    36   33   34 ar 
    37   33   35 ar 
    38   34   36 ar 
    39   35   37 ar 
    40   36   38 ar 
    41   37   38 ar 
    42   38   39 1  
    43   40   41 1  
    44   40   46 1  
    45   41   42 1  
    46   41   44 1  
    47   42   43 2  
    48   42   47 am 
    49   44   45 1  
    50   45   46 1  
    51   47   48 1  
    52   48   49 1  
    53   48   51 1  
    54   49   50 2  
    55   49   56 am 
    56   51   52 1  
    57   52   53 1  
    58   53   54 ar 
    59   53   55 ar 
    60   56   57 1  
    61   57   58 1  
    62   57   60 1  
    63   58   59 2  
    64   58   64 am 
    65   60   61 1  
    66   61   62 ar 
    67   61   63 ar 
    68   64   65 1  
    69   65   66 1  
    70   65   68 1  
    71   66   67 2  
    72   66   80 am 
    73   68   69 1  
    74   69   70 ar 
    75   69   71 ar 
    76   70   72 ar 
    77   71   73 ar 
    78   72   74 ar 
    79   73   74 ar 
    80   74   75 1  
    81   75   76 1  
    82   76   77 ar 
    83   76   78 ar 
    84   76   79 ar 
    85   80   81 1  
    86   81   82 1  
    87   82   83 2  
    88   82   84 am 
    89   84   85 1  
    90   85   86 1  
    91   85   88 1  
    92   86   87 2  
    93   86   92 am 
    94   88   89 1  
    95   89   90 ar 
    96   89   91 ar 
    97   92   93 1  
    98   93   94 1  
    99   93   96 1  
   100   94   95 2  
   101   94  100 am 
   102   96   97 1  
   103   96   98 1  
   104   97   99 1  
   105  100  101 1  
   106  101  102 1  
   107  101  104 1  
   108  102  103 2  
   109  102  109 am 
   110  104  105 1  
   111  105  106 1  
   112  106  107 ar 
   113  106  108 ar 
   114  109  110 1  
   115  110  111 1  
   116  110  113 1  
   117  111  112 2  
   118  111  117 am 
   119  113  114 1  
   120  113  115 1  
   121  114  116 1  
   122  117  118 1  
   123  118  119 1  
   124  119  120 2  
   125    1  121 1  
   126    1  122 1  
   127    1  123 1  
   128    2  124 1  
   129    5  125 1  
   130    5  126 1  
   131    7  127 1  
   132    8  128 1  
   133    9  129 1  
   134   10  130 1  
   135   12  131 1  
   136   13  132 1  
   137   14  133 1  
   138   17  134 1  
   139   17  135 1  
   140   20  136 1  
   141   20  137 1  
   142   22  138 1  
   143   25  139 1  
   144   25  140 1  
   145   26  141 1  
   146   26  142 1  
   147   27  143 1  
   148   27  144 1  
   149   28  145 1  
   150   29  146 1  
   151   32  147 1  
   152   32  148 1  
   153   34  149 1  
   154   35  150 1  
   155   36  151 1  
   156   37  152 1  
   157   39  153 1  
   158   41  154 1  
   159   44  155 1  
   160   44  156 1  
   161   45  157 1  
   162   45  158 1  
   163   46  159 1  
   164   46  160 1  
   165   47  161 1  
   166   48  162 1  
   167   51  163 1  
   168   51  164 1  
   169   52  165 1  
   170   52  166 1  
   171   56  167 1  
   172   57  168 1  
   173   60  169 1  
   174   60  170 1  
   175   64  171 1  
   176   65  172 1  
   177   68  173 1  
   178   68  174 1  
   179   70  175 1  
   180   71  176 1  
   181   72  177 1  
   182   73  178 1  
   183   80  179 1  
   184   81  180 1  
   185   81  181 1  
   186   84  182 1  
   187   85  183 1  
   188   88  184 1  
   189   88  185 1  
   190   92  186 1  
   191   93  187 1  
   192   96  188 1  
   193   97  189 1  
   194   97  190 1  
   195   98  191 1  
   196   98  192 1  
   197   98  193 1  
   198   99  194 1  
   199   99  195 1  
   200   99  196 1  
   201  100  197 1  
   202  101  198 1  
   203  104  199 1  
   204  104  200 1  
   205  105  201 1  
   206  105  202 1  
   207  109  203 1  
   208  110  204 1  
   209  113  205 1  
   210  114  206 1  
   211  114  207 1  
   212  115  208 1  
   213  115  209 1  
   214  115  210 1  
   215  116  211 1  
   216  116  212 1  
   217  116  213 1  
   218  117  214 1  
   219  118  215 1  
   220  118  216 1  
   221  119  217 1  
   222  217  218 1  
@<TRIPOS>SUBSTRUCTURE
     1 TYR         1

