2xm8_ligand
  -I-interpret- 

 42 45  0  0  0  0  0  0  0  0999 V2000
    7.7850  -47.6760    7.8100 C   0  0  0  0  0
    7.0170  -48.0850    8.8640 C   0  0  0  0  0
    7.6180  -48.4830   10.0610 C   0  0  0  0  0
    9.0750  -48.4590   10.1830 C   0  0  0  0  0
    9.8710  -48.0410    9.1080 C   0  0  0  0  0
    9.2870  -47.6510    7.9350 C   0  0  0  0  0
   10.1140  -47.2240    6.8330 C   0  0  0  0  0
   12.0730  -47.5880    8.1100 C   0  0  0  0  0
   13.5780  -47.5570    8.2140 C   0  0  0  0  0
   14.2890  -48.1090    9.4020 C   0  0  0  0  0
   15.6660  -48.0680    9.4640 C   0  0  0  0  0
   16.4040  -47.5150    8.4100 C   0  0  0  0  0
   15.7220  -46.9910    7.2700 C   0  0  0  0  0
   14.2890  -47.0300    7.2020 C   0  0  0  0  0
    9.2920  -45.8430    4.4850 C   0  0  0  0  0
    9.0750  -44.3430    4.7610 C   0  0  0  0  0
    8.3870  -44.8640    2.5120 C   0  0  0  0  0
    8.3030  -46.1320    3.3590 C   0  0  0  0  0
   11.2270  -48.0230    9.2360 N   0  0  0  0  0
   11.4960  -47.2120    6.9730 N   0  0  0  0  0
    9.5720  -46.7760    5.5660 N   0  0  0  0  0
    8.8490  -43.7590    3.4100 N   0  3  0  0  0
   13.5760  -48.6560   10.4460 O   0  0  0  0  0
    7.3110  -47.3676    6.8782 H   0  0  0  0  0
    5.9311  -48.1008    8.7704 H   0  0  0  0  0
    7.0036  -48.8098   10.8999 H   0  0  0  0  0
    9.5452  -48.7683   11.1165 H   0  0  0  0  0
   16.1821  -48.4676   10.3369 H   0  0  0  0  0
   17.4925  -47.4847    8.4595 H   0  0  0  0  0
   16.2925  -46.5594    6.4476 H   0  0  0  0  0
   13.7755  -46.6311    6.3272 H   0  0  0  0  0
   10.3071  -46.0867    4.1713 H   0  0  0  0  0
    9.9245  -43.8890    5.2713 H   0  0  0  0  0
    8.2374  -44.1632    5.4350 H   0  0  0  0  0
    7.4145  -44.6261    2.0811 H   0  0  0  0  0
    9.0831  -45.0015    1.6845 H   0  0  0  0  0
    7.2951  -46.3395    3.7185 H   0  0  0  0  0
    8.5446  -47.0359    2.7998 H   0  0  0  0  0
    9.1096  -47.6213    5.2312 H   0  0  0  0  0
    9.7100  -43.3456    3.0521 H   0  0  0  0  0
    8.1479  -43.0194    3.4544 H   0  0  0  0  0
   14.1848  -48.9610   11.1227 H   0  0  0  0  0
  1  2  4  0  0  0
  6  1  4  0  0  0
  2  3  4  0  0  0
  4  3  4  0  0  0
  5  4  4  0  0  0
  6  5  4  0  0  0
  5 19  4  0  0  0
  7  6  4  0  0  0
  7 20  4  0  0  0
 21  7  1  0  0  0
  8  9  1  0  0  0
  8 19  4  0  0  0
 20  8  4  0  0  0
  9 10  4  0  0  0
  9 14  4  0  0  0
 10 11  4  0  0  0
 10 23  1  0  0  0
 11 12  4  0  0  0
 13 12  4  0  0  0
 14 13  4  0  0  0
 15 16  1  0  0  0
 15 18  1  0  0  0
 15 21  1  0  0  0
 16 22  1  0  0  0
 18 17  1  0  0  0
 17 22  1  0  0  0
  1 24  1  0  0  0
  2 25  1  0  0  0
  3 26  1  0  0  0
  4 27  1  0  0  0
 11 28  1  0  0  0
 12 29  1  0  0  0
 13 30  1  0  0  0
 14 31  1  0  0  0
 15 32  1  0  0  0
 16 33  1  0  0  0
 16 34  1  0  0  0
 17 35  1  0  0  0
 17 36  1  0  0  0
 18 37  1  0  0  0
 18 38  1  0  0  0
 21 39  1  0  0  0
 22 40  1  0  0  0
 22 41  1  0  0  0
 23 42  1  0  0  0
M  END
$$$$
