6o50_ligand
  -I-interpret- 

 68 69  0  0  0  0  0  0  0  0999 V2000
   36.4330  -14.5840   -9.5220 C   0  0  0  0  0
   36.1190  -15.0520   -8.1200 C   0  0  0  0  0
   35.7320  -13.3790  -10.1010 C   0  0  0  0  0
   35.9060  -16.5480   -8.1250 C   0  0  0  0  0
   35.5950  -17.1250   -6.7640 C   0  0  0  0  0
   36.4700  -18.0380   -6.2010 C   0  0  0  0  0
   36.1960  -18.5770   -4.9560 C   0  0  0  0  0
   35.0430  -18.2100   -4.2830 C   0  0  0  0  0
   34.1670  -17.2950   -4.8450 C   0  0  0  0  0
   32.3170   -9.2950  -13.6620 N   0  3  0  0  0
   34.7750  -18.7600   -3.0060 N   0  3  0  0  0
   34.4420  -16.7530   -6.0910 C   0  0  0  0  0
   34.9340  -13.7740  -11.3230 C   0  0  0  0  0
   34.2430  -12.5880  -11.9510 C   0  0  0  0  0
   33.2270  -11.9490  -11.2630 C   0  0  0  0  0
   32.5890  -10.8580  -11.8320 C   0  0  0  0  0
   32.9730  -10.4130  -13.0880 C   0  0  0  0  0
   33.9920  -11.0550  -13.7750 C   0  0  0  0  0
   34.6270  -12.1420  -13.2040 C   0  0  0  0  0
   32.8540   -9.0390  -14.9490 C   0  0  0  0  0
   30.9270   -9.5660  -13.7570 C   0  0  0  0  0
   32.5380   -8.1660  -12.8320 C   0  0  0  0  0
   34.0020   -8.0740  -12.4570 C   0  0  0  0  0
   34.7750  -17.6830   -2.0810 C   0  0  0  0  0
   35.7900  -19.6990   -2.6820 C   0  0  0  0  0
   33.5130  -19.4090   -3.0000 C   0  0  0  0  0
   35.9540  -17.7720   -1.1400 C   0  0  0  0  0
   36.9620  -16.8870   -1.2730 C   0  0  0  0  0
   34.3570   -7.6210  -11.2380 C   0  0  0  0  0
   37.2480  -15.1870  -10.1900 O   0  0  0  0  0
   35.2148  -14.5572   -7.7655 H   0  0  0  0  0
   36.9503  -14.8053   -7.4596 H   0  0  0  0  0
   36.4772  -12.6367  -10.3869 H   0  0  0  0  0
   35.0559  -12.9664   -9.3522 H   0  0  0  0  0
   36.8333  -17.0069   -8.4681 H   0  0  0  0  0
   35.0495  -16.7519   -8.7676 H   0  0  0  0  0
   37.3726  -18.3317   -6.7369 H   0  0  0  0  0
   36.8871  -19.2896   -4.5058 H   0  0  0  0  0
   33.2643  -17.0023   -4.3089 H   0  0  0  0  0
   33.7538  -16.0368   -6.5398 H   0  0  0  0  0
   34.1722  -14.4909  -11.0168 H   0  0  0  0  0
   35.6195  -14.1982  -12.0566 H   0  0  0  0  0
   32.9290  -12.3026  -10.2760 H   0  0  0  0  0
   31.7879  -10.3513  -11.2939 H   0  0  0  0  0
   34.2915  -10.7036  -14.7624 H   0  0  0  0  0
   35.4299  -12.6479  -13.7402 H   0  0  0  0  0
   33.9200   -8.8291  -14.8613 H   0  0  0  0  0
   32.7054   -9.9126  -15.5836 H   0  0  0  0  0
   32.3480   -8.1791  -15.3880 H   0  0  0  0  0
   30.7713  -10.4436  -14.3845 H   0  0  0  0  0
   30.5259   -9.7541  -12.7611 H   0  0  0  0  0
   30.4201   -8.7078  -14.1981 H   0  0  0  0  0
   31.9422   -8.2670  -11.9249 H   0  0  0  0  0
   32.2497   -7.2638  -13.3714 H   0  0  0  0  0
   34.7682   -8.3738  -13.1720 H   0  0  0  0  0
   33.8573  -17.7276   -1.4946 H   0  0  0  0  0
   34.8423  -16.7473   -2.6360 H   0  0  0  0  0
   35.8006  -20.4928   -3.4289 H   0  0  0  0  0
   36.7573  -19.1968   -2.6699 H   0  0  0  0  0
   35.5883  -20.1255   -1.6994 H   0  0  0  0  0
   32.7338  -18.6878   -3.2465 H   0  0  0  0  0
   33.5146  -20.2107   -3.7385 H   0  0  0  0  0
   33.3247  -19.8253   -2.0104 H   0  0  0  0  0
   35.9888  -18.5392   -0.3665 H   0  0  0  0  0
   36.9180  -16.1235   -2.0497 H   0  0  0  0  0
   37.8211  -16.9349   -0.6039 H   0  0  0  0  0
   33.5904   -7.3214  -10.5234 H   0  0  0  0  0
   35.4106   -7.5543  -10.9669 H   0  0  0  0  0
  1  2  1  0  0  0
  3  1  1  0  0  0
  1 30  2  0  0  0
  2  4  1  0  0  0
 13  3  1  0  0  0
  4  5  1  0  0  0
  5  6  4  0  0  0
  5 12  4  0  0  0
  6  7  4  0  0  0
  7  8  4  0  0  0
  9  8  4  0  0  0
  8 11  1  0  0  0
 12  9  4  0  0  0
 17 10  1  0  0  0
 10 20  1  0  0  0
 10 21  1  0  0  0
 10 22  1  0  0  0
 11 24  1  0  0  0
 11 25  1  0  0  0
 11 26  1  0  0  0
 14 13  1  0  0  0
 15 14  4  0  0  0
 14 19  4  0  0  0
 16 15  4  0  0  0
 16 17  4  0  0  0
 17 18  4  0  0  0
 18 19  4  0  0  0
 22 23  1  0  0  0
 23 29  2  0  0  0
 24 27  1  0  0  0
 27 28  2  0  0  0
  2 31  1  0  0  0
  2 32  1  0  0  0
  3 33  1  0  0  0
  3 34  1  0  0  0
  4 35  1  0  0  0
  4 36  1  0  0  0
  6 37  1  0  0  0
  7 38  1  0  0  0
  9 39  1  0  0  0
 12 40  1  0  0  0
 13 41  1  0  0  0
 13 42  1  0  0  0
 15 43  1  0  0  0
 16 44  1  0  0  0
 18 45  1  0  0  0
 19 46  1  0  0  0
 20 47  1  0  0  0
 20 48  1  0  0  0
 20 49  1  0  0  0
 21 50  1  0  0  0
 21 51  1  0  0  0
 21 52  1  0  0  0
 22 53  1  0  0  0
 22 54  1  0  0  0
 23 55  1  0  0  0
 24 56  1  0  0  0
 24 57  1  0  0  0
 25 58  1  0  0  0
 25 59  1  0  0  0
 25 60  1  0  0  0
 26 61  1  0  0  0
 26 62  1  0  0  0
 26 63  1  0  0  0
 27 64  1  0  0  0
 28 65  1  0  0  0
 28 66  1  0  0  0
 29 67  1  0  0  0
 29 68  1  0  0  0
M  END
$$$$
