2xwd_ligand
  -I-interpret- 

 32 33  0  0  0  0  0  0  0  0999 V2000
  -35.5990  -14.5230   -3.1630 O   0  0  0  0  0
  -35.7690  -15.4030   -2.0630 C   0  0  0  0  0
  -34.4190  -15.7930   -1.4300 C   0  0  0  0  0
  -33.6810  -14.5470   -0.9130 C   0  0  0  0  0
  -33.0940  -14.9750    0.3230 O   0  0  0  0  0
  -36.4540  -16.6330   -2.5690 C   0  0  0  0  0
  -37.6410  -16.2740   -3.2520 O   0  0  0  0  0
  -36.7950  -17.5500   -1.4040 C   0  0  0  0  0
  -37.0800  -18.8270   -1.9970 O   0  0  0  0  0
  -35.7010  -17.6380   -0.2720 C   0  0  0  0  0
  -36.3080  -17.5200    1.0060 O   0  0  0  0  0
  -34.7010  -16.5720   -0.2170 N   0  0  0  0  0
  -33.9200  -15.9770    0.8290 C   0  0  0  0  0
  -33.8430  -16.2680    2.1460 N   0  0  0  0  0
  -34.5410  -17.2910    2.9730 C   0  0  0  0  0
  -34.4090  -16.9980    4.5290 C   0  0  0  0  0
  -35.1602  -13.7224   -2.8661 H   0  0  0  0  0
  -36.3582  -14.9046   -1.2932 H   0  0  0  0  0
  -33.8325  -16.3247   -2.1793 H   0  0  0  0  0
  -34.3510  -13.6979   -0.7784 H   0  0  0  0  0
  -32.9341  -14.1875   -1.6208 H   0  0  0  0  0
  -35.7867  -17.1549   -3.2549 H   0  0  0  0  0
  -37.4237  -15.6955   -3.9866 H   0  0  0  0  0
  -37.6473  -17.1449   -0.8584 H   0  0  0  0  0
  -37.7490  -18.7205   -2.6772 H   0  0  0  0  0
  -35.2222  -18.5872   -0.5125 H   0  0  0  0  0
  -35.6327  -17.5750    1.6861 H   0  0  0  0  0
  -34.0840  -18.2597    2.7706 H   0  0  0  0  0
  -35.5994  -17.2721    2.7132 H   0  0  0  0  0
  -33.3556  -16.9969    4.8091 H   0  0  0  0  0
  -34.8468  -16.0251    4.7526 H   0  0  0  0  0
  -34.9344  -17.7716    5.0889 H   0  0  0  0  0
  1  2  1  0  0  0
  2  3  1  0  0  0
  2  6  1  0  0  0
  3  4  1  0  0  0
  3 12  1  0  0  0
  4  5  1  0  0  0
  5 13  1  0  0  0
  6  7  1  0  0  0
  6  8  1  0  0  0
  8  9  1  0  0  0
  8 10  1  0  0  0
 10 11  1  0  0  0
 10 12  1  0  0  0
 12 13  1  0  0  0
 13 14  2  0  0  0
 14 15  1  0  0  0
 15 16  1  0  0  0
  1 17  1  0  0  0
  2 18  1  0  0  0
  3 19  1  0  0  0
  4 20  1  0  0  0
  4 21  1  0  0  0
  6 22  1  0  0  0
  7 23  1  0  0  0
  8 24  1  0  0  0
  9 25  1  0  0  0
 10 26  1  0  0  0
 11 27  1  0  0  0
 15 28  1  0  0  0
 15 29  1  0  0  0
 16 30  1  0  0  0
 16 31  1  0  0  0
 16 32  1  0  0  0
M  END
$$$$
