1z5m_ligand
  -I-interpret- 

 66 68  0  0  0  0  0  0  0  0999 V2000
   -8.7460   43.4960   43.4960 C   0  0  0  0  0
   -7.3900   43.5560   43.9640 C   0  0  0  0  0
   -6.7700   42.3830   44.2310 N   0  0  0  0  0
   -7.3610   41.1770   44.0690 C   0  0  0  0  0
   -8.6250   41.1340   43.6130 N   0  0  0  0  0
   -9.3230   42.2380   43.3290 C   0  0  0  0  0
   -9.8060   44.9890   43.1270 Br  0  0  0  0  0
   -6.7680   40.0080   44.3260 N   0  0  0  0  0
   -5.5720   39.7600   44.8740 C   0  0  0  0  0
   -4.4620   40.6670   44.8930 C   0  0  0  0  0
   -3.2410   40.2990   45.5070 C   0  0  0  0  0
   -3.1410   39.0030   46.1000 C   0  0  0  0  0
   -4.2250   38.1020   46.0860 C   0  0  0  0  0
   -5.4340   38.4910   45.4780 C   0  0  0  0  0
   -2.2360   41.2050   45.5260 N   0  0  0  0  0
   -0.9940   41.0960   45.0570 C   0  0  0  0  0
   -0.6370   40.0570   44.4640 O   0  0  0  0  0
   -0.0910   42.0830   45.2450 N   0  0  0  0  0
   -0.3450   43.3050   45.9240 C   0  0  0  0  0
    0.9980   43.6460   46.6200 C   0  0  0  0  0
    2.0170   42.6180   46.0440 C   0  0  0  0  0
    1.2750   41.9940   44.8530 C   0  0  0  0  0
   -6.7370   44.7340   44.1560 N   0  0  0  0  0
   -5.4410   44.8800   44.7410 C   0  0  0  0  0
   -4.3080   44.6490   43.7190 C   0  0  0  0  0
   -4.6850   46.9010   42.7280 N   0  0  0  0  0
   -3.8420   47.7490   43.3860 C   0  0  0  0  0
   -2.7280   47.2800   43.8010 O   0  0  0  0  0
   -4.4230   45.5140   42.4440 C   0  0  0  0  0
   -4.1590   49.2330   43.6380 C   0  0  0  0  0
   -2.8220   50.0500   43.6160 C   0  0  0  0  0
   -5.0880   49.8530   42.5270 C   0  0  0  0  0
   -4.7640   49.4030   44.9870 C   0  0  0  0  0
   -5.8370   50.0190   45.1910 O   0  0  0  0  0
   -4.1800   48.9110   46.0750 N   0  0  0  0  0
  -10.3472   42.1543   42.9655 H   0  0  0  0  0
   -7.3064   39.1816   44.0661 H   0  0  0  0  0
   -4.5592   41.6491   44.4303 H   0  0  0  0  0
   -2.2058   38.7044   46.5737 H   0  0  0  0  0
   -4.1285   37.1159   46.5404 H   0  0  0  0  0
   -6.2777   37.8009   45.4735 H   0  0  0  0  0
   -2.4618   42.0992   45.9617 H   0  0  0  0  0
   -1.1643   43.2144   46.6372 H   0  0  0  0  0
   -0.6646   44.0933   45.2424 H   0  0  0  0  0
    0.9216   43.5772   47.7051 H   0  0  0  0  0
    1.3055   44.6738   46.4271 H   0  0  0  0  0
    2.3174   41.8738   46.7816 H   0  0  0  0  0
    2.9562   43.0858   45.7487 H   0  0  0  0  0
    1.4790   42.5061   43.9127 H   0  0  0  0  0
    1.5900   40.9709   44.6479 H   0  0  0  0  0
   -7.2127   45.5853   43.8571 H   0  0  0  0  0
   -5.3407   44.1358   45.5311 H   0  0  0  0  0
   -5.3532   45.8986   45.1188 H   0  0  0  0  0
   -4.3625   43.6060   43.4072 H   0  0  0  0  0
   -3.3721   44.9186   44.2084 H   0  0  0  0  0
   -5.5762   47.2822   42.4105 H   0  0  0  0  0
   -5.2579   45.1314   41.8570 H   0  0  0  0  0
   -3.4708   45.4568   41.9165 H   0  0  0  0  0
   -2.1573   49.6776   44.3955 H   0  0  0  0  0
   -2.3436   49.9353   42.6433 H   0  0  0  0  0
   -3.0384   51.1034   43.7940 H   0  0  0  0  0
   -4.5946   49.7760   41.5581 H   0  0  0  0  0
   -6.0322   49.3091   42.4996 H   0  0  0  0  0
   -5.2777   50.9014   42.7573 H   0  0  0  0  0
   -4.6088   49.0482   46.9903 H   0  0  0  0  0
   -3.3031   48.3963   45.9946 H   0  0  0  0  0
  2  1  4  0  0  0
  1  6  4  0  0  0
  1  7  1  0  0  0
  2  3  4  0  0  0
 23  2  1  0  0  0
  3  4  4  0  0  0
  4  5  4  0  0  0
  4  8  1  0  0  0
  6  5  4  0  0  0
  8  9  1  0  0  0
  9 10  4  0  0  0
  9 14  4  0  0  0
 10 11  4  0  0  0
 11 12  4  0  0  0
 11 15  1  0  0  0
 13 12  4  0  0  0
 14 13  4  0  0  0
 15 16  1  0  0  0
 16 17  2  0  0  0
 16 18  1  0  0  0
 18 19  1  0  0  0
 18 22  1  0  0  0
 19 20  1  0  0  0
 21 20  1  0  0  0
 22 21  1  0  0  0
 24 23  1  0  0  0
 25 24  1  0  0  0
 29 25  1  0  0  0
 26 27  1  0  0  0
 26 29  1  0  0  0
 27 28  2  0  0  0
 27 30  1  0  0  0
 30 31  1  0  0  0
 30 32  1  0  0  0
 30 33  1  0  0  0
 33 34  2  0  0  0
 33 35  1  0  0  0
  6 36  1  0  0  0
  8 37  1  0  0  0
 10 38  1  0  0  0
 12 39  1  0  0  0
 13 40  1  0  0  0
 14 41  1  0  0  0
 15 42  1  0  0  0
 19 43  1  0  0  0
 19 44  1  0  0  0
 20 45  1  0  0  0
 20 46  1  0  0  0
 21 47  1  0  0  0
 21 48  1  0  0  0
 22 49  1  0  0  0
 22 50  1  0  0  0
 23 51  1  0  0  0
 24 52  1  0  0  0
 24 53  1  0  0  0
 25 54  1  0  0  0
 25 55  1  0  0  0
 26 56  1  0  0  0
 29 57  1  0  0  0
 29 58  1  0  0  0
 31 59  1  0  0  0
 31 60  1  0  0  0
 31 61  1  0  0  0
 32 62  1  0  0  0
 32 63  1  0  0  0
 32 64  1  0  0  0
 35 65  1  0  0  0
 35 66  1  0  0  0
M  END
$$$$
