5ld8_ligand
  -I-interpret- 

 35 36  0  0  0  0  0  0  0  0999 V2000
   11.9130   30.1690   -4.8590 N   0  0  0  0  0
    8.1700   28.1880   -6.6980 C   0  0  0  0  0
    7.7210   28.3100   -5.3820 C   0  0  0  0  0
    8.5340   28.8700   -4.4130 C   0  0  0  0  0
    9.8130   29.3180   -4.7380 C   0  0  0  0  0
   10.8930   29.9410   -4.0610 C   0  0  0  0  0
   10.2550   29.1810   -6.0570 C   0  0  0  0  0
    8.8290   26.7090   -9.4730 O   0  0  0  0  0
    7.6000   27.4170   -9.2860 S   0  0  0  0  0
    6.4080   26.9250   -9.9050 O   0  0  0  0  0
    7.8430   29.0990   -9.8050 C   0  0  0  0  0
    7.4140   29.3320  -11.2480 C   0  0  0  0  0
    6.3940   30.4550  -11.3930 C   0  0  0  0  0
    7.0110   31.7810  -11.7490 C   0  0  0  0  0
    7.2840   27.6350   -7.6730 N   0  0  0  0  0
    9.4550   28.6170   -7.0440 C   0  0  0  0  0
   11.5270   29.7030   -6.0990 N   0  0  0  0  0
   12.4550   29.8200   -7.2140 C   0  0  0  0  0
    6.7230   27.9616   -5.1161 H   0  0  0  0  0
    8.1720   28.9614   -3.3889 H   0  0  0  0  0
   10.8789   30.2005   -3.0024 H   0  0  0  0  0
    8.9069   29.3237   -9.7300 H   0  0  0  0  0
    7.2351   29.7393   -9.1659 H   0  0  0  0  0
    6.9501   28.4139  -11.6085 H   0  0  0  0  0
    8.3005   29.6136  -11.8163 H   0  0  0  0  0
    5.8956   30.5724  -10.4307 H   0  0  0  0  0
    5.7160   30.1806  -12.2012 H   0  0  0  0  0
    7.7133   32.0746  -10.9689 H   0  0  0  0  0
    7.5378   31.6918  -12.6991 H   0  0  0  0  0
    6.2271   32.5334  -11.8360 H   0  0  0  0  0
    6.3634   27.3448   -7.3432 H   0  0  0  0  0
    9.8214   28.5115   -8.0652 H   0  0  0  0  0
   12.6943   30.8708   -7.3771 H   0  0  0  0  0
   13.3675   29.2695   -6.9849 H   0  0  0  0  0
   11.9958   29.4070   -8.1121 H   0  0  0  0  0
  1  6  4  0  0  0
 17  1  4  0  0  0
  2  3  4  0  0  0
 15  2  1  0  0  0
  2 16  4  0  0  0
  3  4  4  0  0  0
  4  5  4  0  0  0
  5  6  4  0  0  0
  7  5  4  0  0  0
 16  7  4  0  0  0
  7 17  4  0  0  0
  9  8  2  0  0  0
  9 10  2  0  0  0
  9 11  1  0  0  0
  9 15  1  0  0  0
 11 12  1  0  0  0
 12 13  1  0  0  0
 13 14  1  0  0  0
 17 18  1  0  0  0
  3 19  1  0  0  0
  4 20  1  0  0  0
  6 21  1  0  0  0
 11 22  1  0  0  0
 11 23  1  0  0  0
 12 24  1  0  0  0
 12 25  1  0  0  0
 13 26  1  0  0  0
 13 27  1  0  0  0
 14 28  1  0  0  0
 14 29  1  0  0  0
 14 30  1  0  0  0
 15 31  1  0  0  0
 16 32  1  0  0  0
 18 33  1  0  0  0
 18 34  1  0  0  0
 18 35  1  0  0  0
M  END
$$$$
