5ai6_ligand
  -I-interpret- 

 17 18  0  0  0  0  0  0  0  0999 V2000
   16.1760   10.3880   12.6280 C   0  0  0  0  0
   18.5990    9.1370    8.4710 C   0  0  0  0  0
   18.9850    9.3480    9.7760 C   0  0  0  0  0
   15.8040   10.1600   11.3190 C   0  0  0  0  0
   17.4990   10.2790   13.0000 C   0  0  0  0  0
   17.2600    9.2770    8.1860 C   0  0  0  0  0
   18.0520    9.7010   10.7310 C   0  0  0  0  0
   16.7240    9.8200   10.3450 C   0  0  0  0  0
   18.4300    9.9330   12.0460 C   0  0  0  0  0
   16.3220    9.6080    9.0820 N   0  0  0  0  0
   20.2370    9.7680   12.6030 Br  0  0  0  0  0
   15.4226   10.6547   13.3692 H   0  0  0  0  0
   19.3212    8.8712    7.6990 H   0  0  0  0  0
   20.0323    9.2358   10.0566 H   0  0  0  0  0
   14.7530   10.2507   11.0447 H   0  0  0  0  0
   17.8026   10.4633   14.0305 H   0  0  0  0  0
   16.9405    9.1063    7.1579 H   0  0  0  0  0
  4  1  4  0  0  0
  1  5  4  0  0  0
  3  2  4  0  0  0
  2  6  4  0  0  0
  7  3  4  0  0  0
  8  4  4  0  0  0
  5  9  4  0  0  0
  6 10  4  0  0  0
  7  8  4  0  0  0
  7  9  4  0  0  0
  8 10  4  0  0  0
  9 11  1  0  0  0
  1 12  1  0  0  0
  2 13  1  0  0  0
  3 14  1  0  0  0
  4 15  1  0  0  0
  5 16  1  0  0  0
  6 17  1  0  0  0
M  END
$$$$
