2w8w_ligand
  -I-interpret- 

 37 37  0  0  0  0  0  0  0  0999 V2000
   30.4010   15.7950   11.7780 N   0  0  0  0  0
   31.4670   16.4680   11.0170 C   0  0  0  0  0
   32.4630   17.2110   11.9080 C   0  0  0  0  0
   31.8260   18.2140   12.7020 O   0  0  0  0  0
   32.2420   15.4390   10.2320 C   0  0  0  0  0
   32.1840   14.2430   10.5860 O   0  0  0  0  0
   32.9180   15.7980    9.2470 O   0  0  0  0  0
   27.1290   13.4640   14.8200 N   0  0  0  0  0
   27.1020   13.7010   13.4910 C   0  0  0  0  0
   25.9280   13.2390   12.6600 C   0  0  0  0  0
   28.1540   14.3740   12.8940 C   0  0  0  0  0
   28.0900   14.5990   11.5570 O   0  0  0  0  0
   29.2440   14.8060   13.6530 C   0  0  0  0  0
   30.3890   15.5290   13.0190 C   0  0  0  0  0
   29.2370   14.5360   15.0230 C   0  0  0  0  0
   28.1600   13.8570   15.5860 C   0  0  0  0  0
   30.3710   14.9460   15.9380 C   0  0  0  0  0
   30.3460   16.3450   16.1540 O   0  0  0  0  0
   31.6740   17.2000   16.4640 P   0  0  0  0  0
   32.4880   16.4530   17.4800 O   0  0  0  0  0
   32.3340   17.3870   15.1270 O   0  0  0  0  0
   31.0460   18.4700   17.0060 O   0  0  0  0  0
   30.9753   17.1959   10.3716 H   0  0  0  0  0
   33.1964   17.6991   11.2662 H   0  0  0  0  0
   32.9255   16.4875   12.5794 H   0  0  0  0  0
   32.4830   18.6557   13.2450 H   0  0  0  0  0
   31.6187   14.1660   11.3581 H   0  0  0  0  0
   25.8355   12.1555   12.7348 H   0  0  0  0  0
   25.0162   13.7091   13.0285 H   0  0  0  0  0
   26.0882   13.5202   11.6192 H   0  0  0  0  0
   28.8771   15.0707   11.2750 H   0  0  0  0  0
   31.2332   15.8348   13.6370 H   0  0  0  0  0
   28.1533   13.6430   16.6548 H   0  0  0  0  0
   31.3191   14.6742   15.4739 H   0  0  0  0  0
   30.2588   14.4359   16.8947 H   0  0  0  0  0
   31.7440   17.8717   14.5452 H   0  0  0  0  0
   30.5416   18.8983   16.3105 H   0  0  0  0  0
  1  2  1  0  0  0
 14  1  2  0  0  0
  2  3  1  0  0  0
  2  5  1  0  0  0
  3  4  1  0  0  0
  5  6  1  0  0  0
  5  7  2  0  0  0
  9  8  4  0  0  0
  8 16  4  0  0  0
  9 10  1  0  0  0
 11  9  4  0  0  0
 11 12  1  0  0  0
 13 11  4  0  0  0
 13 14  1  0  0  0
 13 15  4  0  0  0
 15 16  4  0  0  0
 15 17  1  0  0  0
 17 18  1  0  0  0
 18 19  1  0  0  0
 19 20  2  0  0  0
 19 21  1  0  0  0
 19 22  1  0  0  0
  2 23  1  0  0  0
  3 24  1  0  0  0
  3 25  1  0  0  0
  4 26  1  0  0  0
  6 27  1  0  0  0
 10 28  1  0  0  0
 10 29  1  0  0  0
 10 30  1  0  0  0
 12 31  1  0  0  0
 14 32  1  0  0  0
 16 33  1  0  0  0
 17 34  1  0  0  0
 17 35  1  0  0  0
 21 36  1  0  0  0
 22 37  1  0  0  0
M  END
$$$$
