6evo_ligand
  -I-interpret- 

118122  0  0  0  0  0  0  0  0999 V2000
   -8.9600   13.8960  -13.7410 N   0  3  0  0  0
   -9.1320   14.6960  -14.9590 C   0  0  0  0  0
  -10.4680   15.4360  -14.9930 C   0  0  0  0  0
  -11.2800   15.2550  -14.0800 O   0  0  0  0  0
   -9.0600   13.6520  -16.0810 C   0  0  0  0  0
   -8.2630   12.5370  -15.5150 C   0  0  0  0  0
   -8.5700   12.5060  -14.0410 C   0  0  0  0  0
  -10.6960   16.2470  -16.0300 N   0  0  0  0  0
  -11.9810   16.9500  -16.1500 C   0  0  0  0  0
  -13.0680   15.9830  -16.5950 C   0  0  0  0  0
  -12.9640   15.3660  -17.6590 O   0  0  0  0  0
  -11.7070   18.0260  -17.2120 C   0  0  0  0  0
  -10.3360   17.7230  -17.7920 C   0  0  0  0  0
   -9.8700   16.4140  -17.2370 C   0  0  0  0  0
  -14.1100   15.8430  -15.7770 N   0  0  0  0  0
  -15.1790   14.9350  -16.1090 C   0  0  0  0  0
  -16.2550   14.8470  -15.0510 C   0  0  0  0  0
  -16.1530   15.4240  -13.9660 O   0  0  0  0  0
  -17.3200   14.1250  -15.3650 N   0  0  0  0  0
  -18.3690   13.8890  -14.3750 C   0  0  0  0  0
  -17.9310   12.8680  -13.3470 C   0  0  0  0  0
  -16.9820   12.1050  -13.5380 O   0  0  0  0  0
  -19.5260   13.3500  -15.2140 C   0  0  0  0  0
  -18.8020   12.5600  -16.2930 C   0  0  0  0  0
  -17.5740   13.3860  -16.6110 C   0  0  0  0  0
  -18.6650   12.8520  -12.2380 N   0  0  0  0  0
  -18.4540   11.8630  -11.2030 C   0  0  0  0  0
  -19.7640   11.1560  -10.9200 C   0  0  0  0  0
  -20.7790   11.8080  -10.6510 O   0  0  0  0  0
  -17.9120   12.5200   -9.9390 C   0  0  0  0  0
  -16.5310   13.1300  -10.1520 C   0  0  0  0  0
  -15.9680   13.7540   -8.8750 C   0  0  0  0  0
  -16.8220   14.8360   -8.3830 N   0  0  0  0  0
  -17.3990   14.8790   -7.1820 C   0  0  0  0  0
  -17.2180   13.9060   -6.2920 N   0  0  0  0  0
  -18.1580   15.9200   -6.8640 N   0  0  0  0  0
  -19.7230    9.8260  -10.9360 N   0  0  0  0  0
  -20.8970    9.0340  -10.6690 C   0  0  0  0  0
  -20.9840    8.6850   -9.2000 C   0  0  0  0  0
  -20.1430    9.0950   -8.3920 O   0  0  0  0  0
  -21.9940    7.9050   -8.8360 N   0  0  0  0  0
  -22.1240    7.4330   -7.4600 C   0  0  0  0  0
  -20.8720    6.6970   -7.0200 C   0  0  0  0  0
  -20.2610    5.9590   -7.8060 O   0  0  0  0  0
  -23.3440    6.4930   -7.5250 C   0  0  0  0  0
  -24.1490    7.0300   -8.6830 C   0  0  0  0  0
  -23.1820    7.5830   -9.6600 C   0  0  0  0  0
  -20.4400    6.9020   -5.7720 N   0  0  0  0  0
  -19.2520    6.1940   -5.2790 C   0  0  0  0  0
  -19.4280    4.6920   -5.2120 C   0  0  0  0  0
  -18.4280    3.9680   -5.1950 O   0  0  0  0  0
  -19.0520    6.7900   -3.8780 C   0  0  0  0  0
  -19.6960    8.1420   -3.9480 C   0  0  0  0  0
  -20.8970    7.9430   -4.8300 C   0  0  0  0  0
  -20.6600    4.2030   -5.1540 N   0  0  0  0  0
  -20.9270    2.7810   -5.0640 C   0  0  0  0  0
  -22.4200    2.5800   -5.2120 C   0  0  0  0  0
  -22.9820    1.5070   -4.9940 O   0  0  0  0  0
  -23.1060    3.5450   -5.5400 O   0  0  0  0  0
   -9.8509   13.8765  -13.2447 H   0  0  0  0  0
   -8.2193   14.3210  -13.1831 H   0  0  0  0  0
   -8.3799   15.4808  -15.0400 H   0  0  0  0  0
   -8.6031   14.0586  -16.9832 H   0  0  0  0  0
  -10.0516   13.3233  -16.3920 H   0  0  0  0  0
   -7.1978   12.6868  -15.6912 H   0  0  0  0  0
   -8.5201   11.5901  -15.9896 H   0  0  0  0  0
   -9.3530   11.7896  -13.7924 H   0  0  0  0  0
   -7.7209   12.1724  -13.4445 H   0  0  0  0  0
  -12.3326   17.3800  -15.2122 H   0  0  0  0  0
  -11.7322   19.0230  -16.7721 H   0  0  0  0  0
  -12.4711   18.0098  -17.9892 H   0  0  0  0  0
   -9.6342   18.5133  -17.5253 H   0  0  0  0  0
  -10.3936   17.6689  -18.8791 H   0  0  0  0  0
   -9.9870   15.5923  -17.9435 H   0  0  0  0  0
   -8.8019   16.4058  -17.0199 H   0  0  0  0  0
  -14.1516   16.3810  -14.9114 H   0  0  0  0  0
  -14.7419   13.9418  -16.2116 H   0  0  0  0  0
  -15.6486   15.3050  -17.0204 H   0  0  0  0  0
  -18.6270   14.7841  -13.8091 H   0  0  0  0  0
  -20.1679   14.1347  -15.6143 H   0  0  0  0  0
  -20.2287   12.7469  -14.6390 H   0  0  0  0  0
  -19.4269   12.4033  -17.1722 H   0  0  0  0  0
  -18.5424   11.5557  -15.9582 H   0  0  0  0  0
  -16.7252   12.7714  -16.9108 H   0  0  0  0  0
  -17.7268   14.0477  -17.4636 H   0  0  0  0  0
  -19.3945   13.5540  -12.1140 H   0  0  0  0  0
  -17.7175   11.1342  -11.5414 H   0  0  0  0  0
  -17.8285   11.7538   -9.1682 H   0  0  0  0  0
  -18.5952   13.3199   -9.6536 H   0  0  0  0  0
  -16.6211   13.9167  -10.9011 H   0  0  0  0  0
  -15.8551   12.3345  -10.4657 H   0  0  0  0  0
  -14.9837   14.1660   -9.0977 H   0  0  0  0  0
  -15.9148   12.9811   -8.1082 H   0  0  0  0  0
  -16.9895   15.6221   -9.0109 H   0  0  0  0  0
  -17.6609   13.9647   -5.3751 H   0  0  0  0  0
  -16.6364   13.1017   -6.5269 H   0  0  0  0  0
  -18.2945   16.6757   -7.5354 H   0  0  0  0  0
  -18.8411    9.3567  -11.1418 H   0  0  0  0  0
  -20.8389    8.1119  -11.2473 H   0  0  0  0  0
  -21.7804    9.6086  -10.9475 H   0  0  0  0  0
  -22.2519    8.2377   -6.7359 H   0  0  0  0  0
  -23.9109    6.4829   -6.5941 H   0  0  0  0  0
  -23.0583    5.4505   -7.6655 H   0  0  0  0  0
  -24.8428    7.8007   -8.3471 H   0  0  0  0  0
  -24.7480    6.2404   -9.1366 H   0  0  0  0  0
  -22.9536    6.8805  -10.4616 H   0  0  0  0  0
  -23.5733    8.4553  -10.1835 H   0  0  0  0  0
  -18.3991    6.3247   -5.9449 H   0  0  0  0  0
  -17.9978    6.8538   -3.6085 H   0  0  0  0  0
  -19.4960    6.1663   -3.1022 H   0  0  0  0  0
  -19.0179    8.8969   -4.3461 H   0  0  0  0  0
  -19.9715    8.5144   -2.9613 H   0  0  0  0  0
  -21.7885    7.6517   -4.2746 H   0  0  0  0  0
  -21.2137    8.8586   -5.3295 H   0  0  0  0  0
  -21.4476    4.8509   -5.1734 H   0  0  0  0  0
  -20.5862    2.3921   -4.1045 H   0  0  0  0  0
  -20.3935    2.2455   -5.8493 H   0  0  0  0  0
  -22.3278    0.8483   -4.7495 H   0  0  0  0  0
  1  2  1  0  0  0
  1  7  1  0  0  0
  2  3  1  0  0  0
  2  5  1  0  0  0
  3  4  2  0  0  0
  3  8  1  0  0  0
  5  6  1  0  0  0
  6  7  1  0  0  0
  8  9  1  0  0  0
  8 14  1  0  0  0
  9 10  1  0  0  0
  9 12  1  0  0  0
 10 11  2  0  0  0
 10 15  1  0  0  0
 12 13  1  0  0  0
 13 14  1  0  0  0
 15 16  1  0  0  0
 16 17  1  0  0  0
 17 18  2  0  0  0
 17 19  1  0  0  0
 19 20  1  0  0  0
 19 25  1  0  0  0
 20 21  1  0  0  0
 20 23  1  0  0  0
 21 22  2  0  0  0
 21 26  1  0  0  0
 23 24  1  0  0  0
 24 25  1  0  0  0
 26 27  1  0  0  0
 27 28  1  0  0  0
 27 30  1  0  0  0
 28 29  2  0  0  0
 28 37  1  0  0  0
 30 31  1  0  0  0
 31 32  1  0  0  0
 32 33  1  0  0  0
 33 34  1  0  0  0
 34 35  1  0  0  0
 34 36  2  0  0  0
 37 38  1  0  0  0
 38 39  1  0  0  0
 39 40  2  0  0  0
 39 41  1  0  0  0
 41 42  1  0  0  0
 41 47  1  0  0  0
 42 43  1  0  0  0
 42 45  1  0  0  0
 43 44  2  0  0  0
 43 48  1  0  0  0
 45 46  1  0  0  0
 46 47  1  0  0  0
 48 49  1  0  0  0
 48 54  1  0  0  0
 49 50  1  0  0  0
 49 52  1  0  0  0
 50 51  2  0  0  0
 50 55  1  0  0  0
 52 53  1  0  0  0
 53 54  1  0  0  0
 55 56  1  0  0  0
 56 57  1  0  0  0
 57 58  1  0  0  0
 57 59  2  0  0  0
  1 60  1  0  0  0
  1 61  1  0  0  0
  2 62  1  0  0  0
  5 63  1  0  0  0
  5 64  1  0  0  0
  6 65  1  0  0  0
  6 66  1  0  0  0
  7 67  1  0  0  0
  7 68  1  0  0  0
  9 69  1  0  0  0
 12 70  1  0  0  0
 12 71  1  0  0  0
 13 72  1  0  0  0
 13 73  1  0  0  0
 14 74  1  0  0  0
 14 75  1  0  0  0
 15 76  1  0  0  0
 16 77  1  0  0  0
 16 78  1  0  0  0
 20 79  1  0  0  0
 23 80  1  0  0  0
 23 81  1  0  0  0
 24 82  1  0  0  0
 24 83  1  0  0  0
 25 84  1  0  0  0
 25 85  1  0  0  0
 26 86  1  0  0  0
 27 87  1  0  0  0
 30 88  1  0  0  0
 30 89  1  0  0  0
 31 90  1  0  0  0
 31 91  1  0  0  0
 32 92  1  0  0  0
 32 93  1  0  0  0
 33 94  1  0  0  0
 35 95  1  0  0  0
 35 96  1  0  0  0
 36 97  1  0  0  0
 37 98  1  0  0  0
 38 99  1  0  0  0
 38100  1  0  0  0
 42101  1  0  0  0
 45102  1  0  0  0
 45103  1  0  0  0
 46104  1  0  0  0
 46105  1  0  0  0
 47106  1  0  0  0
 47107  1  0  0  0
 49108  1  0  0  0
 52109  1  0  0  0
 52110  1  0  0  0
 53111  1  0  0  0
 53112  1  0  0  0
 54113  1  0  0  0
 54114  1  0  0  0
 55115  1  0  0  0
 56116  1  0  0  0
 56117  1  0  0  0
 58118  1  0  0  0
M  END
$$$$
