4rj5_ligand
  -I-interpret- 

 49 53  0  0  0  0  0  0  0  0999 V2000
  -47.9510   -1.1370  -21.2360 C   0  0  0  0  0
  -48.7770   -0.1420  -20.4040 C   0  0  0  0  0
  -51.4830    1.0710  -16.9700 C   0  0  0  0  0
  -48.7170   -1.5920  -18.4100 C   0  0  0  0  0
  -47.8890   -2.6660  -19.1390 C   0  0  0  0  0
  -50.5690   -0.0520  -18.8060 C   0  0  0  0  0
  -52.5350    1.5170  -17.7600 C   0  0  0  0  0
  -52.5670    1.1400  -19.1160 C   0  0  0  0  0
  -47.0990   -2.0380  -20.3120 C   0  0  0  0  0
  -46.7790   -4.0130  -21.8100 C   0  0  0  0  0
  -46.2230   -2.9500  -21.0090 O   0  0  0  0  0
  -49.5690   -0.8510  -19.3720 N   0  0  0  0  0
  -50.5310    0.3070  -17.5140 N   0  0  0  0  0
  -51.5820    0.3540  -19.5810 N   0  0  0  0  0
  -53.6270    1.5950  -19.9140 N   0  0  0  0  0
  -53.8360    1.3780  -21.2870 C   0  0  0  0  0
  -53.0310    0.5140  -22.0230 C   0  0  0  0  0
  -53.2850    0.3250  -23.3800 C   0  0  0  0  0
  -54.3760    1.0090  -23.9780 C   0  0  0  0  0
  -54.3810    0.5940  -25.3850 C   0  0  0  0  0
  -53.3360   -0.2640  -25.5520 C   0  0  0  0  0
  -52.6780   -0.4220  -24.3560 N   0  0  0  0  0
  -52.8880   -0.9270  -26.8000 C   0  0  0  0  0
  -51.7580   -0.6160  -27.5020 C   0  0  0  0  0
  -51.6940   -1.4450  -28.5630 N   0  0  0  0  0
  -52.8060   -2.2920  -28.5290 N   0  0  0  0  0
  -53.5120   -1.9990  -27.4700 C   0  0  0  0  0
  -55.1650    1.8390  -23.1660 C   0  0  0  0  0
  -54.8600    2.0030  -21.8810 N   0  0  0  0  0
  -47.2877   -0.5805  -21.8981 H   0  0  0  0  0
  -48.6293   -1.7638  -21.8149 H   0  0  0  0  0
  -49.4591    0.3900  -21.0671 H   0  0  0  0  0
  -48.0977    0.5529  -19.9104 H   0  0  0  0  0
  -51.4344    1.3419  -15.9153 H   0  0  0  0  0
  -48.0383   -0.8905  -17.9247 H   0  0  0  0  0
  -49.3558   -2.0776  -17.6723 H   0  0  0  0  0
  -48.5636   -3.4260  -19.5332 H   0  0  0  0  0
  -47.1847   -3.1087  -18.4346 H   0  0  0  0  0
  -53.3194    2.1458  -17.3387 H   0  0  0  0  0
  -46.4099   -1.3488  -19.8239 H   0  0  0  0  0
  -47.3877   -4.6610  -21.1795 H   0  0  0  0  0
  -47.3980   -3.5860  -22.5990 H   0  0  0  0  0
  -45.9699   -4.5924  -22.2547 H   0  0  0  0  0
  -54.3354    2.1537  -19.4381 H   0  0  0  0  0
  -52.2068   -0.0117  -21.5410 H   0  0  0  0  0
  -55.0873    0.9120  -26.1519 H   0  0  0  0  0
  -51.0379    0.1623  -27.2496 H   0  0  0  0  0
  -54.4287   -2.4988  -27.1571 H   0  0  0  0  0
  -56.0296    2.3504  -23.5891 H   0  0  0  0  0
  2  1  1  0  0  0
  1  9  1  0  0  0
 12  2  1  0  0  0
  3  7  4  0  0  0
 13  3  4  0  0  0
  4  5  1  0  0  0
 12  4  1  0  0  0
  5  9  1  0  0  0
  6 12  1  0  0  0
  6 13  4  0  0  0
  6 14  4  0  0  0
  7  8  4  0  0  0
  8 14  4  0  0  0
  8 15  1  0  0  0
  9 11  1  0  0  0
 11 10  1  0  0  0
 15 16  1  0  0  0
 16 17  4  0  0  0
 16 29  4  0  0  0
 17 18  4  0  0  0
 18 19  4  0  0  0
 18 22  4  0  0  0
 19 20  4  0  0  0
 19 28  4  0  0  0
 20 21  4  0  0  0
 21 22  4  0  0  0
 21 23  1  0  0  0
 23 24  4  0  0  0
 23 27  4  0  0  0
 24 25  4  0  0  0
 25 26  4  0  0  0
 26 27  4  0  0  0
 28 29  4  0  0  0
  1 30  1  0  0  0
  1 31  1  0  0  0
  2 32  1  0  0  0
  2 33  1  0  0  0
  3 34  1  0  0  0
  4 35  1  0  0  0
  4 36  1  0  0  0
  5 37  1  0  0  0
  5 38  1  0  0  0
  7 39  1  0  0  0
  9 40  1  0  0  0
 10 41  1  0  0  0
 10 42  1  0  0  0
 10 43  1  0  0  0
 15 44  1  0  0  0
 17 45  1  0  0  0
 20 46  1  0  0  0
 24 47  1  0  0  0
 27 48  1  0  0  0
 28 49  1  0  0  0
M  END
$$$$
