4mzs_ligand
  -I-interpret- 

 52 54  0  0  0  0  0  0  0  0999 V2000
   -4.8730    0.2590  -17.8520 S   0  0  0  0  0
   -5.1340   -1.2910  -18.3990 N   0  0  0  0  0
   -5.8420   -3.4870  -17.6620 C   0  0  0  0  0
   -7.0420   -2.5790  -18.0460 C   0  0  0  0  0
   -6.0270   -4.2470  -16.3610 C   0  0  0  0  0
   -3.1040    0.4550  -17.8410 C   0  0  0  0  0
   -4.6730   -2.4700  -17.6290 C   0  0  0  0  0
   -6.3670   -1.6920  -19.0930 C   0  0  0  0  0
   -5.2810   -5.3610  -16.0670 N   0  0  0  0  0
   -8.2030   -3.3510  -18.6290 C   0  0  0  0  0
  -12.4370   -3.3280  -20.1730 N   0  0  0  0  0
   -5.4450    1.1430  -18.8090 O   0  0  0  0  0
   -5.3000    0.2270  -16.5040 O   0  0  0  0  0
  -11.2330   -2.9850  -19.8550 C   0  0  0  0  0
   -2.3180    0.5830  -18.9980 C   0  0  0  0  0
   -6.9020   -3.8840  -15.5890 O   0  0  0  0  0
   -8.0300   -4.2340  -19.4650 O   0  0  0  0  0
   -9.4420   -2.9830  -18.2230 N   0  0  0  0  0
   -4.4660   -7.9760  -15.8110 O   0  0  0  0  0
   -2.9890    0.5580  -20.5820 Cl  0  0  0  0  0
   -2.4480    0.4190  -16.6230 C   0  0  0  0  0
   -4.1870   -5.8670  -16.9400 C   0  0  0  0  0
   -5.4890   -6.0650  -14.7760 C   0  0  0  0  0
  -10.6470   -3.6630  -18.6930 C   0  0  0  0  0
   -5.6020   -7.5720  -15.0410 C   0  0  0  0  0
   -4.3110   -7.3910  -17.1090 C   0  0  0  0  0
   -0.9350    0.7050  -18.9340 C   0  0  0  0  0
   -1.0680    0.5620  -16.5640 C   0  0  0  0  0
   -0.3020    0.6910  -17.7060 C   0  0  0  0  0
   -5.6864   -4.3080  -18.3619 H   0  0  0  0  0
   -7.4967   -2.0532  -17.2064 H   0  0  0  0  0
   -4.4167   -2.1969  -16.6054 H   0  0  0  0  0
   -3.7680   -2.8952  -18.0630 H   0  0  0  0  0
   -6.1854   -2.2008  -20.0397 H   0  0  0  0  0
   -6.9814   -0.8482  -19.4070 H   0  0  0  0  0
  -12.9272   -4.0354  -19.6256 H   0  0  0  0  0
  -10.6820   -2.2326  -20.4193 H   0  0  0  0  0
   -9.5367   -2.2065  -17.5684 H   0  0  0  0  0
   -3.0178    0.2776  -15.7046 H   0  0  0  0  0
   -3.2258   -5.6340  -16.4818 H   0  0  0  0  0
   -4.2591   -5.3907  -17.9178 H   0  0  0  0  0
   -6.4035   -5.7052  -14.3045 H   0  0  0  0  0
   -4.6469   -5.8708  -14.1117 H   0  0  0  0  0
  -10.3771   -4.6774  -18.9867 H   0  0  0  0  0
  -11.3805   -3.6595  -17.8867 H   0  0  0  0  0
   -5.6290   -8.1177  -14.0978 H   0  0  0  0  0
   -6.5208   -7.7891  -15.5858 H   0  0  0  0  0
   -5.1731   -7.6293  -17.7319 H   0  0  0  0  0
   -3.4188   -7.7873  -17.5937 H   0  0  0  0  0
   -0.3521    0.8113  -19.8489 H   0  0  0  0  0
   -0.5765    0.5727  -15.5911 H   0  0  0  0  0
    0.7823    0.7802  -17.6397 H   0  0  0  0  0
  2  1  1  0  0  0
  1  6  1  0  0  0
  1 12  2  0  0  0
  1 13  2  0  0  0
  7  2  1  0  0  0
  2  8  1  0  0  0
  3  4  1  0  0  0
  5  3  1  0  0  0
  3  7  1  0  0  0
  4  8  1  0  0  0
  4 10  1  0  0  0
  9  5  1  0  0  0
  5 16  2  0  0  0
  6 15  4  0  0  0
  6 21  4  0  0  0
 22  9  1  0  0  0
  9 23  1  0  0  0
 10 17  2  0  0  0
 10 18  1  0  0  0
 14 11  2  0  0  0
 24 14  1  0  0  0
 15 20  1  0  0  0
 15 27  4  0  0  0
 18 24  1  0  0  0
 19 25  1  0  0  0
 26 19  1  0  0  0
 21 28  4  0  0  0
 22 26  1  0  0  0
 23 25  1  0  0  0
 27 29  4  0  0  0
 28 29  4  0  0  0
  3 30  1  0  0  0
  4 31  1  0  0  0
  7 32  1  0  0  0
  7 33  1  0  0  0
  8 34  1  0  0  0
  8 35  1  0  0  0
 11 36  1  0  0  0
 14 37  1  0  0  0
 18 38  1  0  0  0
 21 39  1  0  0  0
 22 40  1  0  0  0
 22 41  1  0  0  0
 23 42  1  0  0  0
 23 43  1  0  0  0
 24 44  1  0  0  0
 24 45  1  0  0  0
 25 46  1  0  0  0
 25 47  1  0  0  0
 26 48  1  0  0  0
 26 49  1  0  0  0
 27 50  1  0  0  0
 28 51  1  0  0  0
 29 52  1  0  0  0
M  END
$$$$
