### 
### Created by X-TOOL on Mon Sep 10 21:13:20 2018
### 

@<TRIPOS>MOLECULE
4mzs_ligand
   52    54     1     0     0
SMALL
GAST_HUCK


@<TRIPOS>ATOM
      1 S1         -4.8730    0.2590  -17.8520 S.o2      1 2EV         0.0713
      2 N2         -5.1340   -1.2910  -18.3990 N.am      1 2EV        -0.2288
      3 C3         -5.8420   -3.4870  -17.6620 C.3       1 2EV         0.0868
      4 C4         -7.0420   -2.5790  -18.0460 C.3       1 2EV         0.0868
      5 C5         -6.0270   -4.2470  -16.3610 C.2       1 2EV         0.1858
      6 C6         -3.1040    0.4550  -17.8410 C.ar      1 2EV         0.1223
      7 C7         -4.6730   -2.4700  -17.6290 C.3       1 2EV         0.0518
      8 C8         -6.3670   -1.6920  -19.0930 C.3       1 2EV         0.0518
      9 N9         -5.2810   -5.3610  -16.0670 N.am      1 2EV        -0.2684
     10 C10        -8.2030   -3.3510  -18.6290 C.2       1 2EV         0.1861
     11 N11       -12.4370   -3.3280  -20.1730 N.2       1 2EV        -0.3621
     12 O12        -5.4450    1.1430  -18.8090 O.2       1 2EV        -0.1500
     13 O13        -5.3000    0.2270  -16.5040 O.2       1 2EV        -0.1500
     14 C14       -11.2330   -2.9850  -19.8550 C.2       1 2EV         0.0176
     15 C15        -2.3180    0.5830  -18.9980 C.ar      1 2EV         0.0669
     16 O16        -6.9020   -3.8840  -15.5890 O.2       1 2EV        -0.3963
     17 O17        -8.0300   -4.2340  -19.4650 O.2       1 2EV        -0.3963
     18 N18        -9.4420   -2.9830  -18.2230 N.am      1 2EV        -0.2666
     19 O19        -4.4660   -7.9760  -15.8110 O.3       1 2EV        -0.3758
     20 CL1        -2.9890    0.5580  -20.5820 Cl        1 2EV        -0.0686
     21 C21        -2.4480    0.4190  -16.6230 C.ar      1 2EV        -0.0346
     22 C22        -4.1870   -5.8670  -16.9400 C.3       1 2EV         0.0573
     23 C23        -5.4890   -6.0650  -14.7760 C.3       1 2EV         0.0573
     24 C24       -10.6470   -3.6630  -18.6930 C.3       1 2EV         0.0897
     25 C25        -5.6020   -7.5720  -15.0410 C.3       1 2EV         0.0681
     26 C26        -4.3110   -7.3910  -17.1090 C.3       1 2EV         0.0681
     27 C27        -0.9350    0.7050  -18.9340 C.ar      1 2EV        -0.0459
     28 C28        -1.0680    0.5620  -16.5640 C.ar      1 2EV        -0.0598
     29 C29        -0.3020    0.6910  -17.7060 C.ar      1 2EV        -0.0612
     30 H1         -5.6689   -4.2290  -18.4553 H         1 2EV         0.0582
     31 H2         -7.3957   -1.9940  -17.1842 H         1 2EV         0.0582
     32 H3         -4.4451   -2.1835  -16.5917 H         1 2EV         0.0507
     33 H4         -3.7761   -2.9038  -18.0951 H         1 2EV         0.0507
     34 H5         -6.1445   -2.2551  -20.0113 H         1 2EV         0.0507
     35 H6         -6.9895   -0.8193  -19.3397 H         1 2EV         0.0507
     36 H7        -12.8922   -2.8965  -20.9621 H         1 2EV         0.1054
     37 H8        -10.6825   -2.2333  -20.4188 H         1 2EV         0.1222
     38 H9         -9.5349   -2.2218  -17.5812 H         1 2EV         0.1893
     39 H10        -3.0147    0.2784  -15.7097 H         1 2EV         0.0637
     40 H11        -3.2157   -5.6292  -16.4817 H         1 2EV         0.0545
     41 H12        -4.2551   -5.3844  -17.9261 H         1 2EV         0.0545
     42 H13        -6.4142   -5.7033  -14.3036 H         1 2EV         0.0545
     43 H14        -4.6364   -5.8709  -14.1086 H         1 2EV         0.0545
     44 H15       -10.3877   -4.6941  -18.9749 H         1 2EV         0.0803
     45 H16       -11.3871   -3.6804  -17.8794 H         1 2EV         0.0803
     46 H17        -5.6181   -8.1179  -14.0862 H         1 2EV         0.0580
     47 H18        -6.5254   -7.7837  -15.6001 H         1 2EV         0.0580
     48 H19        -5.1878   -7.6262  -17.7302 H         1 2EV         0.0580
     49 H20        -3.4042   -7.7869  -17.5896 H         1 2EV         0.0580
     50 H21        -0.3553    0.8107  -19.8439 H         1 2EV         0.0624
     51 H22        -0.5792    0.5727  -15.5965 H         1 2EV         0.0620
     52 H23         0.7764    0.7797  -17.6400 H         1 2EV         0.0618
@<TRIPOS>BOND
     1    2    1 am 
     2    1    6 1  
     3    1   12 2  
     4    1   13 2  
     5    7    2 1  
     6    2    8 1  
     7    3    4 1  
     8    5    3 1  
     9    3    7 1  
    10    4    8 1  
    11    4   10 1  
    12    9    5 am 
    13    5   16 2  
    14    6   15 ar 
    15    6   21 ar 
    16   22    9 1  
    17    9   23 1  
    18   10   17 2  
    19   10   18 am 
    20   14   11 2  
    21   24   14 1  
    22   15   20 1  
    23   15   27 ar 
    24   18   24 1  
    25   19   25 1  
    26   26   19 1  
    27   21   28 ar 
    28   22   26 1  
    29   23   25 1  
    30   27   29 ar 
    31   28   29 ar 
    32    3   30 1  
    33    4   31 1  
    34    7   32 1  
    35    7   33 1  
    36    8   34 1  
    37    8   35 1  
    38   11   36 1  
    39   14   37 1  
    40   18   38 1  
    41   21   39 1  
    42   22   40 1  
    43   22   41 1  
    44   23   42 1  
    45   23   43 1  
    46   24   44 1  
    47   24   45 1  
    48   25   46 1  
    49   25   47 1  
    50   26   48 1  
    51   26   49 1  
    52   27   50 1  
    53   28   51 1  
    54   29   52 1  
@<TRIPOS>SUBSTRUCTURE
     1 2EV         1

