5jlz_ligand
  -I-interpret- 

194195  0  0  0  0  0  0  0  0999 V2000
  -51.9060   -2.6970  -15.3320 N   0  3  0  0  0
  -51.0980   -3.9520  -15.1680 C   0  0  0  0  0
  -49.9520   -3.9790  -16.1530 C   0  0  0  0  0
  -48.8570   -4.2830  -15.7820 O   0  0  0  0  0
  -51.9450   -5.1760  -15.3750 C   0  0  0  0  0
  -51.3140   -6.3260  -14.8800 O   0  0  0  0  0
  -50.2430   -3.7030  -17.4250 N   0  0  0  0  0
  -49.2400   -3.4930  -18.4740 C   0  0  0  0  0
  -49.4420   -2.0810  -19.0340 C   0  0  0  0  0
  -50.5230   -1.7560  -19.6100 O   0  0  0  0  0
  -49.3580   -4.5510  -19.5790 C   0  0  0  0  0
  -48.8100   -4.1410  -20.9330 C   0  0  0  0  0
  -48.4260   -5.3300  -21.7920 C   0  0  0  0  0
  -48.4920   -4.9630  -23.2700 C   0  0  0  0  0
  -47.8900   -5.9810  -24.1660 N   0  3  0  0  0
  -48.3710   -1.2880  -18.8690 N   0  0  0  0  0
  -48.3220    0.1540  -19.1780 C   0  0  0  0  0
  -47.4200    0.4560  -20.3550 C   0  0  0  0  0
  -46.7380   -0.4450  -20.8550 O   0  0  0  0  0
  -47.4320    1.7070  -20.8270 N   0  0  0  0  0
  -46.7320    2.0540  -22.0500 C   0  0  0  0  0
  -45.7680    3.2310  -21.8460 C   0  0  0  0  0
  -46.2340    4.3360  -21.6600 O   0  0  0  0  0
  -47.7150    2.3540  -23.1790 C   0  0  0  0  0
  -47.0940    2.6000  -24.5560 C   0  0  0  0  0
  -46.3010    1.3810  -25.0110 C   0  0  0  0  0
  -48.0970    2.9810  -25.6160 C   0  0  0  0  0
  -44.4360    2.9890  -21.8850 N   0  0  0  0  0
  -43.4340    4.0850  -21.7040 C   0  0  0  0  0
  -43.6910    5.1600  -22.7330 C   0  0  0  0  0
  -43.8900    4.8560  -23.8760 O   0  0  0  0  0
  -41.9540    3.5680  -21.8280 C   0  0  0  0  0
  -41.4390    2.9090  -20.5880 C   0  0  0  0  0
  -41.2050    3.6530  -19.4420 C   0  0  0  0  0
  -41.2210    1.5480  -20.5410 C   0  0  0  0  0
  -40.7690    3.0450  -18.2680 C   0  0  0  0  0
  -40.7730    0.9390  -19.3780 C   0  0  0  0  0
  -40.5500    1.6840  -18.2370 C   0  0  0  0  0
  -42.3850    8.0730  -23.6220 C   0  0  0  0  0
  -41.5770    8.4040  -22.7450 O   0  0  0  0  0
  -43.7730    7.4880  -23.3220 C   0  0  0  0  0
  -43.6780    6.4390  -22.3590 N   0  0  0  0  0
  -44.5490    8.6360  -22.6550 C   0  0  0  0  0
  -44.9810    9.6810  -23.6600 C   0  0  0  0  0
  -45.4690   10.8870  -22.8870 C   0  0  0  0  0
  -46.2850   11.7880  -23.6950 N   0  0  0  0  0
  -47.5310   11.6250  -24.1370 C   0  0  0  0  0
  -48.0690   12.5330  -24.8000 O   0  0  0  0  0
  -48.2520   10.5310  -23.8410 N   0  0  0  0  0
  -42.1160    8.3190  -24.9240 N   0  0  0  0  0
  -40.8990    8.9960  -25.3590 C   0  0  0  0  0
  -41.0160   10.4970  -25.2740 C   0  0  0  0  0
  -42.0460   11.0200  -25.6620 O   0  0  0  0  0
  -40.5090    8.5890  -26.7890 C   0  0  0  0  0
  -39.9720   11.2020  -24.7800 N   0  0  0  0  0
  -39.8330   12.6420  -25.0550 C   0  0  0  0  0
  -39.3170   12.8510  -26.4780 C   0  0  0  0  0
  -38.6440   11.9950  -27.0230 O   0  0  0  0  0
  -38.9530   13.3270  -24.0320 C   0  0  0  0  0
  -39.7280   13.9300  -27.1310 N   0  0  0  0  0
  -39.3890   14.1380  -28.5530 C   0  0  0  0  0
  -38.4130   15.3070  -28.5930 C   0  0  0  0  0
  -38.6120   16.2790  -27.8870 O   0  0  0  0  0
  -40.6060   14.4150  -29.4840 C   0  0  0  0  0
  -40.1750   14.3060  -30.9660 C   0  0  0  0  0
  -41.7590   13.4430  -29.1730 C   0  0  0  0  0
  -37.3410   15.1650  -29.3710 N   0  0  0  0  0
  -36.4420   16.2960  -29.5670 C   0  0  0  0  0
  -37.0280   17.3540  -30.5290 C   0  0  0  0  0
  -37.7200   16.9930  -31.4630 O   0  0  0  0  0
  -35.1870   15.6620  -30.1530 C   0  0  0  0  0
  -35.6100   14.3480  -30.7240 C   0  0  0  0  0
  -36.7920   13.9080  -29.9180 C   0  0  0  0  0
  -36.7180   18.6230  -30.2840 N   0  0  0  0  0
  -37.0020   19.7180  -31.2190 C   0  0  0  0  0
  -36.0100   19.8220  -32.3860 C   0  0  0  0  0
  -34.8540   19.3970  -32.2640 O   0  0  0  0  0
  -36.9390   21.0290  -30.4690 C   0  0  0  0  0
  -37.9780   21.0720  -29.5330 O   0  0  0  0  0
  -36.4550   20.4230  -33.4900 N   0  0  0  0  0
  -35.6230   20.6530  -34.6520 C   0  0  0  0  0
  -34.9020   21.9860  -34.4900 C   0  0  0  0  0
  -35.5060   23.0210  -34.1600 O   0  0  0  0  0
  -33.6130   21.9680  -34.7620 N   0  0  0  0  0
  -32.7290   23.1160  -34.5720 C   0  0  0  0  0
  -32.9780   24.2710  -35.5590 C   0  0  0  0  0
  -33.4470   24.0490  -36.6660 O   0  0  0  0  0
  -31.2770   22.6530  -34.7100 C   0  0  0  0  0
  -32.6340   25.4990  -35.1610 N   0  0  0  0  0
  -32.5880   26.6050  -36.1020 C   0  0  0  0  0
  -31.4480   26.4160  -37.1660 C   0  0  0  0  0
  -30.3350   25.9150  -36.9590 O   0  0  0  0  0
  -32.4340   27.9380  -35.3600 C   0  0  0  0  0
  -31.1620   28.0310  -34.7680 O   0  0  0  0  0
  -31.6430   26.7520  -38.3310 O   0  0  0  0  0
  -51.3052   -1.8857  -15.1860 H   0  0  0  0  0
  -52.2974   -2.6666  -16.2734 H   0  0  0  0  0
  -52.6623   -2.6891  -14.6476 H   0  0  0  0  0
  -50.7089   -3.9559  -14.1498 H   0  0  0  0  0
  -52.1098   -5.3054  -16.4447 H   0  0  0  0  0
  -52.8851   -5.0403  -14.8403 H   0  0  0  0  0
  -51.8790   -7.0881  -15.0271 H   0  0  0  0  0
  -51.2269   -3.6335  -17.6850 H   0  0  0  0  0
  -48.2374   -3.5926  -18.0581 H   0  0  0  0  0
  -50.4227   -4.7389  -19.7179 H   0  0  0  0  0
  -48.7709   -5.4093  -19.2523 H   0  0  0  0  0
  -47.9128   -3.5453  -20.7650 H   0  0  0  0  0
  -49.5896   -3.5874  -21.4563 H   0  0  0  0  0
  -49.1214   -6.1467  -21.5981 H   0  0  0  0  0
  -47.4074   -5.6305  -21.5465 H   0  0  0  0  0
  -47.9282   -4.0394  -23.4015 H   0  0  0  0  0
  -49.5452   -4.8763  -23.5371 H   0  0  0  0  0
  -47.9698   -5.6699  -25.1341 H   0  0  0  0  0
  -46.9060   -6.1033  -23.9270 H   0  0  0  0  0
  -48.3818   -6.8671  -24.0507 H   0  0  0  0  0
  -47.5225   -1.7173  -18.5001 H   0  0  0  0  0
  -47.9270    0.6746  -18.3056 H   0  0  0  0  0
  -49.3305    0.4811  -19.4309 H   0  0  0  0  0
  -47.9418    2.4297  -20.3188 H   0  0  0  0  0
  -46.1354    1.1867  -22.3328 H   0  0  0  0  0
  -48.2276    3.2757  -22.9037 H   0  0  0  0  0
  -48.3465    1.4713  -23.2796 H   0  0  0  0  0
  -46.4294    3.4552  -24.4332 H   0  0  0  0  0
  -45.5049    1.1789  -24.2945 H   0  0  0  0  0
  -46.9651    0.5188  -25.0709 H   0  0  0  0  0
  -45.8677    1.5764  -25.9919 H   0  0  0  0  0
  -48.8275    2.1798  -25.7279 H   0  0  0  0  0
  -48.6051    3.8990  -25.3205 H   0  0  0  0  0
  -47.5808    3.1386  -26.5630 H   0  0  0  0  0
  -44.1079    2.0360  -22.0416 H   0  0  0  0  0
  -43.5496    4.4846  -20.6965 H   0  0  0  0  0
  -41.3221    4.4347  -22.0220 H   0  0  0  0  0
  -41.9354    2.8232  -22.6236 H   0  0  0  0  0
  -41.3649    4.7311  -19.4604 H   0  0  0  0  0
  -41.4031    0.9430  -21.4292 H   0  0  0  0  0
  -40.6008    3.6447  -17.3735 H   0  0  0  0  0
  -40.5956   -0.1364  -19.3647 H   0  0  0  0  0
  -40.2049    1.2018  -17.3224 H   0  0  0  0  0
  -44.2355    7.0983  -24.2288 H   0  0  0  0  0
  -43.5989    6.6719  -21.3691 H   0  0  0  0  0
  -43.8949    9.1127  -21.9249 H   0  0  0  0  0
  -45.4418    8.2200  -22.1882 H   0  0  0  0  0
  -45.7755    9.2906  -24.2960 H   0  0  0  0  0
  -44.1463    9.9556  -24.3049 H   0  0  0  0  0
  -44.5939   11.4427  -22.5500 H   0  0  0  0  0
  -46.0862   10.5272  -22.0638 H   0  0  0  0  0
  -45.8381   12.6663  -23.9583 H   0  0  0  0  0
  -49.2187   10.4562  -24.1577 H   0  0  0  0  0
  -47.8328    9.7750  -23.2996 H   0  0  0  0  0
  -42.7896    8.0198  -25.6291 H   0  0  0  0  0
  -40.1144    8.6781  -24.6724 H   0  0  0  0  0
  -40.3380    7.5131  -26.8253 H   0  0  0  0  0
  -41.3152    8.8534  -27.4733 H   0  0  0  0  0
  -39.5982    9.1129  -27.0789 H   0  0  0  0  0
  -39.2713   10.7293  -24.2090 H   0  0  0  0  0
  -40.8163   13.1051  -24.9733 H   0  0  0  0  0
  -39.3901   13.2079  -23.0406 H   0  0  0  0  0
  -37.9603   12.8772  -24.0492 H   0  0  0  0  0
  -38.8770   14.3875  -24.2719 H   0  0  0  0  0
  -40.2881   14.6284  -26.6422 H   0  0  0  0  0
  -38.9631   13.2133  -28.9425 H   0  0  0  0  0
  -40.9646   15.4281  -29.3021 H   0  0  0  0  0
  -39.3929   15.0372  -31.1703 H   0  0  0  0  0
  -39.7957   13.3027  -31.1599 H   0  0  0  0  0
  -41.0338   14.5016  -31.6081 H   0  0  0  0  0
  -41.4208   12.4185  -29.3285 H   0  0  0  0  0
  -42.0706   13.5707  -28.1363 H   0  0  0  0  0
  -42.5990   13.6541  -29.8348 H   0  0  0  0  0
  -36.2590   16.8360  -28.6380 H   0  0  0  0  0
  -34.4208   15.5296  -29.3891 H   0  0  0  0  0
  -34.7465   16.2995  -30.9196 H   0  0  0  0  0
  -34.8030   13.6172  -30.6719 H   0  0  0  0  0
  -35.8649   14.4405  -31.7797 H   0  0  0  0  0
  -37.5222   13.3656  -30.5186 H   0  0  0  0  0
  -36.5173   13.2021  -29.1342 H   0  0  0  0  0
  -36.2593   18.8473  -29.4010 H   0  0  0  0  0
  -37.9868   19.5070  -31.6358 H   0  0  0  0  0
  -37.0426   21.8574  -31.1698 H   0  0  0  0  0
  -35.9805   21.1124  -29.9566 H   0  0  0  0  0
  -37.9417   21.9033  -29.0542 H   0  0  0  0  0
  -37.4258   20.7348  -33.5169 H   0  0  0  0  0
  -36.2423   20.6767  -35.5487 H   0  0  0  0  0
  -34.8928   19.8492  -34.7462 H   0  0  0  0  0
  -33.2096   21.1046  -35.1255 H   0  0  0  0  0
  -32.9396   23.5066  -33.5764 H   0  0  0  0  0
  -31.0652   21.8956  -33.9552 H   0  0  0  0  0
  -31.1245   22.2306  -35.7032 H   0  0  0  0  0
  -30.6107   23.5041  -34.5695 H   0  0  0  0  0
  -32.4001   25.6626  -34.1817 H   0  0  0  0  0
  -33.5342   26.6196  -36.6429 H   0  0  0  0  0
  -30.2587   25.6798  -36.0314 H   0  0  0  0  0
  -33.1921   27.9971  -34.5791 H   0  0  0  0  0
  -32.5525   28.7544  -36.0724 H   0  0  0  0  0
  -31.0845   28.8706  -34.3090 H   0  0  0  0  0
  2  1  1  0  0  0
  3  2  1  0  0  0
  2  5  1  0  0  0
  3  4  2  0  0  0
  7  3  1  0  0  0
  5  6  1  0  0  0
  8  7  1  0  0  0
  9  8  1  0  0  0
  8 11  1  0  0  0
  9 10  2  0  0  0
 16  9  1  0  0  0
 11 12  1  0  0  0
 12 13  1  0  0  0
 13 14  1  0  0  0
 14 15  1  0  0  0
 17 16  1  0  0  0
 18 17  1  0  0  0
 18 19  2  0  0  0
 20 18  1  0  0  0
 21 20  1  0  0  0
 22 21  1  0  0  0
 21 24  1  0  0  0
 22 23  2  0  0  0
 28 22  1  0  0  0
 24 25  1  0  0  0
 25 26  1  0  0  0
 25 27  1  0  0  0
 29 28  1  0  0  0
 30 29  1  0  0  0
 29 32  1  0  0  0
 30 31  2  0  0  0
 42 30  1  0  0  0
 32 33  1  0  0  0
 33 34  4  0  0  0
 33 35  4  0  0  0
 34 36  4  0  0  0
 35 37  4  0  0  0
 36 38  4  0  0  0
 37 38  4  0  0  0
 39 40  2  0  0  0
 41 39  1  0  0  0
 39 50  1  0  0  0
 41 42  1  0  0  0
 41 43  1  0  0  0
 43 44  1  0  0  0
 44 45  1  0  0  0
 45 46  1  0  0  0
 46 47  1  0  0  0
 47 48  2  0  0  0
 47 49  1  0  0  0
 50 51  1  0  0  0
 51 52  1  0  0  0
 51 54  1  0  0  0
 52 53  2  0  0  0
 52 55  1  0  0  0
 55 56  1  0  0  0
 56 57  1  0  0  0
 56 59  1  0  0  0
 57 58  2  0  0  0
 57 60  1  0  0  0
 60 61  1  0  0  0
 61 62  1  0  0  0
 61 64  1  0  0  0
 62 63  2  0  0  0
 62 67  1  0  0  0
 64 65  1  0  0  0
 64 66  1  0  0  0
 67 68  1  0  0  0
 67 73  1  0  0  0
 68 69  1  0  0  0
 68 71  1  0  0  0
 69 70  2  0  0  0
 69 74  1  0  0  0
 71 72  1  0  0  0
 72 73  1  0  0  0
 74 75  1  0  0  0
 75 76  1  0  0  0
 75 78  1  0  0  0
 76 77  2  0  0  0
 76 80  1  0  0  0
 78 79  1  0  0  0
 80 81  1  0  0  0
 81 82  1  0  0  0
 82 83  2  0  0  0
 82 84  1  0  0  0
 84 85  1  0  0  0
 85 86  1  0  0  0
 85 88  1  0  0  0
 86 87  2  0  0  0
 86 89  1  0  0  0
 89 90  1  0  0  0
 90 91  1  0  0  0
 90 93  1  0  0  0
 91 92  1  0  0  0
 91 95  2  0  0  0
 93 94  1  0  0  0
  1 96  1  0  0  0
  1 97  1  0  0  0
  1 98  1  0  0  0
  2 99  1  0  0  0
  5100  1  0  0  0
  5101  1  0  0  0
  6102  1  0  0  0
  7103  1  0  0  0
  8104  1  0  0  0
 11105  1  0  0  0
 11106  1  0  0  0
 12107  1  0  0  0
 12108  1  0  0  0
 13109  1  0  0  0
 13110  1  0  0  0
 14111  1  0  0  0
 14112  1  0  0  0
 15113  1  0  0  0
 15114  1  0  0  0
 15115  1  0  0  0
 16116  1  0  0  0
 17117  1  0  0  0
 17118  1  0  0  0
 20119  1  0  0  0
 21120  1  0  0  0
 24121  1  0  0  0
 24122  1  0  0  0
 25123  1  0  0  0
 26124  1  0  0  0
 26125  1  0  0  0
 26126  1  0  0  0
 27127  1  0  0  0
 27128  1  0  0  0
 27129  1  0  0  0
 28130  1  0  0  0
 29131  1  0  0  0
 32132  1  0  0  0
 32133  1  0  0  0
 34134  1  0  0  0
 35135  1  0  0  0
 36136  1  0  0  0
 37137  1  0  0  0
 38138  1  0  0  0
 41139  1  0  0  0
 42140  1  0  0  0
 43141  1  0  0  0
 43142  1  0  0  0
 44143  1  0  0  0
 44144  1  0  0  0
 45145  1  0  0  0
 45146  1  0  0  0
 46147  1  0  0  0
 49148  1  0  0  0
 49149  1  0  0  0
 50150  1  0  0  0
 51151  1  0  0  0
 54152  1  0  0  0
 54153  1  0  0  0
 54154  1  0  0  0
 55155  1  0  0  0
 56156  1  0  0  0
 59157  1  0  0  0
 59158  1  0  0  0
 59159  1  0  0  0
 60160  1  0  0  0
 61161  1  0  0  0
 64162  1  0  0  0
 65163  1  0  0  0
 65164  1  0  0  0
 65165  1  0  0  0
 66166  1  0  0  0
 66167  1  0  0  0
 66168  1  0  0  0
 68169  1  0  0  0
 71170  1  0  0  0
 71171  1  0  0  0
 72172  1  0  0  0
 72173  1  0  0  0
 73174  1  0  0  0
 73175  1  0  0  0
 74176  1  0  0  0
 75177  1  0  0  0
 78178  1  0  0  0
 78179  1  0  0  0
 79180  1  0  0  0
 80181  1  0  0  0
 81182  1  0  0  0
 81183  1  0  0  0
 84184  1  0  0  0
 85185  1  0  0  0
 88186  1  0  0  0
 88187  1  0  0  0
 88188  1  0  0  0
 89189  1  0  0  0
 90190  1  0  0  0
 92191  1  0  0  0
 93192  1  0  0  0
 93193  1  0  0  0
 94194  1  0  0  0
M  END
$$$$
