### 
### Created by X-TOOL on Mon Sep 10 21:13:29 2018
### 

@<TRIPOS>MOLECULE
5jlz_ligand
  193   194     1     0     0
SMALL
GAST_HUCK


@<TRIPOS>ATOM
      1 N         -51.9060   -2.6970  -15.3320 N.4       1 SER         0.2396
      2 CA        -51.0980   -3.9520  -15.1680 C.3       1 SER         0.0885
      3 C         -49.9520   -3.9790  -16.1530 C.2       1 SER         0.2290
      4 O         -48.8570   -4.2830  -15.7820 O.2       1 SER        -0.3906
      5 CB        -51.9450   -5.1760  -15.3750 C.3       1 SER         0.1041
      6 OG        -51.3140   -6.3260  -14.8800 O.3       1 SER        -0.3870
      7 N         -50.2430   -3.7030  -17.4250 N.am      1 LYS        -0.2610
      8 CA        -49.2400   -3.4930  -18.4740 C.3       1 LYS         0.1311
      9 C         -49.4420   -2.0810  -19.0340 C.2       1 LYS         0.2037
     10 O         -50.5230   -1.7560  -19.6100 O.2       1 LYS        -0.3944
     11 CB        -49.3580   -4.5510  -19.5790 C.3       1 LYS        -0.0122
     12 CG        -48.8100   -4.1410  -20.9330 C.3       1 LYS        -0.0440
     13 CD        -48.4260   -5.3300  -21.7920 C.3       1 LYS        -0.0124
     14 CE        -48.4920   -4.9630  -23.2700 C.3       1 LYS        -0.0354
     15 NZ        -47.8900   -5.9810  -24.1660 N.4       1 LYS         0.2185
     16 N         -48.3710   -1.2880  -18.8690 N.am      1 GLY        -0.2664
     17 CA        -48.3220    0.1540  -19.1780 C.3       1 GLY         0.1201
     18 C         -47.4200    0.4560  -20.3550 C.2       1 GLY         0.2007
     19 O         -46.7380   -0.4450  -20.8550 O.2       1 GLY        -0.3947
     20 N         -47.4320    1.7070  -20.8270 N.am      1 LEU        -0.2640
     21 CA        -46.7320    2.0540  -22.0500 C.3       1 LEU         0.1312
     22 C         -45.7680    3.2310  -21.8460 C.2       1 LEU         0.2040
     23 O         -46.2340    4.3360  -21.6600 O.2       1 LEU        -0.3944
     24 CB        -47.7150    2.3540  -23.1790 C.3       1 LEU        -0.0101
     25 CG        -47.0940    2.6000  -24.5560 C.3       1 LEU        -0.0425
     26 CD1       -46.3010    1.3810  -25.0110 C.3       1 LEU        -0.0625
     27 CD2       -48.0970    2.9810  -25.6160 C.3       1 LEU        -0.0625
     28 N         -44.4360    2.9890  -21.8850 N.am      1 PHE        -0.2619
     29 CA        -43.4340    4.0850  -21.7040 C.3       1 PHE         0.1404
     30 C         -43.6910    5.1600  -22.7330 C.2       1 PHE         0.2060
     31 O         -43.8900    4.8560  -23.8760 O.2       1 PHE        -0.3942
     32 CB        -41.9540    3.5680  -21.8280 C.3       1 PHE         0.0214
     33 CG        -41.4390    2.9090  -20.5880 C.ar      1 PHE        -0.0386
     34 CD1       -41.2050    3.6530  -19.4420 C.ar      1 PHE        -0.0601
     35 CD2       -41.2210    1.5480  -20.5410 C.ar      1 PHE        -0.0601
     36 CE1       -40.7690    3.0450  -18.2680 C.ar      1 PHE        -0.0686
     37 CE2       -40.7730    0.9390  -19.3780 C.ar      1 PHE        -0.0686
     38 CZ        -40.5500    1.6840  -18.2370 C.ar      1 PHE        -0.0687
     39 C1        -42.3850    8.0730  -23.6220 C.2       1 CIR         0.2039
     40 O1        -41.5770    8.4040  -22.7450 O.2       1 CIR        -0.3944
     41 C2        -43.7730    7.4880  -23.3220 C.3       1 CIR         0.1310
     42 N2        -43.6780    6.4390  -22.3590 N.am      1 CIR        -0.2636
     43 C3        -44.5490    8.6360  -22.6550 C.3       1 CIR        -0.0106
     44 C4        -44.9810    9.6810  -23.6600 C.3       1 CIR        -0.0288
     45 C5        -45.4690   10.8870  -22.8870 C.3       1 CIR         0.0314
     46 N6        -46.2850   11.7880  -23.6950 N.am      1 CIR        -0.2733
     47 C7        -47.5310   11.6250  -24.1370 C.2       1 CIR         0.2548
     48 O7        -48.0690   12.5330  -24.8000 O.2       1 CIR        -0.4010
     49 N8        -48.2520   10.5310  -23.8410 N.am      1 CIR        -0.2870
     50 N         -42.1160    8.3190  -24.9240 N.am      1 ALA        -0.2640
     51 CA        -40.8990    8.9960  -25.3590 C.3       1 ALA         0.1282
     52 C         -41.0160   10.4970  -25.2740 C.2       1 ALA         0.2036
     53 O         -42.0460   11.0200  -25.6620 O.2       1 ALA        -0.3944
     54 CB        -40.5090    8.5890  -26.7890 C.3       1 ALA        -0.0244
     55 N         -39.9720   11.2020  -24.7800 N.am      1 ALA        -0.2640
     56 CA        -39.8330   12.6420  -25.0550 C.3       1 ALA         0.1282
     57 C         -39.3170   12.8510  -26.4780 C.2       1 ALA         0.2036
     58 O         -38.6440   11.9950  -27.0230 O.2       1 ALA        -0.3944
     59 CB        -38.9530   13.3270  -24.0320 C.3       1 ALA        -0.0244
     60 N         -39.7280   13.9300  -27.1310 N.am      1 VAL        -0.2635
     61 CA        -39.3890   14.1380  -28.5530 C.3       1 VAL         0.1334
     62 C         -38.4130   15.3070  -28.5930 C.2       1 VAL         0.2066
     63 O         -38.6120   16.2790  -27.8870 O.2       1 VAL        -0.3942
     64 CB        -40.6060   14.4150  -29.4840 C.3       1 VAL        -0.0062
     65 CG1       -40.1750   14.3060  -30.9660 C.3       1 VAL        -0.0584
     66 CG2       -41.7590   13.4430  -29.1730 C.3       1 VAL        -0.0584
     67 N         -37.3410   15.1650  -29.3710 N.am      1 PRO        -0.2498
     68 CA        -36.4420   16.2960  -29.5670 C.3       1 PRO         0.1338
     69 C         -37.0280   17.3540  -30.5290 C.2       1 PRO         0.2042
     70 O         -37.7200   16.9930  -31.4630 O.2       1 PRO        -0.3944
     71 CB        -35.1870   15.6620  -30.1530 C.3       1 PRO        -0.0104
     72 CG        -35.6100   14.3480  -30.7240 C.3       1 PRO        -0.0281
     73 CD        -36.7920   13.9080  -29.9180 C.3       1 PRO         0.0369
     74 N         -36.7180   18.6230  -30.2840 N.am      1 SER        -0.2616
     75 CA        -37.0020   19.7180  -31.2190 C.3       1 SER         0.1539
     76 C         -36.0100   19.8220  -32.3860 C.2       1 SER         0.2060
     77 O         -34.8540   19.3970  -32.2640 O.2       1 SER        -0.3943
     78 CB        -36.9390   21.0290  -30.4690 C.3       1 SER         0.0843
     79 OG        -37.9780   21.0720  -29.5330 O.3       1 SER        -0.3903
     80 N         -36.4550   20.4230  -33.4900 N.am      1 GLY        -0.2663
     81 CA        -35.6230   20.6530  -34.6520 C.3       1 GLY         0.1201
     82 C         -34.9020   21.9860  -34.4900 C.2       1 GLY         0.2007
     83 O         -35.5060   23.0210  -34.1600 O.2       1 GLY        -0.3947
     84 N         -33.6130   21.9680  -34.7620 N.am      1 ALA        -0.2642
     85 CA        -32.7290   23.1160  -34.5720 C.3       1 ALA         0.1281
     86 C         -32.9780   24.2710  -35.5590 C.2       1 ALA         0.2031
     87 O         -33.4470   24.0490  -36.6660 O.2       1 ALA        -0.3944
     88 CB        -31.2770   22.6530  -34.7100 C.3       1 ALA        -0.0244
     89 N         -32.6340   25.4990  -35.1610 N.am      1 SER        -0.2672
     90 CA        -32.5880   26.6050  -36.1020 C.3       1 SER         0.1173
     91 C         -31.4480   26.4160  -37.1660 C.2       1 SER         0.0623
     92 O         -30.3350   25.9150  -36.9590 O.co2     1 SER        -0.5665
     93 CB        -32.4340   27.9380  -35.3600 C.3       1 SER         0.0789
     94 OG        -31.1620   28.0310  -34.7680 O.3       1 SER        -0.3910
     95 OXT       -31.6430   26.7520  -38.3310 O.co2     1 SER        -0.5665
     96 H1        -52.6644   -2.6965  -14.6680 H         1 SER         0.2016
     97 H2        -52.2787   -2.6571  -16.2677 H         1 SER         0.2016
     98 H3        -51.3174   -1.8949  -15.1703 H         1 SER         0.2016
     99 H4        -50.6905   -3.9722  -14.1465 H         1 SER         0.1122
    100 H5        -52.1301   -5.3050  -16.4516 H         1 SER         0.0640
    101 H6        -52.9031   -5.0406  -14.8519 H         1 SER         0.0640
    102 H7        -51.8731   -7.0801  -15.0255 H         1 SER         0.2099
    103 H8        -51.2076   -3.6349  -17.6799 H         1 LYS         0.1884
    104 H9        -48.2357   -3.5645  -18.0311 H         1 LYS         0.0800
    105 H10       -50.4235   -4.7944  -19.7036 H         1 LYS         0.0312
    106 H11       -48.8130   -5.4480  -19.2498 H         1 LYS         0.0312
    107 H12       -47.9180   -3.5163  -20.7774 H         1 LYS         0.0269
    108 H13       -49.5783   -3.5580  -21.4620 H         1 LYS         0.0269
    109 H14       -49.1205   -6.1596  -21.5935 H         1 LYS         0.0317
    110 H15       -47.4012   -5.6418  -21.5417 H         1 LYS         0.0317
    111 H16       -47.9575   -4.0128  -23.4159 H         1 LYS         0.0813
    112 H17       -49.5484   -4.8361  -23.5493 H         1 LYS         0.0813
    113 H18       -47.9683   -5.6746  -25.1231 H         1 LYS         0.1994
    114 H19       -48.3753   -6.8572  -24.0530 H         1 LYS         0.1994
    115 H20       -46.9174   -6.1027  -23.9307 H         1 LYS         0.1994
    116 H21       -47.5391   -1.7089  -18.5073 H         1 GLY         0.1881
    117 H22       -47.9456    0.6928  -18.2959 H         1 GLY         0.0763
    118 H23       -49.3391    0.5007  -19.4131 H         1 GLY         0.0763
    119 H24       -47.9318    2.4155  -20.3288 H         1 LEU         0.1883
    120 H25       -46.1333    1.1808  -22.3484 H         1 LEU         0.0800
    121 H26       -48.2846    3.2528  -22.9004 H         1 LEU         0.0315
    122 H27       -48.4002    1.4979  -23.2661 H         1 LEU         0.0315
    123 H28       -46.3930    3.4411  -24.4508 H         1 LEU         0.0298
    124 H29       -45.8632    1.5770  -26.0009 H         1 LEU         0.0232
    125 H30       -46.9701    0.5101  -25.0720 H         1 LEU         0.0232
    126 H31       -45.4971    1.1760  -24.2887 H         1 LEU         0.0232
    127 H32       -48.6664    3.8611  -25.2825 H         1 LEU         0.0232
    128 H33       -48.7867    2.1413  -25.7870 H         1 LEU         0.0232
    129 H34       -47.5695    3.2186  -26.5515 H         1 LEU         0.0232
    130 H35       -44.1144    2.0547  -22.0386 H         1 PHE         0.1885
    131 H36       -43.5657    4.5141  -20.6997 H         1 PHE         0.0823
    132 H37       -41.3053    4.4255  -22.0600 H         1 PHE         0.0474
    133 H38       -41.9086    2.8405  -22.6518 H         1 PHE         0.0474
    134 H39       -41.3640    4.7251  -19.4603 H         1 PHE         0.0557
    135 H40       -41.4021    0.9464  -21.4244 H         1 PHE         0.0557
    136 H41       -40.6017    3.6414  -17.3784 H         1 PHE         0.0599
    137 H42       -40.5965   -0.1305  -19.3648 H         1 PHE         0.0599
    138 H43       -40.2067    1.2045  -17.3274 H         1 PHE         0.0559
    139 H44       -44.2650    7.1349  -24.2402 H         1 CIR         0.0800
    140 H45       -43.6005    6.6673  -21.3885 H         1 CIR         0.1883
    141 H46       -43.9035    9.1117  -21.9020 H         1 CIR         0.0313
    142 H47       -45.4427    8.2235  -22.1640 H         1 CIR         0.0313
    143 H48       -45.7927    9.2845  -24.2876 H         1 CIR         0.0287
    144 H49       -44.1296    9.9633  -24.2967 H         1 CIR         0.0287
    145 H50       -44.5954   11.4428  -22.5157 H         1 CIR         0.0517
    146 H51       -46.0707   10.5377  -22.0350 H         1 CIR         0.0517
    147 H52       -45.8469   12.6491  -23.9532 H         1 CIR         0.1845
    148 H53       -49.1852   10.4382  -24.1882 H         1 CIR         0.1808
    149 H54       -47.8556    9.8094  -23.2735 H         1 CIR         0.1808
    150 H55       -42.7764    8.0257  -25.6152 H         1 ALA         0.1883
    151 H56       -40.0886    8.6831  -24.6842 H         1 ALA         0.0797
    152 H57       -39.5899    9.1171  -27.0827 H         1 ALA         0.0277
    153 H58       -41.3218    8.8553  -27.4806 H         1 ALA         0.0277
    154 H59       -40.3361    7.5033  -26.8270 H         1 ALA         0.0277
    155 H60       -39.2851   10.7386  -24.2202 H         1 ALA         0.1883
    156 H61       -40.8325   13.0964  -24.9883 H         1 ALA         0.0797
    157 H62       -38.8755   14.3975  -24.2731 H         1 ALA         0.0277
    158 H63       -37.9507   12.8740  -24.0484 H         1 ALA         0.0277
    159 H64       -39.3931   13.2075  -23.0310 H         1 ALA         0.0277
    160 H65       -40.2771   14.6147  -26.6518 H         1 VAL         0.1883
    161 H66       -38.8865   13.2329  -28.9248 H         1 VAL         0.0803
    162 H67       -40.9596   15.4401  -29.2996 H         1 VAL         0.0343
    163 H68       -41.0409   14.5032  -31.6151 H         1 VAL         0.0234
    164 H69       -39.7920   13.2938  -31.1630 H         1 VAL         0.0234
    165 H70       -39.3857   15.0435  -31.1736 H         1 VAL         0.0234
    166 H71       -42.0455   13.5405  -28.1155 H         1 VAL         0.0234
    167 H72       -41.4324   12.4114  -29.3708 H         1 VAL         0.0234
    168 H73       -42.6228   13.6828  -29.8105 H         1 VAL         0.0234
    169 H74       -36.2183   16.7768  -28.6033 H         1 PRO         0.0802
    170 H75       -34.4334   15.5107  -29.3661 H         1 PRO         0.0313
    171 H76       -34.7689   16.3037  -30.9426 H         1 PRO         0.0313
    172 H77       -34.7950   13.6142  -30.6387 H         1 PRO         0.0287
    173 H78       -35.8903   14.4634  -31.7814 H         1 PRO         0.0287
    174 H79       -37.5328   13.4025  -30.5548 H         1 PRO         0.0524
    175 H80       -36.4824   13.2315  -29.1077 H         1 PRO         0.0524
    176 H81       -36.2683   18.8429  -29.4183 H         1 SER         0.1884
    177 H82       -38.0127   19.5709  -31.6274 H         1 SER         0.0823
    178 H83       -37.0466   21.8639  -31.1771 H         1 SER         0.0606
    179 H84       -35.9725   21.1104  -29.9502 H         1 SER         0.0606
    180 H85       -38.8115   21.0007  -29.9832 H         1 SER         0.2097
    181 H86       -37.4068   20.7287  -33.5164 H         1 GLY         0.1881
    182 H87       -36.2503   20.6804  -35.5552 H         1 GLY         0.0763
    183 H88       -34.8844   19.8429  -34.7430 H         1 GLY         0.0763
    184 H89       -33.2175   21.1215  -35.1184 H         1 ALA         0.1883
    185 H90       -32.8869   23.5002  -33.5535 H         1 ALA         0.0797
    186 H91       -30.6035   23.5111  -34.5684 H         1 ALA         0.0277
    187 H92       -31.1218   22.2265  -35.7120 H         1 ALA         0.0277
    188 H93       -31.0619   21.8886  -33.9488 H         1 ALA         0.0277
    189 H94       -32.4047   25.6594  -34.2009 H         1 SER         0.1876
    190 H95       -33.5468   26.6272  -36.6407 H         1 SER         0.0749
    191 H96       -33.2031   28.0066  -34.5766 H         1 SER         0.0599
    192 H97       -32.5621   28.7656  -36.0732 H         1 SER         0.0599
    193 H98       -31.0491   27.3190  -34.1493 H         1 SER         0.2096
@<TRIPOS>BOND
     1    2    1 1  
     2    3    2 1  
     3    2    5 1  
     4    3    4 2  
     5    7    3 am 
     6    5    6 1  
     7    8    7 1  
     8    9    8 1  
     9    8   11 1  
    10    9   10 2  
    11   16    9 am 
    12   11   12 1  
    13   12   13 1  
    14   13   14 1  
    15   14   15 1  
    16   17   16 1  
    17   18   17 1  
    18   18   19 2  
    19   20   18 am 
    20   21   20 1  
    21   22   21 1  
    22   21   24 1  
    23   22   23 2  
    24   28   22 am 
    25   24   25 1  
    26   25   26 1  
    27   25   27 1  
    28   29   28 1  
    29   30   29 1  
    30   29   32 1  
    31   30   31 2  
    32   42   30 am 
    33   32   33 1  
    34   33   34 ar 
    35   33   35 ar 
    36   34   36 ar 
    37   35   37 ar 
    38   36   38 ar 
    39   37   38 ar 
    40   39   40 2  
    41   41   39 1  
    42   39   50 am 
    43   41   42 1  
    44   41   43 1  
    45   43   44 1  
    46   44   45 1  
    47   45   46 1  
    48   46   47 am 
    49   47   48 2  
    50   47   49 am 
    51   50   51 1  
    52   51   52 1  
    53   51   54 1  
    54   52   53 2  
    55   52   55 am 
    56   55   56 1  
    57   56   57 1  
    58   56   59 1  
    59   57   58 2  
    60   57   60 am 
    61   60   61 1  
    62   61   62 1  
    63   61   64 1  
    64   62   63 2  
    65   62   67 am 
    66   64   65 1  
    67   64   66 1  
    68   67   68 1  
    69   67   73 1  
    70   68   69 1  
    71   68   71 1  
    72   69   70 2  
    73   69   74 am 
    74   71   72 1  
    75   72   73 1  
    76   74   75 1  
    77   75   76 1  
    78   75   78 1  
    79   76   77 2  
    80   76   80 am 
    81   78   79 1  
    82   80   81 1  
    83   81   82 1  
    84   82   83 2  
    85   82   84 am 
    86   84   85 1  
    87   85   86 1  
    88   85   88 1  
    89   86   87 2  
    90   86   89 am 
    91   89   90 1  
    92   90   91 1  
    93   90   93 1  
    94   91   92 ar 
    95   91   95 ar 
    96   93   94 1  
    97    1   96 1  
    98    1   97 1  
    99    1   98 1  
   100    2   99 1  
   101    5  100 1  
   102    5  101 1  
   103    6  102 1  
   104    7  103 1  
   105    8  104 1  
   106   11  105 1  
   107   11  106 1  
   108   12  107 1  
   109   12  108 1  
   110   13  109 1  
   111   13  110 1  
   112   14  111 1  
   113   14  112 1  
   114   15  113 1  
   115   15  114 1  
   116   15  115 1  
   117   16  116 1  
   118   17  117 1  
   119   17  118 1  
   120   20  119 1  
   121   21  120 1  
   122   24  121 1  
   123   24  122 1  
   124   25  123 1  
   125   26  124 1  
   126   26  125 1  
   127   26  126 1  
   128   27  127 1  
   129   27  128 1  
   130   27  129 1  
   131   28  130 1  
   132   29  131 1  
   133   32  132 1  
   134   32  133 1  
   135   34  134 1  
   136   35  135 1  
   137   36  136 1  
   138   37  137 1  
   139   38  138 1  
   140   41  139 1  
   141   42  140 1  
   142   43  141 1  
   143   43  142 1  
   144   44  143 1  
   145   44  144 1  
   146   45  145 1  
   147   45  146 1  
   148   46  147 1  
   149   49  148 1  
   150   49  149 1  
   151   50  150 1  
   152   51  151 1  
   153   54  152 1  
   154   54  153 1  
   155   54  154 1  
   156   55  155 1  
   157   56  156 1  
   158   59  157 1  
   159   59  158 1  
   160   59  159 1  
   161   60  160 1  
   162   61  161 1  
   163   64  162 1  
   164   65  163 1  
   165   65  164 1  
   166   65  165 1  
   167   66  166 1  
   168   66  167 1  
   169   66  168 1  
   170   68  169 1  
   171   71  170 1  
   172   71  171 1  
   173   72  172 1  
   174   72  173 1  
   175   73  174 1  
   176   73  175 1  
   177   74  176 1  
   178   75  177 1  
   179   78  178 1  
   180   78  179 1  
   181   79  180 1  
   182   80  181 1  
   183   81  182 1  
   184   81  183 1  
   185   84  184 1  
   186   85  185 1  
   187   88  186 1  
   188   88  187 1  
   189   88  188 1  
   190   89  189 1  
   191   90  190 1  
   192   93  191 1  
   193   93  192 1  
   194   94  193 1  
@<TRIPOS>SUBSTRUCTURE
     1 SER         1

