3owk_ligand
  -I-interpret- 

 30 33  0  0  0  0  0  0  0  0999 V2000
   23.1820    9.7780   11.0270 C   0  0  0  0  0
   23.3270   10.6800   10.0260 O   0  0  0  0  0
   23.0090   10.2040   12.3510 C   0  0  0  0  0
   22.8670    9.2920   13.4000 C   0  0  0  0  0
   22.8860    7.9370   13.0990 C   0  0  0  0  0
   23.0730    7.4810   11.6850 C   0  0  0  0  0
   23.2110    8.4260   10.6850 C   0  0  0  0  0
   22.7600    6.9370   14.0510 C   0  0  0  0  0
   22.8060    5.5330   13.6260 C   0  0  0  0  0
   22.9750    5.1320   12.3070 C   0  0  0  0  0
   23.1090    6.1280   11.3430 C   0  0  0  0  0
   22.5790    6.9900   15.4000 N   0  0  0  0  0
   22.4960    5.7340   15.9460 C   0  0  0  0  0
   22.6340    4.7680   14.8470 C   0  0  0  0  0
   22.3140    5.1370   17.2980 C   0  0  0  0  0
   22.1590    6.0020   18.5210 C   0  0  0  0  0
   22.2850    3.7420   17.4130 C   0  0  0  0  0
   22.4150    2.8950   16.3640 N   0  0  0  0  0
   22.5880    3.3070   15.0810 C   0  0  0  0  0
   22.7420    2.1460   13.7600 Cl  0  0  0  0  0
   23.4337   10.2165    9.1921 H   0  0  0  0  0
   22.9847   11.2720   12.5675 H   0  0  0  0  0
   22.7446    9.6353   14.4272 H   0  0  0  0  0
   23.3403    8.1196    9.6470 H   0  0  0  0  0
   23.0018    4.0765   12.0364 H   0  0  0  0  0
   23.2449    5.8451   10.2991 H   0  0  0  0  0
   23.0458    6.6247   18.6388 H   0  0  0  0  0
   21.2804    6.6368   18.4065 H   0  0  0  0  0
   22.0390    5.3684   19.3998 H   0  0  0  0  0
   22.1498    3.3121   18.4055 H   0  0  0  0  0
  1  2  1  0  0  0
  1  3  4  0  0  0
  1  7  4  0  0  0
  3  4  4  0  0  0
  4  5  4  0  0  0
  5  6  4  0  0  0
  5  8  4  0  0  0
  6  7  4  0  0  0
  6 11  4  0  0  0
  8  9  4  0  0  0
  8 12  4  0  0  0
  9 10  4  0  0  0
  9 14  4  0  0  0
 10 11  4  0  0  0
 12 13  4  0  0  0
 13 14  4  0  0  0
 13 15  4  0  0  0
 14 19  4  0  0  0
 15 16  1  0  0  0
 15 17  4  0  0  0
 17 18  4  0  0  0
 18 19  4  0  0  0
 19 20  1  0  0  0
  2 21  1  0  0  0
  3 22  1  0  0  0
  4 23  1  0  0  0
  7 24  1  0  0  0
 10 25  1  0  0  0
 11 26  1  0  0  0
 16 27  1  0  0  0
 16 28  1  0  0  0
 16 29  1  0  0  0
 17 30  1  0  0  0
M  END
$$$$
