3qkd_ligand
  -I-interpret- 

105111  0  0  0  0  0  0  0  0999 V2000
  -12.4300  -19.2440   11.0380 C   0  0  0  0  0
  -12.5820  -19.8590   12.3800 N   0  3  0  0  0
  -12.9830   -8.4530   11.1670 O   0  0  0  0  0
  -12.3180   -9.2120   10.1580 S   0  0  0  0  0
   -6.7440  -23.1540    8.9780 Cl  0  0  0  0  0
  -11.6860  -19.1720   13.3340 C   0  0  0  0  0
  -12.3390  -17.0670   12.0980 N   0  0  0  0  0
  -12.7010   -9.0150    8.7950 O   0  0  0  0  0
   -5.0980  -10.9980   11.6880 S   0  0  0  0  0
  -12.0310  -17.6820   13.4020 C   0  0  0  0  0
  -11.3610  -12.7600   13.9720 N   0  0  0  0  0
   -8.3800   -9.8770    7.0720 O   0  0  0  0  0
  -13.0250  -17.8460   11.0620 C   0  0  0  0  0
  -11.6790  -10.7200   12.8470 N   0  0  0  0  0
   -6.5840   -9.3300    7.9450 O   0  0  0  0  0
  -12.3150  -21.3090   12.3560 C   0  0  0  0  0
  -12.6000  -10.7900   10.4790 N   0  0  0  0  0
  -13.1780  -22.0080   11.3010 C   0  0  0  0  0
   -7.7960   -9.4450    8.0560 N   0  0  0  0  0
  -14.5760  -22.0100   11.4560 C   0  0  0  0  0
   -6.4810   -8.4230   10.3960 N   0  0  0  0  0
  -15.3990  -22.6240   10.5090 C   0  0  0  0  0
   -3.3260   -5.6070   10.4700 N   0  3  0  0  0
  -14.8340  -23.2410    9.3990 C   0  0  0  0  0
  -13.4450  -23.2460    9.2350 C   0  0  0  0  0
  -12.6070  -22.6360   10.1790 C   0  0  0  0  0
  -11.2220  -22.6630    9.9700 C   0  0  0  0  0
  -10.6740  -22.0360    8.8430 C   0  0  0  0  0
   -9.3140  -22.1870    8.5490 C   0  0  0  0  0
   -8.4930  -22.9700    9.3660 C   0  0  0  0  0
   -9.0360  -23.5990   10.4940 C   0  0  0  0  0
  -10.3950  -23.4480   10.7920 C   0  0  0  0  0
  -12.3070  -15.7080   11.9840 C   0  0  0  0  0
  -11.8510  -14.9100   13.0510 C   0  0  0  0  0
  -12.7350  -15.0800   10.8120 C   0  0  0  0  0
  -12.7060  -13.6920   10.7000 C   0  0  0  0  0
  -12.2330  -12.9100   11.7620 C   0  0  0  0  0
  -11.8070  -13.5170   12.9430 C   0  0  0  0  0
  -11.2940  -11.4110   13.9320 C   0  0  0  0  0
  -12.1710  -11.4600   11.6830 C   0  0  0  0  0
  -10.6730   -8.9720   10.2610 C   0  0  0  0  0
   -9.8630   -9.2750    9.1730 C   0  0  0  0  0
   -8.4760   -9.1010    9.1940 C   0  0  0  0  0
   -7.8470   -8.5980   10.3490 C   0  0  0  0  0
   -8.6560   -8.2900   11.4500 C   0  0  0  0  0
  -10.0450   -8.4740   11.4100 C   0  0  0  0  0
   -5.6510   -8.2650   11.6100 C   0  0  0  0  0
   -4.2040   -7.8030   11.3420 C   0  0  0  0  0
   -3.9880   -6.8860   10.1310 C   0  0  0  0  0
   -3.1180   -4.8230    9.2440 C   0  0  0  0  0
   -2.0090   -5.7910   11.1020 C   0  0  0  0  0
   -5.5390   -9.4990   12.5170 C   0  0  0  0  0
   -6.4920  -11.8080   11.1630 C   0  0  0  0  0
   -7.5360  -12.0300   12.0650 C   0  0  0  0  0
   -8.6830  -12.7000   11.6350 C   0  0  0  0  0
   -8.7750  -13.1350   10.3160 C   0  0  0  0  0
   -7.7420  -12.9070    9.4140 C   0  0  0  0  0
   -6.5920  -12.2450    9.8390 C   0  0  0  0  0
  -12.9485  -19.8507   10.2956 H   0  0  0  0  0
  -11.3730  -19.1884   10.7775 H   0  0  0  0  0
  -13.5504  -19.7456   12.6795 H   0  0  0  0  0
  -10.6545  -19.2850   13.0002 H   0  0  0  0  0
  -11.8111  -19.6132   14.3228 H   0  0  0  0  0
  -11.1547  -17.1689   13.7982 H   0  0  0  0  0
  -12.9252  -17.5889   14.0183 H   0  0  0  0  0
  -14.0915  -17.8989   11.2808 H   0  0  0  0  0
  -12.8952  -17.3693   10.0904 H   0  0  0  0  0
  -12.5536  -21.7250   13.3348 H   0  0  0  0  0
  -11.2650  -21.4674   12.1101 H   0  0  0  0  0
  -13.1112  -11.3351    9.7848 H   0  0  0  0  0
  -15.0223  -21.5268   12.3252 H   0  0  0  0  0
   -5.9918   -8.4001    9.5013 H   0  0  0  0  0
  -16.4811  -22.6193   10.6401 H   0  0  0  0  0
   -3.9399   -5.1312   11.1312 H   0  0  0  0  0
  -15.4727  -23.7204    8.6572 H   0  0  0  0  0
  -13.0083  -23.7306    8.3617 H   0  0  0  0  0
  -11.3073  -21.4303    8.1949 H   0  0  0  0  0
   -8.8914  -21.6900    7.6758 H   0  0  0  0  0
   -8.4004  -24.2056   11.1391 H   0  0  0  0  0
  -10.8152  -23.9426   11.6677 H   0  0  0  0  0
  -11.5270  -15.3864   13.9763 H   0  0  0  0  0
  -13.0950  -15.6817    9.9774 H   0  0  0  0  0
  -13.0521  -13.2130    9.7841 H   0  0  0  0  0
  -10.9185  -10.8709   14.8012 H   0  0  0  0  0
  -10.3278   -9.6639    8.2670 H   0  0  0  0  0
   -8.1957   -7.8989   12.3573 H   0  0  0  0  0
  -10.6451   -8.2260   12.2855 H   0  0  0  0  0
   -6.2216   -7.4903   12.1222 H   0  0  0  0  0
   -3.6319   -8.7084   11.1394 H   0  0  0  0  0
   -3.9070   -7.2226   12.2155 H   0  0  0  0  0
   -3.3408   -7.4145    9.4311 H   0  0  0  0  0
   -4.9695   -6.6483    9.7208 H   0  0  0  0  0
   -2.4888   -5.3873    8.5557 H   0  0  0  0  0
   -4.0813   -4.6213    8.7754 H   0  0  0  0  0
   -2.6303   -3.8811    9.4950 H   0  0  0  0  0
   -2.1265   -6.3587   12.0251 H   0  0  0  0  0
   -1.3533   -6.3338   10.4211 H   0  0  0  0  0
   -1.5756   -4.8163   11.3261 H   0  0  0  0  0
   -4.7455   -9.2911   13.2348 H   0  0  0  0  0
   -6.5247   -9.6591   12.9538 H   0  0  0  0  0
   -7.4556  -11.6831   13.0952 H   0  0  0  0  0
   -9.5032  -12.8817   12.3295 H   0  0  0  0  0
   -9.6700  -13.6621    9.9855 H   0  0  0  0  0
   -7.8311  -13.2439    8.3812 H   0  0  0  0  0
   -5.7732  -12.0685    9.1415 H   0  0  0  0  0
  1  2  1  0  0  0
 13  1  1  0  0  0
  6  2  1  0  0  0
  2 16  1  0  0  0
  4  3  2  0  0  0
  4  8  2  0  0  0
  4 17  1  0  0  0
 41  4  1  0  0  0
 30  5  1  0  0  0
 10  6  1  0  0  0
  7 10  1  0  0  0
  7 13  1  0  0  0
 33  7  1  0  0  0
 52  9  1  0  0  0
  9 53  1  0  0  0
 38 11  4  0  0  0
 39 11  4  0  0  0
 19 12  2  0  0  0
 14 39  4  0  0  0
 40 14  4  0  0  0
 19 15  2  0  0  0
 16 18  1  0  0  0
 17 40  1  0  0  0
 18 20  4  0  0  0
 18 26  4  0  0  0
 43 19  1  0  0  0
 20 22  4  0  0  0
 21 44  1  0  0  0
 47 21  1  0  0  0
 22 24  4  0  0  0
 49 23  1  0  0  0
 23 50  1  0  0  0
 23 51  1  0  0  0
 25 24  4  0  0  0
 26 25  4  0  0  0
 26 27  1  0  0  0
 27 28  4  0  0  0
 27 32  4  0  0  0
 28 29  4  0  0  0
 29 30  4  0  0  0
 31 30  4  0  0  0
 32 31  4  0  0  0
 34 33  4  0  0  0
 35 33  4  0  0  0
 38 34  4  0  0  0
 36 35  4  0  0  0
 37 36  4  0  0  0
 37 38  4  0  0  0
 40 37  4  0  0  0
 42 41  4  0  0  0
 46 41  4  0  0  0
 43 42  4  0  0  0
 44 43  4  0  0  0
 44 45  4  0  0  0
 45 46  4  0  0  0
 48 47  1  0  0  0
 47 52  1  0  0  0
 48 49  1  0  0  0
 53 54  4  0  0  0
 53 58  4  0  0  0
 54 55  4  0  0  0
 55 56  4  0  0  0
 56 57  4  0  0  0
 57 58  4  0  0  0
  1 59  1  0  0  0
  1 60  1  0  0  0
  2 61  1  0  0  0
  6 62  1  0  0  0
  6 63  1  0  0  0
 10 64  1  0  0  0
 10 65  1  0  0  0
 13 66  1  0  0  0
 13 67  1  0  0  0
 16 68  1  0  0  0
 16 69  1  0  0  0
 17 70  1  0  0  0
 20 71  1  0  0  0
 21 72  1  0  0  0
 22 73  1  0  0  0
 23 74  1  0  0  0
 24 75  1  0  0  0
 25 76  1  0  0  0
 28 77  1  0  0  0
 29 78  1  0  0  0
 31 79  1  0  0  0
 32 80  1  0  0  0
 34 81  1  0  0  0
 35 82  1  0  0  0
 36 83  1  0  0  0
 39 84  1  0  0  0
 42 85  1  0  0  0
 45 86  1  0  0  0
 46 87  1  0  0  0
 47 88  1  0  0  0
 48 89  1  0  0  0
 48 90  1  0  0  0
 49 91  1  0  0  0
 49 92  1  0  0  0
 50 93  1  0  0  0
 50 94  1  0  0  0
 50 95  1  0  0  0
 51 96  1  0  0  0
 51 97  1  0  0  0
 51 98  1  0  0  0
 52 99  1  0  0  0
 52100  1  0  0  0
 54101  1  0  0  0
 55102  1  0  0  0
 56103  1  0  0  0
 57104  1  0  0  0
 58105  1  0  0  0
M  END
$$$$
