6g2c_ligand
  -I-interpret- 

 33 35  0  0  0  0  0  0  0  0999 V2000
   -1.6540   11.9670  -19.8120 N   0  0  0  0  0
   -0.9310   10.8890  -19.4830 C   0  0  0  0  0
   -1.4370    9.6010  -19.4760 C   0  0  0  0  0
   -2.7750    9.4040  -19.8020 C   0  0  0  0  0
   -3.3590    8.0460  -19.8350 C   0  0  0  0  0
   -4.0000    7.3540  -20.8530 C   0  0  0  0  0
   -3.9400    6.0200  -19.1730 C   0  0  0  0  0
   -4.3750    7.8020  -22.1770 C   0  0  0  0  0
   -3.5580    8.4150  -23.1840 C   0  0  0  0  0
   -3.5340   10.5150  -20.1640 C   0  0  0  0  0
   -2.9360   11.7620  -20.1490 C   0  0  0  0  0
   -4.3490    6.0830  -20.4200 N   0  0  0  0  0
   -3.2790    7.1250  -18.7630 N   0  0  0  0  0
   -2.7200    7.3460  -17.4330 C   0  0  0  0  0
   -5.6250    7.7460  -22.7380 C   0  0  0  0  0
   -5.5730    8.2430  -23.9880 O   0  0  0  0  0
   -4.2540    8.6900  -24.2500 N   0  0  0  0  0
   -6.9460    7.2380  -22.2920 C   0  0  0  0  0
   -2.1030    8.7500  -23.1560 C   0  0  0  0  0
    0.1131   11.0339  -19.2056 H   0  0  0  0  0
   -0.7984    8.7557  -19.2196 H   0  0  0  0  0
   -4.1171    5.1579  -18.5300 H   0  0  0  0  0
   -4.5789   10.4035  -20.4534 H   0  0  0  0  0
   -3.5399   12.6260  -20.4264 H   0  0  0  0  0
   -1.6677    7.6158  -17.5228 H   0  0  0  0  0
   -3.2628    8.1535  -16.9417 H   0  0  0  0  0
   -2.8135    6.4332  -16.8447 H   0  0  0  0  0
   -6.8710    6.1714  -22.0801 H   0  0  0  0  0
   -7.2522    7.7683  -21.3902 H   0  0  0  0  0
   -7.6817    7.4025  -23.0792 H   0  0  0  0  0
   -1.9070    9.4445  -22.3391 H   0  0  0  0  0
   -1.5244    7.8384  -23.0063 H   0  0  0  0  0
   -1.8193    9.2107  -24.1022 H   0  0  0  0  0
  1  2  4  0  0  0
  1 11  4  0  0  0
  2  3  4  0  0  0
  3  4  4  0  0  0
  4  5  1  0  0  0
  4 10  4  0  0  0
  5  6  4  0  0  0
  5 13  4  0  0  0
  6  8  1  0  0  0
  6 12  4  0  0  0
 12  7  4  0  0  0
  7 13  4  0  0  0
  8  9  4  0  0  0
  8 15  4  0  0  0
  9 17  4  0  0  0
  9 19  1  0  0  0
 10 11  4  0  0  0
 13 14  1  0  0  0
 15 16  4  0  0  0
 15 18  1  0  0  0
 16 17  4  0  0  0
  2 20  1  0  0  0
  3 21  1  0  0  0
  7 22  1  0  0  0
 10 23  1  0  0  0
 11 24  1  0  0  0
 14 25  1  0  0  0
 14 26  1  0  0  0
 14 27  1  0  0  0
 18 28  1  0  0  0
 18 29  1  0  0  0
 18 30  1  0  0  0
 19 31  1  0  0  0
 19 32  1  0  0  0
 19 33  1  0  0  0
M  END
$$$$
