3ips_ligand
  -I-interpret- 

 53 55  0  0  0  0  0  0  0  0999 V2000
   15.9130  -15.3580   18.8720 C   0  0  0  0  0
   16.1810  -16.7350   18.6210 C   0  0  0  0  0
   17.5160  -17.1980   18.6880 C   0  0  0  0  0
   18.5520  -16.3420   18.9930 C   0  0  0  0  0
   18.2860  -15.0080   19.2470 C   0  0  0  0  0
   16.9860  -14.5190   19.1890 C   0  0  0  0  0
   20.2350  -16.9160   19.0970 S   0  0  0  0  0
   20.7770  -16.7490   17.3790 C   0  0  0  0  0
   20.8520  -15.2840   16.9830 C   0  0  0  0  0
   21.9110  -14.5760   17.8120 C   0  0  0  0  0
   23.1130  -15.2010   17.4000 O   0  0  0  0  0
   24.2940  -14.9620   18.0260 C   0  0  0  0  0
   25.1840  -16.0500   17.9240 C   0  0  0  0  0
   26.4180  -15.8520   18.5280 C   0  0  0  0  0
   26.7720  -14.6880   19.1890 C   0  0  0  0  0
   25.8610  -13.6280   19.2740 C   0  0  0  0  0
   24.6210  -13.7770   18.6840 C   0  0  0  0  0
   28.0690  -15.0050   19.6050 C   0  0  0  0  0
   28.5370  -16.2240   19.2540 N   0  0  0  0  0
   27.4150  -16.7960   18.5290 O   0  0  0  0  0
   28.8900  -14.0370   20.3720 C   0  0  0  0  0
   30.2180  -14.4030   20.3480 F   0  0  0  0  0
   28.5420  -14.0480   21.6960 F   0  0  0  0  0
   28.7720  -12.7490   19.8810 F   0  0  0  0  0
   24.8550  -17.3300   17.1870 C   0  0  0  0  0
   24.5250  -18.4940   18.1080 C   0  0  0  0  0
   23.5110  -19.4110   17.4460 C   0  0  0  0  0
   18.0180  -18.8310   18.4020 Cl  0  0  0  0  0
   14.5650  -14.6590   18.8610 C   0  0  0  0  0
   13.3710  -15.3210   18.2290 C   0  0  0  0  0
   13.2740  -16.4140   17.7210 O   0  0  0  0  0
   12.2840  -14.5180   18.2720 O   0  0  0  0  0
   15.3691  -17.4215   18.3809 H   0  0  0  0  0
   19.1050  -14.3330   19.4954 H   0  0  0  0  0
   16.8000  -13.4647   19.3939 H   0  0  0  0  0
   20.0602  -17.2540   16.7315 H   0  0  0  0  0
   21.7665  -17.1943   17.2756 H   0  0  0  0  0
   19.8844  -14.8144   17.1599 H   0  0  0  0  0
   21.1139  -15.2104   15.9275 H   0  0  0  0  0
   21.7359  -14.6652   18.8841 H   0  0  0  0  0
   21.9204  -13.4979   17.6515 H   0  0  0  0  0
   26.1243  -12.7067   19.7937 H   0  0  0  0  0
   23.8954  -12.9651   18.7330 H   0  0  0  0  0
   25.7354  -17.6100   16.6085 H   0  0  0  0  0
   23.9742  -17.1376   16.5744 H   0  0  0  0  0
   24.1056  -18.1078   19.0370 H   0  0  0  0  0
   25.4355  -19.0566   18.3143 H   0  0  0  0  0
   22.5999  -18.8510   17.2351 H   0  0  0  0  0
   23.9256  -19.7969   16.5147 H   0  0  0  0  0
   23.2824  -20.2408   18.1148 H   0  0  0  0  0
   14.7291  -13.7661   18.2578 H   0  0  0  0  0
   14.2984  -14.5706   19.9142 H   0  0  0  0  0
   12.5152  -13.6911   18.7013 H   0  0  0  0  0
  1  2  4  0  0  0
  1  6  4  0  0  0
  1 29  1  0  0  0
  2  3  4  0  0  0
  3  4  4  0  0  0
  3 28  1  0  0  0
  4  5  4  0  0  0
  4  7  1  0  0  0
  5  6  4  0  0  0
  7  8  1  0  0  0
  8  9  1  0  0  0
  9 10  1  0  0  0
 10 11  1  0  0  0
 11 12  1  0  0  0
 12 13  4  0  0  0
 12 17  4  0  0  0
 13 14  4  0  0  0
 13 25  1  0  0  0
 14 15  4  0  0  0
 14 20  4  0  0  0
 15 16  4  0  0  0
 15 18  4  0  0  0
 16 17  4  0  0  0
 18 19  4  0  0  0
 18 21  1  0  0  0
 19 20  4  0  0  0
 21 22  1  0  0  0
 21 23  1  0  0  0
 21 24  1  0  0  0
 25 26  1  0  0  0
 26 27  1  0  0  0
 29 30  1  0  0  0
 30 31  2  0  0  0
 30 32  1  0  0  0
  2 33  1  0  0  0
  5 34  1  0  0  0
  6 35  1  0  0  0
  8 36  1  0  0  0
  8 37  1  0  0  0
  9 38  1  0  0  0
  9 39  1  0  0  0
 10 40  1  0  0  0
 10 41  1  0  0  0
 16 42  1  0  0  0
 17 43  1  0  0  0
 25 44  1  0  0  0
 25 45  1  0  0  0
 26 46  1  0  0  0
 26 47  1  0  0  0
 27 48  1  0  0  0
 27 49  1  0  0  0
 27 50  1  0  0  0
 29 51  1  0  0  0
 29 52  1  0  0  0
 32 53  1  0  0  0
M  END
$$$$
