### 
### Created by X-TOOL on Mon Aug  2 16:10:37 2021
### 

@<TRIPOS>MOLECULE
6bs4_ligand
   44    46     1     0     0
SMALL
GAST_HUCK


@<TRIPOS>ATOM
      1 PG        -46.0920   41.1900   12.3810 P.3       1 AGS         0.2197
      2 S1G       -47.9400   41.5650   12.1770 S.3       1 AGS        -0.0461
      3 O2G       -45.7150   40.4870   13.7400 O.co2     1 AGS        -0.6077
      4 O3G       -45.3180   40.3100   11.3400 O.co2     1 AGS        -0.6077
      5 PB        -43.8330   43.0520   12.3460 P.3       1 AGS         0.3347
      6 O1B       -43.1240   42.9230   13.6440 O.co2     1 AGS        -0.6076
      7 O2B       -43.2500   42.3240   11.1170 O.co2     1 AGS        -0.6076
      8 O3B       -45.3550   42.6020   12.4460 O.3       1 AGS        -0.1434
      9 PA        -43.9280   45.3910   10.5860 P.3       1 AGS         0.2978
     10 O1A       -42.5680   45.4990   10.0000 O.co2     1 AGS        -0.6127
     11 O2A       -44.9550   44.7160    9.6400 O.co2     1 AGS        -0.6127
     12 O3A       -43.9650   44.5900   11.9600 O.3       1 AGS        -0.1263
     13 O5'       -44.4610   46.7890   11.1440 O.3       1 AGS        -0.2476
     14 C5'       -45.7820   47.0480   11.6730 C.3       1 AGS         0.1128
     15 C4'       -46.3120   48.3170   11.0460 C.3       1 AGS         0.1189
     16 O4'       -45.5020   49.4410   11.4570 O.3       1 AGS        -0.3364
     17 C3'       -46.3310   48.3520    9.5150 C.3       1 AGS         0.1149
     18 O3'       -47.4540   49.0820    9.0410 O.3       1 AGS        -0.3864
     19 C2'       -45.0260   49.0770    9.1730 C.3       1 AGS         0.1385
     20 O2'       -45.0270   49.6700    7.8800 O.3       1 AGS        -0.3836
     21 C1'       -44.9280   50.0800   10.3250 C.3       1 AGS         0.2010
     22 N9        -43.5660   50.4990   10.6690 N.pl3     1 AGS        -0.1919
     23 C8        -42.4900   49.6980   10.9610 C.2       1 AGS         0.1123
     24 N7        -41.3940   50.3580   11.2600 N.2       1 AGS        -0.2958
     25 C5        -41.7740   51.6890   11.1580 C.ar      1 AGS         0.1045
     26 C6        -41.0670   52.9020   11.3300 C.ar      1 AGS         0.1298
     27 N6        -39.7770   52.9820   11.6820 N.pl3     1 AGS        -0.3152
     28 N1        -41.7410   54.0550   11.1250 N.ar      1 AGS        -0.2698
     29 C2        -43.0300   53.9970   10.7670 C.ar      1 AGS         0.0533
     30 N3        -43.7980   52.9200   10.5760 N.ar      1 AGS        -0.2714
     31 C4        -43.1110   51.7900   10.7910 C.ar      1 AGS         0.1613
     32 H1        -48.0947   42.0117   11.2867 H         1 AGS         0.1255
     33 H2        -45.7268   47.1692   12.7649 H         1 AGS         0.0648
     34 H3        -46.4496   46.2080   11.4306 H         1 AGS         0.0648
     35 H4        -47.3422   48.4569   11.4053 H         1 AGS         0.0651
     36 H5        -46.3447   47.3362    9.0932 H         1 AGS         0.0648
     37 H6        -48.2520   48.6682    9.3483 H         1 AGS         0.2100
     38 H7        -44.1811   48.3739    9.2152 H         1 AGS         0.0676
     39 H8        -45.7293   50.3075    7.8257 H         1 AGS         0.2101
     40 H9        -45.5089   50.9766   10.0628 H         1 AGS         0.0996
     41 H10       -42.5405   48.6103   10.9461 H         1 AGS         0.1349
     42 H11       -39.3284   53.9030   11.7884 H         1 AGS         0.1820
     43 H12       -39.2337   52.1225   11.8462 H         1 AGS         0.1820
     44 H13       -43.5165   54.9531   10.6110 H         1 AGS         0.0996
@<TRIPOS>BOND
     1    1    2 1  
     2    1    3 ar 
     3    1    4 ar 
     4    8    1 1  
     5    5    6 ar 
     6    5    7 ar 
     7    5    8 1  
     8   12    5 1  
     9    9   10 ar 
    10    9   11 ar 
    11    9   12 1  
    12    9   13 1  
    13   13   14 1  
    14   14   15 1  
    15   15   16 1  
    16   15   17 1  
    17   16   21 1  
    18   17   18 1  
    19   17   19 1  
    20   19   20 1  
    21   19   21 1  
    22   21   22 1  
    23   22   23 1  
    24   22   31 1  
    25   23   24 2  
    26   24   25 1  
    27   25   26 ar 
    28   25   31 ar 
    29   26   27 1  
    30   26   28 ar 
    31   28   29 ar 
    32   29   30 ar 
    33   30   31 ar 
    34    2   32 1  
    35   14   33 1  
    36   14   34 1  
    37   15   35 1  
    38   17   36 1  
    39   18   37 1  
    40   19   38 1  
    41   20   39 1  
    42   21   40 1  
    43   23   41 1  
    44   27   42 1  
    45   27   43 1  
    46   29   44 1  
@<TRIPOS>SUBSTRUCTURE
     1 AGS         1

