6bs4_ligand
  -I-interpret- 

 47 49  0  0  0  0  0  0  0  0999 V2000
  -46.0920   41.1900   12.3810 P   0  0  0  0  0
  -47.9400   41.5650   12.1770 S   0  0  0  0  0
  -45.7150   40.4870   13.7400 O   0  0  0  0  0
  -45.3180   40.3100   11.3400 O   0  0  0  0  0
  -43.8330   43.0520   12.3460 P   0  0  0  0  0
  -43.1240   42.9230   13.6440 O   0  0  0  0  0
  -43.2500   42.3240   11.1170 O   0  0  0  0  0
  -45.3550   42.6020   12.4460 O   0  0  0  0  0
  -43.9280   45.3910   10.5860 P   0  0  0  0  0
  -42.5680   45.4990   10.0000 O   0  0  0  0  0
  -44.9550   44.7160    9.6400 O   0  0  0  0  0
  -43.9650   44.5900   11.9600 O   0  0  0  0  0
  -44.4610   46.7890   11.1440 O   0  0  0  0  0
  -45.7820   47.0480   11.6730 C   0  0  0  0  0
  -46.3120   48.3170   11.0460 C   0  0  0  0  0
  -45.5020   49.4410   11.4570 O   0  0  0  0  0
  -46.3310   48.3520    9.5150 C   0  0  0  0  0
  -47.4540   49.0820    9.0410 O   0  0  0  0  0
  -45.0260   49.0770    9.1730 C   0  0  0  0  0
  -45.0270   49.6700    7.8800 O   0  0  0  0  0
  -44.9280   50.0800   10.3250 C   0  0  0  0  0
  -43.5660   50.4990   10.6690 N   0  0  0  0  0
  -42.4900   49.6980   10.9610 C   0  0  0  0  0
  -41.3940   50.3580   11.2600 N   0  0  0  0  0
  -41.7740   51.6890   11.1580 C   0  0  0  0  0
  -41.0670   52.9020   11.3300 C   0  0  0  0  0
  -39.7770   52.9820   11.6820 N   0  0  0  0  0
  -41.7410   54.0550   11.1250 N   0  0  0  0  0
  -43.0300   53.9970   10.7670 C   0  0  0  0  0
  -43.7980   52.9200   10.5760 N   0  0  0  0  0
  -43.1110   51.7900   10.7910 C   0  0  0  0  0
  -48.3505   42.3260   13.1876 H   0  0  0  0  0
  -46.1406   40.9483   14.4664 H   0  0  0  0  0
  -43.8056   42.4936   10.3527 H   0  0  0  0  0
  -45.8103   44.6761   10.0742 H   0  0  0  0  0
  -45.7325   47.1616   12.7559 H   0  0  0  0  0
  -46.4448   46.2144   11.4409 H   0  0  0  0  0
  -47.3449   48.3618   11.3913 H   0  0  0  0  0
  -46.4069   47.3638    9.0613 H   0  0  0  0  0
  -47.4462   49.0913    8.0811 H   0  0  0  0  0
  -44.1598   48.4194    9.0994 H   0  0  0  0  0
  -44.1852   50.1059    7.7285 H   0  0  0  0  0
  -45.4407   50.9907   10.0152 H   0  0  0  0  0
  -42.5405   48.6093   10.9461 H   0  0  0  0  0
  -39.2390   52.1308   11.8446 H   0  0  0  0  0
  -39.3327   53.8941   11.7874 H   0  0  0  0  0
  -43.5192   54.9584   10.6101 H   0  0  0  0  0
  1  2  1  0  0  0
  1  3  1  0  0  0
  1  4  2  0  0  0
  8  1  1  0  0  0
  5  6  2  0  0  0
  5  7  1  0  0  0
  5  8  1  0  0  0
 12  5  1  0  0  0
  9 10  2  0  0  0
  9 11  1  0  0  0
  9 12  1  0  0  0
  9 13  1  0  0  0
 13 14  1  0  0  0
 14 15  1  0  0  0
 15 16  1  0  0  0
 15 17  1  0  0  0
 16 21  1  0  0  0
 17 18  1  0  0  0
 17 19  1  0  0  0
 19 20  1  0  0  0
 19 21  1  0  0  0
 21 22  1  0  0  0
 22 23  4  0  0  0
 22 31  4  0  0  0
 23 24  4  0  0  0
 24 25  4  0  0  0
 25 26  4  0  0  0
 25 31  4  0  0  0
 26 27  1  0  0  0
 26 28  4  0  0  0
 28 29  4  0  0  0
 29 30  4  0  0  0
 30 31  4  0  0  0
  2 32  1  0  0  0
  3 33  1  0  0  0
  7 34  1  0  0  0
 11 35  1  0  0  0
 14 36  1  0  0  0
 14 37  1  0  0  0
 15 38  1  0  0  0
 17 39  1  0  0  0
 18 40  1  0  0  0
 19 41  1  0  0  0
 20 42  1  0  0  0
 21 43  1  0  0  0
 23 44  1  0  0  0
 27 45  1  0  0  0
 27 46  1  0  0  0
 29 47  1  0  0  0
M  END
$$$$
