6b4w_ligand
  -I-interpret- 

 65 70  0  0  0  0  0  0  0  0999 V2000
    4.2570   32.2580   19.6340 C   0  0  0  0  0
    3.9310   32.4580   18.1630 C   0  0  0  0  0
    3.9130   33.2600   16.1590 C   0  0  0  0  0
    4.0850   33.9500   14.9680 C   0  0  0  0  0
    3.3730   33.5700   13.8310 C   0  0  0  0  0
    3.0230   32.1950   16.2040 C   0  0  0  0  0
    4.4580   33.3970   17.3740 N   0  0  0  0  0
    0.7440   30.7410   11.3650 N   0  0  0  0  0
    0.6360   34.5820   10.2060 N   0  0  0  0  0
    3.0420   31.6960   17.4770 O   0  0  0  0  0
    2.3150   31.8270   15.0720 C   0  0  0  0  0
    2.4690   32.5150   13.8770 C   0  0  0  0  0
    1.7440   32.0820   12.7570 C   0  0  0  0  0
    1.4190   30.8170   12.5120 C   0  0  0  0  0
    0.6250   31.9550   10.8470 C   0  0  0  0  0
    1.2450   32.8480   11.6970 C   0  0  0  0  0
    1.2360   34.1900   11.3430 C   0  0  0  0  0
    1.6410   36.4410   11.9620 C   0  0  0  0  0
    2.7310   37.4540   11.9870 C   0  0  0  0  0
    1.8520   35.0690   12.1600 O   0  0  0  0  0
    0.3090   34.1340    5.0690 C   0  0  0  0  0
   -0.9740   34.4580    5.5480 O   0  0  0  0  0
   -0.9630   35.4970    6.4360 C   0  0  0  0  0
   -1.1820   36.7850    5.9600 C   0  0  0  0  0
   -1.1920   37.8650    6.8330 C   0  0  0  0  0
   -1.4400   39.2750    6.2820 C   0  0  0  0  0
   -2.1280   39.4220    5.2730 O   0  0  0  0  0
   -0.9070   40.2800    6.9870 N   0  0  0  0  0
   -1.1370   41.6650    6.5210 C   0  0  0  0  0
   -0.9990   37.6500    8.1940 C   0  0  0  0  0
   -0.7920   36.3620    8.6820 C   0  0  0  0  0
   -0.7640   35.2760    7.8070 C   0  0  0  0  0
   -0.5780   34.0190    8.2460 N   0  0  0  0  0
    0.0330   33.6860    9.3970 C   0  0  0  0  0
    0.0330   32.3870    9.7300 N   0  0  0  0  0
    2.3900   38.1290   13.3140 C   0  0  0  0  0
    0.8430   38.1710   13.3370 C   0  0  0  0  0
    0.3880   37.1940   12.2340 C   0  0  0  0  0
    5.3213   32.0499   19.7439 H   0  0  0  0  0
    4.0032   33.1622   20.1873 H   0  0  0  0  0
    3.6795   31.4189   20.0220 H   0  0  0  0  0
    4.7776   34.7903   14.9209 H   0  0  0  0  0
    3.5271   34.1066   12.8948 H   0  0  0  0  0
    1.6261   30.9837   15.1206 H   0  0  0  0  0
    1.6668   29.9700   13.1518 H   0  0  0  0  0
    1.5319   35.8750   11.0369 H   0  0  0  0  0
    2.7631   38.1198   11.1246 H   0  0  0  0  0
    3.7406   37.0484   11.9207 H   0  0  0  0  0
    0.7358   34.9999    4.5629 H   0  0  0  0  0
    0.9468   33.8498    5.9060 H   0  0  0  0  0
    0.2345   33.3023    4.3685 H   0  0  0  0  0
   -1.3469   36.9480    4.8949 H   0  0  0  0  0
   -0.3557   40.0955    7.8251 H   0  0  0  0  0
   -0.7307   41.7811    5.5163 H   0  0  0  0  0
   -2.2076   41.8693    6.5072 H   0  0  0  0  0
   -0.6416   42.3615    7.1974 H   0  0  0  0  0
   -1.0099   38.4948    8.8827 H   0  0  0  0  0
   -0.6514   36.2021    9.7510 H   0  0  0  0  0
   -0.9270   33.2596    7.6613 H   0  0  0  0  0
    2.8282   39.1240   13.3922 H   0  0  0  0  0
    2.7979   37.5862   14.1666 H   0  0  0  0  0
    0.4681   39.1786   13.1576 H   0  0  0  0  0
    0.4501   37.8835   14.3122 H   0  0  0  0  0
   -0.4447   36.5578   12.5338 H   0  0  0  0  0
   -0.0194   37.6917   11.3540 H   0  0  0  0  0
  2  1  1  0  0  0
  2  7  4  0  0  0
 10  2  4  0  0  0
  4  3  4  0  0  0
  6  3  4  0  0  0
  3  7  4  0  0  0
  5  4  4  0  0  0
 12  5  4  0  0  0
  6 10  4  0  0  0
 11  6  4  0  0  0
  8 14  4  0  0  0
 15  8  4  0  0  0
  9 17  4  0  0  0
 34  9  4  0  0  0
 12 11  4  0  0  0
 13 12  1  0  0  0
 13 14  4  0  0  0
 16 13  4  0  0  0
 16 15  4  0  0  0
 15 35  4  0  0  0
 17 16  4  0  0  0
 17 20  1  0  0  0
 18 19  1  0  0  0
 20 18  1  0  0  0
 18 38  1  0  0  0
 19 36  1  0  0  0
 22 21  1  0  0  0
 23 22  1  0  0  0
 23 24  4  0  0  0
 32 23  4  0  0  0
 24 25  4  0  0  0
 25 26  1  0  0  0
 30 25  4  0  0  0
 26 27  2  0  0  0
 26 28  1  0  0  0
 28 29  1  0  0  0
 31 30  4  0  0  0
 32 31  4  0  0  0
 33 32  1  0  0  0
 33 34  1  0  0  0
 34 35  4  0  0  0
 36 37  1  0  0  0
 37 38  1  0  0  0
  1 39  1  0  0  0
  1 40  1  0  0  0
  1 41  1  0  0  0
  4 42  1  0  0  0
  5 43  1  0  0  0
 11 44  1  0  0  0
 14 45  1  0  0  0
 18 46  1  0  0  0
 19 47  1  0  0  0
 19 48  1  0  0  0
 21 49  1  0  0  0
 21 50  1  0  0  0
 21 51  1  0  0  0
 24 52  1  0  0  0
 28 53  1  0  0  0
 29 54  1  0  0  0
 29 55  1  0  0  0
 29 56  1  0  0  0
 30 57  1  0  0  0
 31 58  1  0  0  0
 33 59  1  0  0  0
 36 60  1  0  0  0
 36 61  1  0  0  0
 37 62  1  0  0  0
 37 63  1  0  0  0
 38 64  1  0  0  0
 38 65  1  0  0  0
M  END
$$$$
