5lzj_ligand
  -I-interpret- 

 61 62  0  0  0  0  0  0  0  0999 V2000
   14.1210    8.2320   20.0430 C   0  0  0  0  0
   14.3620    6.9590   19.2910 C   0  0  0  0  0
   13.0430    6.4340   18.7930 C   0  0  0  0  0
   15.5140    8.7530   20.5610 C   0  0  0  0  0
   26.1880    5.6150   21.2990 C   0  0  0  0  0
   24.9760    6.3210   21.6610 O   0  0  0  0  0
   24.0190    6.4210   20.6600 C   0  0  0  0  0
   23.6530    5.3540   19.8180 C   0  0  0  0  0
   23.3610    7.6550   20.4920 C   0  0  0  0  0
   23.6930    8.6910   21.2950 O   0  0  0  0  0
   24.4910    9.6750   20.6200 C   0  0  0  0  0
   22.3650    7.8500   19.5280 C   0  0  0  0  0
   21.7670    9.0900   19.3490 O   0  0  0  0  0
   21.1420    9.8060   20.4170 C   0  0  0  0  0
   22.0630    6.7930   18.6760 C   0  0  0  0  0
   22.6720    5.5300   18.8280 C   0  0  0  0  0
   22.3360    4.4280   18.0230 C   0  0  0  0  0
   20.8580    4.0050   17.7250 C   0  0  0  0  0
   19.6680    4.9140   18.0730 C   0  0  0  0  0
   19.8630    5.8870   18.7610 O   0  0  0  0  0
   18.4300    4.5400   17.7830 N   0  0  0  0  0
   17.2140    5.3280   18.0470 C   0  0  0  0  0
   17.3850    6.5090   19.0740 C   0  0  0  0  0
   16.5570    7.6630   18.5120 C   0  0  0  0  0
   15.1930    7.2250   18.1860 O   0  0  0  0  0
   13.3110    5.0890   18.1870 O   0  0  0  0  0
   13.5550    9.2530   19.3040 O   0  0  0  0  0
   15.3410    9.9940   21.2020 O   0  0  0  0  0
   16.4540    8.9340   19.3650 C   0  0  0  0  0
   17.8090    9.2640   19.8890 O   0  0  0  0  0
   13.4114    7.9864   20.8331 H   0  0  0  0  0
   14.8373    6.2262   19.9431 H   0  0  0  0  0
   12.6104    7.1110   18.0564 H   0  0  0  0  0
   12.3252    6.3544   19.6094 H   0  0  0  0  0
   15.9368    8.0347   21.2634 H   0  0  0  0  0
   25.9394    4.5943   21.0083 H   0  0  0  0  0
   26.6685    6.1251   20.4641 H   0  0  0  0  0
   26.8649    5.5962   22.1531 H   0  0  0  0  0
   24.1347    4.3833   19.9351 H   0  0  0  0  0
   25.4134    9.2134   20.2676 H   0  0  0  0  0
   23.9345   10.0721   19.7711 H   0  0  0  0  0
   24.7289   10.4840   21.3106 H   0  0  0  0  0
   20.3290    9.2071   20.8274 H   0  0  0  0  0
   21.8765   10.0068   21.1969 H   0  0  0  0  0
   20.7457   10.7481   20.0381 H   0  0  0  0  0
   21.3405    6.9439   17.8739 H   0  0  0  0  0
   22.7264    3.5813   18.5876 H   0  0  0  0  0
   22.7138    4.7145   17.0415 H   0  0  0  0  0
   20.7078    3.1307   18.3584 H   0  0  0  0  0
   20.8231    3.9404   16.6375 H   0  0  0  0  0
   18.3091    3.6295   17.3395 H   0  0  0  0  0
   16.4861    4.6418   18.4799 H   0  0  0  0  0
   16.9236    5.7797   17.0985 H   0  0  0  0  0
   18.4321    6.7886   19.1898 H   0  0  0  0  0
   17.0471    6.2236   20.0702 H   0  0  0  0  0
   17.1280    7.9465   17.6279 H   0  0  0  0  0
   12.4894    4.7190   17.8559 H   0  0  0  0  0
   12.7005    8.9696   18.9707 H   0  0  0  0  0
   14.7524    9.8859   21.9526 H   0  0  0  0  0
   16.0563    9.7284   18.7335 H   0  0  0  0  0
   17.7587   10.0586   20.4254 H   0  0  0  0  0
  2  1  1  0  0  0
  1  4  1  0  0  0
  1 27  1  0  0  0
  2  3  1  0  0  0
 25  2  1  0  0  0
  3 26  1  0  0  0
  4 28  1  0  0  0
  4 29  1  0  0  0
  6  5  1  0  0  0
  7  6  1  0  0  0
  8  7  4  0  0  0
  7  9  4  0  0  0
 16  8  4  0  0  0
  9 10  1  0  0  0
 12  9  4  0  0  0
 10 11  1  0  0  0
 12 13  1  0  0  0
 15 12  4  0  0  0
 13 14  1  0  0  0
 16 15  4  0  0  0
 17 16  1  0  0  0
 18 17  1  0  0  0
 19 18  1  0  0  0
 19 20  2  0  0  0
 21 19  1  0  0  0
 22 21  1  0  0  0
 23 22  1  0  0  0
 24 23  1  0  0  0
 24 25  1  0  0  0
 24 29  1  0  0  0
 29 30  1  0  0  0
  1 31  1  0  0  0
  2 32  1  0  0  0
  3 33  1  0  0  0
  3 34  1  0  0  0
  4 35  1  0  0  0
  5 36  1  0  0  0
  5 37  1  0  0  0
  5 38  1  0  0  0
  8 39  1  0  0  0
 11 40  1  0  0  0
 11 41  1  0  0  0
 11 42  1  0  0  0
 14 43  1  0  0  0
 14 44  1  0  0  0
 14 45  1  0  0  0
 15 46  1  0  0  0
 17 47  1  0  0  0
 17 48  1  0  0  0
 18 49  1  0  0  0
 18 50  1  0  0  0
 21 51  1  0  0  0
 22 52  1  0  0  0
 22 53  1  0  0  0
 23 54  1  0  0  0
 23 55  1  0  0  0
 24 56  1  0  0  0
 26 57  1  0  0  0
 27 58  1  0  0  0
 28 59  1  0  0  0
 29 60  1  0  0  0
 30 61  1  0  0  0
M  END
$$$$
