5uyu_ligand
  -I-interpret- 

 56 61  0  0  0  0  0  0  0  0999 V2000
   65.2680   52.5810   12.3720 C   0  0  0  0  0
   63.8580   52.4260   12.9550 C   0  0  0  0  0
   63.0050   51.3540   12.4360 O   0  0  0  0  0
   63.2390   51.1480   11.0190 C   0  0  0  0  0
   64.5520   50.9290   10.5880 C   0  0  0  0  0
   65.6050   51.6230   11.2090 C   0  0  0  0  0
   66.9340   51.4420   10.7680 C   0  0  0  0  0
   67.2630   50.4660    9.8200 C   0  0  0  0  0
   67.9060   52.2510   11.2570 N   0  0  0  0  0
   69.1640   52.1230   10.8940 C   0  0  0  0  0
   69.5390   51.1560    9.9510 C   0  0  0  0  0
   70.8580   51.0780    9.6220 O   0  0  0  0  0
   68.5800   50.2960    9.3990 C   0  0  0  0  0
   68.9600   49.2300    8.3400 C   0  0  0  0  0
   68.5860   47.7880    8.7440 C   0  0  0  0  0
   67.5890   47.3580    7.7770 O   0  0  0  0  0
   67.3420   48.4010    6.9240 C   0  0  0  0  0
   68.1070   49.4840    7.1720 N   0  0  0  0  0
   66.3650   48.3220    6.0050 N   0  0  0  0  0
   70.4660   49.2810    8.0300 C   0  0  0  0  0
   71.0100   48.4060    7.0900 C   0  0  0  0  0
   71.3110   50.1800    8.6900 C   0  0  0  0  0
   72.6800   50.1880    8.3930 C   0  0  0  0  0
   73.2080   49.3150    7.4470 C   0  0  0  0  0
   72.3710   48.4200    6.7910 C   0  0  0  0  0
   72.8780   47.5230    5.8340 C   0  0  0  0  0
   72.1750   47.2630    4.6490 C   0  0  0  0  0
   74.0730   46.8450    6.0520 C   0  0  0  0  0
   74.5640   45.9940    5.1470 N   0  0  0  0  0
   73.9270   45.7280    4.0210 C   0  0  0  0  0
   72.7070   46.3500    3.7410 C   0  0  0  0  0
   72.0390   46.0470    2.5230 C   0  0  0  0  0
   71.4540   45.7860    1.4670 C   0  0  0  0  0
   70.7860   45.4710    0.2080 C   0  0  0  0  0
   65.9670   52.3550   13.1772 H   0  0  0  0  0
   65.3332   53.5934   11.9735 H   0  0  0  0  0
   63.3404   53.3514   12.7025 H   0  0  0  0  0
   64.0081   52.1880   14.0081 H   0  0  0  0  0
   62.9315   52.0775   10.5398 H   0  0  0  0  0
   62.6994   50.2344   10.7694 H   0  0  0  0  0
   64.7563   50.2275    9.7791 H   0  0  0  0  0
   66.4793   49.8314    9.4063 H   0  0  0  0  0
   69.9212   52.7745   11.3303 H   0  0  0  0  0
   68.1980   47.7470    9.7618 H   0  0  0  0  0
   69.4573   47.1331    8.7364 H   0  0  0  0  0
   68.0948   50.3482    6.6304 H   0  0  0  0  0
   65.7965   47.4779    5.9363 H   0  0  0  0  0
   70.3579   47.6974    6.5793 H   0  0  0  0  0
   73.3391   50.8862    8.9089 H   0  0  0  0  0
   74.2742   49.3329    7.2211 H   0  0  0  0  0
   71.2302   47.7656    4.4421 H   0  0  0  0  0
   74.6198   47.0116    6.9801 H   0  0  0  0  0
   74.3536   45.0219    3.3086 H   0  0  0  0  0
   71.1823   46.1092   -0.5817 H   0  0  0  0  0
   70.9636   44.4256   -0.0444 H   0  0  0  0  0
   69.7149   45.6437    0.3133 H   0  0  0  0  0
  1  2  1  0  0  0
  1  6  1  0  0  0
  2  3  1  0  0  0
  3  4  1  0  0  0
  4  5  1  0  0  0
  5  6  2  0  0  0
  6  7  1  0  0  0
  7  8  4  0  0  0
  7  9  4  0  0  0
  8 13  4  0  0  0
  9 10  4  0  0  0
 10 11  4  0  0  0
 11 12  1  0  0  0
 11 13  4  0  0  0
 12 22  1  0  0  0
 13 14  1  0  0  0
 14 15  1  0  0  0
 14 18  1  0  0  0
 14 20  1  0  0  0
 15 16  1  0  0  0
 16 17  1  0  0  0
 17 18  1  0  0  0
 17 19  2  0  0  0
 20 21  4  0  0  0
 20 22  4  0  0  0
 21 25  4  0  0  0
 22 23  4  0  0  0
 23 24  4  0  0  0
 24 25  4  0  0  0
 25 26  1  0  0  0
 26 27  4  0  0  0
 26 28  4  0  0  0
 27 31  4  0  0  0
 28 29  4  0  0  0
 29 30  4  0  0  0
 30 31  4  0  0  0
 31 32  1  0  0  0
 32 33  3  0  0  0
 33 34  1  0  0  0
  1 35  1  0  0  0
  1 36  1  0  0  0
  2 37  1  0  0  0
  2 38  1  0  0  0
  4 39  1  0  0  0
  4 40  1  0  0  0
  5 41  1  0  0  0
  8 42  1  0  0  0
 10 43  1  0  0  0
 15 44  1  0  0  0
 15 45  1  0  0  0
 18 46  1  0  0  0
 19 47  1  0  0  0
 21 48  1  0  0  0
 23 49  1  0  0  0
 24 50  1  0  0  0
 27 51  1  0  0  0
 28 52  1  0  0  0
 30 53  1  0  0  0
 34 54  1  0  0  0
 34 55  1  0  0  0
 34 56  1  0  0  0
M  END
$$$$
