5yco_ligand
  -I-interpret- 

145146  0  0  0  0  0  0  0  0999 V2000
  -44.6810  118.1420   25.7230 N   0  3  0  0  0
  -44.3330  118.2170   27.1440 C   0  0  0  0  0
  -44.2190  116.8360   27.7950 C   0  0  0  0  0
  -45.2270  116.1570   28.0180 O   0  0  0  0  0
  -45.3600  119.0580   27.9070 C   0  0  0  0  0
  -45.0920  119.1400   29.4100 C   0  0  0  0  0
  -43.7460  119.7980   29.7340 C   0  0  0  0  0
  -43.6400  121.0290   29.7670 O   0  0  0  0  0
  -42.7150  118.9750   29.9790 N   0  0  0  0  0
  -42.9780  116.4540   28.1020 N   0  0  0  0  0
  -42.5750  115.2080   28.7480 C   0  0  0  0  0
  -43.0460  115.1720   30.2090 C   0  0  0  0  0
  -43.7010  116.1000   30.6970 O   0  0  0  0  0
  -41.0570  115.0700   28.6560 C   0  0  0  0  0
  -40.4520  116.2360   29.2220 O   0  0  0  0  0
  -40.6190  114.9920   27.2010 C   0  0  0  0  0
  -42.7310  114.0760   30.9210 N   0  0  0  0  0
  -42.9340  113.9740   32.3750 C   0  0  0  0  0
  -41.6950  113.3220   32.9990 C   0  0  0  0  0
  -40.7740  112.9280   32.2880 O   0  0  0  0  0
  -44.2160  113.2040   32.7240 C   0  0  0  0  0
  -45.4640  113.3640   31.8630 C   0  0  0  0  0
  -46.4560  112.1950   32.0700 C   0  0  0  0  0
  -46.1140  114.7090   32.1700 C   0  0  0  0  0
  -41.6860  113.1530   34.3300 N   0  0  0  0  0
  -40.4370  113.1110   35.1000 C   0  0  0  0  0
  -39.9710  111.7450   35.6000 C   0  0  0  0  0
  -38.7580  111.5110   35.6090 O   0  0  0  0  0
  -40.5310  114.0520   36.3080 C   0  0  0  0  0
  -39.6740  115.3110   36.1890 C   0  0  0  0  0
  -39.6510  116.0150   37.5140 C   0  0  0  0  0
  -38.2630  114.9690   35.7540 C   0  0  0  0  0
  -40.8490  110.8550   36.1060 N   0  0  0  0  0
  -40.3490  109.5300   36.5080 C   0  0  0  0  0
  -39.9010  108.7440   35.2880 C   0  0  0  0  0
  -39.0430  107.8600   35.3880 O   0  0  0  0  0
  -41.3880  108.7290   37.3080 C   0  0  0  0  0
  -42.8150  108.9610   36.8440 C   0  0  0  0  0
  -43.0330  109.2650   35.6570 O   0  0  0  0  0
  -43.7340  108.8270   37.6800 O   0  0  0  0  0
  -40.4940  109.0570   34.1430 N   0  0  0  0  0
  -39.9420  108.8600   32.8140 C   0  0  0  0  0
  -38.4260  109.0200   32.8640 C   0  0  0  0  0
  -37.6810  108.1680   32.3620 O   0  0  0  0  0
  -40.5750  109.8790   31.8510 C   0  0  0  0  0
  -42.0940  109.9050   31.5830 C   0  0  0  0  0
  -42.9180  110.1720   32.8120 C   0  0  0  0  0
  -42.4920  110.9430   30.5140 C   0  0  0  0  0
  -37.9660  110.1010   33.5000 N   0  0  0  0  0
  -36.5440  110.4060   33.6030 C   0  0  0  0  0
  -35.8960  109.7830   34.8340 C   0  0  0  0  0
  -34.7720  109.2730   34.7470 O   0  0  0  0  0
  -36.3540  111.9180   33.5930 C   0  0  0  0  0
  -36.7880  112.5540   32.3050 C   0  0  0  0  0
  -36.0050  112.4560   31.1760 C   0  0  0  0  0
  -37.9900  113.2260   32.2170 C   0  0  0  0  0
  -36.4070  113.0480   29.9950 C   0  0  0  0  0
  -38.4070  113.8090   31.0190 C   0  0  0  0  0
  -37.6190  113.7190   29.9200 C   0  0  0  0  0
  -36.5820  109.7930   35.9720 N   0  0  0  0  0
  -36.0500  108.9700   37.0530 C   0  0  0  0  0
  -37.1990  108.3480   37.8430 C   0  0  0  0  0
  -37.1730  107.1550   38.1500 O   0  0  0  0  0
  -35.1430  109.8020   37.9670 C   0  0  0  0  0
  -34.3330  110.8240   37.2250 C   0  0  0  0  0
  -33.2570  110.4380   36.4300 C   0  0  0  0  0
  -34.6080  112.1800   37.3710 C   0  0  0  0  0
  -32.4850  111.3840   35.7770 C   0  0  0  0  0
  -33.8390  113.1340   36.7240 C   0  0  0  0  0
  -32.7690  112.7380   35.9320 C   0  0  0  0  0
  -38.1660  109.0320   38.1830 O   0  0  0  0  0
  -43.9860  117.5785   25.2333 H   0  0  0  0  0
  -45.6009  117.7131   25.6216 H   0  0  0  0  0
  -44.6976  119.0823   25.3282 H   0  0  0  0  0
  -43.3533  118.6916   27.1986 H   0  0  0  0  0
  -46.3326  118.5840   27.7746 H   0  0  0  0  0
  -45.3096  120.0723   27.5110 H   0  0  0  0  0
  -45.0715  118.1235   29.8029 H   0  0  0  0  0
  -45.8785  119.7471   29.8582 H   0  0  0  0  0
  -41.7975  119.3598   30.2037 H   0  0  0  0  0
  -42.8488  117.9645   29.9406 H   0  0  0  0  0
  -42.2294  117.1029   27.8590 H   0  0  0  0  0
  -43.0431  114.3665   28.2372 H   0  0  0  0  0
  -40.7572  114.1657   29.1856 H   0  0  0  0  0
  -39.4967  116.1576   29.1683 H   0  0  0  0  0
  -41.0841  114.1267   26.7288 H   0  0  0  0  0
  -40.9258  115.8997   26.6814 H   0  0  0  0  0
  -39.5344  114.8939   27.1541 H   0  0  0  0  0
  -42.3319  113.2763   30.4295 H   0  0  0  0  0
  -43.0640  114.9745   32.7876 H   0  0  0  0  0
  -44.5082  113.5919   33.6998 H   0  0  0  0  0
  -43.9415  112.1551   32.6115 H   0  0  0  0  0
  -45.1735  113.3390   30.8127 H   0  0  0  0  0
  -45.9710  111.2566   31.8010 H   0  0  0  0  0
  -46.7620  112.1607   33.1156 H   0  0  0  0  0
  -47.3315  112.3470   31.4387 H   0  0  0  0  0
  -46.3882  114.7464   33.2243 H   0  0  0  0  0
  -45.4096  115.5106   31.9478 H   0  0  0  0  0
  -47.0071  114.8279   31.5565 H   0  0  0  0  0
  -42.5738  113.0506   34.8216 H   0  0  0  0  0
  -39.6880  113.4223   34.3718 H   0  0  0  0  0
  -40.1711  113.4987   37.1755 H   0  0  0  0  0
  -41.5691  114.3755   36.3837 H   0  0  0  0  0
  -40.1072  115.9639   35.4313 H   0  0  0  0  0
  -40.6677  116.2877   37.7968 H   0  0  0  0  0
  -39.2279  115.3522   38.2688 H   0  0  0  0  0
  -39.0407  116.9147   37.4354 H   0  0  0  0  0
  -37.8086  114.3045   36.4889 H   0  0  0  0  0
  -38.2934  114.4733   34.7837 H   0  0  0  0  0
  -37.6758  115.8841   35.6777 H   0  0  0  0  0
  -41.8354  111.0941   36.2077 H   0  0  0  0  0
  -39.4956  109.6943   37.1659 H   0  0  0  0  0
  -41.3234  109.0522   38.3470 H   0  0  0  0  0
  -41.1652  107.6710   37.1696 H   0  0  0  0  0
  -43.3585  108.5925   38.5318 H   0  0  0  0  0
  -41.4229  109.4743   34.2015 H   0  0  0  0  0
  -40.1672  107.8554   32.4560 H   0  0  0  0  0
  -40.1457  109.6214   30.8828 H   0  0  0  0  0
  -40.3795  110.8403   32.3262 H   0  0  0  0  0
  -42.3095  108.8988   31.2234 H   0  0  0  0  0
  -42.7305  109.3921   33.5501 H   0  0  0  0  0
  -42.6438  111.1414   33.2282 H   0  0  0  0  0
  -43.9749  110.1754   32.5456 H   0  0  0  0  0
  -42.1938  111.9374   30.8462 H   0  0  0  0  0
  -41.9907  110.7066   29.5754 H   0  0  0  0  0
  -43.5718  110.9161   30.3675 H   0  0  0  0  0
  -38.6361  110.7382   33.9306 H   0  0  0  0  0
  -36.0423  109.9647   32.7418 H   0  0  0  0  0
  -35.2907  112.1203   33.7219 H   0  0  0  0  0
  -36.9661  112.3352   34.3926 H   0  0  0  0  0
  -35.0633  111.9084   31.2150 H   0  0  0  0  0
  -38.6256  113.3031   33.0991 H   0  0  0  0  0
  -35.7670  112.9876   29.1147 H   0  0  0  0  0
  -39.3610  114.3337   30.9678 H   0  0  0  0  0
  -37.9363  114.1721   28.9808 H   0  0  0  0  0
  -37.4325  110.3449   36.0835 H   0  0  0  0  0
  -35.4476  108.1683   36.6258 H   0  0  0  0  0
  -34.4469  109.1181   38.4525 H   0  0  0  0  0
  -35.7827  110.3350   38.6704 H   0  0  0  0  0
  -33.0198  109.3798   36.3205 H   0  0  0  0  0
  -35.4387  112.4958   38.0022 H   0  0  0  0  0
  -31.6564  111.0691   35.1427 H   0  0  0  0  0
  -34.0732  114.1926   36.8363 H   0  0  0  0  0
  -32.1529  113.4859   35.4328 H   0  0  0  0  0
  -38.0438  109.9328   37.8743 H   0  0  0  0  0
  1  2  1  0  0  0
  2  3  1  0  0  0
  2  5  1  0  0  0
  3  4  2  0  0  0
  3 10  1  0  0  0
  5  6  1  0  0  0
  6  7  1  0  0  0
  7  8  2  0  0  0
  7  9  1  0  0  0
 10 11  1  0  0  0
 11 12  1  0  0  0
 11 14  1  0  0  0
 12 13  2  0  0  0
 12 17  1  0  0  0
 14 15  1  0  0  0
 14 16  1  0  0  0
 17 18  1  0  0  0
 18 19  1  0  0  0
 18 21  1  0  0  0
 19 20  2  0  0  0
 19 25  1  0  0  0
 21 22  1  0  0  0
 22 23  1  0  0  0
 22 24  1  0  0  0
 25 26  1  0  0  0
 26 27  1  0  0  0
 26 29  1  0  0  0
 27 28  2  0  0  0
 27 33  1  0  0  0
 29 30  1  0  0  0
 30 31  1  0  0  0
 30 32  1  0  0  0
 33 34  1  0  0  0
 34 35  1  0  0  0
 34 37  1  0  0  0
 35 36  2  0  0  0
 35 41  1  0  0  0
 37 38  1  0  0  0
 38 39  2  0  0  0
 38 40  1  0  0  0
 41 42  1  0  0  0
 42 43  1  0  0  0
 42 45  1  0  0  0
 43 44  2  0  0  0
 43 49  1  0  0  0
 45 46  1  0  0  0
 46 47  1  0  0  0
 46 48  1  0  0  0
 49 50  1  0  0  0
 50 51  1  0  0  0
 50 53  1  0  0  0
 51 52  2  0  0  0
 51 60  1  0  0  0
 53 54  1  0  0  0
 54 55  4  0  0  0
 54 56  4  0  0  0
 55 57  4  0  0  0
 56 58  4  0  0  0
 57 59  4  0  0  0
 58 59  4  0  0  0
 60 61  1  0  0  0
 61 62  1  0  0  0
 61 64  1  0  0  0
 62 63  2  0  0  0
 62 71  1  0  0  0
 64 65  1  0  0  0
 65 66  4  0  0  0
 65 67  4  0  0  0
 66 68  4  0  0  0
 67 69  4  0  0  0
 68 70  4  0  0  0
 69 70  4  0  0  0
  1 72  1  0  0  0
  1 73  1  0  0  0
  1 74  1  0  0  0
  2 75  1  0  0  0
  5 76  1  0  0  0
  5 77  1  0  0  0
  6 78  1  0  0  0
  6 79  1  0  0  0
  9 80  1  0  0  0
  9 81  1  0  0  0
 10 82  1  0  0  0
 11 83  1  0  0  0
 14 84  1  0  0  0
 15 85  1  0  0  0
 16 86  1  0  0  0
 16 87  1  0  0  0
 16 88  1  0  0  0
 17 89  1  0  0  0
 18 90  1  0  0  0
 21 91  1  0  0  0
 21 92  1  0  0  0
 22 93  1  0  0  0
 23 94  1  0  0  0
 23 95  1  0  0  0
 23 96  1  0  0  0
 24 97  1  0  0  0
 24 98  1  0  0  0
 24 99  1  0  0  0
 25100  1  0  0  0
 26101  1  0  0  0
 29102  1  0  0  0
 29103  1  0  0  0
 30104  1  0  0  0
 31105  1  0  0  0
 31106  1  0  0  0
 31107  1  0  0  0
 32108  1  0  0  0
 32109  1  0  0  0
 32110  1  0  0  0
 33111  1  0  0  0
 34112  1  0  0  0
 37113  1  0  0  0
 37114  1  0  0  0
 40115  1  0  0  0
 41116  1  0  0  0
 42117  1  0  0  0
 45118  1  0  0  0
 45119  1  0  0  0
 46120  1  0  0  0
 47121  1  0  0  0
 47122  1  0  0  0
 47123  1  0  0  0
 48124  1  0  0  0
 48125  1  0  0  0
 48126  1  0  0  0
 49127  1  0  0  0
 50128  1  0  0  0
 53129  1  0  0  0
 53130  1  0  0  0
 55131  1  0  0  0
 56132  1  0  0  0
 57133  1  0  0  0
 58134  1  0  0  0
 59135  1  0  0  0
 60136  1  0  0  0
 61137  1  0  0  0
 64138  1  0  0  0
 64139  1  0  0  0
 66140  1  0  0  0
 67141  1  0  0  0
 68142  1  0  0  0
 69143  1  0  0  0
 70144  1  0  0  0
 71145  1  0  0  0
M  END
$$$$
