### 
### Created by X-TOOL on Mon Sep 10 21:13:33 2018
### 

@<TRIPOS>MOLECULE
5yco_ligand
  143   144     1     0     0
SMALL
GAST_HUCK


@<TRIPOS>ATOM
      1 N         -44.6810  118.1420   25.7230 N.4       1 GLN         0.2380
      2 CA        -44.3330  118.2170   27.1440 C.3       1 GLN         0.0671
      3 C         -44.2190  116.8360   27.7950 C.2       1 GLN         0.2269
      4 O         -45.2270  116.1570   28.0180 O.2       1 GLN        -0.3907
      5 CB        -45.3600  119.0580   27.9070 C.3       1 GLN         0.0247
      6 CG        -45.0920  119.1400   29.4100 C.3       1 GLN         0.0443
      7 CD        -43.7460  119.7980   29.7340 C.2       1 GLN         0.1738
      8 OE1       -43.6400  121.0290   29.7670 O.2       1 GLN        -0.3973
      9 NE2       -42.7150  118.9750   29.9790 N.am      1 GLN        -0.3009
     10 N         -42.9780  116.4540   28.1020 N.am      1 THR        -0.2586
     11 CA        -42.5750  115.2080   28.7480 C.3       1 THR         0.1566
     12 C         -43.0460  115.1720   30.2090 C.2       1 THR         0.2065
     13 O         -43.7010  116.1000   30.6970 O.2       1 THR        -0.3943
     14 CB        -41.0570  115.0700   28.6560 C.3       1 THR         0.0924
     15 OG1       -40.4520  116.2360   29.2220 O.3       1 THR        -0.3874
     16 CG2       -40.6190  114.9920   27.2010 C.3       1 THR        -0.0346
     17 N         -42.7310  114.0760   30.9210 N.am      1 LEU        -0.2636
     18 CA        -42.9340  113.9740   32.3750 C.3       1 LEU         0.1312
     19 C         -41.6950  113.3220   32.9990 C.2       1 LEU         0.2039
     20 O         -40.7740  112.9280   32.2880 O.2       1 LEU        -0.3944
     21 CB        -44.2160  113.2040   32.7240 C.3       1 LEU        -0.0101
     22 CG        -45.4640  113.3640   31.8630 C.3       1 LEU        -0.0425
     23 CD1       -46.4560  112.1950   32.0700 C.3       1 LEU        -0.0625
     24 CD2       -46.1140  114.7090   32.1700 C.3       1 LEU        -0.0625
     25 N         -41.6860  113.1530   34.3300 N.am      1 LEU        -0.2637
     26 CA        -40.4370  113.1110   35.1000 C.3       1 LEU         0.1312
     27 C         -39.9710  111.7450   35.6000 C.2       1 LEU         0.2040
     28 O         -38.7580  111.5110   35.6090 O.2       1 LEU        -0.3944
     29 CB        -40.5310  114.0520   36.3080 C.3       1 LEU        -0.0101
     30 CG        -39.6740  115.3110   36.1890 C.3       1 LEU        -0.0425
     31 CD1       -39.6510  116.0150   37.5140 C.3       1 LEU        -0.0625
     32 CD2       -38.2630  114.9690   35.7540 C.3       1 LEU        -0.0625
     33 N         -40.8490  110.8550   36.1060 N.am      1 ASP        -0.2622
     34 CA        -40.3490  109.5300   36.5080 C.3       1 ASP         0.1423
     35 C         -39.9010  108.7440   35.2880 C.2       1 ASP         0.2056
     36 O         -39.0430  107.8600   35.3880 O.2       1 ASP        -0.3943
     37 CB        -41.3880  108.7290   37.3080 C.3       1 ASP         0.0406
     38 CG        -42.8150  108.9610   36.8440 C.2       1 ASP         0.0393
     39 OD1       -43.0330  109.2650   35.6570 O.co2     1 ASP        -0.5688
     40 OD2       -43.7340  108.8270   37.6800 O.co2     1 ASP        -0.5688
     41 N         -40.4940  109.0570   34.1430 N.am      1 LEU        -0.2636
     42 CA        -39.9420  108.8600   32.8140 C.3       1 LEU         0.1312
     43 C         -38.4260  109.0200   32.8640 C.2       1 LEU         0.2040
     44 O         -37.6810  108.1680   32.3620 O.2       1 LEU        -0.3944
     45 CB        -40.5750  109.8790   31.8510 C.3       1 LEU        -0.0101
     46 CG        -42.0940  109.9050   31.5830 C.3       1 LEU        -0.0425
     47 CD1       -42.9180  110.1720   32.8120 C.3       1 LEU        -0.0625
     48 CD2       -42.4920  110.9430   30.5140 C.3       1 LEU        -0.0625
     49 N         -37.9660  110.1010   33.5000 N.am      1 PHE        -0.2619
     50 CA        -36.5440  110.4060   33.6030 C.3       1 PHE         0.1404
     51 C         -35.8960  109.7830   34.8340 C.2       1 PHE         0.2055
     52 O         -34.7720  109.2730   34.7470 O.2       1 PHE        -0.3942
     53 CB        -36.3540  111.9180   33.5930 C.3       1 PHE         0.0214
     54 CG        -36.7880  112.5540   32.3050 C.ar      1 PHE        -0.0386
     55 CD1       -36.0050  112.4560   31.1760 C.ar      1 PHE        -0.0601
     56 CD2       -37.9900  113.2260   32.2170 C.ar      1 PHE        -0.0601
     57 CE1       -36.4070  113.0480   29.9950 C.ar      1 PHE        -0.0686
     58 CE2       -38.4070  113.8090   31.0190 C.ar      1 PHE        -0.0686
     59 CZ        -37.6190  113.7190   29.9200 C.ar      1 PHE        -0.0687
     60 N         -36.5820  109.7930   35.9720 N.am      1 PHE        -0.2676
     61 CA        -36.0500  108.9700   37.0530 C.3       1 PHE         0.1039
     62 C         -37.1990  108.3480   37.8430 C.2       1 PHE         0.0621
     63 O         -37.1730  107.1550   38.1500 O.co2     1 PHE        -0.5664
     64 CB        -35.1430  109.8020   37.9670 C.3       1 PHE         0.0159
     65 CG        -34.3330  110.8240   37.2250 C.ar      1 PHE        -0.0392
     66 CD1       -33.2570  110.4380   36.4300 C.ar      1 PHE        -0.0602
     67 CD2       -34.6080  112.1800   37.3710 C.ar      1 PHE        -0.0602
     68 CE1       -32.4850  111.3840   35.7770 C.ar      1 PHE        -0.0686
     69 CE2       -33.8390  113.1340   36.7240 C.ar      1 PHE        -0.0686
     70 CZ        -32.7690  112.7380   35.9320 C.ar      1 PHE        -0.0687
     71 OXT       -38.1660  109.0320   38.1830 O.co2     1 PHE        -0.5664
     72 H1        -44.7436  119.0735   25.3428 H         1 GLN         0.2015
     73 H2        -45.5688  117.6762   25.6186 H         1 GLN         0.2015
     74 H3        -43.9701  117.6249   25.2298 H         1 GLN         0.2015
     75 H4        -43.3534  118.7111   27.2234 H         1 GLN         0.1100
     76 H5        -46.3546  118.6134   27.7553 H         1 GLN         0.0370
     77 H6        -45.3478  120.0782   27.4959 H         1 GLN         0.0370
     78 H7        -45.0947  118.1211   29.8244 H         1 GLN         0.0506
     79 H8        -45.8939  119.7289   29.8792 H         1 GLN         0.0506
     80 H9        -41.8146  119.3523   30.1956 H         1 GLN         0.1814
     81 H10       -42.8470  117.9843   29.9450 H         1 GLN         0.1814
     82 H11       -42.2441  117.0901   27.8638 H         1 THR         0.1885
     83 H12       -43.0391  114.3659   28.2137 H         1 THR         0.0826
     84 H13       -40.7319  114.1690   29.1967 H         1 THR         0.0639
     85 H14       -40.7354  117.0041   28.7401 H         1 THR         0.2101
     86 H15       -39.5245  114.8930   27.1524 H         1 THR         0.0257
     87 H16       -40.9280  115.9076   26.6754 H         1 THR         0.0257
     88 H17       -41.0877  114.1190   26.7233 H         1 THR         0.0257
     89 H18       -42.3397  113.2919   30.4392 H         1 LEU         0.1883
     90 H19       -43.0329  114.9910   32.7823 H         1 LEU         0.0800
     91 H20       -44.4958  113.5010   33.7455 H         1 LEU         0.0315
     92 H21       -43.9570  112.1350   32.7108 H         1 LEU         0.0315
     93 H22       -45.1569  113.3616   30.8068 H         1 LEU         0.0298
     94 H23       -47.3400  112.3472   31.4334 H         1 LEU         0.0232
     95 H24       -46.7657  112.1593   33.1249 H         1 LEU         0.0232
     96 H25       -45.9677  111.2473   31.7989 H         1 LEU         0.0232
     97 H26       -45.3817  115.5146   32.0125 H         1 LEU         0.0232
     98 H27       -46.4538  114.7218   33.2161 H         1 LEU         0.0232
     99 H28       -46.9752  114.8609   31.5028 H         1 LEU         0.0232
    100 H29       -42.5564  113.0526   34.8120 H         1 LEU         0.1883
    101 H30       -39.6491  113.4889   34.4319 H         1 LEU         0.0800
    102 H31       -40.2087  113.4986   37.2023 H         1 LEU         0.0315
    103 H32       -41.5807  114.3591   36.4253 H         1 LEU         0.0315
    104 H33       -40.1223  115.9767   35.4367 H         1 LEU         0.0298
    105 H34       -39.0353  116.9232   37.4360 H         1 LEU         0.0232
    106 H35       -39.2242  115.3471   38.2767 H         1 LEU         0.0232
    107 H36       -40.6766  116.2908   37.8006 H         1 LEU         0.0232
    108 H37       -38.2935  114.4539   34.7825 H         1 LEU         0.0232
    109 H38       -37.7975  114.3116   36.5031 H         1 LEU         0.0232
    110 H39       -37.6739  115.8932   35.6606 H         1 LEU         0.0232
    111 H40       -41.8160  111.0894   36.2057 H         1 ASP         0.1884
    112 H41       -39.4739  109.6846   37.1563 H         1 ASP         0.0819
    113 H42       -41.3136  109.0202   38.3661 H         1 ASP         0.0478
    114 H43       -41.1576  107.6583   37.2052 H         1 ASP         0.0478
    115 H44       -41.4047  109.4661   34.2003 H         1 LEU         0.1883
    116 H45       -40.1817  107.8439   32.4676 H         1 LEU         0.0800
    117 H46       -40.0912  109.7246   30.8752 H         1 LEU         0.0315
    118 H47       -40.3119  110.8747   32.2373 H         1 LEU         0.0315
    119 H48       -42.3674  108.9085   31.2059 H         1 LEU         0.0298
    120 H49       -43.9849  110.1757   32.5444 H         1 LEU         0.0232
    121 H50       -42.6423  111.1501   33.2330 H         1 LEU         0.0232
    122 H51       -42.7297  109.3856   33.5577 H         1 LEU         0.0232
    123 H52       -41.9038  110.7723   29.6003 H         1 LEU         0.0232
    124 H53       -42.2930  111.9558   30.8943 H         1 LEU         0.0232
    125 H54       -43.5630  110.8412   30.2849 H         1 LEU         0.0232
    126 H55       -38.6230  110.7257   33.9221 H         1 PHE         0.1885
    127 H56       -36.0430  109.9893   32.7168 H         1 PHE         0.0823
    128 H57       -35.2880  112.1386   33.7513 H         1 PHE         0.0474
    129 H58       -36.9440  112.3511   34.4142 H         1 PHE         0.0474
    130 H59       -35.0685  111.9114   31.2148 H         1 PHE         0.0557
    131 H60       -38.6221  113.3026   33.0943 H         1 PHE         0.0557
    132 H61       -35.7705  112.9880   29.1196 H         1 PHE         0.0599
    133 H62       -39.3558  114.3308   30.9681 H         1 PHE         0.0599
    134 H63       -37.9345  114.1696   28.9859 H         1 PHE         0.0559
    135 H64       -37.4158  110.3341   36.0814 H         1 PHE         0.1877
    136 H65       -35.4495  108.1598   36.6138 H         1 PHE         0.0749
    137 H66       -34.4539  109.1217   38.4888 H         1 PHE         0.0467
    138 H67       -35.7723  110.3226   38.7038 H         1 PHE         0.0467
    139 H68       -33.0212  109.3856   36.3211 H         1 PHE         0.0557
    140 H69       -35.4341  112.4941   37.9987 H         1 PHE         0.0557
    141 H70       -31.6609  111.0708   35.1462 H         1 PHE         0.0599
    142 H71       -34.0720  114.1868   36.8357 H         1 PHE         0.0599
    143 H72       -32.1563  113.4817   35.4356 H         1 PHE         0.0559
@<TRIPOS>BOND
     1    1    2 1  
     2    2    3 1  
     3    2    5 1  
     4    3    4 2  
     5    3   10 am 
     6    5    6 1  
     7    6    7 1  
     8    7    8 2  
     9    7    9 am 
    10   10   11 1  
    11   11   12 1  
    12   11   14 1  
    13   12   13 2  
    14   12   17 am 
    15   14   15 1  
    16   14   16 1  
    17   17   18 1  
    18   18   19 1  
    19   18   21 1  
    20   19   20 2  
    21   19   25 am 
    22   21   22 1  
    23   22   23 1  
    24   22   24 1  
    25   25   26 1  
    26   26   27 1  
    27   26   29 1  
    28   27   28 2  
    29   27   33 am 
    30   29   30 1  
    31   30   31 1  
    32   30   32 1  
    33   33   34 1  
    34   34   35 1  
    35   34   37 1  
    36   35   36 2  
    37   35   41 am 
    38   37   38 1  
    39   38   39 ar 
    40   38   40 ar 
    41   41   42 1  
    42   42   43 1  
    43   42   45 1  
    44   43   44 2  
    45   43   49 am 
    46   45   46 1  
    47   46   47 1  
    48   46   48 1  
    49   49   50 1  
    50   50   51 1  
    51   50   53 1  
    52   51   52 2  
    53   51   60 am 
    54   53   54 1  
    55   54   55 ar 
    56   54   56 ar 
    57   55   57 ar 
    58   56   58 ar 
    59   57   59 ar 
    60   58   59 ar 
    61   60   61 1  
    62   61   62 1  
    63   61   64 1  
    64   62   63 ar 
    65   62   71 ar 
    66   64   65 1  
    67   65   66 ar 
    68   65   67 ar 
    69   66   68 ar 
    70   67   69 ar 
    71   68   70 ar 
    72   69   70 ar 
    73    1   72 1  
    74    1   73 1  
    75    1   74 1  
    76    2   75 1  
    77    5   76 1  
    78    5   77 1  
    79    6   78 1  
    80    6   79 1  
    81    9   80 1  
    82    9   81 1  
    83   10   82 1  
    84   11   83 1  
    85   14   84 1  
    86   15   85 1  
    87   16   86 1  
    88   16   87 1  
    89   16   88 1  
    90   17   89 1  
    91   18   90 1  
    92   21   91 1  
    93   21   92 1  
    94   22   93 1  
    95   23   94 1  
    96   23   95 1  
    97   23   96 1  
    98   24   97 1  
    99   24   98 1  
   100   24   99 1  
   101   25  100 1  
   102   26  101 1  
   103   29  102 1  
   104   29  103 1  
   105   30  104 1  
   106   31  105 1  
   107   31  106 1  
   108   31  107 1  
   109   32  108 1  
   110   32  109 1  
   111   32  110 1  
   112   33  111 1  
   113   34  112 1  
   114   37  113 1  
   115   37  114 1  
   116   41  115 1  
   117   42  116 1  
   118   45  117 1  
   119   45  118 1  
   120   46  119 1  
   121   47  120 1  
   122   47  121 1  
   123   47  122 1  
   124   48  123 1  
   125   48  124 1  
   126   48  125 1  
   127   49  126 1  
   128   50  127 1  
   129   53  128 1  
   130   53  129 1  
   131   55  130 1  
   132   56  131 1  
   133   57  132 1  
   134   58  133 1  
   135   59  134 1  
   136   60  135 1  
   137   61  136 1  
   138   64  137 1  
   139   64  138 1  
   140   66  139 1  
   141   67  140 1  
   142   68  141 1  
   143   69  142 1  
   144   70  143 1  
@<TRIPOS>SUBSTRUCTURE
     1 GLN         1

