6qc0_ligand
  -I-interpret- 

201203  0  0  0  0  0  0  0  0999 V2000
   46.5920   11.9540  -40.2120 N   0  3  0  0  0
   47.4340   10.7160  -40.4320 C   0  0  0  0  0
   48.5040   10.5540  -39.3410 C   0  0  0  0  0
   48.0950   10.0260  -38.3080 O   0  0  0  0  0
   48.0500   10.6390  -41.8050 C   0  0  0  0  0
   49.4550   10.4300  -41.7000 O   0  0  0  0  0
   49.8060   10.8480  -39.5990 N   0  0  0  0  0
   50.9430   10.9570  -38.6070 C   0  0  0  0  0
   52.0600    9.9170  -38.8570 C   0  0  0  0  0
   51.7330    8.7330  -38.9940 O   0  0  0  0  0
   50.4300   10.7980  -37.1680 C   0  0  0  0  0
   51.4550   10.9880  -36.0730 C   0  0  0  0  0
   50.6700   11.2790  -34.4150 S   0  0  0  0  0
   50.6710   13.0740  -34.3490 C   0  0  0  0  0
   53.3430   10.3270  -38.8530 N   0  0  0  0  0
   54.5220    9.4630  -39.1720 C   0  0  0  0  0
   55.2160    8.9940  -37.8860 C   0  0  0  0  0
   54.6840    9.2890  -36.8130 O   0  0  0  0  0
   55.5240   10.1740  -40.0950 C   0  0  0  0  0
   56.2300    9.2530  -41.0860 C   0  0  0  0  0
   55.3340    8.1340  -41.6460 C   0  0  0  0  0
   54.7650    7.2130  -40.6390 N   0  0  0  0  0
   53.5610    6.6150  -40.6840 C   0  0  0  0  0
   52.7380    6.8000  -41.7060 N   0  0  0  0  0
   53.1840    5.8170  -39.6940 N   0  0  0  0  0
   56.3210    8.2430  -37.9970 N   0  0  0  0  0
   57.1670    7.7800  -36.8590 C   0  0  0  0  0
   58.4400    8.6290  -36.8390 C   0  0  0  0  0
   58.9600    8.8970  -37.9170 O   0  0  0  0  0
   57.5070    6.2940  -37.0120 C   0  0  0  0  0
   56.3500    5.3310  -36.7740 C   0  0  0  0  0
   56.7900    3.9040  -36.4980 C   0  0  0  0  0
   55.6950    3.0170  -35.9310 C   0  0  0  0  0
   56.2690    1.7550  -35.3970 N   0  3  0  0  0
   58.9290    9.0860  -35.6840 N   0  0  0  0  0
   60.1680    9.9320  -35.6390 C   0  0  0  0  0
   61.4090    9.0330  -35.8310 C   0  0  0  0  0
   62.5220    9.6010  -36.0100 O   0  0  0  0  0
   60.2930   10.8900  -34.4240 C   0  0  0  0  0
   60.3590   10.1660  -33.0790 C   0  0  0  0  0
   59.2110   11.9700  -34.4420 C   0  0  0  0  0
   59.1260    9.3840  -32.7380 C   0  0  0  0  0
   61.2530    7.7060  -35.9060 N   0  0  0  0  0
   62.2530    6.8050  -36.5460 C   0  0  0  0  0
   62.6720    7.4010  -37.8990 C   0  0  0  0  0
   63.8960    7.4470  -38.1690 O   0  0  0  0  0
   61.6930    5.4120  -36.8170 C   0  0  0  0  0
   61.5770    4.3260  -35.3690 S   0  0  0  0  0
   61.6820    7.8230  -38.7070 N   0  0  0  0  0
   61.8360    8.3130  -40.1090 C   0  0  0  0  0
   62.6680    9.5930  -40.1230 C   0  0  0  0  0
   63.4900    9.7560  -41.0740 O   0  0  0  0  0
   60.5210    8.6020  -40.8700 C   0  0  0  0  0
   60.0200    9.9330  -40.6940 O   0  0  0  0  0
   59.4200    7.6060  -40.5790 C   0  0  0  0  0
   62.4560   10.4470  -39.1140 N   0  0  0  0  0
   62.9770   11.8380  -39.0510 C   0  0  0  0  0
   64.3900   11.8950  -38.4500 C   0  0  0  0  0
   64.9620   12.9880  -38.5490 O   0  0  0  0  0
   61.9990   12.7510  -38.3030 C   0  0  0  0  0
   60.7060   13.0430  -39.0340 C   0  0  0  0  0
   60.6910   13.6170  -40.3000 C   0  0  0  0  0
   59.4840   12.6930  -38.4790 C   0  0  0  0  0
   59.5080   13.8490  -40.9770 C   0  0  0  0  0
   58.2870   12.9620  -39.1260 C   0  0  0  0  0
   58.3040   13.5260  -40.3850 C   0  0  0  0  0
   57.1340   13.7820  -41.0270 O   0  0  0  0  0
   64.9490   10.8090  -37.8880 N   0  0  0  0  0
   66.2950   10.8320  -37.2440 C   0  0  0  0  0
   67.1570    9.6630  -37.7640 C   0  0  0  0  0
   67.7350    9.8130  -38.8440 O   0  0  0  0  0
   66.1380   10.9760  -35.7170 C   0  0  0  0  0
   65.4010   12.2240  -35.2640 C   0  0  0  0  0
   65.8130   13.4920  -35.6700 C   0  0  0  0  0
   64.2800   12.1440  -34.4440 C   0  0  0  0  0
   65.0910   14.6250  -35.3310 C   0  0  0  0  0
   63.5710   13.2800  -34.0900 C   0  0  0  0  0
   63.9820   14.5150  -34.5300 C   0  0  0  0  0
   67.2910    8.5760  -37.0010 N   0  0  0  0  0
   67.9820    7.2950  -37.3420 C   0  0  0  0  0
   69.5040    7.4160  -37.1490 C   0  0  0  0  0
   70.1260    8.2050  -37.8700 O   0  0  0  0  0
   67.6070    6.7570  -38.7430 C   0  0  0  0  0
   67.1670    5.3210  -38.7710 C   0  0  0  0  0
   65.8120    4.9530  -38.6630 N   0  0  0  0  0
   67.8700    4.1680  -38.9080 C   0  0  0  0  0
   65.7140    3.6380  -38.7210 C   0  0  0  0  0
   66.9660    3.1350  -38.8660 N   0  0  0  0  0
   70.0080    6.7020  -36.1300 N   0  0  0  0  0
   71.3830    6.1700  -35.9150 C   0  0  0  0  0
   72.3370    7.2450  -35.3810 C   0  0  0  0  0
   73.1420    6.9200  -34.5120 O   0  0  0  0  0
   71.8590    5.4750  -37.1920 C   0  0  0  0  0
   71.5300    3.9880  -37.2420 C   0  0  0  0  0
   72.2840    3.1910  -36.1820 C   0  0  0  0  0
   72.1120    1.7370  -36.2980 N   0  0  0  0  0
   71.4310    0.9370  -35.4510 C   0  0  0  0  0
   70.8120    1.4190  -34.3820 N   0  0  0  0  0
   71.3690   -0.3640  -35.6900 N   0  0  0  0  0
   72.2480    8.3770  -35.8490 O   0  0  0  0  0
   46.2088   11.9396  -39.2668 H   0  0  0  0  0
   47.1723   12.7842  -40.3323 H   0  0  0  0  0
   45.8293   11.9698  -40.8891 H   0  0  0  0  0
   46.7396    9.8788  -40.3613 H   0  0  0  0  0
   47.8660   11.5748  -42.3327 H   0  0  0  0  0
   47.6044    9.8074  -42.3509 H   0  0  0  0  0
   49.8369   10.3825  -42.5795 H   0  0  0  0  0
   50.0444   11.0147  -40.5766 H   0  0  0  0  0
   51.3687   11.9506  -38.7470 H   0  0  0  0  0
   50.0768    9.7705  -37.0812 H   0  0  0  0  0
   49.6802   11.5757  -37.0231 H   0  0  0  0  0
   52.0561   11.8629  -36.3207 H   0  0  0  0  0
   52.0536   10.0793  -36.0088 H   0  0  0  0  0
   51.6961   13.4382  -34.4163 H   0  0  0  0  0
   50.0889   13.4673  -35.1824 H   0  0  0  0  0
   50.2286   13.4020  -33.4084 H   0  0  0  0  0
   53.5248   11.3018  -38.6140 H   0  0  0  0  0
   54.1465    8.5907  -39.7070 H   0  0  0  0  0
   56.2939   10.6087  -39.4575 H   0  0  0  0  0
   54.9606   10.9014  -40.6794 H   0  0  0  0  0
   57.0520    8.7740  -40.5540 H   0  0  0  0  0
   56.5469    9.8667  -41.9293 H   0  0  0  0  0
   55.9628    7.5299  -42.3000 H   0  0  0  0  0
   54.4901    8.6246  -42.1310 H   0  0  0  0  0
   55.3459    7.0100  -39.8255 H   0  0  0  0  0
   53.0130    7.4059  -42.4791 H   0  0  0  0  0
   52.2739    5.3577  -39.7276 H   0  0  0  0  0
   53.8042    5.6626  -38.8991 H   0  0  0  0  0
   56.6065    7.9656  -38.9361 H   0  0  0  0  0
   56.6283    7.8959  -35.9185 H   0  0  0  0  0
   58.2605    6.0678  -36.2576 H   0  0  0  0  0
   57.8229    6.1517  -38.0455 H   0  0  0  0  0
   55.7465    5.3161  -37.6816 H   0  0  0  0  0
   55.8101    5.6814  -35.8943 H   0  0  0  0  0
   57.5858    3.9496  -35.7545 H   0  0  0  0  0
   57.0958    3.4706  -37.4502 H   0  0  0  0  0
   54.9890    2.7756  -36.7256 H   0  0  0  0  0
   55.1942    3.5478  -35.1213 H   0  0  0  0  0
   55.5194    1.1741  -35.0215 H   0  0  0  0  0
   56.7448    1.2548  -36.1479 H   0  0  0  0  0
   56.9356    1.9727  -34.6563 H   0  0  0  0  0
   58.4504    8.8553  -34.8133 H   0  0  0  0  0
   60.0904   10.6319  -36.4710 H   0  0  0  0  0
   61.2568   11.3871  -34.5342 H   0  0  0  0  0
   60.4779   10.9289  -32.3096 H   0  0  0  0  0
   61.1835    9.4554  -33.1374 H   0  0  0  0  0
   59.3022   12.5587  -35.3548 H   0  0  0  0  0
   58.2286   11.4989  -34.4087 H   0  0  0  0  0
   59.3334   12.6196  -33.5753 H   0  0  0  0  0
   58.2700   10.0575  -32.6966 H   0  0  0  0  0
   58.9560    8.6249  -33.5015 H   0  0  0  0  0
   59.2587    8.9031  -31.7689 H   0  0  0  0  0
   60.4107    7.2920  -35.5067 H   0  0  0  0  0
   63.0926    6.7180  -35.8563 H   0  0  0  0  0
   62.3794    4.9304  -37.5134 H   0  0  0  0  0
   60.6762    5.5510  -37.1844 H   0  0  0  0  0
   61.0772    3.1499  -35.7377 H   0  0  0  0  0
   60.7363    7.8065  -38.3253 H   0  0  0  0  0
   62.3205    7.4861  -40.6282 H   0  0  0  0  0
   60.8147    8.4939  -41.9141 H   0  0  0  0  0
   59.2067   10.0362  -41.1935 H   0  0  0  0  0
   59.7498    6.6076  -40.8662 H   0  0  0  0  0
   59.1899    7.6216  -39.5137 H   0  0  0  0  0
   58.5298    7.8737  -41.1482 H   0  0  0  0  0
   61.8942   10.1183  -38.3287 H   0  0  0  0  0
   63.0611   12.2079  -40.0729 H   0  0  0  0  0
   62.5046   13.7068  -38.1656 H   0  0  0  0  0
   61.7290   12.2341  -37.3821 H   0  0  0  0  0
   61.6352   13.8910  -40.7706 H   0  0  0  0  0
   59.4639   12.1940  -37.5101 H   0  0  0  0  0
   59.5263   14.2858  -41.9755 H   0  0  0  0  0
   57.3383   12.7291  -38.6425 H   0  0  0  0  0
   56.4000   13.4970  -40.4779 H   0  0  0  0  0
   64.4303    9.9308  -37.9025 H   0  0  0  0  0
   66.8710   11.7118  -37.5310 H   0  0  0  0  0
   67.1437   11.0354  -35.3009 H   0  0  0  0  0
   65.5503   10.1226  -35.3787 H   0  0  0  0  0
   66.7203   13.5943  -36.2654 H   0  0  0  0  0
   63.9544   11.1717  -34.0742 H   0  0  0  0  0
   65.4033   15.6020  -35.6999 H   0  0  0  0  0
   62.6850   13.1940  -33.4609 H   0  0  0  0  0
   63.4269   15.4080  -34.2427 H   0  0  0  0  0
   66.8710    8.6254  -36.0728 H   0  0  0  0  0
   67.6196    6.5458  -36.6381 H   0  0  0  0  0
   68.5045    6.8245  -39.3579 H   0  0  0  0  0
   66.7646    7.3524  -39.0950 H   0  0  0  0  0
   68.9496    4.0787  -39.0287 H   0  0  0  0  0
   64.7921    3.0594  -38.6628 H   0  0  0  0  0
   69.3445    6.4901  -35.3849 H   0  0  0  0  0
   71.3699    5.4163  -35.1277 H   0  0  0  0  0
   73.0281    5.9898  -34.3037 H   0  0  0  0  0
   72.9443    5.5692  -37.2281 H   0  0  0  0  0
   71.3482    5.9493  -38.0300 H   0  0  0  0  0
   71.8236    3.6099  -38.2212 H   0  0  0  0  0
   70.4623    3.8719  -37.0559 H   0  0  0  0  0
   71.8890    3.4881  -35.2105 H   0  0  0  0  0
   73.3454    3.4035  -36.3100 H   0  0  0  0  0
   72.5519    1.2861  -37.1002 H   0  0  0  0  0
   70.3007    0.7907  -33.7622 H   0  0  0  0  0
   70.8472    2.4181  -34.1795 H   0  0  0  0  0
   71.8340   -0.7547  -36.5095 H   0  0  0  0  0
  1  2  1  0  0  0
  2  3  1  0  0  0
  2  5  1  0  0  0
  3  4  2  0  0  0
  3  7  1  0  0  0
  5  6  1  0  0  0
  7  8  1  0  0  0
  8  9  1  0  0  0
  8 11  1  0  0  0
  9 10  2  0  0  0
  9 15  1  0  0  0
 11 12  1  0  0  0
 12 13  1  0  0  0
 13 14  1  0  0  0
 15 16  1  0  0  0
 16 17  1  0  0  0
 16 19  1  0  0  0
 17 18  2  0  0  0
 17 26  1  0  0  0
 19 20  1  0  0  0
 20 21  1  0  0  0
 21 22  1  0  0  0
 22 23  1  0  0  0
 23 24  2  0  0  0
 23 25  1  0  0  0
 26 27  1  0  0  0
 27 28  1  0  0  0
 27 30  1  0  0  0
 28 29  2  0  0  0
 28 35  1  0  0  0
 30 31  1  0  0  0
 31 32  1  0  0  0
 32 33  1  0  0  0
 33 34  1  0  0  0
 35 36  1  0  0  0
 36 37  1  0  0  0
 36 39  1  0  0  0
 37 38  2  0  0  0
 37 43  1  0  0  0
 39 40  1  0  0  0
 39 41  1  0  0  0
 40 42  1  0  0  0
 43 44  1  0  0  0
 44 45  1  0  0  0
 44 47  1  0  0  0
 45 46  2  0  0  0
 45 49  1  0  0  0
 47 48  1  0  0  0
 49 50  1  0  0  0
 50 51  1  0  0  0
 50 53  1  0  0  0
 51 52  2  0  0  0
 51 56  1  0  0  0
 53 54  1  0  0  0
 53 55  1  0  0  0
 56 57  1  0  0  0
 57 58  1  0  0  0
 57 60  1  0  0  0
 58 59  2  0  0  0
 58 68  1  0  0  0
 60 61  1  0  0  0
 61 62  4  0  0  0
 61 63  4  0  0  0
 62 64  4  0  0  0
 63 65  4  0  0  0
 64 66  4  0  0  0
 65 66  4  0  0  0
 66 67  1  0  0  0
 68 69  1  0  0  0
 69 70  1  0  0  0
 69 72  1  0  0  0
 70 71  2  0  0  0
 70 79  1  0  0  0
 72 73  1  0  0  0
 73 74  4  0  0  0
 73 75  4  0  0  0
 74 76  4  0  0  0
 75 77  4  0  0  0
 76 78  4  0  0  0
 77 78  4  0  0  0
 79 80  1  0  0  0
 80 81  1  0  0  0
 80 83  1  0  0  0
 81 82  2  0  0  0
 81 89  1  0  0  0
 83 84  1  0  0  0
 84 85  4  0  0  0
 84 86  4  0  0  0
 85 87  4  0  0  0
 86 88  4  0  0  0
 87 88  4  0  0  0
 89 90  1  0  0  0
 90 91  1  0  0  0
 90 93  1  0  0  0
 91 92  1  0  0  0
 91100  2  0  0  0
 93 94  1  0  0  0
 94 95  1  0  0  0
 95 96  1  0  0  0
 96 97  1  0  0  0
 97 98  1  0  0  0
 97 99  2  0  0  0
  1101  1  0  0  0
  1102  1  0  0  0
  1103  1  0  0  0
  2104  1  0  0  0
  5105  1  0  0  0
  5106  1  0  0  0
  6107  1  0  0  0
  7108  1  0  0  0
  8109  1  0  0  0
 11110  1  0  0  0
 11111  1  0  0  0
 12112  1  0  0  0
 12113  1  0  0  0
 14114  1  0  0  0
 14115  1  0  0  0
 14116  1  0  0  0
 15117  1  0  0  0
 16118  1  0  0  0
 19119  1  0  0  0
 19120  1  0  0  0
 20121  1  0  0  0
 20122  1  0  0  0
 21123  1  0  0  0
 21124  1  0  0  0
 22125  1  0  0  0
 24126  1  0  0  0
 25127  1  0  0  0
 25128  1  0  0  0
 26129  1  0  0  0
 27130  1  0  0  0
 30131  1  0  0  0
 30132  1  0  0  0
 31133  1  0  0  0
 31134  1  0  0  0
 32135  1  0  0  0
 32136  1  0  0  0
 33137  1  0  0  0
 33138  1  0  0  0
 34139  1  0  0  0
 34140  1  0  0  0
 34141  1  0  0  0
 35142  1  0  0  0
 36143  1  0  0  0
 39144  1  0  0  0
 40145  1  0  0  0
 40146  1  0  0  0
 41147  1  0  0  0
 41148  1  0  0  0
 41149  1  0  0  0
 42150  1  0  0  0
 42151  1  0  0  0
 42152  1  0  0  0
 43153  1  0  0  0
 44154  1  0  0  0
 47155  1  0  0  0
 47156  1  0  0  0
 48157  1  0  0  0
 49158  1  0  0  0
 50159  1  0  0  0
 53160  1  0  0  0
 54161  1  0  0  0
 55162  1  0  0  0
 55163  1  0  0  0
 55164  1  0  0  0
 56165  1  0  0  0
 57166  1  0  0  0
 60167  1  0  0  0
 60168  1  0  0  0
 62169  1  0  0  0
 63170  1  0  0  0
 64171  1  0  0  0
 65172  1  0  0  0
 67173  1  0  0  0
 68174  1  0  0  0
 69175  1  0  0  0
 72176  1  0  0  0
 72177  1  0  0  0
 74178  1  0  0  0
 75179  1  0  0  0
 76180  1  0  0  0
 77181  1  0  0  0
 78182  1  0  0  0
 79183  1  0  0  0
 80184  1  0  0  0
 83185  1  0  0  0
 83186  1  0  0  0
 86187  1  0  0  0
 87188  1  0  0  0
 89189  1  0  0  0
 90190  1  0  0  0
 92191  1  0  0  0
 93192  1  0  0  0
 93193  1  0  0  0
 94194  1  0  0  0
 94195  1  0  0  0
 95196  1  0  0  0
 95197  1  0  0  0
 96198  1  0  0  0
 98199  1  0  0  0
 98200  1  0  0  0
 99201  1  0  0  0
M  END
$$$$
