### 
### Created by X-TOOL on Mon Aug  2 16:11:48 2021
### 

@<TRIPOS>MOLECULE
6qc0_ligand
  203   205     1     0     0
SMALL
GAST_HUCK


@<TRIPOS>ATOM
      1 N          46.5920   11.9540  -40.2120 N.4       1 SER         0.2396
      2 CA         47.4340   10.7160  -40.4320 C.3       1 SER         0.0885
      3 C          48.5040   10.5540  -39.3410 C.2       1 SER         0.2290
      4 O          48.0950   10.0260  -38.3080 O.2       1 SER        -0.3906
      5 CB         48.0500   10.6390  -41.8050 C.3       1 SER         0.1041
      6 OG         49.4550   10.4300  -41.7000 O.3       1 SER        -0.3870
      7 N          49.8060   10.8480  -39.5990 N.am      1 SER        -0.2609
      8 CA         50.9430   10.9570  -38.6070 C.3       1 SER         0.1318
      9 C          52.0600    9.9170  -38.8570 C.2       1 SER         0.2039
     10 O          51.7330    8.7330  -38.9940 O.2       1 SER        -0.3944
     11 CB         50.4300   10.7980  -37.1680 C.3       1 SER        -0.0034
     12 CG         51.4550   10.9880  -36.0730 C.3       1 SER        -0.0024
     13 SD         50.6700   11.2790  -34.4150 S.3       1 SER        -0.1639
     14 CE         50.6710   13.0740  -34.3490 C.3       1 SER        -0.0181
     15 N          53.3430   10.3270  -38.8530 N.am      1 SER        -0.2637
     16 CA         54.5220    9.4630  -39.1720 C.3       1 SER         0.1311
     17 C          55.2160    8.9940  -37.8860 C.2       1 SER         0.2039
     18 O          54.6840    9.2890  -36.8130 O.2       1 SER        -0.3944
     19 CB         55.5240   10.1740  -40.0950 C.3       1 SER        -0.0092
     20 CG         56.2300    9.2530  -41.0860 C.3       1 SER        -0.0156
     21 CD         55.3340    8.1340  -41.6460 C.3       1 SER         0.0627
     22 NE         54.7650    7.2130  -40.6390 N.pl3     1 SER        -0.2723
     23 CZ         53.5610    6.6150  -40.6840 C.cat     1 SER         0.2882
     24 NH1        52.7380    6.8000  -41.7060 N.pl3     1 SER        -0.2849
     25 NH2        53.1840    5.8170  -39.6940 N.pl3     1 SER        -0.2849
     26 N          56.3210    8.2430  -37.9970 N.am      1 SER        -0.2637
     27 CA         57.1670    7.7800  -36.8590 C.3       1 SER         0.1310
     28 C          58.4400    8.6290  -36.8390 C.2       1 SER         0.2039
     29 O          58.9600    8.8970  -37.9170 O.2       1 SER        -0.3944
     30 CB         57.5070    6.2940  -37.0120 C.3       1 SER        -0.0122
     31 CG         56.3500    5.3310  -36.7740 C.3       1 SER        -0.0440
     32 CD         56.7900    3.9040  -36.4980 C.3       1 SER        -0.0124
     33 CE         55.6950    3.0170  -35.9310 C.3       1 SER        -0.0354
     34 NZ         56.2690    1.7550  -35.3970 N.4       1 SER         0.2185
     35 N          58.9290    9.0860  -35.6840 N.am      1 SER        -0.2635
     36 CA         60.1680    9.9320  -35.6390 C.3       1 SER         0.1335
     37 C          61.4090    9.0330  -35.8310 C.2       1 SER         0.2042
     38 O          62.5220    9.6010  -36.0100 O.2       1 SER        -0.3944
     39 CB         60.2930   10.8900  -34.4240 C.3       1 SER        -0.0037
     40 CG1        60.3590   10.1660  -33.0790 C.3       1 SER        -0.0491
     41 CG2        59.2110   11.9700  -34.4420 C.3       1 SER        -0.0582
     42 CD1        59.1260    9.3840  -32.7380 C.3       1 SER        -0.0648
     43 N          61.2530    7.7060  -35.9060 N.am      1 SER        -0.2629
     44 CA         62.2530    6.8050  -36.5460 C.3       1 SER         0.1396
     45 C          62.6720    7.4010  -37.8990 C.2       1 SER         0.2048
     46 O          63.8960    7.4470  -38.1690 O.2       1 SER        -0.3944
     47 CB         61.6930    5.4120  -36.8170 C.3       1 SER         0.0311
     48 SG         61.5770    4.3260  -35.3690 S.3       1 SER        -0.1735
     49 N          61.6820    7.8230  -38.7070 N.am      1 SER        -0.2613
     50 CA         61.8360    8.3130  -40.1090 C.3       1 SER         0.1565
     51 C          62.6680    9.5930  -40.1230 C.2       1 SER         0.2066
     52 O          63.4900    9.7560  -41.0740 O.2       1 SER        -0.3943
     53 CB         60.5210    8.6020  -40.8700 C.3       1 SER         0.0924
     54 OG1        60.0200    9.9330  -40.6940 O.3       1 SER        -0.3874
     55 CG2        59.4200    7.6060  -40.5790 C.3       1 SER        -0.0346
     56 N          62.4560   10.4470  -39.1140 N.am      1 SER        -0.2621
     57 CA         62.9770   11.8380  -39.0510 C.3       1 SER         0.1390
     58 C          64.3900   11.8950  -38.4500 C.2       1 SER         0.2059
     59 O          64.9620   12.9880  -38.5490 O.2       1 SER        -0.3942
     60 CB         61.9990   12.7510  -38.3030 C.3       1 SER         0.0163
     61 CG         60.7060   13.0430  -39.0340 C.ar      1 SER        -0.0493
     62 CD1        60.6910   13.6170  -40.3000 C.ar      1 SER        -0.0685
     63 CD2        59.4840   12.6930  -38.4790 C.ar      1 SER        -0.0685
     64 CE1        59.5080   13.8490  -40.9770 C.ar      1 SER        -0.0398
     65 CE2        58.2870   12.9620  -39.1260 C.ar      1 SER        -0.0398
     66 CZ         58.3040   13.5260  -40.3850 C.ar      1 SER         0.0805
     67 OH         57.1340   13.7820  -41.0270 O.3       1 SER        -0.3376
     68 N          64.9490   10.8090  -37.8880 N.am      1 SER        -0.2618
     69 CA         66.2950   10.8320  -37.2440 C.3       1 SER         0.1404
     70 C          67.1570    9.6630  -37.7640 C.2       1 SER         0.2061
     71 O          67.7350    9.8130  -38.8440 O.2       1 SER        -0.3942
     72 CB         66.1380   10.9760  -35.7170 C.3       1 SER         0.0214
     73 CG         65.4010   12.2240  -35.2640 C.ar      1 SER        -0.0386
     74 CD1        65.8130   13.4920  -35.6700 C.ar      1 SER        -0.0601
     75 CD2        64.2800   12.1440  -34.4440 C.ar      1 SER        -0.0601
     76 CE1        65.0910   14.6250  -35.3310 C.ar      1 SER        -0.0686
     77 CE2        63.5710   13.2800  -34.0900 C.ar      1 SER        -0.0686
     78 CZ         63.9820   14.5150  -34.5300 C.ar      1 SER        -0.0687
     79 N          67.2910    8.5760  -37.0010 N.am      1 SER        -0.2617
     80 CA         67.9820    7.2950  -37.3420 C.3       1 SER         0.1421
     81 C          69.5040    7.4160  -37.1490 C.2       1 SER         0.2054
     82 O          70.1260    8.2050  -37.8700 O.2       1 SER        -0.3942
     83 CB         67.6070    6.7570  -38.7430 C.3       1 SER         0.0427
     84 CG         67.1670    5.3210  -38.7710 C.2       1 SER         0.0561
     85 ND1        65.8120    4.9530  -38.6630 N.pl3     1 SER        -0.2623
     86 CD2        67.8700    4.1680  -38.9080 C.2       1 SER        -0.0276
     87 CE1        65.7140    3.6380  -38.7210 C.2       1 SER         0.0875
     88 NE2        66.9660    3.1350  -38.8660 N.2       1 SER        -0.3437
     89 N          70.0080    6.7020  -36.1300 N.am      1 SER        -0.2693
     90 CA         71.3830    6.1700  -35.9150 C.3       1 SER         0.0945
     91 C          72.3370    7.2450  -35.3810 C.2       1 SER         0.0601
     92 O          73.1420    6.9200  -34.5120 O.co2     1 SER        -0.5666
     93 CB         71.8590    5.4750  -37.1920 C.3       1 SER        -0.0148
     94 CG         71.5300    3.9880  -37.2420 C.3       1 SER        -0.0162
     95 CD         72.2840    3.1910  -36.1820 C.3       1 SER         0.0627
     96 NE         72.1120    1.7370  -36.2980 N.pl3     1 SER        -0.2723
     97 CZ         71.4310    0.9370  -35.4510 C.cat     1 SER         0.2882
     98 NH1        70.8120    1.4190  -34.3820 N.pl3     1 SER        -0.2849
     99 NH2        71.3690   -0.3640  -35.6900 N.pl3     1 SER        -0.2849
    100 OXT        72.2480    8.3770  -35.8490 O.co2     1 SER        -0.5666
    101 H1         45.9035   12.0266  -40.9447 H         1 SER         0.2016
    102 H2         47.1840   12.7697  -40.2252 H         1 SER         0.2016
    103 H3         46.1275   11.8903  -39.3197 H         1 SER         0.2016
    104 H4         46.7530    9.8566  -40.3444 H         1 SER         0.1122
    105 H5         47.8614   11.5804  -42.3418 H         1 SER         0.0640
    106 H6         47.5984    9.8036  -42.3601 H         1 SER         0.0640
    107 H7         49.8330   10.3830  -42.5704 H         1 SER         0.2099
    108 H8         50.0397   11.0115  -40.5575 H         1 SER         0.1885
    109 H9         51.3818   11.9603  -38.7113 H         1 SER         0.0800
    110 H10        50.0159    9.7838  -37.0687 H         1 SER         0.0320
    111 H11        49.6306   11.5374  -37.0123 H         1 SER         0.0320
    112 H12        52.0838   11.8551  -36.3236 H         1 SER         0.0378
    113 H13        52.0813   10.0856  -36.0143 H         1 SER         0.0378
    114 H14        50.2247   13.4062  -33.4001 H         1 SER         0.0340
    115 H15        50.0838   13.4722  -35.1896 H         1 SER         0.0340
    116 H16        51.7051   13.4429  -34.4168 H         1 SER         0.0340
    117 H17        53.5213   11.2827  -38.6187 H         1 SER         0.1883
    118 H18        54.1510    8.5733  -39.7019 H         1 SER         0.0800
    119 H19        56.2886   10.6551  -39.4674 H         1 SER         0.0313
    120 H20        54.9814   10.9421  -40.6655 H         1 SER         0.0313
    121 H21        57.0868    8.7880  -40.5765 H         1 SER         0.0301
    122 H22        56.5905    9.8619  -41.9282 H         1 SER         0.0301
    123 H23        55.9345    7.5385  -42.3494 H         1 SER         0.0689
    124 H24        54.4989    8.6056  -42.1847 H         1 SER         0.0689
    125 H25        55.3516    7.0080  -39.8176 H         1 SER         0.2642
    126 H26        51.8206    6.3320  -41.7197 H         1 SER         0.2615
    127 H27        53.0157    7.4118  -42.4867 H         1 SER         0.2615
    128 H28        53.8103    5.6611  -38.8913 H         1 SER         0.2615
    129 H29        52.2650    5.3532  -39.7279 H         1 SER         0.2615
    130 H30        56.6009    7.9711  -38.9177 H         1 SER         0.1883
    131 H31        56.6195    7.9232  -35.9158 H         1 SER         0.0800
    132 H32        58.3032    6.0522  -36.2926 H         1 SER         0.0312
    133 H33        57.8766    6.1340  -38.0356 H         1 SER         0.0312
    134 H34        55.7095    5.3300  -37.6683 H         1 SER         0.0269
    135 H35        55.7721    5.6895  -35.9094 H         1 SER         0.0269
    136 H36        57.6203    3.9316  -35.7770 H         1 SER         0.0317
    137 H37        57.1390    3.4611  -37.4425 H         1 SER         0.0317
    138 H38        54.9746    2.7781  -36.7272 H         1 SER         0.0813
    139 H39        55.1803    3.5520  -35.1193 H         1 SER         0.0813
    140 H40        55.5290    1.1801  -35.0256 H         1 SER         0.1994
    141 H41        56.9279    1.9689  -34.6648 H         1 SER         0.1994
    142 H42        56.7394    1.2597  -36.1382 H         1 SER         0.1994
    143 H43        58.4597    8.8598  -34.8304 H         1 SER         0.1883
    144 H44        60.1179   10.5883  -36.5203 H         1 SER         0.0803
    145 H45        61.2557   11.4095  -34.5397 H         1 SER         0.0345
    146 H46        60.5196   10.9167  -32.2912 H         1 SER         0.0267
    147 H47        61.2117    9.4715  -33.1031 H         1 SER         0.0267
    148 H48        59.2005   12.4621  -35.4257 H         1 SER         0.0235
    149 H49        59.4238   12.7153  -33.6615 H         1 SER         0.0235
    150 H50        58.2302   11.5097  -34.2519 H         1 SER         0.0235
    151 H51        59.2587    8.8982  -31.7601 H         1 SER         0.0230
    152 H52        58.9534    8.6174  -33.5078 H         1 SER         0.0230
    153 H53        58.2613   10.0626  -32.6959 H         1 SER         0.0230
    154 H54        60.4272    7.3001  -35.5145 H         1 SER         0.1884
    155 H55        63.1293    6.7207  -35.8865 H         1 SER         0.0808
    156 H56        62.3433    4.9227  -37.5571 H         1 SER         0.0422
    157 H57        60.6827    5.5279  -37.2363 H         1 SER         0.0422
    158 H58        61.1982    3.4347  -35.6484 H         1 SER         0.1019
    159 H59        60.7548    7.8069  -38.3328 H         1 SER         0.1884
    160 H60        62.3769    7.5339  -40.6662 H         1 SER         0.0826
    161 H61        60.7655    8.4983  -41.9375 H         1 SER         0.0639
    162 H62        59.8485   10.0863  -39.7723 H         1 SER         0.2101
    163 H63        58.5210    7.8752  -41.1529 H         1 SER         0.0257
    164 H64        59.1868    7.6208  -39.5041 H         1 SER         0.0257
    165 H65        59.7516    6.5979  -40.8685 H         1 SER         0.0257
    166 H66        61.9053   10.1247  -38.3441 H         1 SER         0.1885
    167 H67        63.0486   12.2093  -40.0839 H         1 SER         0.0821
    168 H68        62.5055   13.7084  -38.1110 H         1 SER         0.0453
    169 H69        61.7482   12.2704  -37.3459 H         1 SER         0.0453
    170 H70        61.6300   13.8894  -40.7680 H         1 SER         0.0530
    171 H71        59.4640   12.1968  -37.5154 H         1 SER         0.0530
    172 H72        59.5262   14.2834  -41.9700 H         1 SER         0.0525
    173 H73        57.3435   12.7304  -38.6452 H         1 SER         0.0525
    174 H74        57.3175   14.1669  -41.8759 H         1 SER         0.2458
    175 H75        64.4405    9.9481  -37.9022 H         1 SER         0.1885
    176 H76        66.8020   11.7483  -37.5808 H         1 SER         0.0823
    177 H77        67.1431   10.9919  -35.2703 H         1 SER         0.0474
    178 H78        65.5858   10.0999  -35.3463 H         1 SER         0.0474
    179 H79        66.7153   13.5938  -36.2621 H         1 SER         0.0557
    180 H80        63.9562   11.1771  -34.0762 H         1 SER         0.0557
    181 H81        65.4016   15.5966  -35.6978 H         1 SER         0.0599
    182 H82        62.6899   13.1945  -33.4644 H         1 SER         0.0599
    183 H83        63.4300   15.4031  -34.2443 H         1 SER         0.0559
    184 H84        66.8793    8.6244  -36.0910 H         1 SER         0.1885
    185 H85        67.6295    6.5456  -36.6180 H         1 SER         0.0824
    186 H86        68.4874    6.8576  -39.3948 H         1 SER         0.0491
    187 H87        66.7862    7.3738  -39.1377 H         1 SER         0.0491
    188 H88        65.0228    5.6062  -38.5558 H         1 SER         0.2386
    189 H89        68.9486    4.0788  -39.0286 H         1 SER         0.0324
    190 H90        64.7929    3.0599  -38.6629 H         1 SER         0.1149
    191 H91        69.3575    6.4943  -35.3995 H         1 SER         0.1875
    192 H92        71.3190    5.3970  -35.1350 H         1 SER         0.0726
    193 H93        72.9505    5.5913  -37.2640 H         1 SER         0.0307
    194 H94        71.3805    5.9652  -38.0527 H         1 SER         0.0307
    195 H95        71.8000    3.5994  -38.2350 H         1 SER         0.0301
    196 H96        70.4498    3.8592  -37.0791 H         1 SER         0.0301
    197 H97        71.9237    3.5046  -35.1911 H         1 SER         0.0689
    198 H98        73.3558    3.4214  -36.2723 H         1 SER         0.0689
    199 H99        72.5563    1.2817  -37.1081 H         1 SER         0.2642
    200 H100       70.2999    0.7838  -33.7533 H         1 SER         0.2615
    201 H101       70.8433    2.4286  -34.1803 H         1 SER         0.2615
    202 H102       71.8427   -0.7592  -36.5148 H         1 SER         0.2615
    203 H103       70.8471   -0.9807  -35.0511 H         1 SER         0.2615
@<TRIPOS>BOND
     1    1    2 1  
     2    2    3 1  
     3    2    5 1  
     4    3    4 2  
     5    3    7 am 
     6    5    6 1  
     7    7    8 1  
     8    8    9 1  
     9    8   11 1  
    10    9   10 2  
    11    9   15 am 
    12   11   12 1  
    13   12   13 1  
    14   13   14 1  
    15   15   16 1  
    16   16   17 1  
    17   16   19 1  
    18   17   18 2  
    19   17   26 am 
    20   19   20 1  
    21   20   21 1  
    22   21   22 1  
    23   22   23 ar 
    24   23   24 ar 
    25   23   25 ar 
    26   26   27 1  
    27   27   28 1  
    28   27   30 1  
    29   28   29 2  
    30   28   35 am 
    31   30   31 1  
    32   31   32 1  
    33   32   33 1  
    34   33   34 1  
    35   35   36 1  
    36   36   37 1  
    37   36   39 1  
    38   37   38 2  
    39   37   43 am 
    40   39   40 1  
    41   39   41 1  
    42   40   42 1  
    43   43   44 1  
    44   44   45 1  
    45   44   47 1  
    46   45   46 2  
    47   45   49 am 
    48   47   48 1  
    49   49   50 1  
    50   50   51 1  
    51   50   53 1  
    52   51   52 2  
    53   51   56 am 
    54   53   54 1  
    55   53   55 1  
    56   56   57 1  
    57   57   58 1  
    58   57   60 1  
    59   58   59 2  
    60   58   68 am 
    61   60   61 1  
    62   61   62 ar 
    63   61   63 ar 
    64   62   64 ar 
    65   63   65 ar 
    66   64   66 ar 
    67   65   66 ar 
    68   66   67 1  
    69   68   69 1  
    70   69   70 1  
    71   69   72 1  
    72   70   71 2  
    73   70   79 am 
    74   72   73 1  
    75   73   74 ar 
    76   73   75 ar 
    77   74   76 ar 
    78   75   77 ar 
    79   76   78 ar 
    80   77   78 ar 
    81   79   80 1  
    82   80   81 1  
    83   80   83 1  
    84   81   82 2  
    85   81   89 am 
    86   83   84 1  
    87   84   85 1  
    88   84   86 2  
    89   85   87 1  
    90   86   88 1  
    91   87   88 2  
    92   89   90 1  
    93   90   91 1  
    94   90   93 1  
    95   91   92 ar 
    96   91  100 ar 
    97   93   94 1  
    98   94   95 1  
    99   95   96 1  
   100   96   97 ar 
   101   97   98 ar 
   102   97   99 ar 
   103    1  101 1  
   104    1  102 1  
   105    1  103 1  
   106    2  104 1  
   107    5  105 1  
   108    5  106 1  
   109    6  107 1  
   110    7  108 1  
   111    8  109 1  
   112   11  110 1  
   113   11  111 1  
   114   12  112 1  
   115   12  113 1  
   116   14  114 1  
   117   14  115 1  
   118   14  116 1  
   119   15  117 1  
   120   16  118 1  
   121   19  119 1  
   122   19  120 1  
   123   20  121 1  
   124   20  122 1  
   125   21  123 1  
   126   21  124 1  
   127   22  125 1  
   128   24  126 1  
   129   24  127 1  
   130   25  128 1  
   131   25  129 1  
   132   26  130 1  
   133   27  131 1  
   134   30  132 1  
   135   30  133 1  
   136   31  134 1  
   137   31  135 1  
   138   32  136 1  
   139   32  137 1  
   140   33  138 1  
   141   33  139 1  
   142   34  140 1  
   143   34  141 1  
   144   34  142 1  
   145   35  143 1  
   146   36  144 1  
   147   39  145 1  
   148   40  146 1  
   149   40  147 1  
   150   41  148 1  
   151   41  149 1  
   152   41  150 1  
   153   42  151 1  
   154   42  152 1  
   155   42  153 1  
   156   43  154 1  
   157   44  155 1  
   158   47  156 1  
   159   47  157 1  
   160   48  158 1  
   161   49  159 1  
   162   50  160 1  
   163   53  161 1  
   164   54  162 1  
   165   55  163 1  
   166   55  164 1  
   167   55  165 1  
   168   56  166 1  
   169   57  167 1  
   170   60  168 1  
   171   60  169 1  
   172   62  170 1  
   173   63  171 1  
   174   64  172 1  
   175   65  173 1  
   176   67  174 1  
   177   68  175 1  
   178   69  176 1  
   179   72  177 1  
   180   72  178 1  
   181   74  179 1  
   182   75  180 1  
   183   76  181 1  
   184   77  182 1  
   185   78  183 1  
   186   79  184 1  
   187   80  185 1  
   188   83  186 1  
   189   83  187 1  
   190   85  188 1  
   191   86  189 1  
   192   87  190 1  
   193   89  191 1  
   194   90  192 1  
   195   93  193 1  
   196   93  194 1  
   197   94  195 1  
   198   94  196 1  
   199   95  197 1  
   200   95  198 1  
   201   96  199 1  
   202   98  200 1  
   203   98  201 1  
   204   99  202 1  
   205   99  203 1  
@<TRIPOS>SUBSTRUCTURE
     1 SER         1

