4bdi_ligand
  -I-interpret- 

 38 39  0  0  0  0  0  0  0  0999 V2000
   -4.6020   52.2580   14.6640 C   0  0  0  0  0
   -5.0310   53.2170   15.2890 O   0  0  0  0  0
   -3.1270   52.0030   14.5740 C   0  0  0  0  0
   -5.4560   51.3690   14.0680 N   0  0  0  0  0
   -7.1020   50.4420    9.5660 O   0  0  0  0  0
  -11.1130   49.1900    9.8290 N   0  0  0  0  0
   -5.0600   50.1280   13.3770 C   0  0  0  0  0
   -8.9870   49.6260   10.5800 N   0  0  0  0  0
   -5.5900   50.0870   11.9410 C   0  0  0  0  0
   -7.1210   50.2290   11.9680 C   0  0  0  0  0
   -7.5050   51.5510   12.6570 C   0  0  0  0  0
   -6.9160   51.5780   14.0750 C   0  0  0  0  0
   -7.7250   50.1230   10.5780 C   0  0  0  0  0
   -9.8320   49.3990    9.4800 C   0  0  0  0  0
   -9.4040   49.3530    8.1380 C   0  0  0  0  0
  -10.3550   49.0990    7.1650 C   0  0  0  0  0
  -11.6860   48.8980    7.5000 C   0  0  0  0  0
  -11.9950   48.9440    8.8500 C   0  0  0  0  0
  -12.7490   48.6860    6.4500 C   0  0  0  0  0
   -2.6401   52.8568   14.1028 H   0  0  0  0  0
   -2.7225   51.8598   15.5760 H   0  0  0  0  0
   -2.9501   51.1077   13.9780 H   0  0  0  0  0
   -5.4787   49.2822   13.9223 H   0  0  0  0  0
   -3.9714   50.0857   13.3431 H   0  0  0  0  0
   -9.3709   49.3871   11.4943 H   0  0  0  0  0
   -5.3169   49.1401   11.4753 H   0  0  0  0  0
   -5.1552   50.9041   11.3653 H   0  0  0  0  0
   -7.5351   49.4014   12.5440 H   0  0  0  0  0
   -8.5907   51.6302   12.7126 H   0  0  0  0  0
   -7.1092   52.3887   12.0828 H   0  0  0  0  0
   -7.1192   52.5561   14.5110 H   0  0  0  0  0
   -7.3737   50.7735   14.6506 H   0  0  0  0  0
   -8.3583   49.5122    7.8750 H   0  0  0  0  0
  -10.0532   49.0562    6.1185 H   0  0  0  0  0
  -13.0316   48.7671    9.1370 H   0  0  0  0  0
  -12.7897   49.5564    5.7951 H   0  0  0  0  0
  -12.5071   47.7995    5.8637 H   0  0  0  0  0
  -13.7153   48.5495    6.9355 H   0  0  0  0  0
  1  2  2  0  0  0
  1  3  1  0  0  0
  4  1  1  0  0  0
  7  4  1  0  0  0
  4 12  1  0  0  0
 13  5  2  0  0  0
 14  6  4  0  0  0
  6 18  4  0  0  0
  9  7  1  0  0  0
 13  8  1  0  0  0
  8 14  1  0  0  0
 10  9  1  0  0  0
 10 11  1  0  0  0
 10 13  1  0  0  0
 11 12  1  0  0  0
 14 15  4  0  0  0
 15 16  4  0  0  0
 16 17  4  0  0  0
 17 18  4  0  0  0
 17 19  1  0  0  0
  3 20  1  0  0  0
  3 21  1  0  0  0
  3 22  1  0  0  0
  7 23  1  0  0  0
  7 24  1  0  0  0
  8 25  1  0  0  0
  9 26  1  0  0  0
  9 27  1  0  0  0
 10 28  1  0  0  0
 11 29  1  0  0  0
 11 30  1  0  0  0
 12 31  1  0  0  0
 12 32  1  0  0  0
 15 33  1  0  0  0
 16 34  1  0  0  0
 18 35  1  0  0  0
 19 36  1  0  0  0
 19 37  1  0  0  0
 19 38  1  0  0  0
M  END
$$$$
