4e7r_ligand
  -I-interpret- 

 74 77  0  0  0  0  0  0  0  0999 V2000
   16.2890    2.4740   21.1970 C   0  0  0  0  0
   15.7060    1.8320   22.2850 C   0  0  0  0  0
   16.0880    0.5420   22.6000 C   0  0  0  0  0
   18.6720   -0.2010   19.9120 C   0  0  0  0  0
   20.0910    0.0560   20.4450 C   0  0  0  0  0
   20.2890    1.4880   20.8790 C   0  0  0  0  0
   20.7310    3.8030   20.4640 C   0  0  0  0  0
   21.9650    4.4410   19.8260 C   0  0  0  0  0
   21.9270    4.3060   18.3170 C   0  0  0  0  0
   22.0020    2.8160   18.0350 C   0  0  0  0  0
   20.7340    2.1530   18.5540 C   0  0  0  0  0
   25.0800    0.2470   20.6660 C   0  0  0  0  0
   25.0990    1.3140   21.5690 C   0  0  0  0  0
   24.0790    1.4380   22.5000 C   0  0  0  0  0
   23.0350    0.5070   22.4760 C   0  0  0  0  0
   24.0150    2.5720   23.4740 C   0  0  0  0  0
   23.7530    2.3680   24.8210 C   0  0  0  0  0
   15.4550   -0.1500   23.7620 C   0  0  0  0  0
   14.5580    0.4850   24.5020 N   0  0  0  0  0
   15.7530   -1.3410   24.0230 N   0  0  0  0  0
   17.0370   -0.1100   21.8320 C   0  0  0  0  0
   17.6220    0.5240   20.7430 C   0  0  0  0  0
   20.3940   -0.8420   21.5500 N   0  0  0  0  0
   21.8030   -1.6230   21.5890 S   0  0  0  0  0
   23.0090   -0.5620   21.5790 C   0  0  0  0  0
   24.1650    3.8760   23.0190 C   0  0  0  0  0
   24.0780    4.9480   23.9090 C   0  0  0  0  0
   23.8230    4.7210   25.2510 C   0  0  0  0  0
   23.6790    6.0560   26.4370 Cl  0  0  0  0  0
   23.6600    3.4310   25.7050 C   0  0  0  0  0
   23.5460    0.7340   25.5120 Cl  0  0  0  0  0
   24.0510   -0.6890   20.6680 C   0  0  0  0  0
   21.8470   -2.4310   22.7860 O   0  0  0  0  0
   21.8700   -2.4570   20.4310 O   0  0  0  0  0
   20.5910    2.4260   19.9900 N   0  0  0  0  0
   23.1240    5.0240   17.7040 C   0  0  0  0  0
   22.7240    5.9590   16.5640 C   0  0  0  0  0
   22.5560    5.2200   15.3270 N   0  3  0  0  0
   20.1520    1.7890   22.0510 O   0  0  0  0  0
   17.2380    1.8230   20.4230 C   0  0  0  0  0
   15.9980    3.4953   20.9513 H   0  0  0  0  0
   14.9530    2.3432   22.8848 H   0  0  0  0  0
   18.4732   -1.2715   19.9633 H   0  0  0  0  0
   18.6164    0.1683   18.8880 H   0  0  0  0  0
   20.7779   -0.1379   19.6212 H   0  0  0  0  0
   19.8442    4.3734   20.1878 H   0  0  0  0  0
   20.8422    3.8036   21.5483 H   0  0  0  0  0
   22.8542    3.9337   20.2003 H   0  0  0  0  0
   21.9831    5.5003   20.0821 H   0  0  0  0  0
   21.0265    4.7473   17.8898 H   0  0  0  0  0
   22.8722    2.3894   18.5339 H   0  0  0  0  0
   22.0937    2.6477   16.9620 H   0  0  0  0  0
   20.7950    1.0767   18.3932 H   0  0  0  0  0
   19.8711    2.5520   18.0207 H   0  0  0  0  0
   25.8901    0.1462   19.9438 H   0  0  0  0  0
   25.9092    2.0427   21.5414 H   0  0  0  0  0
   22.2129    0.6205   23.1827 H   0  0  0  0  0
   14.1101    0.0060   25.2832 H   0  0  0  0  0
   14.3154    1.4529   24.2905 H   0  0  0  0  0
   15.3047   -1.8194   24.8044 H   0  0  0  0  0
   17.3280   -1.1298   22.0838 H   0  0  0  0  0
   19.7149   -0.9768   22.2990 H   0  0  0  0  0
   24.3516    4.0631   21.9615 H   0  0  0  0  0
   24.2113    5.9672   23.5463 H   0  0  0  0  0
   23.4578    3.2462   26.7600 H   0  0  0  0  0
   24.0618   -1.5171   19.9593 H   0  0  0  0  0
   23.7980    4.2690   17.2991 H   0  0  0  0  0
   23.5913    5.6252   18.4840 H   0  0  0  0  0
   23.5100    6.7015   16.4260 H   0  0  0  0  0
   21.7789    6.4389   16.8180 H   0  0  0  0  0
   22.2896    5.8632   14.5816 H   0  0  0  0  0
   23.4342    4.7614   15.0843 H   0  0  0  0  0
   21.8265    4.5175   15.4484 H   0  0  0  0  0
   17.6825    2.3279   19.5653 H   0  0  0  0  0
  1  2  4  0  0  0
 40  1  4  0  0  0
  3  2  4  0  0  0
  3 18  1  0  0  0
 21  3  4  0  0  0
  5  4  1  0  0  0
  4 22  1  0  0  0
  5  6  1  0  0  0
 23  5  1  0  0  0
  6 35  1  0  0  0
  6 39  2  0  0  0
  7  8  1  0  0  0
 35  7  1  0  0  0
  8  9  1  0  0  0
 10  9  1  0  0  0
  9 36  1  0  0  0
 11 10  1  0  0  0
 35 11  1  0  0  0
 13 12  4  0  0  0
 12 32  4  0  0  0
 14 13  4  0  0  0
 15 14  4  0  0  0
 14 16  1  0  0  0
 25 15  4  0  0  0
 16 17  4  0  0  0
 16 26  4  0  0  0
 17 30  4  0  0  0
 17 31  1  0  0  0
 18 19  1  0  0  0
 18 20  2  0  0  0
 22 21  4  0  0  0
 22 40  4  0  0  0
 24 23  1  0  0  0
 24 25  1  0  0  0
 24 33  2  0  0  0
 24 34  2  0  0  0
 25 32  4  0  0  0
 26 27  4  0  0  0
 27 28  4  0  0  0
 28 29  1  0  0  0
 28 30  4  0  0  0
 36 37  1  0  0  0
 37 38  1  0  0  0
  1 41  1  0  0  0
  2 42  1  0  0  0
  4 43  1  0  0  0
  4 44  1  0  0  0
  5 45  1  0  0  0
  7 46  1  0  0  0
  7 47  1  0  0  0
  8 48  1  0  0  0
  8 49  1  0  0  0
  9 50  1  0  0  0
 10 51  1  0  0  0
 10 52  1  0  0  0
 11 53  1  0  0  0
 11 54  1  0  0  0
 12 55  1  0  0  0
 13 56  1  0  0  0
 15 57  1  0  0  0
 19 58  1  0  0  0
 19 59  1  0  0  0
 20 60  1  0  0  0
 21 61  1  0  0  0
 23 62  1  0  0  0
 26 63  1  0  0  0
 27 64  1  0  0  0
 30 65  1  0  0  0
 32 66  1  0  0  0
 36 67  1  0  0  0
 36 68  1  0  0  0
 37 69  1  0  0  0
 37 70  1  0  0  0
 38 71  1  0  0  0
 38 72  1  0  0  0
 38 73  1  0  0  0
 40 74  1  0  0  0
M  END
$$$$
