6o94_ligand
  -I-interpret- 

 66 71  0  0  0  0  0  0  0  0999 V2000
   17.3680   -6.9150    6.6660 C   0  0  0  0  0
   18.0310   -2.7910    5.7070 C   0  0  0  0  0
   16.7160   -6.9260    7.9020 C   0  0  0  0  0
   16.4020   -8.1460    8.4930 C   0  0  0  0  0
   14.2440   -9.8850   11.7750 C   0  0  0  0  0
   15.7430   -9.7140    9.7880 C   0  0  0  0  0
   16.0270  -11.5730   11.4660 C   0  0  0  0  0
   16.3950  -11.3410   12.9060 C   0  0  0  0  0
   14.7090   -9.7570   13.1980 C   0  0  0  0  0
   18.7610   -4.9530    6.8260 C   0  0  0  0  0
   19.2120   -3.6680    6.1280 C   0  0  0  0  0
   15.7850   -8.4080    9.7080 N   0  0  0  0  0
   15.3330  -10.3920   10.9290 N   0  0  0  0  0
   17.7030   -8.1180    6.0220 C   0  0  0  0  0
   17.7540   -5.6900    6.0490 N   0  0  0  0  0
   18.7470  -10.2140    4.1630 O   0  0  0  0  0
   18.9150   -9.0070    3.9840 C   0  0  0  0  0
   19.7890   -8.5180    2.8670 C   0  0  0  0  0
   19.9270   -7.2080    2.3920 C   0  0  0  0  0
   19.3890   -6.0540    2.8210 N   0  0  0  0  0
   19.8030   -4.9290    2.2130 C   0  0  0  0  0
   20.7260   -4.9000    1.1710 C   0  0  0  0  0
   21.2540   -6.1040    0.7520 C   0  0  0  0  0
   20.8710   -7.2710    1.3750 N   0  0  0  0  0
   21.3630   -8.5430    1.1840 N   0  0  0  0  0
   20.6900   -9.2710    2.0930 C   0  0  0  0  0
   18.3880   -8.0320    4.7810 N   0  0  0  0  0
   17.3730   -9.3430    6.6070 C   0  0  0  0  0
   16.6180   -4.8800    5.5930 C   0  0  0  0  0
   17.0790   -3.6210    4.8550 C   0  0  0  0  0
   18.4780   -1.5280    4.9840 C   0  0  0  0  0
   19.0930   -1.8030    3.7230 O   0  0  0  0  0
   16.7240   -9.3340    7.8370 C   0  0  0  0  0
   16.2640  -10.3590    8.6670 N   0  0  0  0  0
   16.2160  -11.7710    8.2960 C   0  0  0  0  0
   15.2530  -10.9820   13.6820 O   0  0  0  0  0
   17.5111   -2.4508    6.6026 H   0  0  0  0  0
   16.4566   -5.9902    8.3971 H   0  0  0  0  0
   13.9360   -8.9049   11.4108 H   0  0  0  0  0
   13.4068  -10.5818   11.7345 H   0  0  0  0  0
   15.3678  -12.4384   11.3987 H   0  0  0  0  0
   16.9337  -11.7506   10.8877 H   0  0  0  0  0
   17.1163  -10.5251   12.9525 H   0  0  0  0  0
   16.8129  -12.2631   13.3100 H   0  0  0  0  0
   13.8532   -9.4904   13.8182 H   0  0  0  0  0
   15.4860   -8.9938   13.2399 H   0  0  0  0  0
   18.3145   -4.6784    7.7817 H   0  0  0  0  0
   19.6330   -5.5964    6.9436 H   0  0  0  0  0
   19.8230   -3.0990    6.8287 H   0  0  0  0  0
   19.7635   -3.9465    5.2300 H   0  0  0  0  0
   19.3905   -3.9805    2.5571 H   0  0  0  0  0
   21.0207   -3.9606    0.7033 H   0  0  0  0  0
   21.9711   -6.1313   -0.0685 H   0  0  0  0  0
   20.8299  -10.3447    2.2181 H   0  0  0  0  0
   18.5060   -7.0832    4.4258 H   0  0  0  0  0
   17.6181  -10.2825    6.1117 H   0  0  0  0  0
   16.0423   -4.5741    6.4665 H   0  0  0  0  0
   16.0218   -5.4811    4.9065 H   0  0  0  0  0
   17.6026   -3.9246    3.9485 H   0  0  0  0  0
   16.2026   -3.0146    4.6263 H   0  0  0  0  0
   19.2129   -1.0248    5.6123 H   0  0  0  0  0
   17.5942   -0.9173    4.7994 H   0  0  0  0  0
   19.3555   -0.9774    3.3095 H   0  0  0  0  0
   16.7040  -12.3651    9.0686 H   0  0  0  0  0
   15.1767  -12.0842    8.1972 H   0  0  0  0  0
   16.7317  -11.9136    7.3463 H   0  0  0  0  0
  1  3  4  0  0  0
 14  1  4  0  0  0
  1 15  1  0  0  0
 11  2  1  0  0  0
  2 30  1  0  0  0
  2 31  1  0  0  0
  3  4  4  0  0  0
  4 12  4  0  0  0
  4 33  4  0  0  0
  5  9  1  0  0  0
 13  5  1  0  0  0
 12  6  4  0  0  0
  6 13  1  0  0  0
  6 34  4  0  0  0
  7  8  1  0  0  0
 13  7  1  0  0  0
  8 36  1  0  0  0
  9 36  1  0  0  0
 10 11  1  0  0  0
 15 10  1  0  0  0
 27 14  1  0  0  0
 14 28  4  0  0  0
 15 29  1  0  0  0
 17 16  2  0  0  0
 17 18  1  0  0  0
 17 27  1  0  0  0
 18 19  4  0  0  0
 18 26  4  0  0  0
 19 20  4  0  0  0
 19 24  4  0  0  0
 20 21  4  0  0  0
 21 22  4  0  0  0
 22 23  4  0  0  0
 23 24  4  0  0  0
 24 25  4  0  0  0
 25 26  4  0  0  0
 28 33  4  0  0  0
 29 30  1  0  0  0
 31 32  1  0  0  0
 33 34  4  0  0  0
 34 35  1  0  0  0
  2 37  1  0  0  0
  3 38  1  0  0  0
  5 39  1  0  0  0
  5 40  1  0  0  0
  7 41  1  0  0  0
  7 42  1  0  0  0
  8 43  1  0  0  0
  8 44  1  0  0  0
  9 45  1  0  0  0
  9 46  1  0  0  0
 10 47  1  0  0  0
 10 48  1  0  0  0
 11 49  1  0  0  0
 11 50  1  0  0  0
 21 51  1  0  0  0
 22 52  1  0  0  0
 23 53  1  0  0  0
 26 54  1  0  0  0
 27 55  1  0  0  0
 28 56  1  0  0  0
 29 57  1  0  0  0
 29 58  1  0  0  0
 30 59  1  0  0  0
 30 60  1  0  0  0
 31 61  1  0  0  0
 31 62  1  0  0  0
 32 63  1  0  0  0
 35 64  1  0  0  0
 35 65  1  0  0  0
 35 66  1  0  0  0
M  END
$$$$
