### 
### Created by X-TOOL on Mon Sep 10 21:13:23 2018
### 

@<TRIPOS>MOLECULE
5d7e_ligand
  123   122     1     0     0
SMALL
GAST_HUCK


@<TRIPOS>ATOM
      1 CA         32.7370   32.6580   -6.0130 C.3       1 ALA         0.0258
      2 C          32.9240   31.1620   -5.7860 C.2       1 ALA         0.1751
      3 O          34.0460   30.6630   -5.7560 O.2       1 ALA        -0.3972
      4 N          31.8210   30.4380   -5.6320 N.am      1 GLN        -0.2657
      5 CA         31.9060   29.0160   -5.2980 C.3       1 GLN         0.1329
      6 C          32.5510   28.1750   -6.4130 C.2       1 GLN         0.2041
      7 O          33.1530   27.1320   -6.1420 O.2       1 GLN        -0.3944
      8 CB         30.5140   28.4890   -4.9520 C.3       1 GLN         0.0045
      9 CG         29.9940   29.0710   -3.6480 C.3       1 GLN         0.0412
     10 CD         28.4940   28.9820   -3.5240 C.2       1 GLN         0.1737
     11 OE1        27.7490   29.5530   -4.3330 O.2       1 GLN        -0.3973
     12 NE2        28.0340   28.2740   -2.5000 N.am      1 GLN        -0.3009
     13 N          32.4610   28.6640   -7.6490 N.am      1 THR        -0.2613
     14 CA         33.0940   28.0090   -8.7940 C.3       1 THR         0.1565
     15 C          34.4820   28.5560   -9.1370 C.2       1 THR         0.2065
     16 O          35.0490   28.1560  -10.1540 O.2       1 THR        -0.3943
     17 CB         32.2250   28.1280  -10.0640 C.3       1 THR         0.0924
     18 OG1        32.1440   29.5060  -10.4530 O.3       1 THR        -0.3874
     19 CG2        30.8320   27.5870   -9.8080 C.3       1 THR        -0.0346
     20 N          35.0100   29.4760   -8.3220 N.am      1 ALA        -0.2639
     21 CA         36.3840   29.9720   -8.5120 C.3       1 ALA         0.1282
     22 C          37.3760   28.8300   -8.7090 C.2       1 ALA         0.2036
     23 O          37.4630   27.9310   -7.8690 O.2       1 ALA        -0.3944
     24 CB         36.8220   30.8070   -7.3330 C.3       1 ALA        -0.0244
     25 N          38.1410   28.8710   -9.7990 N.am      1 ARG        -0.2637
     26 CA         39.1310   27.8300  -10.0560 C.3       1 ARG         0.1311
     27 C          40.4270   28.3730  -10.6520 C.2       1 ARG         0.2039
     28 O          40.4270   29.3880  -11.3330 O.2       1 ARG        -0.3944
     29 CB         38.5540   26.7570  -10.9820 C.3       1 ARG        -0.0092
     30 CG         37.4110   25.9610  -10.3900 C.3       1 ARG        -0.0156
     31 CD         37.0770   24.7580  -11.2540 C.3       1 ARG         0.0627
     32 NE         38.1310   23.7530  -11.2200 N.pl3     1 ARG        -0.2723
     33 CZ         38.2640   22.8530  -10.2500 C.cat     1 ARG         0.2882
     34 NH1        37.4100   22.8410   -9.2330 N.pl3     1 ARG        -0.2849
     35 NH2        39.2450   21.9650  -10.3000 N.pl3     1 ARG        -0.2849
     36 OH         44.6170   29.7960   -3.9420 O.2       1 ALY        -0.3974
     37 CH         45.7550   29.7940   -4.4470 C.2       1 ALY         0.1729
     38 CH3        46.9330   30.5080   -3.8080 C.3       1 ALY         0.0256
     39 NZ         45.9650   29.1250   -5.6370 N.am      1 ALY        -0.2872
     40 CE         44.9090   28.4210   -6.3050 C.3       1 ALY         0.0309
     41 CD         45.1250   28.2050   -7.7970 C.3       1 ALY        -0.0325
     42 CG         43.7950   28.0890   -8.5060 C.3       1 ALY        -0.0470
     43 CB         44.0200   27.7300   -9.9570 C.3       1 ALY        -0.0123
     44 CA         42.8320   28.0270  -10.8930 C.3       1 ALY         0.1310
     45 N          41.5240   27.6730  -10.3800 N.am      1 ALY        -0.2637
     46 C          43.1730   27.1700  -12.1120 C.2       1 ALY         0.2040
     47 O          42.7960   25.9960  -12.2430 O.2       1 ALY        -0.3944
     48 N          43.9430   27.7690  -13.0240 N.am      1 SER        -0.2616
     49 CA         44.4630   27.0480  -14.1870 C.3       1 SER         0.1539
     50 C          45.6160   26.1070  -13.8060 C.2       1 SER         0.2057
     51 O          46.4120   26.4220  -12.9260 O.2       1 SER        -0.3943
     52 CB         44.9290   28.0310  -15.2640 C.3       1 SER         0.0843
     53 OG         45.5590   27.3410  -16.3330 O.3       1 SER        -0.3903
     54 N          45.7040   24.9590  -14.4790 N.am      1 THR        -0.2669
     55 CA         46.7400   23.9630  -14.1830 C.3       1 THR         0.1198
     56 C          47.9020   23.9810  -15.1880 C.2       1 THR         0.0626
     57 O          48.0720   24.9310  -15.9580 O.co2     1 THR        -0.5665
     58 CB         46.1500   22.5240  -14.1440 C.3       1 THR         0.0869
     59 OG1        45.4150   22.2690  -15.3490 O.3       1 THR        -0.3880
     60 CG2        45.2290   22.3440  -12.9420 C.3       1 THR        -0.0352
     61 OXT        48.7050   23.0460  -15.2600 O.co2     1 THR        -0.5665
     62 H1         31.6637   32.8988   -6.0045 H         1 ALA         0.0467
     63 H2         33.1679   32.9380   -6.9856 H         1 ALA         0.0467
     64 H3         33.2444   33.2166   -5.2127 H         1 ALA         0.0467
     65 H4         30.9254   30.8683   -5.7452 H         1 GLN         0.1883
     66 H5         32.5399   28.9196   -4.4042 H         1 GLN         0.0801
     67 H6         30.5617   27.3940   -4.8583 H         1 GLN         0.0337
     68 H7         29.8206   28.7578   -5.7625 H         1 GLN         0.0337
     69 H8         30.2887   30.1294   -3.5935 H         1 GLN         0.0504
     70 H9         30.4488   28.5202   -2.8115 H         1 GLN         0.0504
     71 H10        27.0484   28.1766   -2.3621 H         1 GLN         0.1814
     72 H11        28.6730   27.8380   -1.8663 H         1 GLN         0.1814
     73 H12        31.9437   29.5066   -7.7991 H         1 THR         0.1884
     74 H13        33.2009   26.9437   -8.5418 H         1 THR         0.0826
     75 H14        32.6910   27.5486  -10.8747 H         1 THR         0.0639
     76 H15        31.7519   30.0100   -9.7495 H         1 THR         0.2101
     77 H16        30.2286   27.6802  -10.7230 H         1 THR         0.0257
     78 H17        30.3592   28.1604   -8.9971 H         1 THR         0.0257
     79 H18        30.8975   26.5279   -9.5183 H         1 THR         0.0257
     80 H19        34.4602   29.8347   -7.5676 H         1 ALA         0.1883
     81 H20        36.3972   30.6030   -9.4129 H         1 ALA         0.0797
     82 H21        37.8489   31.1649   -7.4985 H         1 ALA         0.0277
     83 H22        36.7895   30.1962   -6.4188 H         1 ALA         0.0277
     84 H23        36.1469   31.6684   -7.2227 H         1 ALA         0.0277
     85 H24        38.0356   29.6239  -10.4486 H         1 ARG         0.1883
     86 H25        39.3756   27.3590   -9.0925 H         1 ARG         0.0800
     87 H26        39.3618   26.0566  -11.2406 H         1 ARG         0.0313
     88 H27        38.1909   27.2512  -11.8952 H         1 ARG         0.0313
     89 H28        36.5239   26.6071  -10.3156 H         1 ARG         0.0301
     90 H29        37.6970   25.6139   -9.3862 H         1 ARG         0.0301
     91 H30        36.9396   25.0936  -12.2925 H         1 ARG         0.0689
     92 H31        36.1433   24.3060  -10.8881 H         1 ARG         0.0689
     93 H32        38.8127   23.7386  -11.9920 H         1 ARG         0.2642
     94 H33        37.5133   22.1438   -8.4819 H         1 ARG         0.2615
     95 H34        36.6443   23.5289   -9.1953 H         1 ARG         0.2615
     96 H35        39.9078   21.9736  -11.0884 H         1 ARG         0.2615
     97 H36        39.3453   21.2657   -9.5505 H         1 ARG         0.2615
     98 H37        47.8287   30.3675   -4.4309 H         1 ALY         0.0467
     99 H38        47.1143   30.0920   -2.8060 H         1 ALY         0.0467
    100 H39        46.7094   31.5818   -3.7243 H         1 ALY         0.0467
    101 H40        46.8784   29.1317   -6.0440 H         1 ALY         0.1850
    102 H41        43.9797   28.9948   -6.1740 H         1 ALY         0.0520
    103 H42        44.8014   27.4351   -5.8292 H         1 ALY         0.0520
    104 H43        45.7004   27.2802   -7.9506 H         1 ALY         0.0285
    105 H44        45.6838   29.0575   -8.2104 H         1 ALY         0.0285
    106 H45        43.2635   29.0501   -8.4455 H         1 ALY         0.0268
    107 H46        43.1914   27.3052   -8.0249 H         1 ALY         0.0268
    108 H47        44.2372   26.6531  -10.0124 H         1 ALY         0.0312
    109 H48        44.8896   28.2985  -10.3184 H         1 ALY         0.0312
    110 H49        42.8209   29.0955  -11.1539 H         1 ALY         0.0800
    111 H50        41.4428   26.8660   -9.7951 H         1 ALY         0.1883
    112 H51        44.1705   28.7360  -12.9093 H         1 SER         0.1884
    113 H52        43.6467   26.4390  -14.6026 H         1 SER         0.0823
    114 H53        45.6435   28.7403  -14.8210 H         1 SER         0.0606
    115 H54        44.0590   28.5810  -15.6520 H         1 SER         0.0606
    116 H55        45.8406   27.9667  -16.9900 H         1 SER         0.2097
    117 H56        45.0444   24.7715  -15.2069 H         1 THR         0.1876
    118 H57        47.1471   24.1976  -13.1884 H         1 THR         0.0752
    119 H58        46.9780   21.8038  -14.0682 H         1 THR         0.0632
    120 H59        45.0570   21.3895  -15.3201 H         1 THR         0.2100
    121 H60        44.8265   21.3203  -12.9386 H         1 THR         0.0256
    122 H61        44.3996   23.0638  -13.0045 H         1 THR         0.0256
    123 H62        45.7965   22.5179  -12.0159 H         1 THR         0.0256
@<TRIPOS>BOND
     1    2    1 1  
     2    2    3 2  
     3    4    2 am 
     4    5    4 1  
     5    6    5 1  
     6    5    8 1  
     7    6    7 2  
     8   13    6 am 
     9    8    9 1  
    10    9   10 1  
    11   10   11 2  
    12   10   12 am 
    13   14   13 1  
    14   15   14 1  
    15   14   17 1  
    16   15   16 2  
    17   20   15 am 
    18   17   18 1  
    19   17   19 1  
    20   21   20 1  
    21   22   21 1  
    22   21   24 1  
    23   22   23 2  
    24   25   22 am 
    25   26   25 1  
    26   27   26 1  
    27   26   29 1  
    28   27   28 2  
    29   45   27 am 
    30   29   30 1  
    31   30   31 1  
    32   31   32 1  
    33   32   33 ar 
    34   33   34 ar 
    35   33   35 ar 
    36   37   36 2  
    37   37   38 1  
    38   39   37 am 
    39   40   39 1  
    40   41   40 1  
    41   42   41 1  
    42   43   42 1  
    43   44   43 1  
    44   44   45 1  
    45   44   46 1  
    46   46   47 2  
    47   46   48 am 
    48   48   49 1  
    49   49   50 1  
    50   49   52 1  
    51   50   51 2  
    52   50   54 am 
    53   52   53 1  
    54   54   55 1  
    55   55   56 1  
    56   55   58 1  
    57   56   57 ar 
    58   56   61 ar 
    59   58   59 1  
    60   58   60 1  
    61    1   62 1  
    62    1   63 1  
    63    1   64 1  
    64    4   65 1  
    65    5   66 1  
    66    8   67 1  
    67    8   68 1  
    68    9   69 1  
    69    9   70 1  
    70   12   71 1  
    71   12   72 1  
    72   13   73 1  
    73   14   74 1  
    74   17   75 1  
    75   18   76 1  
    76   19   77 1  
    77   19   78 1  
    78   19   79 1  
    79   20   80 1  
    80   21   81 1  
    81   24   82 1  
    82   24   83 1  
    83   24   84 1  
    84   25   85 1  
    85   26   86 1  
    86   29   87 1  
    87   29   88 1  
    88   30   89 1  
    89   30   90 1  
    90   31   91 1  
    91   31   92 1  
    92   32   93 1  
    93   34   94 1  
    94   34   95 1  
    95   35   96 1  
    96   35   97 1  
    97   38   98 1  
    98   38   99 1  
    99   38  100 1  
   100   39  101 1  
   101   40  102 1  
   102   40  103 1  
   103   41  104 1  
   104   41  105 1  
   105   42  106 1  
   106   42  107 1  
   107   43  108 1  
   108   43  109 1  
   109   44  110 1  
   110   45  111 1  
   111   48  112 1  
   112   49  113 1  
   113   52  114 1  
   114   52  115 1  
   115   53  116 1  
   116   54  117 1  
   117   55  118 1  
   118   58  119 1  
   119   59  120 1  
   120   60  121 1  
   121   60  122 1  
   122   60  123 1  
@<TRIPOS>SUBSTRUCTURE
     1 ALA         1

