5d7e_ligand
  -I-interpret- 

123122  0  0  0  0  0  0  0  0999 V2000
   32.7370   32.6580   -6.0130 C   0  0  0  0  0
   32.9240   31.1620   -5.7860 C   0  0  0  0  0
   34.0460   30.6630   -5.7560 O   0  0  0  0  0
   31.8210   30.4380   -5.6320 N   0  0  0  0  0
   31.9060   29.0160   -5.2980 C   0  0  0  0  0
   32.5510   28.1750   -6.4130 C   0  0  0  0  0
   33.1530   27.1320   -6.1420 O   0  0  0  0  0
   30.5140   28.4890   -4.9520 C   0  0  0  0  0
   29.9940   29.0710   -3.6480 C   0  0  0  0  0
   28.4940   28.9820   -3.5240 C   0  0  0  0  0
   27.7490   29.5530   -4.3330 O   0  0  0  0  0
   28.0340   28.2740   -2.5000 N   0  0  0  0  0
   32.4610   28.6640   -7.6490 N   0  0  0  0  0
   33.0940   28.0090   -8.7940 C   0  0  0  0  0
   34.4820   28.5560   -9.1370 C   0  0  0  0  0
   35.0490   28.1560  -10.1540 O   0  0  0  0  0
   32.2250   28.1280  -10.0640 C   0  0  0  0  0
   32.1440   29.5060  -10.4530 O   0  0  0  0  0
   30.8320   27.5870   -9.8080 C   0  0  0  0  0
   35.0100   29.4760   -8.3220 N   0  0  0  0  0
   36.3840   29.9720   -8.5120 C   0  0  0  0  0
   37.3760   28.8300   -8.7090 C   0  0  0  0  0
   37.4630   27.9310   -7.8690 O   0  0  0  0  0
   36.8220   30.8070   -7.3330 C   0  0  0  0  0
   38.1410   28.8710   -9.7990 N   0  0  0  0  0
   39.1310   27.8300  -10.0560 C   0  0  0  0  0
   40.4270   28.3730  -10.6520 C   0  0  0  0  0
   40.4270   29.3880  -11.3330 O   0  0  0  0  0
   38.5540   26.7570  -10.9820 C   0  0  0  0  0
   37.4110   25.9610  -10.3900 C   0  0  0  0  0
   37.0770   24.7580  -11.2540 C   0  0  0  0  0
   38.1310   23.7530  -11.2200 N   0  0  0  0  0
   38.2640   22.8530  -10.2500 C   0  0  0  0  0
   37.4100   22.8410   -9.2330 N   0  0  0  0  0
   39.2450   21.9650  -10.3000 N   0  0  0  0  0
   44.6170   29.7960   -3.9420 O   0  0  0  0  0
   45.7550   29.7940   -4.4470 C   0  0  0  0  0
   46.9330   30.5080   -3.8080 C   0  0  0  0  0
   45.9650   29.1250   -5.6370 N   0  0  0  0  0
   44.9090   28.4210   -6.3050 C   0  0  0  0  0
   45.1250   28.2050   -7.7970 C   0  0  0  0  0
   43.7950   28.0890   -8.5060 C   0  0  0  0  0
   44.0200   27.7300   -9.9570 C   0  0  0  0  0
   42.8320   28.0270  -10.8930 C   0  0  0  0  0
   41.5240   27.6730  -10.3800 N   0  0  0  0  0
   43.1730   27.1700  -12.1120 C   0  0  0  0  0
   42.7960   25.9960  -12.2430 O   0  0  0  0  0
   43.9430   27.7690  -13.0240 N   0  0  0  0  0
   44.4630   27.0480  -14.1870 C   0  0  0  0  0
   45.6160   26.1070  -13.8060 C   0  0  0  0  0
   46.4120   26.4220  -12.9260 O   0  0  0  0  0
   44.9290   28.0310  -15.2640 C   0  0  0  0  0
   45.5590   27.3410  -16.3330 O   0  0  0  0  0
   45.7040   24.9590  -14.4790 N   0  0  0  0  0
   46.7400   23.9630  -14.1830 C   0  0  0  0  0
   47.9020   23.9810  -15.1880 C   0  0  0  0  0
   48.0720   24.9310  -15.9580 O   0  0  0  0  0
   46.1500   22.5240  -14.1440 C   0  0  0  0  0
   45.4150   22.2690  -15.3490 O   0  0  0  0  0
   45.2290   22.3440  -12.9420 C   0  0  0  0  0
   48.7050   23.0460  -15.2600 O   0  0  0  0  0
   33.2402   33.2103   -5.2194 H   0  0  0  0  0
   33.1644   32.9341   -6.9769 H   0  0  0  0  0
   31.6732   32.8953   -6.0044 H   0  0  0  0  0
   30.9075   30.8769   -5.7475 H   0  0  0  0  0
   32.5611   28.9203   -4.4321 H   0  0  0  0  0
   30.5767   27.4064   -4.8415 H   0  0  0  0  0
   29.8313   28.7782   -5.7510 H   0  0  0  0  0
   30.2688   30.1254   -3.6206 H   0  0  0  0  0
   30.4307   28.4983   -2.8298 H   0  0  0  0  0
   27.0287   28.1827   -2.3537 H   0  0  0  0  0
   28.6858   27.8211   -1.8593 H   0  0  0  0  0
   31.9334   29.5234   -7.8021 H   0  0  0  0  0
   33.1988   26.9697   -8.4826 H   0  0  0  0  0
   32.6820   27.5438  -10.8627 H   0  0  0  0  0
   31.6039   29.5831  -11.2429 H   0  0  0  0  0
   30.8983   26.5375   -9.5210 H   0  0  0  0  0
   30.3647   28.1560   -9.0043 H   0  0  0  0  0
   30.2351   27.6799  -10.7153 H   0  0  0  0  0
   34.4492   29.8419   -7.5525 H   0  0  0  0  0
   36.3751   30.5859   -9.4126 H   0  0  0  0  0
   36.1522   31.6601   -7.2248 H   0  0  0  0  0
   36.7893   30.2006   -6.4278 H   0  0  0  0  0
   37.8396   31.1610   -7.4982 H   0  0  0  0  0
   38.0335   29.6390  -10.4616 H   0  0  0  0  0
   39.3750   27.3949   -9.0868 H   0  0  0  0  0
   39.3582   26.0514  -11.1907 H   0  0  0  0  0
   38.1621   27.2716  -11.8593 H   0  0  0  0  0
   36.5322   26.6032  -10.3318 H   0  0  0  0  0
   37.7064   25.6091   -9.4015 H   0  0  0  0  0
   36.9633   25.0983  -12.2833 H   0  0  0  0  0
   36.1623   24.3060  -10.8705 H   0  0  0  0  0
   38.8061   23.7388  -11.9845 H   0  0  0  0  0
   37.5100   22.1481   -8.4912 H   0  0  0  0  0
   36.6541   23.5247   -9.1937 H   0  0  0  0  0
   39.8990   21.9711  -11.0827 H   0  0  0  0  0
   46.7102   31.5718   -3.7256 H   0  0  0  0  0
   47.1116   30.0949   -2.8153 H   0  0  0  0  0
   47.8198   30.3680   -4.4261 H   0  0  0  0  0
   46.8967   29.1318   -6.0521 H   0  0  0  0  0
   44.0101   29.0287   -6.2013 H   0  0  0  0  0
   44.8508   27.4329   -5.8485 H   0  0  0  0  0
   45.6901   27.2849   -7.9460 H   0  0  0  0  0
   45.6736   29.0542   -8.2046 H   0  0  0  0  0
   43.2701   29.0425   -8.4472 H   0  0  0  0  0
   43.1986   27.3108   -8.0298 H   0  0  0  0  0
   44.1873   26.6535   -9.9926 H   0  0  0  0  0
   44.8551   28.3376  -10.3058 H   0  0  0  0  0
   42.7342   29.0982  -11.0690 H   0  0  0  0  0
   41.4412   26.8498   -9.7834 H   0  0  0  0  0
   44.1750   28.7554  -12.9071 H   0  0  0  0  0
   43.6486   26.4403  -14.5815 H   0  0  0  0  0
   45.6438   28.7253  -14.8224 H   0  0  0  0  0
   44.0623   28.5663  -15.6518 H   0  0  0  0  0
   45.8436   27.9733  -16.9969 H   0  0  0  0  0
   45.0312   24.7677  -15.2214 H   0  0  0  0  0
   47.1282   24.2396  -13.2028 H   0  0  0  0  0
   47.3898   25.5895  -15.8075 H   0  0  0  0  0
   46.9765   21.8186  -14.0577 H   0  0  0  0  0
   45.0532   21.3802  -15.3198 H   0  0  0  0  0
   45.7925   22.5166  -12.0251 H   0  0  0  0  0
   44.4077   23.0578  -13.0051 H   0  0  0  0  0
   44.8308   21.3293  -12.9397 H   0  0  0  0  0
  2  1  1  0  0  0
  2  3  2  0  0  0
  4  2  1  0  0  0
  5  4  1  0  0  0
  6  5  1  0  0  0
  5  8  1  0  0  0
  6  7  2  0  0  0
 13  6  1  0  0  0
  8  9  1  0  0  0
  9 10  1  0  0  0
 10 11  2  0  0  0
 10 12  1  0  0  0
 14 13  1  0  0  0
 15 14  1  0  0  0
 14 17  1  0  0  0
 15 16  2  0  0  0
 20 15  1  0  0  0
 17 18  1  0  0  0
 17 19  1  0  0  0
 21 20  1  0  0  0
 22 21  1  0  0  0
 21 24  1  0  0  0
 22 23  2  0  0  0
 25 22  1  0  0  0
 26 25  1  0  0  0
 27 26  1  0  0  0
 26 29  1  0  0  0
 27 28  2  0  0  0
 45 27  1  0  0  0
 29 30  1  0  0  0
 30 31  1  0  0  0
 31 32  1  0  0  0
 32 33  1  0  0  0
 33 34  1  0  0  0
 33 35  2  0  0  0
 37 36  2  0  0  0
 37 38  1  0  0  0
 39 37  1  0  0  0
 40 39  1  0  0  0
 41 40  1  0  0  0
 42 41  1  0  0  0
 43 42  1  0  0  0
 44 43  1  0  0  0
 44 45  1  0  0  0
 44 46  1  0  0  0
 46 47  2  0  0  0
 46 48  1  0  0  0
 48 49  1  0  0  0
 49 50  1  0  0  0
 49 52  1  0  0  0
 50 51  2  0  0  0
 50 54  1  0  0  0
 52 53  1  0  0  0
 54 55  1  0  0  0
 55 56  1  0  0  0
 55 58  1  0  0  0
 56 57  1  0  0  0
 56 61  2  0  0  0
 58 59  1  0  0  0
 58 60  1  0  0  0
  1 62  1  0  0  0
  1 63  1  0  0  0
  1 64  1  0  0  0
  4 65  1  0  0  0
  5 66  1  0  0  0
  8 67  1  0  0  0
  8 68  1  0  0  0
  9 69  1  0  0  0
  9 70  1  0  0  0
 12 71  1  0  0  0
 12 72  1  0  0  0
 13 73  1  0  0  0
 14 74  1  0  0  0
 17 75  1  0  0  0
 18 76  1  0  0  0
 19 77  1  0  0  0
 19 78  1  0  0  0
 19 79  1  0  0  0
 20 80  1  0  0  0
 21 81  1  0  0  0
 24 82  1  0  0  0
 24 83  1  0  0  0
 24 84  1  0  0  0
 25 85  1  0  0  0
 26 86  1  0  0  0
 29 87  1  0  0  0
 29 88  1  0  0  0
 30 89  1  0  0  0
 30 90  1  0  0  0
 31 91  1  0  0  0
 31 92  1  0  0  0
 32 93  1  0  0  0
 34 94  1  0  0  0
 34 95  1  0  0  0
 35 96  1  0  0  0
 38 97  1  0  0  0
 38 98  1  0  0  0
 38 99  1  0  0  0
 39100  1  0  0  0
 40101  1  0  0  0
 40102  1  0  0  0
 41103  1  0  0  0
 41104  1  0  0  0
 42105  1  0  0  0
 42106  1  0  0  0
 43107  1  0  0  0
 43108  1  0  0  0
 44109  1  0  0  0
 45110  1  0  0  0
 48111  1  0  0  0
 49112  1  0  0  0
 52113  1  0  0  0
 52114  1  0  0  0
 53115  1  0  0  0
 54116  1  0  0  0
 55117  1  0  0  0
 57118  1  0  0  0
 58119  1  0  0  0
 59120  1  0  0  0
 60121  1  0  0  0
 60122  1  0  0  0
 60123  1  0  0  0
M  END
$$$$
