5v3r_ligand
  -I-interpret- 

203204  0  0  0  0  0  0  0  0999 V2000
   37.9830   44.5180    0.3530 N   0  3  0  0  0
   37.7870   44.1720    1.7560 C   0  0  0  0  0
   36.3900   44.5530    2.2300 C   0  0  0  0  0
   35.6700   43.7300    2.7960 O   0  0  0  0  0
   38.8380   44.8560    2.6320 C   0  0  0  0  0
   40.2570   44.3560    2.4100 C   0  0  0  0  0
   41.2390   44.9250    3.4180 C   0  0  0  0  0
   41.1380   46.1280    3.7410 O   0  0  0  0  0
   42.1080   44.1650    3.8930 O   0  0  0  0  0
   36.0170   45.8140    2.0080 N   0  0  0  0  0
   34.6640   46.2460    2.3400 C   0  0  0  0  0
   33.6350   45.4630    1.5330 C   0  0  0  0  0
   32.6750   44.9210    2.0900 O   0  0  0  0  0
   34.5220   47.7520    2.1030 C   0  0  0  0  0
   33.2110   48.3130    2.6380 C   0  0  0  0  0
   32.5960   47.6740    3.5180 O   0  0  0  0  0
   32.7990   49.4010    2.1810 O   0  0  0  0  0
   33.8370   45.3640    0.2160 N   0  0  0  0  0
   32.8620   44.6720   -0.6220 C   0  0  0  0  0
   32.8660   43.1680   -0.3830 C   0  0  0  0  0
   31.8310   42.5100   -0.5530 O   0  0  0  0  0
   33.1180   44.9640   -2.0990 C   0  0  0  0  0
   32.1980   44.1720   -3.0090 C   0  0  0  0  0
   32.5620   43.0280   -3.3610 O   0  0  0  0  0
   31.1030   44.6790   -3.3480 O   0  0  0  0  0
   34.0080   42.6080    0.0130 N   0  0  0  0  0
   34.0890   41.1670    0.2090 C   0  0  0  0  0
   33.2190   40.7040    1.3750 C   0  0  0  0  0
   32.6380   39.6150    1.3140 O   0  0  0  0  0
   35.5510   40.7520    0.4040 C   0  0  0  0  0
   36.4380   41.1850   -0.7660 C   0  0  0  0  0
   36.0250   41.0090   -1.9350 O   0  0  0  0  0
   37.5460   41.7090   -0.5170 O   0  0  0  0  0
   33.1040   41.5120    2.4350 N   0  0  0  0  0
   32.1940   41.1690    3.5220 C   0  0  0  0  0
   30.7660   41.5840    3.2070 C   0  0  0  0  0
   29.8270   41.0490    3.8110 O   0  0  0  0  0
   32.6200   41.7980    4.8610 C   0  0  0  0  0
   32.2670   43.2860    4.9100 C   0  0  0  0  0
   34.1100   41.5940    5.0970 C   0  0  0  0  0
   32.6110   43.9430    6.2370 C   0  0  0  0  0
   30.5700   42.5280    2.2860 N   0  0  0  0  0
   29.2270   42.7650    1.7760 C   0  0  0  0  0
   28.6780   41.4950    1.1360 C   0  0  0  0  0
   27.5320   41.1070    1.3880 O   0  0  0  0  0
   29.2210   43.9390    0.7920 C   0  0  0  0  0
   29.3980   45.3100    1.4530 C   0  0  0  0  0
   29.2910   46.4570    0.4510 C   0  0  0  0  0
   29.7020   47.7920    1.0750 C   0  0  0  0  0
   29.8040   48.8950    0.0670 N   0  3  0  0  0
   29.4670   40.8050    0.3420 N   0  0  0  0  0
   28.9680   39.5940   -0.2840 C   0  0  0  0  0
   28.7180   38.5010    0.7080 C   0  0  0  0  0
   27.8110   37.7300    0.5590 O   0  0  0  0  0
   29.9090   39.0860   -1.3560 C   0  0  0  0  0
   30.0370   40.0270   -2.5440 C   0  0  0  0  0
   28.7060   40.5110   -3.0590 C   0  0  0  0  0
   28.3250   41.6610   -2.8420 O   0  0  0  0  0
   27.9890   39.6360   -3.7480 N   0  0  0  0  0
   29.5540   38.4260    1.7240 N   0  0  0  0  0
   29.4060   37.4380    2.7600 C   0  0  0  0  0
   28.0940   37.6620    3.4460 C   0  0  0  0  0
   27.3470   36.7550    3.6480 O   0  0  0  0  0
   30.5160   37.6120    3.7680 C   0  0  0  0  0
   31.0680   36.4230    4.4900 C   0  0  0  0  0
   31.0570   35.2210    3.6020 C   0  0  0  0  0
   32.4760   36.7520    4.9040 C   0  0  0  0  0
   27.8220   38.8910    3.8020 N   0  0  0  0  0
   26.5910   39.2100    4.4590 C   0  0  0  0  0
   25.4160   38.8760    3.5720 C   0  0  0  0  0
   24.4420   38.3140    4.0160 O   0  0  0  0  0
   26.5640   40.6650    4.8310 C   0  0  0  0  0
   25.5130   39.2170    2.3020 N   0  0  0  0  0
   24.4350   38.9440    1.3890 C   0  0  0  0  0
   24.1900   37.4680    1.2110 C   0  0  0  0  0
   23.0960   37.0910    0.9260 O   0  0  0  0  0
   24.6750   39.6240    0.0560 C   0  0  0  0  0
   25.1930   36.6310    1.4100 N   0  0  0  0  0
   25.0380   35.1880    1.2720 C   0  0  0  0  0
   24.1800   34.5700    2.3510 C   0  0  0  0  0
   23.6300   33.5160    2.1620 O   0  0  0  0  0
   26.4040   34.5310    1.3080 C   0  0  0  0  0
   26.4650   33.0870    1.6790 C   0  0  0  0  0
   26.4030   32.0440    0.8390 C   0  0  0  0  0
   26.6770   32.5310    2.9760 C   0  0  0  0  0
   26.5390   30.8730    1.5110 N   0  0  0  0  0
   26.7040   31.1490    2.8330 C   0  0  0  0  0
   26.8400   33.0710    4.2440 C   0  0  0  0  0
   26.8820   30.3070    3.8950 C   0  0  0  0  0
   27.0110   32.2370    5.2820 C   0  0  0  0  0
   27.0320   30.8680    5.1100 C   0  0  0  0  0
   24.1580   35.2310    3.4880 N   0  0  0  0  0
   23.4820   34.7430    4.6640 C   0  0  0  0  0
   22.0170   34.9660    4.6370 C   0  0  0  0  0
   21.2870   34.2470    5.2710 O   0  0  0  0  0
   24.0770   35.3830    5.8990 C   0  0  0  0  0
   21.5790   35.9670    3.9110 N   0  0  0  0  0
   20.1620   36.2250    3.8470 C   0  0  0  0  0
   19.4430   35.2140    2.9580 C   0  0  0  0  0
   20.1130   34.2690    2.4380 O   0  0  0  0  0
   19.8940   37.6390    3.3700 C   0  0  0  0  0
   20.8790   38.4960    3.9400 O   0  0  0  0  0
   18.5310   38.0900    3.8410 C   0  0  0  0  0
   18.1970   35.3840    2.8110 O   0  0  0  0  0
   37.2734   44.0527   -0.2130 H   0  0  0  0  0
   37.9021   45.5283    0.2387 H   0  0  0  0  0
   38.9101   44.2142    0.0554 H   0  0  0  0  0
   37.8973   43.0914    1.8466 H   0  0  0  0  0
   38.5805   44.6418    3.6693 H   0  0  0  0  0
   38.8274   45.9160    2.3781 H   0  0  0  0  0
   40.5735   44.6734    1.4164 H   0  0  0  0  0
   40.2523   43.2716    2.5206 H   0  0  0  0  0
   40.4085   46.5269    3.2611 H   0  0  0  0  0
   36.6789   46.4774    1.6054 H   0  0  0  0  0
   34.4791   46.0450    3.3952 H   0  0  0  0  0
   34.5441   47.9240    1.0269 H   0  0  0  0  0
   35.3371   48.2506    2.6275 H   0  0  0  0  0
   33.4154   49.7227    1.5190 H   0  0  0  0  0
   34.6723   45.7718   -0.2040 H   0  0  0  0  0
   31.8782   45.0505   -0.3447 H   0  0  0  0  0
   34.1456   44.6810   -2.3270 H   0  0  0  0  0
   32.9341   46.0244   -2.2714 H   0  0  0  0  0
   31.0277   45.5579   -2.9692 H   0  0  0  0  0
   34.8286   43.1904    0.1796 H   0  0  0  0  0
   33.7010   40.6769   -0.6839 H   0  0  0  0  0
   35.5879   39.6648    0.4724 H   0  0  0  0  0
   35.9225   41.2357    1.3074 H   0  0  0  0  0
   35.1590   40.5955   -1.9084 H   0  0  0  0  0
   33.6539   42.3697    2.4831 H   0  0  0  0  0
   32.2399   40.0844    3.6199 H   0  0  0  0  0
   32.0701   41.2965    5.6574 H   0  0  0  0  0
   31.1897   43.3735    4.7689 H   0  0  0  0  0
   32.8461   43.7874    4.1346 H   0  0  0  0  0
   34.3300   40.5267    5.1210 H   0  0  0  0  0
   34.6721   42.0640    4.2900 H   0  0  0  0  0
   34.3911   42.0457    6.0483 H   0  0  0  0  0
   32.0625   43.4486    7.0387 H   0  0  0  0  0
   33.6820   43.8532    6.4186 H   0  0  0  0  0
   32.3343   44.9967    6.2018 H   0  0  0  0  0
   31.3553   43.0802    1.9412 H   0  0  0  0  0
   28.5750   43.0330    2.6074 H   0  0  0  0  0
   28.2489   43.9417    0.2990 H   0  0  0  0  0
   30.0630   43.7964    0.1146 H   0  0  0  0  0
   30.3919   45.3436    1.8993 H   0  0  0  0  0
   28.6064   45.4329    2.1922 H   0  0  0  0  0
   28.2534   46.5342    0.1262 H   0  0  0  0  0
   29.9594   46.2475   -0.3841 H   0  0  0  0  0
   30.6848   47.6610    1.5279 H   0  0  0  0  0
   28.9378   48.0714    1.8003 H   0  0  0  0  0
   30.0799   49.7579    0.5357 H   0  0  0  0  0
   30.5026   48.6494   -0.6345 H   0  0  0  0  0
   28.8988   49.0263   -0.3844 H   0  0  0  0  0
   30.4219   41.1181    0.1674 H   0  0  0  0  0
   28.0185   39.8693   -0.7430 H   0  0  0  0  0
   29.5065   38.1430   -1.7261 H   0  0  0  0  0
   30.8971   38.9889   -0.9062 H   0  0  0  0  0
   30.5253   39.4792   -3.3500 H   0  0  0  0  0
   30.6032   40.8991   -2.2169 H   0  0  0  0  0
   27.0798   39.9050   -4.1239 H   0  0  0  0  0
   28.3461   38.6931   -3.9026 H   0  0  0  0  0
   30.3286   39.0875    1.7777 H   0  0  0  0  0
   29.4460   36.4362    2.3324 H   0  0  0  0  0
   30.0757   38.2263    4.5534 H   0  0  0  0  0
   31.3558   37.9894    3.1846 H   0  0  0  0  0
   30.4575   36.1952    5.3638 H   0  0  0  0  0
   30.0332   35.0065    3.2957 H   0  0  0  0  0
   31.6679   35.4163    2.7207 H   0  0  0  0  0
   31.4619   34.3665    4.1443 H   0  0  0  0  0
   33.0727   36.9686    4.0179 H   0  0  0  0  0
   32.4666   37.6231    5.5591 H   0  0  0  0  0
   32.9056   35.9019    5.4339 H   0  0  0  0  0
   28.4960   39.6318    3.6089 H   0  0  0  0  0
   26.5185   38.6131    5.3681 H   0  0  0  0  0
   27.3945   40.8825    5.5026 H   0  0  0  0  0
   26.6557   41.2709    3.9296 H   0  0  0  0  0
   25.6222   40.8937    5.3299 H   0  0  0  0  0
   26.3582   39.6776    1.9644 H   0  0  0  0  0
   23.5290   39.3589    1.8306 H   0  0  0  0  0
   24.7451   40.7013    0.2065 H   0  0  0  0  0
   25.6050   39.2550   -0.3764 H   0  0  0  0  0
   23.8469   39.4030   -0.6174 H   0  0  0  0  0
   26.1053   37.0068    1.6686 H   0  0  0  0  0
   24.5355   35.0194    0.3196 H   0  0  0  0  0
   26.9618   35.0566    2.0830 H   0  0  0  0  0
   26.7837   34.5879    0.2878 H   0  0  0  0  0
   26.2623   32.1256   -0.2388 H   0  0  0  0  0
   26.8294   34.1506    4.3941 H   0  0  0  0  0
   26.9017   29.2251    3.7637 H   0  0  0  0  0
   27.1360   32.6504    6.2828 H   0  0  0  0  0
   27.1734   30.2251    5.9787 H   0  0  0  0  0
   24.6404   36.1282    3.5399 H   0  0  0  0  0
   23.6314   33.6635    4.6849 H   0  0  0  0  0
   25.1362   35.1335    5.9615 H   0  0  0  0  0
   23.9603   36.4650    5.8381 H   0  0  0  0  0
   23.5617   35.0100    6.7841 H   0  0  0  0  0
   22.2340   36.5565    3.3973 H   0  0  0  0  0
   19.7654   36.1170    4.8565 H   0  0  0  0  0
   21.0344   34.3530    2.6939 H   0  0  0  0  0
   19.9300   37.6736    2.2811 H   0  0  0  0  0
   20.7247   39.3975    3.6483 H   0  0  0  0  0
   17.7694   37.4229    3.4372 H   0  0  0  0  0
   18.4976   38.0646    4.9302 H   0  0  0  0  0
   18.3462   39.1067    3.4942 H   0  0  0  0  0
  1  2  1  0  0  0
  2  3  1  0  0  0
  2  5  1  0  0  0
  3  4  2  0  0  0
  3 10  1  0  0  0
  5  6  1  0  0  0
  6  7  1  0  0  0
  7  8  1  0  0  0
  7  9  2  0  0  0
 10 11  1  0  0  0
 11 12  1  0  0  0
 11 14  1  0  0  0
 12 13  2  0  0  0
 12 18  1  0  0  0
 14 15  1  0  0  0
 15 16  2  0  0  0
 15 17  1  0  0  0
 18 19  1  0  0  0
 19 20  1  0  0  0
 19 22  1  0  0  0
 20 21  2  0  0  0
 20 26  1  0  0  0
 22 23  1  0  0  0
 23 24  2  0  0  0
 23 25  1  0  0  0
 26 27  1  0  0  0
 27 28  1  0  0  0
 27 30  1  0  0  0
 28 29  2  0  0  0
 28 34  1  0  0  0
 30 31  1  0  0  0
 31 32  1  0  0  0
 31 33  2  0  0  0
 34 35  1  0  0  0
 35 36  1  0  0  0
 35 38  1  0  0  0
 36 37  2  0  0  0
 36 42  1  0  0  0
 38 39  1  0  0  0
 38 40  1  0  0  0
 39 41  1  0  0  0
 42 43  1  0  0  0
 43 44  1  0  0  0
 43 46  1  0  0  0
 44 45  2  0  0  0
 44 51  1  0  0  0
 46 47  1  0  0  0
 47 48  1  0  0  0
 48 49  1  0  0  0
 49 50  1  0  0  0
 51 52  1  0  0  0
 52 53  1  0  0  0
 52 55  1  0  0  0
 53 54  2  0  0  0
 53 60  1  0  0  0
 55 56  1  0  0  0
 56 57  1  0  0  0
 57 58  2  0  0  0
 57 59  1  0  0  0
 60 61  1  0  0  0
 61 62  1  0  0  0
 61 64  1  0  0  0
 62 63  2  0  0  0
 62 68  1  0  0  0
 64 65  1  0  0  0
 65 66  1  0  0  0
 65 67  1  0  0  0
 68 69  1  0  0  0
 69 70  1  0  0  0
 69 72  1  0  0  0
 70 71  2  0  0  0
 70 73  1  0  0  0
 73 74  1  0  0  0
 74 75  1  0  0  0
 74 77  1  0  0  0
 75 76  2  0  0  0
 75 78  1  0  0  0
 78 79  1  0  0  0
 79 80  1  0  0  0
 79 82  1  0  0  0
 80 81  2  0  0  0
 80 92  1  0  0  0
 82 83  1  0  0  0
 83 84  4  0  0  0
 83 85  4  0  0  0
 84 86  4  0  0  0
 85 87  4  0  0  0
 85 88  4  0  0  0
 86 87  4  0  0  0
 87 89  4  0  0  0
 88 90  4  0  0  0
 89 91  4  0  0  0
 90 91  4  0  0  0
 92 93  1  0  0  0
 93 94  1  0  0  0
 93 96  1  0  0  0
 94 95  2  0  0  0
 94 97  1  0  0  0
 97 98  1  0  0  0
 98 99  1  0  0  0
 98101  1  0  0  0
 99100  1  0  0  0
 99104  2  0  0  0
101102  1  0  0  0
101103  1  0  0  0
  1105  1  0  0  0
  1106  1  0  0  0
  1107  1  0  0  0
  2108  1  0  0  0
  5109  1  0  0  0
  5110  1  0  0  0
  6111  1  0  0  0
  6112  1  0  0  0
  8113  1  0  0  0
 10114  1  0  0  0
 11115  1  0  0  0
 14116  1  0  0  0
 14117  1  0  0  0
 17118  1  0  0  0
 18119  1  0  0  0
 19120  1  0  0  0
 22121  1  0  0  0
 22122  1  0  0  0
 25123  1  0  0  0
 26124  1  0  0  0
 27125  1  0  0  0
 30126  1  0  0  0
 30127  1  0  0  0
 32128  1  0  0  0
 34129  1  0  0  0
 35130  1  0  0  0
 38131  1  0  0  0
 39132  1  0  0  0
 39133  1  0  0  0
 40134  1  0  0  0
 40135  1  0  0  0
 40136  1  0  0  0
 41137  1  0  0  0
 41138  1  0  0  0
 41139  1  0  0  0
 42140  1  0  0  0
 43141  1  0  0  0
 46142  1  0  0  0
 46143  1  0  0  0
 47144  1  0  0  0
 47145  1  0  0  0
 48146  1  0  0  0
 48147  1  0  0  0
 49148  1  0  0  0
 49149  1  0  0  0
 50150  1  0  0  0
 50151  1  0  0  0
 50152  1  0  0  0
 51153  1  0  0  0
 52154  1  0  0  0
 55155  1  0  0  0
 55156  1  0  0  0
 56157  1  0  0  0
 56158  1  0  0  0
 59159  1  0  0  0
 59160  1  0  0  0
 60161  1  0  0  0
 61162  1  0  0  0
 64163  1  0  0  0
 64164  1  0  0  0
 65165  1  0  0  0
 66166  1  0  0  0
 66167  1  0  0  0
 66168  1  0  0  0
 67169  1  0  0  0
 67170  1  0  0  0
 67171  1  0  0  0
 68172  1  0  0  0
 69173  1  0  0  0
 72174  1  0  0  0
 72175  1  0  0  0
 72176  1  0  0  0
 73177  1  0  0  0
 74178  1  0  0  0
 77179  1  0  0  0
 77180  1  0  0  0
 77181  1  0  0  0
 78182  1  0  0  0
 79183  1  0  0  0
 82184  1  0  0  0
 82185  1  0  0  0
 84186  1  0  0  0
 88187  1  0  0  0
 89188  1  0  0  0
 90189  1  0  0  0
 91190  1  0  0  0
 92191  1  0  0  0
 93192  1  0  0  0
 96193  1  0  0  0
 96194  1  0  0  0
 96195  1  0  0  0
 97196  1  0  0  0
 98197  1  0  0  0
100198  1  0  0  0
101199  1  0  0  0
102200  1  0  0  0
103201  1  0  0  0
103202  1  0  0  0
103203  1  0  0  0
M  END
$$$$
