### 
### Created by X-TOOL on Wed Jan  1 15:39:36 2020
### 

@<TRIPOS>MOLECULE
5v3r_ligand
  199   200     1     0     0
SMALL
GAST_HUCK


@<TRIPOS>ATOM
      1 N          37.9830   44.5180    0.3530 N.4       1 GLU         0.2380
      2 CA         37.7870   44.1720    1.7560 C.3       1 GLU         0.0665
      3 C          36.3900   44.5530    2.2300 C.2       1 GLU         0.2269
      4 O          35.6700   43.7300    2.7960 O.2       1 GLU        -0.3907
      5 CB         38.8380   44.8560    2.6320 C.3       1 GLU         0.0194
      6 CG         40.2570   44.3560    2.4100 C.3       1 GLU         0.0075
      7 CD         41.2390   44.9250    3.4180 C.2       1 GLU         0.0351
      8 OE1        41.1380   46.1280    3.7410 O.co2     1 GLU        -0.5690
      9 OE2        42.1080   44.1650    3.8930 O.co2     1 GLU        -0.5690
     10 N          36.0170   45.8140    2.0080 N.am      1 ASP        -0.2595
     11 CA         34.6640   46.2460    2.3400 C.3       1 ASP         0.1424
     12 C          33.6350   45.4630    1.5330 C.2       1 ASP         0.2057
     13 O          32.6750   44.9210    2.0900 O.2       1 ASP        -0.3943
     14 CB         34.5220   47.7520    2.1030 C.3       1 ASP         0.0406
     15 CG         33.2110   48.3130    2.6380 C.2       1 ASP         0.0393
     16 OD1        32.5960   47.6740    3.5180 O.co2     1 ASP        -0.5688
     17 OD2        32.7990   49.4010    2.1810 O.co2     1 ASP        -0.5688
     18 N          33.8370   45.3640    0.2160 N.am      1 ASP        -0.2621
     19 CA         32.8620   44.6720   -0.6220 C.3       1 ASP         0.1423
     20 C          32.8660   43.1680   -0.3830 C.2       1 ASP         0.2057
     21 O          31.8310   42.5100   -0.5530 O.2       1 ASP        -0.3943
     22 CB         33.1180   44.9640   -2.0990 C.3       1 ASP         0.0406
     23 CG         32.1980   44.1720   -3.0090 C.2       1 ASP         0.0393
     24 OD1        32.5620   43.0280   -3.3610 O.co2     1 ASP        -0.5688
     25 OD2        31.1030   44.6790   -3.3480 O.co2     1 ASP        -0.5688
     26 N          34.0080   42.6080    0.0130 N.am      1 ASP        -0.2621
     27 CA         34.0890   41.1670    0.2090 C.3       1 ASP         0.1423
     28 C          33.2190   40.7040    1.3750 C.2       1 ASP         0.2056
     29 O          32.6380   39.6150    1.3140 O.2       1 ASP        -0.3943
     30 CB         35.5510   40.7520    0.4040 C.3       1 ASP         0.0406
     31 CG         36.4380   41.1850   -0.7660 C.2       1 ASP         0.0393
     32 OD1        36.0250   41.0090   -1.9350 O.co2     1 ASP        -0.5688
     33 OD2        37.5460   41.7090   -0.5170 O.co2     1 ASP        -0.5688
     34 N          33.1040   41.5120    2.4350 N.am      1 ILE        -0.2634
     35 CA         32.1940   41.1690    3.5220 C.3       1 ILE         0.1335
     36 C          30.7660   41.5840    3.2070 C.2       1 ILE         0.2042
     37 O          29.8270   41.0490    3.8110 O.2       1 ILE        -0.3944
     38 CB         32.6200   41.7980    4.8610 C.3       1 ILE        -0.0037
     39 CG1        32.2670   43.2860    4.9100 C.3       1 ILE        -0.0491
     40 CG2        34.1100   41.5940    5.0970 C.3       1 ILE        -0.0582
     41 CD1        32.6110   43.9430    6.2370 C.3       1 ILE        -0.0648
     42 N          30.5700   42.5280    2.2860 N.am      1 LYS        -0.2637
     43 CA         29.2270   42.7650    1.7760 C.3       1 LYS         0.1310
     44 C          28.6780   41.4950    1.1360 C.2       1 LYS         0.2039
     45 O          27.5320   41.1070    1.3880 O.2       1 LYS        -0.3944
     46 CB         29.2210   43.9390    0.7920 C.3       1 LYS        -0.0122
     47 CG         29.3980   45.3100    1.4530 C.3       1 LYS        -0.0440
     48 CD         29.2910   46.4570    0.4510 C.3       1 LYS        -0.0124
     49 CE         29.7020   47.7920    1.0750 C.3       1 LYS        -0.0354
     50 NZ         29.8040   48.8950    0.0670 N.4       1 LYS         0.2185
     51 N          29.4670   40.8050    0.3420 N.am      1 GLN        -0.2636
     52 CA         28.9680   39.5940   -0.2840 C.3       1 GLN         0.1330
     53 C          28.7180   38.5010    0.7080 C.2       1 GLN         0.2040
     54 O          27.8110   37.7300    0.5590 O.2       1 GLN        -0.3944
     55 CB         29.9090   39.0860   -1.3560 C.3       1 GLN         0.0045
     56 CG         30.0370   40.0270   -2.5440 C.3       1 GLN         0.0412
     57 CD         28.7060   40.5110   -3.0590 C.2       1 GLN         0.1737
     58 OE1        28.3250   41.6610   -2.8420 O.2       1 GLN        -0.3973
     59 NE2        27.9890   39.6360   -3.7480 N.am      1 GLN        -0.3009
     60 N          29.5540   38.4260    1.7240 N.am      1 LEU        -0.2637
     61 CA         29.4060   37.4380    2.7600 C.3       1 LEU         0.1312
     62 C          28.0940   37.6620    3.4460 C.2       1 LEU         0.2039
     63 O          27.3470   36.7550    3.6480 O.2       1 LEU        -0.3944
     64 CB         30.5160   37.6120    3.7680 C.3       1 LEU        -0.0101
     65 CG         31.0680   36.4230    4.4900 C.3       1 LEU        -0.0425
     66 CD1        31.0570   35.2210    3.6020 C.3       1 LEU        -0.0625
     67 CD2        32.4760   36.7520    4.9040 C.3       1 LEU        -0.0625
     68 N          27.8220   38.8910    3.8020 N.am      1 ALA        -0.2640
     69 CA         26.5910   39.2100    4.4590 C.3       1 ALA         0.1282
     70 C          25.4160   38.8760    3.5720 C.2       1 ALA         0.2036
     71 O          24.4420   38.3140    4.0160 O.2       1 ALA        -0.3944
     72 CB         26.5640   40.6650    4.8310 C.3       1 ALA        -0.0244
     73 N          25.5130   39.2170    2.3020 N.am      1 ALA        -0.2640
     74 CA         24.4350   38.9440    1.3890 C.3       1 ALA         0.1282
     75 C          24.1900   37.4680    1.2110 C.2       1 ALA         0.2037
     76 O          23.0960   37.0910    0.9260 O.2       1 ALA        -0.3944
     77 CB         24.6750   39.6240    0.0560 C.3       1 ALA        -0.0244
     78 N          25.1930   36.6310    1.4100 N.am      1 TRP        -0.2627
     79 CA         25.0380   35.1880    1.2720 C.3       1 TRP         0.1352
     80 C          24.1800   34.5700    2.3510 C.2       1 TRP         0.2052
     81 O          23.6300   33.5160    2.1620 O.2       1 TRP        -0.3942
     82 CB         26.4040   34.5310    1.3080 C.3       1 TRP         0.0042
     83 CG         26.4650   33.0870    1.6790 C.2       1 TRP        -0.0418
     84 CD1        26.4030   32.0440    0.8390 C.2       1 TRP         0.0167
     85 CD2        26.6770   32.5310    2.9760 C.ar      1 TRP        -0.0214
     86 NE1        26.5390   30.8730    1.5110 N.pl3     1 TRP        -0.2890
     87 CE2        26.7040   31.1490    2.8330 C.ar      1 TRP         0.0603
     88 CE3        26.8400   33.0710    4.2440 C.ar      1 TRP        -0.0747
     89 CZ2        26.8820   30.3070    3.8950 C.ar      1 TRP        -0.0443
     90 CZ3        27.0110   32.2370    5.2820 C.ar      1 TRP        -0.0792
     91 CH2        27.0320   30.8680    5.1100 C.ar      1 TRP        -0.0768
     92 N          24.1580   35.2310    3.4880 N.am      1 ALA        -0.2639
     93 CA         23.4820   34.7430    4.6640 C.3       1 ALA         0.1282
     94 C          22.0170   34.9660    4.6370 C.2       1 ALA         0.2031
     95 O          21.2870   34.2470    5.2710 O.2       1 ALA        -0.3944
     96 CB         24.0770   35.3830    5.8990 C.3       1 ALA        -0.0244
     97 N          21.5790   35.9670    3.9110 N.am      1 THR        -0.2670
     98 CA         20.1620   36.2250    3.8470 C.3       1 THR         0.1198
     99 C          19.4430   35.2140    2.9580 C.2       1 THR         0.0626
    100 O          20.1130   34.2690    2.4380 O.co2     1 THR        -0.5665
    101 CB         19.8940   37.6390    3.3700 C.3       1 THR         0.0869
    102 OG1        20.8790   38.4960    3.9400 O.3       1 THR        -0.3880
    103 CG2        18.5310   38.0900    3.8410 C.3       1 THR        -0.0352
    104 OXT        18.1970   35.3840    2.8110 O.co2     1 THR        -0.5665
    105 H1         38.9136   44.2547    0.0689 H         1 GLU         0.2015
    106 H2         37.8632   45.5115    0.2320 H         1 GLU         0.2015
    107 H3         37.3078   44.0269   -0.2117 H         1 GLU         0.2015
    108 H4         37.9024   43.0830    1.8601 H         1 GLU         0.1099
    109 H5         38.5730   44.6847    3.6858 H         1 GLU         0.0363
    110 H6         38.8153   45.9349    2.4189 H         1 GLU         0.0363
    111 H7         40.5798   44.6480    1.3998 H         1 GLU         0.0434
    112 H8         40.2616   43.2592    2.4937 H         1 GLU         0.0434
    113 H9         36.6660   46.4644    1.6133 H         1 ASP         0.1886
    114 H10        34.4876   46.0459    3.4072 H         1 ASP         0.0819
    115 H11        34.5705   47.9436    1.0209 H         1 ASP         0.0478
    116 H12        35.3550   48.2667    2.6043 H         1 ASP         0.0478
    117 H13        34.6559   45.7638   -0.1957 H         1 ASP         0.1884
    118 H14        31.8636   45.0543   -0.3630 H         1 ASP         0.0819
    119 H15        34.1601   44.7036   -2.3359 H         1 ASP         0.0478
    120 H16        32.9577   46.0370   -2.2807 H         1 ASP         0.0478
    121 H17        34.8125   43.1790    0.1763 H         1 ASP         0.1884
    122 H18        33.7141   40.6783   -0.7024 H         1 ASP         0.0819
    123 H19        35.5986   39.6570    0.4978 H         1 ASP         0.0478
    124 H20        35.9306   41.2159    1.3263 H         1 ASP         0.0478
    125 H21        33.6431   42.3529    2.4822 H         1 ILE         0.1883
    126 H22        32.2149   40.0754    3.6387 H         1 ILE         0.0803
    127 H23        32.0711   41.2897    5.6675 H         1 ILE         0.0345
    128 H24        31.1861   43.3942    4.7369 H         1 ILE         0.0267
    129 H25        32.8198   43.8023    4.1113 H         1 ILE         0.0267
    130 H26        34.3437   40.5198    5.0581 H         1 ILE         0.0235
    131 H27        34.3828   41.9930    6.0851 H         1 ILE         0.0235
    132 H28        34.6802   42.1217    4.3183 H         1 ILE         0.0235
    133 H29        32.3322   45.0065    6.2027 H         1 ILE         0.0230
    134 H30        33.6917   43.8531    6.4215 H         1 ILE         0.0230
    135 H31        32.0580   43.4449    7.0470 H         1 ILE         0.0230
    136 H32        31.3399   43.0693    1.9480 H         1 LYS         0.1883
    137 H33        28.5776   43.0289    2.6237 H         1 LYS         0.0800
    138 H34        28.2606   43.9355    0.2558 H         1 LYS         0.0312
    139 H35        30.0420   43.7928    0.0747 H         1 LYS         0.0312
    140 H36        30.3892   45.3477    1.9286 H         1 LYS         0.0269
    141 H37        28.6187   45.4362    2.2190 H         1 LYS         0.0269
    142 H38        28.2500   46.5312    0.1035 H         1 LYS         0.0317
    143 H39        29.9490   46.2457   -0.4047 H         1 LYS         0.0317
    144 H40        30.6814   47.6670    1.5599 H         1 LYS         0.0813
    145 H41        28.9525   48.0732    1.8295 H         1 LYS         0.0813
    146 H42        30.0766   49.7483    0.5292 H         1 LYS         0.1994
    147 H43        28.9099   49.0257   -0.3797 H         1 LYS         0.1994
    148 H44        30.4942   48.6534   -0.6268 H         1 LYS         0.1994
    149 H45        30.4032   41.1120    0.1708 H         1 GLN         0.1883
    150 H46        28.0092   39.8423   -0.7626 H         1 GLN         0.0801
    151 H47        29.5346   38.1170   -1.7178 H         1 GLN         0.0337
    152 H48        30.9052   38.9507   -0.9097 H         1 GLN         0.0337
    153 H49        30.5553   39.4969   -3.3566 H         1 GLN         0.0504
    154 H50        30.6323   40.8997   -2.2372 H         1 GLN         0.0504
    155 H51        27.0969   39.8993   -4.1153 H         1 GLN         0.1814
    156 H52        28.3397   38.7121   -3.9009 H         1 GLN         0.1814
    157 H53        30.3134   39.0745    1.7766 H         1 LEU         0.1883
    158 H54        29.4419   36.4270    2.3281 H         1 LEU         0.0800
    159 H55        30.1406   38.3034    4.5368 H         1 LEU         0.0315
    160 H56        31.3579   38.0782    3.2352 H         1 LEU         0.0315
    161 H57        30.4586   36.2171    5.3823 H         1 LEU         0.0298
    162 H58        31.4654   34.3579    4.1482 H         1 LEU         0.0232
    163 H59        31.6733   35.4168    2.7122 H         1 LEU         0.0232
    164 H60        30.0242   35.0034    3.2922 H         1 LEU         0.0232
    165 H61        32.4689   37.6376    5.5564 H         1 LEU         0.0232
    166 H62        33.0820   36.9602    4.0099 H         1 LEU         0.0232
    167 H63        32.9069   35.8989    5.4486 H         1 LEU         0.0232
    168 H64        28.4828   39.6173    3.6126 H         1 ALA         0.1883
    169 H65        26.5182   38.6104    5.3783 H         1 ALA         0.0797
    170 H66        25.6140   40.8971    5.3346 H         1 ALA         0.0277
    171 H67        26.6564   41.2776    3.9221 H         1 ALA         0.0277
    172 H68        27.4017   40.8858    5.5088 H         1 ALA         0.0277
    173 H69        26.3416   39.6685    1.9711 H         1 ALA         0.1883
    174 H70        23.5211   39.3762    1.8226 H         1 ALA         0.0797
    175 H71        23.8399   39.4017   -0.6246 H         1 ALA         0.0277
    176 H72        25.6134   39.2524   -0.3815 H         1 ALA         0.0277
    177 H73        24.7459   40.7113    0.2065 H         1 ALA         0.0277
    178 H74        26.0874   36.9994    1.6635 H         1 TRP         0.1884
    179 H75        24.5669   34.9860    0.2987 H         1 TRP         0.0815
    180 H76        27.0164   35.0840    2.0353 H         1 TRP         0.0397
    181 H77        26.8448   34.6323    0.3053 H         1 TRP         0.0397
    182 H78        26.2624   32.1256   -0.2378 H         1 TRP         0.0795
    183 H79        26.5204   29.9328    1.0907 H         1 TRP         0.2216
    184 H80        26.8295   34.1446    4.3933 H         1 TRP         0.0540
    185 H81        26.9016   29.2311    3.7644 H         1 TRP         0.0541
    186 H82        27.1353   32.6481    6.2773 H         1 TRP         0.0510
    187 H83        27.1727   30.2286    5.9740 H         1 TRP         0.0530
    188 H84        24.6310   36.1106    3.5388 H         1 ALA         0.1883
    189 H85        23.6525   33.6578    4.7202 H         1 ALA         0.0797
    190 H86        23.5578   35.0073    6.7930 H         1 ALA         0.0277
    191 H87        23.9598   36.4751    5.8388 H         1 ALA         0.0277
    192 H88        25.1460   35.1319    5.9633 H         1 ALA         0.0277
    193 H89        22.2211   36.5449    3.4073 H         1 THR         0.1876
    194 H90        19.7564   36.1268    4.8647 H         1 THR         0.0752
    195 H91        19.9432   37.6808    2.2719 H         1 THR         0.0632
    196 H92        20.7263   39.3881    3.6513 H         1 THR         0.2100
    197 H93        18.3433   39.1160    3.4916 H         1 THR         0.0256
    198 H94        18.4960   38.0649    4.9401 H         1 THR         0.0256
    199 H95        17.7614   37.4176    3.4341 H         1 THR         0.0256
@<TRIPOS>BOND
     1    1    2 1  
     2    2    3 1  
     3    2    5 1  
     4    3    4 2  
     5    3   10 am 
     6    5    6 1  
     7    6    7 1  
     8    7    8 ar 
     9    7    9 ar 
    10   10   11 1  
    11   11   12 1  
    12   11   14 1  
    13   12   13 2  
    14   12   18 am 
    15   14   15 1  
    16   15   16 ar 
    17   15   17 ar 
    18   18   19 1  
    19   19   20 1  
    20   19   22 1  
    21   20   21 2  
    22   20   26 am 
    23   22   23 1  
    24   23   24 ar 
    25   23   25 ar 
    26   26   27 1  
    27   27   28 1  
    28   27   30 1  
    29   28   29 2  
    30   28   34 am 
    31   30   31 1  
    32   31   32 ar 
    33   31   33 ar 
    34   34   35 1  
    35   35   36 1  
    36   35   38 1  
    37   36   37 2  
    38   36   42 am 
    39   38   39 1  
    40   38   40 1  
    41   39   41 1  
    42   42   43 1  
    43   43   44 1  
    44   43   46 1  
    45   44   45 2  
    46   44   51 am 
    47   46   47 1  
    48   47   48 1  
    49   48   49 1  
    50   49   50 1  
    51   51   52 1  
    52   52   53 1  
    53   52   55 1  
    54   53   54 2  
    55   53   60 am 
    56   55   56 1  
    57   56   57 1  
    58   57   58 2  
    59   57   59 am 
    60   60   61 1  
    61   61   62 1  
    62   61   64 1  
    63   62   63 2  
    64   62   68 am 
    65   64   65 1  
    66   65   66 1  
    67   65   67 1  
    68   68   69 1  
    69   69   70 1  
    70   69   72 1  
    71   70   71 2  
    72   70   73 am 
    73   73   74 1  
    74   74   75 1  
    75   74   77 1  
    76   75   76 2  
    77   75   78 am 
    78   78   79 1  
    79   79   80 1  
    80   79   82 1  
    81   80   81 2  
    82   80   92 am 
    83   82   83 1  
    84   83   84 2  
    85   83   85 1  
    86   84   86 1  
    87   85   87 ar 
    88   85   88 ar 
    89   86   87 1  
    90   87   89 ar 
    91   88   90 ar 
    92   89   91 ar 
    93   90   91 ar 
    94   92   93 1  
    95   93   94 1  
    96   93   96 1  
    97   94   95 2  
    98   94   97 am 
    99   97   98 1  
   100   98   99 1  
   101   98  101 1  
   102   99  100 ar 
   103   99  104 ar 
   104  101  102 1  
   105  101  103 1  
   106    1  105 1  
   107    1  106 1  
   108    1  107 1  
   109    2  108 1  
   110    5  109 1  
   111    5  110 1  
   112    6  111 1  
   113    6  112 1  
   114   10  113 1  
   115   11  114 1  
   116   14  115 1  
   117   14  116 1  
   118   18  117 1  
   119   19  118 1  
   120   22  119 1  
   121   22  120 1  
   122   26  121 1  
   123   27  122 1  
   124   30  123 1  
   125   30  124 1  
   126   34  125 1  
   127   35  126 1  
   128   38  127 1  
   129   39  128 1  
   130   39  129 1  
   131   40  130 1  
   132   40  131 1  
   133   40  132 1  
   134   41  133 1  
   135   41  134 1  
   136   41  135 1  
   137   42  136 1  
   138   43  137 1  
   139   46  138 1  
   140   46  139 1  
   141   47  140 1  
   142   47  141 1  
   143   48  142 1  
   144   48  143 1  
   145   49  144 1  
   146   49  145 1  
   147   50  146 1  
   148   50  147 1  
   149   50  148 1  
   150   51  149 1  
   151   52  150 1  
   152   55  151 1  
   153   55  152 1  
   154   56  153 1  
   155   56  154 1  
   156   59  155 1  
   157   59  156 1  
   158   60  157 1  
   159   61  158 1  
   160   64  159 1  
   161   64  160 1  
   162   65  161 1  
   163   66  162 1  
   164   66  163 1  
   165   66  164 1  
   166   67  165 1  
   167   67  166 1  
   168   67  167 1  
   169   68  168 1  
   170   69  169 1  
   171   72  170 1  
   172   72  171 1  
   173   72  172 1  
   174   73  173 1  
   175   74  174 1  
   176   77  175 1  
   177   77  176 1  
   178   77  177 1  
   179   78  178 1  
   180   79  179 1  
   181   82  180 1  
   182   82  181 1  
   183   84  182 1  
   184   86  183 1  
   185   88  184 1  
   186   89  185 1  
   187   90  186 1  
   188   91  187 1  
   189   92  188 1  
   190   93  189 1  
   191   96  190 1  
   192   96  191 1  
   193   96  192 1  
   194   97  193 1  
   195   98  194 1  
   196  101  195 1  
   197  102  196 1  
   198  103  197 1  
   199  103  198 1  
   200  103  199 1  
@<TRIPOS>SUBSTRUCTURE
     1 GLU         1

