4o0y_ligand
  -I-interpret- 

 44 46  0  0  0  0  0  0  0  0999 V2000
   12.7220  -36.4820   11.6480 C   0  0  0  0  0
   13.6370  -36.3050   12.8630 C   0  0  0  0  0
   12.9440  -35.5820   13.9450 N   0  0  0  0  0
   13.0070  -34.2030   14.0560 C   0  0  0  0  0
   13.8230  -33.4120   13.4010 N   0  0  0  0  0
   13.5960  -32.1140   13.7650 C   0  0  0  0  0
   14.1660  -30.8880   13.3810 C   0  0  0  0  0
   13.7350  -29.7050   13.9380 C   0  0  0  0  0
   12.6980  -29.7090   14.8820 C   0  0  0  0  0
   12.1210  -30.9200   15.2700 C   0  0  0  0  0
   12.5620  -32.1180   14.7240 C   0  0  0  0  0
   12.2060  -33.4540   14.8880 N   0  0  0  0  0
   11.2380  -33.9540   15.7540 C   0  0  0  0  0
   10.8910  -35.2480   15.7300 N   0  0  0  0  0
    9.9740  -35.7140   16.5790 C   0  0  0  0  0
    9.4060  -34.8900   17.4610 N   0  0  0  0  0
    9.7680  -33.5960   17.4880 C   0  0  0  0  0
   10.6810  -33.1350   16.6460 N   0  0  0  0  0
    9.2070  -32.7110   18.3740 N   0  0  0  0  0
   12.2320  -28.4850   15.4740 C   0  0  0  0  0
   11.8330  -27.4890   15.9540 C   0  0  0  0  0
   11.2710  -26.2790   16.5880 C   0  0  0  0  0
    9.7610  -26.5060   16.7360 C   0  0  0  0  0
   11.9230  -26.0740   17.9520 C   0  0  0  0  0
   11.4270  -25.1060   15.7760 O   0  0  0  0  0
   11.8389  -37.0505   11.9396 H   0  0  0  0  0
   12.4192  -35.5028   11.2771 H   0  0  0  0  0
   13.2589  -37.0183   10.8655 H   0  0  0  0  0
   14.5115  -35.7286   12.5613 H   0  0  0  0  0
   13.9261  -37.2899   13.2296 H   0  0  0  0  0
   12.4041  -36.1113   14.6297 H   0  0  0  0  0
   14.9589  -30.8736   12.6332 H   0  0  0  0  0
   14.2005  -28.7640   13.6448 H   0  0  0  0  0
   11.3182  -30.9248   16.0072 H   0  0  0  0  0
    9.6893  -36.7658   16.5522 H   0  0  0  0  0
    8.4971  -33.0302   19.0332 H   0  0  0  0  0
    9.4999  -31.7340   18.3734 H   0  0  0  0  0
    9.3205  -26.6643   15.7516 H   0  0  0  0  0
    9.5861  -27.3831   17.3590 H   0  0  0  0  0
    9.3074  -25.6313   17.2021 H   0  0  0  0  0
   11.7255  -26.9415   18.5818 H   0  0  0  0  0
   12.9988  -25.9533   17.8246 H   0  0  0  0  0
   11.5089  -25.1813   18.4207 H   0  0  0  0  0
   11.0472  -24.3506   16.2307 H   0  0  0  0  0
  1  2  1  0  0  0
  2  3  1  0  0  0
  3  4  1  0  0  0
  4  5  4  0  0  0
  4 12  4  0  0  0
  5  6  4  0  0  0
  6  7  4  0  0  0
  6 11  4  0  0  0
  7  8  4  0  0  0
  8  9  4  0  0  0
  9 10  4  0  0  0
  9 20  1  0  0  0
 10 11  4  0  0  0
 11 12  4  0  0  0
 12 13  1  0  0  0
 13 14  4  0  0  0
 13 18  4  0  0  0
 14 15  4  0  0  0
 15 16  4  0  0  0
 16 17  4  0  0  0
 17 18  4  0  0  0
 17 19  1  0  0  0
 20 21  3  0  0  0
 21 22  1  0  0  0
 22 23  1  0  0  0
 22 24  1  0  0  0
 22 25  1  0  0  0
  1 26  1  0  0  0
  1 27  1  0  0  0
  1 28  1  0  0  0
  2 29  1  0  0  0
  2 30  1  0  0  0
  3 31  1  0  0  0
  7 32  1  0  0  0
  8 33  1  0  0  0
 10 34  1  0  0  0
 15 35  1  0  0  0
 19 36  1  0  0  0
 19 37  1  0  0  0
 23 38  1  0  0  0
 23 39  1  0  0  0
 23 40  1  0  0  0
 24 41  1  0  0  0
 24 42  1  0  0  0
 24 43  1  0  0  0
 25 44  1  0  0  0
M  END
$$$$
