3i73_ligand
  -I-interpret- 

 42 44  0  0  0  0  0  0  0  0999 V2000
  -40.1940    6.9430    0.1730 P   0  0  0  0  0
  -39.0540    6.6400    1.1210 O   0  0  0  0  0
  -39.7350    7.6590   -1.0740 O   0  0  0  0  0
  -41.1420    5.7910   -0.0790 O   0  0  0  0  0
  -42.6700    7.6110    1.1530 P   0  0  0  0  0
  -42.6860    6.4740    2.1450 O   0  0  0  0  0
  -43.2300    7.3770   -0.2280 O   0  0  0  0  0
  -41.1190    8.0000    0.9580 O   0  0  0  0  0
  -43.3800    8.9400    1.7910 O   0  0  0  0  0
  -44.7530    9.0130    2.2170 C   0  0  0  0  0
  -45.2650   10.4670    2.1740 C   0  0  0  0  0
  -46.6120   10.6470    1.6660 O   0  0  0  0  0
  -45.2470   11.2640    3.4700 C   0  0  0  0  0
  -44.0400   11.9760    3.5970 O   0  0  0  0  0
  -46.3540   12.2640    3.2680 C   0  0  0  0  0
  -45.9710   13.5610    2.8460 O   0  0  0  0  0
  -46.8960   12.0330    1.8890 C   0  0  0  0  0
  -48.2560   12.4410    2.2090 N   0  0  0  0  0
  -49.4350   12.1460    1.6740 C   0  0  0  0  0
  -50.4320   12.7640    2.3330 N   0  0  0  0  0
  -49.8710   13.4640    3.3110 C   0  0  0  0  0
  -50.3250   14.3380    4.3840 C   0  0  0  0  0
  -51.6280   14.5690    4.5100 N   0  0  0  0  0
  -49.3980   14.8830    5.2040 N   0  0  0  0  0
  -48.0820   14.6500    5.0490 C   0  0  0  0  0
  -47.5820   13.8520    4.0970 N   0  0  0  0  0
  -48.4280   13.2480    3.2250 C   0  0  0  0  0
  -39.3951    6.1864    1.8952 H   0  0  0  0  0
  -41.3862    5.3900    0.7583 H   0  0  0  0  0
  -42.3007    6.7683    2.9736 H   0  0  0  0  0
  -44.8225    8.6467    3.2413 H   0  0  0  0  0
  -45.3613    8.4068    1.5457 H   0  0  0  0  0
  -44.5083   10.8488    1.4886 H   0  0  0  0  0
  -45.3556   10.6293    4.3494 H   0  0  0  0  0
  -44.0472   12.4717    4.4191 H   0  0  0  0  0
  -46.9095   12.1802    4.2021 H   0  0  0  0  0
  -46.7532   14.1093    2.7507 H   0  0  0  0  0
  -46.5499   12.5256    0.9803 H   0  0  0  0  0
  -49.5763   11.4902    0.8149 H   0  0  0  0  0
  -52.2874   14.1374    3.8625 H   0  0  0  0  0
  -51.9684   15.1778    5.2542 H   0  0  0  0  0
  -47.3869   15.1359    5.7337 H   0  0  0  0  0
  1  2  1  0  0  0
  1  3  2  0  0  0
  1  4  1  0  0  0
  8  1  1  0  0  0
  5  6  1  0  0  0
  5  7  2  0  0  0
  5  8  1  0  0  0
  5  9  1  0  0  0
  9 10  1  0  0  0
 10 11  1  0  0  0
 11 12  1  0  0  0
 11 13  1  0  0  0
 12 17  1  0  0  0
 13 14  1  0  0  0
 13 15  1  0  0  0
 15 16  1  0  0  0
 15 17  1  0  0  0
 17 18  1  0  0  0
 18 19  4  0  0  0
 18 27  4  0  0  0
 19 20  4  0  0  0
 20 21  4  0  0  0
 21 22  4  0  0  0
 21 27  4  0  0  0
 22 23  1  0  0  0
 22 24  4  0  0  0
 24 25  4  0  0  0
 25 26  4  0  0  0
 26 27  4  0  0  0
  2 28  1  0  0  0
  4 29  1  0  0  0
  6 30  1  0  0  0
 10 31  1  0  0  0
 10 32  1  0  0  0
 11 33  1  0  0  0
 13 34  1  0  0  0
 14 35  1  0  0  0
 15 36  1  0  0  0
 16 37  1  0  0  0
 17 38  1  0  0  0
 19 39  1  0  0  0
 23 40  1  0  0  0
 23 41  1  0  0  0
 25 42  1  0  0  0
M  END
$$$$
