6m88_ligand
  -I-interpret- 

 35 37  0  0  0  0  0  0  0  0999 V2000
    7.2280   24.7200   21.8900 C   0  0  0  0  0
    6.2850   25.7450   21.7950 C   0  0  0  0  0
    5.8140   26.3820   23.0290 C   0  0  0  0  0
    6.3330   25.8920   24.3140 C   0  0  0  0  0
    7.2510   24.8590   24.3310 C   0  0  0  0  0
    7.7010   24.2890   23.1380 C   0  0  0  0  0
    4.8220   27.4650   23.0280 C   0  0  0  0  0
    4.4090   28.0440   24.3170 C   0  0  0  0  0
    5.0150   27.5000   25.5710 C   0  0  0  0  0
    4.6630   27.9460   26.9450 C   0  0  0  0  0
    4.9640   27.0280   27.9670 C   0  0  0  0  0
    4.6640   27.2870   29.2880 C   0  0  0  0  0
    3.9970   28.5670   29.6280 C   0  0  0  0  0
    3.6860   29.4990   28.5270 C   0  0  0  0  0
    4.0150   29.1570   27.2260 C   0  0  0  0  0
    5.9140   26.4660   25.4790 O   0  0  0  0  0
    4.3610   27.8910   21.9640 O   0  0  0  0  0
    3.0710   30.6800   28.7940 O   0  0  0  0  0
    3.6740   28.9010   30.8980 O   0  0  0  0  0
    4.9980   26.3570   30.2150 O   0  0  0  0  0
    3.5220   29.0570   24.2800 O   0  0  0  0  0
    8.6300   23.2930   23.2070 O   0  0  0  0  0
    5.7940   26.1850   20.6150 O   0  0  0  0  0
    7.6019   24.2480   20.9814 H   0  0  0  0  0
    7.6270   24.4859   25.2836 H   0  0  0  0  0
    3.9844   28.1226   25.3178 H   0  0  0  0  0
    4.8654   28.5573   25.3523 H   0  0  0  0  0
    5.4476   26.0861   27.7080 H   0  0  0  0  0
    3.7673   29.8372   26.4111 H   0  0  0  0  0
    2.9420   31.1646   27.9754 H   0  0  0  0  0
    3.2527   29.7636   30.9035 H   0  0  0  0  0
    4.7333   26.6646   31.0850 H   0  0  0  0  0
    3.3324   29.3477   25.1751 H   0  0  0  0  0
    8.8443   23.1200   24.1266 H   0  0  0  0  0
    5.1625   26.8900   20.7754 H   0  0  0  0  0
  1  2  4  0  0  0
  1  6  4  0  0  0
  2  3  4  0  0  0
  2 23  1  0  0  0
  3  4  4  0  0  0
  3  7  1  0  0  0
  4  5  4  0  0  0
  4 16  1  0  0  0
  5  6  4  0  0  0
  6 22  1  0  0  0
  7  8  1  0  0  0
  7 17  2  0  0  0
  8  9  1  0  0  0
  8 21  1  0  0  0
  9 10  1  0  0  0
  9 16  1  0  0  0
 10 11  4  0  0  0
 10 15  4  0  0  0
 11 12  4  0  0  0
 12 13  4  0  0  0
 12 20  1  0  0  0
 13 14  4  0  0  0
 13 19  1  0  0  0
 14 15  4  0  0  0
 14 18  1  0  0  0
  1 24  1  0  0  0
  5 25  1  0  0  0
  8 26  1  0  0  0
  9 27  1  0  0  0
 11 28  1  0  0  0
 15 29  1  0  0  0
 18 30  1  0  0  0
 19 31  1  0  0  0
 20 32  1  0  0  0
 21 33  1  0  0  0
 22 34  1  0  0  0
 23 35  1  0  0  0
M  END
$$$$
