3fl5_ligand
  -I-interpret- 

 28 30  0  0  0  0  0  0  0  0999 V2000
   21.3460    9.2370   18.7070 O   0  0  0  0  0
   22.1030    8.2550   18.5470 C   0  0  0  0  0
   22.3690    7.3270   19.6940 C   0  0  0  0  0
   21.7700    7.5490   20.9400 C   0  0  0  0  0
   20.9500    8.6270   21.1120 O   0  0  0  0  0
   22.0200    6.6860   22.0070 C   0  0  0  0  0
   22.8680    5.5850   21.8280 C   0  0  0  0  0
   23.4590    5.3640   20.5810 C   0  0  0  0  0
   24.2840    4.2960   20.3930 O   0  0  0  0  0
   23.2160    6.2310   19.5150 C   0  0  0  0  0
   23.8500    5.9900   18.1810 C   0  0  0  0  0
   24.5980    5.0020   18.0080 O   0  0  0  0  0
   22.7320    8.0220   17.2180 C   0  0  0  0  0
   23.5790    6.9220   17.0460 C   0  0  0  0  0
   22.4880    8.8950   16.1470 C   0  0  0  0  0
   23.0850    8.6550   14.8990 C   0  0  0  0  0
   23.9250    7.5510   14.7350 C   0  0  0  0  0
   24.5160    7.2930   13.5340 O   0  0  0  0  0
   24.1650    6.6900   15.7990 C   0  0  0  0  0
   24.9860    5.6210   15.6250 O   0  0  0  0  0
   20.6221    8.6375   22.0142 H   0  0  0  0  0
   21.5571    6.8675   22.9770 H   0  0  0  0  0
   23.0656    4.9048   22.6565 H   0  0  0  0  0
   24.6010    4.2935   19.4868 H   0  0  0  0  0
   21.8362    9.7579   16.2836 H   0  0  0  0  0
   22.8939    9.3269   14.0622 H   0  0  0  0  0
   25.0538    6.5011   13.6068 H   0  0  0  0  0
   25.3023    5.6060   14.7187 H   0  0  0  0  0
  1  2  2  0  0  0
  2  3  1  0  0  0
  2 13  1  0  0  0
  3  4  4  0  0  0
  3 10  4  0  0  0
  4  5  1  0  0  0
  4  6  4  0  0  0
  6  7  4  0  0  0
  7  8  4  0  0  0
  8  9  1  0  0  0
  8 10  4  0  0  0
 10 11  1  0  0  0
 11 12  2  0  0  0
 11 14  1  0  0  0
 13 14  4  0  0  0
 13 15  4  0  0  0
 14 19  4  0  0  0
 15 16  4  0  0  0
 16 17  4  0  0  0
 17 18  1  0  0  0
 17 19  4  0  0  0
 19 20  1  0  0  0
  5 21  1  0  0  0
  6 22  1  0  0  0
  7 23  1  0  0  0
  9 24  1  0  0  0
 15 25  1  0  0  0
 16 26  1  0  0  0
 18 27  1  0  0  0
 20 28  1  0  0  0
M  END
$$$$
