2xba_ligand
  -I-interpret- 

 62 66  0  0  0  0  0  0  0  0999 V2000
    5.6430   14.5890    9.0590 N   0  0  0  0  0
    2.3810   14.7560   10.3330 N   0  0  0  0  0
    2.5990   16.6350    9.2050 C   0  0  0  0  0
    1.7790   15.9590    9.9250 N   0  0  0  0  0
    2.2720   17.9350    8.6380 N   0  0  0  0  0
    2.8910   18.5990    7.6350 C   0  0  0  0  0
    2.4380   19.9130    7.2410 C   0  0  0  0  0
    3.8400   18.0920    7.0360 O   0  0  0  0  0
    3.2920   20.7510    6.4610 C   0  0  0  0  0
    2.8580   22.0440    6.0740 C   0  0  0  0  0
    0.7120   21.6420    7.2500 C   0  0  0  0  0
    1.1510   20.3610    7.6320 C   0  0  0  0  0
    3.5600   14.7400    9.8430 C   0  0  0  0  0
    3.7930   15.8220    9.1470 C   0  0  0  0  0
    5.1280   15.8840    8.5550 C   0  0  0  0  0
    4.6820   13.7800    9.8980 C   0  0  0  0  0
    1.1200   23.7830    6.0910 N   0  0  0  0  0
    1.6000   24.4180    4.8520 C   0  0  0  0  0
    1.8540   25.9520    4.9950 C   0  0  0  0  0
    0.9430   26.6050    5.9270 N   0  3  0  0  0
    0.5440   25.9700    7.1580 C   0  0  0  0  0
    0.1620   24.4930    6.9420 C   0  0  0  0  0
    0.4420   27.9150    5.6210 C   0  0  0  0  0
    1.5650   22.5010    6.4650 C   0  0  0  0  0
    6.9540   14.1570    8.8070 C   0  0  0  0  0
    7.3130   13.0450    9.2030 O   0  0  0  0  0
    8.4280   16.1920    9.0410 C   0  0  0  0  0
    8.4860   17.5180    8.5450 C   0  0  0  0  0
    8.7610   15.9350   10.4100 C   0  0  0  0  0
    8.8760   18.5790    9.4090 C   0  0  0  0  0
    9.1440   16.9880   11.2660 C   0  0  0  0  0
    7.9790   15.0640    8.1000 C   0  0  0  0  0
    9.2020   18.3150   10.7710 C   0  0  0  0  0
    9.1010   14.3230    7.7080 O   0  0  0  0  0
    1.4691   18.4085    9.0521 H   0  0  0  0  0
    4.2785   20.3960    6.1629 H   0  0  0  0  0
    3.5094   22.6856    5.4806 H   0  0  0  0  0
   -0.2778   21.9873    7.5487 H   0  0  0  0  0
    0.5041   19.7156    8.2262 H   0  0  0  0  0
    5.1538   16.0077    7.4723 H   0  0  0  0  0
    5.7189   16.7590    8.8255 H   0  0  0  0  0
    5.0283   13.4989   10.8925 H   0  0  0  0  0
    4.4699   12.7693    9.5494 H   0  0  0  0  0
    0.8276   24.2834    4.0948 H   0  0  0  0  0
    2.5504   23.9518    4.5923 H   0  0  0  0  0
    1.7005   26.4033    4.0148 H   0  0  0  0  0
    2.8660   26.0832    5.3782 H   0  0  0  0  0
    0.9792   25.5876    5.8643 H   0  0  0  0  0
   -0.3274   26.4958    7.5481 H   0  0  0  0  0
    1.3840   26.0088    7.8516 H   0  0  0  0  0
    0.1506   24.0033    7.9157 H   0  0  0  0  0
   -0.8096   24.4661    6.4487 H   0  0  0  0  0
    1.2770   28.6094    5.5279 H   0  0  0  0  0
   -0.1104   27.8811    4.6820 H   0  0  0  0  0
   -0.2197   28.2457    6.4216 H   0  0  0  0  0
    8.2327   17.7245    7.5051 H   0  0  0  0  0
    8.7180   14.9157   10.7939 H   0  0  0  0  0
    8.9257   19.5988    9.0273 H   0  0  0  0  0
    9.3950   16.7820   12.3065 H   0  0  0  0  0
    7.5021   15.4913    7.2179 H   0  0  0  0  0
    9.4953   19.1317   11.4306 H   0  0  0  0  0
    9.7286   14.9024    7.2698 H   0  0  0  0  0
  1 15  1  0  0  0
  1 16  1  0  0  0
 25  1  1  0  0  0
  2  4  4  0  0  0
 13  2  4  0  0  0
  3  4  4  0  0  0
  3  5  1  0  0  0
 14  3  4  0  0  0
  5  6  1  0  0  0
  6  7  1  0  0  0
  6  8  2  0  0  0
  7  9  4  0  0  0
  7 12  4  0  0  0
  9 10  4  0  0  0
 10 24  4  0  0  0
 12 11  4  0  0  0
 11 24  4  0  0  0
 13 14  4  0  0  0
 16 13  1  0  0  0
 15 14  1  0  0  0
 17 18  1  0  0  0
 17 22  1  0  0  0
 24 17  1  0  0  0
 18 19  1  0  0  0
 19 20  1  0  0  0
 21 20  1  0  0  0
 20 23  1  0  0  0
 22 21  1  0  0  0
 25 26  2  0  0  0
 32 25  1  0  0  0
 27 28  4  0  0  0
 27 29  4  0  0  0
 27 32  1  0  0  0
 28 30  4  0  0  0
 29 31  4  0  0  0
 30 33  4  0  0  0
 31 33  4  0  0  0
 32 34  1  0  0  0
  5 35  1  0  0  0
  9 36  1  0  0  0
 10 37  1  0  0  0
 11 38  1  0  0  0
 12 39  1  0  0  0
 15 40  1  0  0  0
 15 41  1  0  0  0
 16 42  1  0  0  0
 16 43  1  0  0  0
 18 44  1  0  0  0
 18 45  1  0  0  0
 19 46  1  0  0  0
 19 47  1  0  0  0
 20 48  1  0  0  0
 21 49  1  0  0  0
 21 50  1  0  0  0
 22 51  1  0  0  0
 22 52  1  0  0  0
 23 53  1  0  0  0
 23 54  1  0  0  0
 23 55  1  0  0  0
 28 56  1  0  0  0
 29 57  1  0  0  0
 30 58  1  0  0  0
 31 59  1  0  0  0
 32 60  1  0  0  0
 33 61  1  0  0  0
 34 62  1  0  0  0
M  END
$$$$
