### 
### Created by X-TOOL on Mon Sep 10 21:13:03 2018
### 

@<TRIPOS>MOLECULE
2xba_ligand
   62    66     1     0     0
SMALL
GAST_HUCK


@<TRIPOS>ATOM
      1 N1          5.6430   14.5890    9.0590 N.am      1 571        -0.2535
      2 N2          2.3810   14.7560   10.3330 N.pl3     1 571        -0.2433
      3 C3          2.5990   16.6350    9.2050 C.2       1 571         0.1027
      4 N4          1.7790   15.9590    9.9250 N.2       1 571        -0.2404
      5 N5          2.2720   17.9350    8.6380 N.am      1 571        -0.2391
      6 C6          2.8910   18.5990    7.6350 C.2       1 571         0.2181
      7 C7          2.4380   19.9130    7.2410 C.ar      1 571         0.0412
      8 O8          3.8400   18.0920    7.0360 O.2       1 571        -0.3816
      9 C9          3.2920   20.7510    6.4610 C.ar      1 571        -0.0531
     10 C10         2.8580   22.0440    6.0740 C.ar      1 571        -0.0381
     11 C11         0.7120   21.6420    7.2500 C.ar      1 571        -0.0381
     12 C12         1.1510   20.3610    7.6320 C.ar      1 571        -0.0531
     13 C13         3.5600   14.7400    9.8430 C.2       1 571         0.0786
     14 C14         3.7930   15.8220    9.1470 C.2       1 571         0.0146
     15 C15         5.1280   15.8840    8.5550 C.3       1 571         0.0514
     16 C16         4.6820   13.7800    9.8980 C.3       1 571         0.0897
     17 N17         1.1200   23.7830    6.0910 N.pl3     1 571        -0.3099
     18 C18         1.6000   24.4180    4.8520 C.3       1 571         0.0093
     19 C19         1.8540   25.9520    4.9950 C.3       1 571        -0.0930
     20 N20         0.9430   26.6050    5.9270 N.4       1 571         0.4034
     21 C21         0.5440   25.9700    7.1580 C.3       1 571        -0.0930
     22 C22         0.1620   24.4930    6.9420 C.3       1 571         0.0093
     23 C23         0.4420   27.9150    5.6210 C.3       1 571        -0.1255
     24 C24         1.5650   22.5010    6.4650 C.ar      1 571         0.0456
     25 C25         6.9540   14.1570    8.8070 C.2       1 571         0.2219
     26 O26         7.3130   13.0450    9.2030 O.2       1 571        -0.3907
     27 C27         8.4280   16.1920    9.0410 C.ar      1 571         0.0042
     28 C29         8.4860   17.5180    8.5450 C.ar      1 571        -0.0555
     29 C28         8.7610   15.9350   10.4100 C.ar      1 571        -0.0555
     30 C33         8.8760   18.5790    9.4090 C.ar      1 571        -0.0680
     31 C31         9.1440   16.9880   11.2660 C.ar      1 571        -0.0680
     32 C20         7.9790   15.0640    8.1000 C.3       1 571         0.1775
     33 C35         9.2020   18.3150   10.7710 C.ar      1 571        -0.0684
     34 O34         9.1010   14.3230    7.7080 O.3       1 571        -0.3594
     35 H           1.9558   14.0318   10.9119 H         1 571         0.2389
     36 H           1.4691   18.4085    9.0521 H         1 571         0.2188
     37 H           4.2785   20.3960    6.1629 H         1 571         0.0636
     38 H           3.5094   22.6856    5.4806 H         1 571         0.0530
     39 H          -0.2778   21.9873    7.5487 H         1 571         0.0530
     40 H           0.5041   19.7156    8.2262 H         1 571         0.0636
     41 H           5.1538   16.0077    7.4723 H         1 571         0.0576
     42 H           5.7189   16.7590    8.8255 H         1 571         0.0576
     43 H           5.0283   13.4989   10.8925 H         1 571         0.0708
     44 H           4.4699   12.7693    9.5494 H         1 571         0.0708
     45 H           0.8276   24.2834    4.0948 H         1 571         0.0496
     46 H           2.5504   23.9518    4.5923 H         1 571         0.0496
     47 H           1.7005   26.4033    4.0148 H         1 571         0.0036
     48 H           2.8660   26.0832    5.3782 H         1 571         0.0036
     49 H          -0.3274   26.4958    7.5481 H         1 571         0.0036
     50 H           1.3840   26.0088    7.8516 H         1 571         0.0036
     51 H           0.1506   24.0033    7.9157 H         1 571         0.0496
     52 H          -0.8096   24.4661    6.4487 H         1 571         0.0496
     53 H           1.2770   28.6094    5.5279 H         1 571        -0.0019
     54 H          -0.1104   27.8811    4.6820 H         1 571        -0.0019
     55 H          -0.2197   28.2457    6.4216 H         1 571        -0.0019
     56 H           8.2327   17.7245    7.5051 H         1 571         0.0562
     57 H           8.7180   14.9157   10.7939 H         1 571         0.0562
     58 H           8.9257   19.5988    9.0273 H         1 571         0.0600
     59 H           9.3950   16.7820   12.3065 H         1 571         0.0600
     60 H           7.5021   15.4913    7.2179 H         1 571         0.0998
     61 H           9.4953   19.1317   11.4306 H         1 571         0.0561
     62 H           9.5231   13.9485    8.4847 H         1 571         0.2164
@<TRIPOS>BOND
     1    1   15 1  
     2    1   16 1  
     3   25    1 am 
     4    2    4 1  
     5   13    2 1  
     6    3    4 2  
     7    3    5 1  
     8   14    3 1  
     9    5    6 am 
    10    6    7 1  
    11    6    8 2  
    12    7    9 ar 
    13    7   12 ar 
    14    9   10 ar 
    15   10   24 ar 
    16   12   11 ar 
    17   11   24 ar 
    18   13   14 2  
    19   16   13 1  
    20   15   14 1  
    21   17   18 1  
    22   17   22 1  
    23   24   17 1  
    24   18   19 1  
    25   19   20 1  
    26   21   20 1  
    27   20   23 1  
    28   22   21 1  
    29   25   26 2  
    30   32   25 1  
    31   27   28 ar 
    32   27   29 ar 
    33   27   32 1  
    34   28   30 ar 
    35   29   31 ar 
    36   30   33 ar 
    37   31   33 ar 
    38   32   34 1  
    39    2   35 1  
    40    5   36 1  
    41    9   37 1  
    42   10   38 1  
    43   11   39 1  
    44   12   40 1  
    45   15   41 1  
    46   15   42 1  
    47   16   43 1  
    48   16   44 1  
    49   18   45 1  
    50   18   46 1  
    51   19   47 1  
    52   19   48 1  
    53   21   49 1  
    54   21   50 1  
    55   22   51 1  
    56   22   52 1  
    57   23   53 1  
    58   23   54 1  
    59   23   55 1  
    60   28   56 1  
    61   29   57 1  
    62   30   58 1  
    63   31   59 1  
    64   32   60 1  
    65   33   61 1  
    66   34   62 1  
@<TRIPOS>SUBSTRUCTURE
     1 571         1

