### 
### Created by X-TOOL on Mon Sep 10 21:13:00 2018
### 

@<TRIPOS>MOLECULE
3g2s_ligand
  157   158     1     0     0
SMALL
GAST_HUCK


@<TRIPOS>ATOM
      1 N          11.1430    4.0870  -50.7710 N.4       1 GLY         0.2357
      2 CA         10.2210    4.9010  -49.9300 C.3       1 GLY         0.0545
      3 C          10.6780    4.9860  -48.4890 C.2       1 GLY         0.2238
      4 O          11.7570    5.5060  -48.1980 O.2       1 GLY        -0.3910
      5 N           9.8940    4.3910  -47.5930 N.am      1 PHE        -0.2595
      6 CA          9.9980    4.6870  -46.1670 C.3       1 PHE         0.1406
      7 C          10.2020    3.4210  -45.3430 C.2       1 PHE         0.2060
      8 O           9.5880    2.3950  -45.6180 O.2       1 PHE        -0.3942
      9 CB          8.7560    5.4370  -45.6830 C.3       1 PHE         0.0214
     10 CG          8.5800    6.7800  -46.3240 C.ar      1 PHE        -0.0386
     11 CD1         9.3550    7.8560  -45.9190 C.ar      1 PHE        -0.0601
     12 CD2         7.7350    6.9390  -47.4100 C.ar      1 PHE        -0.0601
     13 CE1         9.2210    9.0980  -46.5210 C.ar      1 PHE        -0.0686
     14 CE2         7.6090    8.1750  -48.0380 C.ar      1 PHE        -0.0686
     15 CZ          8.3620    9.2550  -47.5940 C.ar      1 PHE        -0.0687
     16 N          11.1490    3.4770  -44.4110 N.am      1 SER        -0.2614
     17 CA         11.2980    2.4680  -43.3630 C.3       1 SER         0.1539
     18 C          10.0260    2.3330  -42.5380 C.2       1 SER         0.2063
     19 O           9.3650    3.3360  -42.2510 O.2       1 SER        -0.3943
     20 CB         12.4360    2.8680  -42.4260 C.3       1 SER         0.0843
     21 OG         12.8480    1.7370  -41.6800 O.3       1 SER        -0.3903
     22 N           9.6960    1.1080  -42.1360 N.am      1 ASP        -0.2621
     23 CA          8.7690    0.9230  -41.0210 C.3       1 ASP         0.1423
     24 C           9.5110    0.7380  -39.6890 C.2       1 ASP         0.2057
     25 O           8.9330    0.2810  -38.6990 O.2       1 ASP        -0.3943
     26 CB          7.7870   -0.2210  -41.3110 C.3       1 ASP         0.0406
     27 CG          8.4820   -1.5600  -41.4740 C.2       1 ASP         0.0393
     28 OD1         9.6780   -1.6630  -41.1230 O.co2     1 ASP        -0.5688
     29 OD2         7.8150   -2.5220  -41.9120 O.co2     1 ASP        -0.5688
     30 N          10.8020    1.0670  -39.6720 N.am      1 ASP        -0.2621
     31 CA         11.6330    0.9140  -38.4700 C.3       1 ASP         0.1423
     32 C          12.1080    2.2930  -38.0020 C.2       1 ASP         0.2056
     33 O          11.7510    3.3210  -38.5900 O.2       1 ASP        -0.3943
     34 CB         12.8450    0.0210  -38.7740 C.3       1 ASP         0.0406
     35 CG         13.4450   -0.6590  -37.5370 C.2       1 ASP         0.0393
     36 OD1        12.9340   -0.5020  -36.4030 O.co2     1 ASP        -0.5688
     37 OD2        14.4060   -1.4450  -37.7270 O.co2     1 ASP        -0.5688
     38 N          12.9840    2.2800  -36.9970 N.am      1 VAL        -0.2634
     39 CA         13.5390    3.4870  -36.3930 C.3       1 VAL         0.1334
     40 C          15.0690    3.3390  -36.3810 C.2       1 VAL         0.2066
     41 O          15.5980    2.2350  -36.5870 O.2       1 VAL        -0.3942
     42 CB         12.9940    3.6670  -34.9510 C.3       1 VAL        -0.0062
     43 CG1        11.4580    3.7290  -34.9580 C.3       1 VAL        -0.0584
     44 CG2        13.4700    2.5230  -34.0410 C.3       1 VAL        -0.0584
     45 N          15.7980    4.4550  -36.2250 N.am      1 PRO        -0.2498
     46 CA         17.2640    4.3890  -36.1380 C.3       1 PRO         0.1338
     47 C          17.7670    3.5800  -34.9360 C.2       1 PRO         0.2041
     48 O          17.0790    3.4900  -33.9230 O.2       1 PRO        -0.3944
     49 CB         17.6790    5.8690  -35.9900 C.3       1 PRO        -0.0104
     50 CG         16.5280    6.6590  -36.5610 C.3       1 PRO        -0.0281
     51 CD         15.2950    5.8410  -36.2120 C.3       1 PRO         0.0369
     52 N          18.9750    3.0250  -35.0520 N.am      1 MET        -0.2637
     53 CA         19.5580    2.2470  -33.9700 C.3       1 MET         0.1317
     54 C          19.9970    3.1770  -32.8450 C.2       1 MET         0.2039
     55 O          20.5830    4.2330  -33.1090 O.2       1 MET        -0.3944
     56 CB         20.7680    1.4480  -34.4630 C.3       1 MET        -0.0034
     57 CG         21.4130    0.6120  -33.3670 C.3       1 MET        -0.0024
     58 SD         22.7410   -0.4370  -33.9950 S.3       1 MET        -0.1639
     59 CE         23.9190    0.8430  -34.3440 C.3       1 MET        -0.0181
     60 N          19.6810    2.8010  -31.6060 N.am      1 VAL        -0.2635
     61 CA         20.1920    3.4990  -30.4250 C.3       1 VAL         0.1332
     62 C          21.6220    3.0570  -30.1050 C.2       1 VAL         0.2042
     63 O          21.9600    1.8780  -30.1370 O.2       1 VAL        -0.3944
     64 CB         19.2700    3.2960  -29.1860 C.3       1 VAL        -0.0063
     65 CG1        19.9290    3.7970  -27.9020 C.3       1 VAL        -0.0584
     66 CG2        17.9370    4.0180  -29.3920 C.3       1 VAL        -0.0584
     67 N          22.4940    4.0340  -29.8880 N.am      1 ILE        -0.2635
     68 CA         23.8970    3.7350  -29.6260 C.3       1 ILE         0.1335
     69 C          24.1360    3.4920  -28.1300 C.2       1 ILE         0.2036
     70 O          23.6830    4.2700  -27.2780 O.2       1 ILE        -0.3944
     71 CB         24.8260    4.8700  -30.1450 C.3       1 ILE        -0.0037
     72 CG1        24.4730    5.2660  -31.5760 C.3       1 ILE        -0.0491
     73 CG2        26.2900    4.4320  -30.0850 C.3       1 ILE        -0.0582
     74 CD1        24.4540    4.1270  -32.5660 C.3       1 ILE        -0.0648
     75 N          24.7800    2.3670  -27.8150 N.am      1 ALA        -0.2697
     76 CA         25.0720    1.9800  -26.4280 C.3       1 ALA         0.0916
     77 C          26.2100    2.8130  -25.8210 C.2       1 ALA         0.0598
     78 O          26.9330    3.5250  -26.5370 O.co2     1 ALA        -0.5666
     79 CB         25.4390    0.4890  -26.3620 C.3       1 ALA        -0.0300
     80 OXT        26.3820    2.7800  -24.5940 O.co2     1 ALA        -0.5666
     81 H1         10.7982    4.0598  -51.7178 H         1 GLY         0.2012
     82 H2         11.1926    3.1493  -50.4044 H         1 GLY         0.2012
     83 H3         12.0619    4.5012  -50.7598 H         1 GLY         0.2012
     84 H4          9.2212    4.4432  -49.9571 H         1 GLY         0.1061
     85 H5         10.1698    5.9184  -50.3449 H         1 GLY         0.1061
     86 H6          9.2167    3.7244  -47.9043 H         1 PHE         0.1886
     87 H7         10.8734    5.3361  -46.0175 H         1 PHE         0.0823
     88 H8          8.8368    5.5786  -44.5952 H         1 PHE         0.0474
     89 H9          7.8701    4.8251  -45.9083 H         1 PHE         0.0474
     90 H10        10.0760    7.7245  -45.1203 H         1 PHE         0.0557
     91 H11         7.1656    6.0918  -47.7748 H         1 PHE         0.0557
     92 H12         9.7884    9.9445  -46.1514 H         1 PHE         0.0599
     93 H13         6.9255    8.2945  -48.8708 H         1 PHE         0.0599
     94 H14         8.2767   10.2169  -48.0865 H         1 PHE         0.0559
     95 H15        11.7892    4.2450  -44.4276 H         1 SER         0.1884
     96 H16        11.5297    1.4997  -43.8306 H         1 SER         0.0823
     97 H17        12.0877    3.6538  -41.7396 H         1 SER         0.0606
     98 H18        13.2829    3.2465  -43.0172 H         1 SER         0.0606
     99 H19        13.1481    1.0592  -42.2742 H         1 SER         0.2097
    100 H20        10.0838    0.3108  -42.5986 H         1 ASP         0.1884
    101 H21         8.1756    1.8450  -40.9326 H         1 ASP         0.0819
    102 H22         7.2429    0.0086  -42.2390 H         1 ASP         0.0478
    103 H23         7.0742   -0.2935  -40.4763 H         1 ASP         0.0478
    104 H24        11.2193    1.4302  -40.5051 H         1 ASP         0.1884
    105 H25        11.0339    0.4478  -37.6739 H         1 ASP         0.0819
    106 H26        13.6244    0.6423  -39.2393 H         1 ASP         0.0478
    107 H27        12.5297   -0.7614  -39.4800 H         1 ASP         0.0478
    108 H28        13.2769    1.3942  -36.6372 H         1 VAL         0.1883
    109 H29        13.2584    4.3642  -36.9945 H         1 VAL         0.0803
    110 H30        13.3805    4.6156  -34.5500 H         1 VAL         0.0343
    111 H31        11.0915    3.8566  -33.9287 H         1 VAL         0.0234
    112 H32        11.0552    2.7953  -35.3775 H         1 VAL         0.0234
    113 H33        11.1281    4.5795  -35.5727 H         1 VAL         0.0234
    114 H34        14.5694    2.4866  -34.0424 H         1 VAL         0.0234
    115 H35        13.0711    1.5680  -34.4135 H         1 VAL         0.0234
    116 H36        13.1102    2.6959  -33.0160 H         1 VAL         0.0234
    117 H37        17.6801    3.9549  -37.0591 H         1 PRO         0.0802
    118 H38        18.6021    6.0694  -36.5536 H         1 PRO         0.0313
    119 H39        17.8336    6.1226  -34.9309 H         1 PRO         0.0313
    120 H40        16.6302    6.7623  -37.6513 H         1 PRO         0.0287
    121 H41        16.4754    7.6570  -36.1014 H         1 PRO         0.0287
    122 H42        14.9099    6.1120  -35.2179 H         1 PRO         0.0524
    123 H43        14.5031    5.9807  -36.9626 H         1 PRO         0.0524
    124 H44        19.4902    3.1465  -35.9004 H         1 MET         0.1883
    125 H45        18.8002    1.5480  -33.5864 H         1 MET         0.0800
    126 H46        21.5174    2.1518  -34.8543 H         1 MET         0.0320
    127 H47        20.4397    0.7759  -35.2695 H         1 MET         0.0320
    128 H48        20.6430   -0.0276  -32.9109 H         1 MET         0.0378
    129 H49        21.8272    1.2879  -32.6043 H         1 MET         0.0378
    130 H50        24.8371    0.3950  -34.7520 H         1 MET         0.0340
    131 H51        24.1564    1.3855  -33.4170 H         1 MET         0.0340
    132 H52        23.4939    1.5420  -35.0793 H         1 MET         0.0340
    133 H53        19.0747    2.0160  -31.4789 H         1 VAL         0.1883
    134 H54        20.2127    4.5744  -30.6555 H         1 VAL         0.0802
    135 H55        19.0733    2.2193  -29.0769 H         1 VAL         0.0343
    136 H56        19.2478    3.6361  -27.0534 H         1 VAL         0.0234
    137 H57        20.1487    4.8706  -27.9973 H         1 VAL         0.0234
    138 H58        20.8649    3.2450  -27.7307 H         1 VAL         0.0234
    139 H59        17.4634    3.6566  -30.3167 H         1 VAL         0.0234
    140 H60        18.1146    5.1007  -29.4701 H         1 VAL         0.0234
    141 H61        17.2745    3.8157  -28.5375 H         1 VAL         0.0234
    142 H62        22.1855    4.9851  -29.9044 H         1 ILE         0.1883
    143 H63        24.1527    2.8121  -30.1673 H         1 ILE         0.0803
    144 H64        24.6939    5.7486  -29.4965 H         1 ILE         0.0345
    145 H65        25.2135    6.0037  -31.9186 H         1 ILE         0.0267
    146 H66        23.4741    5.7265  -31.5663 H         1 ILE         0.0267
    147 H67        26.5453    4.1464  -29.0539 H         1 ILE         0.0235
    148 H68        26.9349    5.2635  -30.4055 H         1 ILE         0.0235
    149 H69        26.4428    3.5711  -30.7524 H         1 ILE         0.0235
    150 H70        24.1909    4.5116  -33.5624 H         1 ILE         0.0230
    151 H71        23.7089    3.3810  -32.2525 H         1 ILE         0.0230
    152 H72        25.4484    3.6583  -32.6048 H         1 ILE         0.0230
    153 H73        25.0764    1.7617  -28.5538 H         1 ALA         0.1875
    154 H74        24.1652    2.1464  -25.8281 H         1 ALA         0.0723
    155 H75        25.6554    0.2105  -25.3201 H         1 ALA         0.0270
    156 H76        26.3271    0.3021  -26.9835 H         1 ALA         0.0270
    157 H77        24.5971   -0.1127  -26.7350 H         1 ALA         0.0270
@<TRIPOS>BOND
     1    1    2 1  
     2    2    3 1  
     3    3    4 2  
     4    3    5 am 
     5    5    6 1  
     6    6    7 1  
     7    6    9 1  
     8    7    8 2  
     9    7   16 am 
    10    9   10 1  
    11   10   11 ar 
    12   10   12 ar 
    13   11   13 ar 
    14   12   14 ar 
    15   13   15 ar 
    16   14   15 ar 
    17   16   17 1  
    18   17   18 1  
    19   17   20 1  
    20   18   19 2  
    21   18   22 am 
    22   20   21 1  
    23   22   23 1  
    24   23   24 1  
    25   23   26 1  
    26   24   25 2  
    27   24   30 am 
    28   26   27 1  
    29   27   28 ar 
    30   27   29 ar 
    31   30   31 1  
    32   31   32 1  
    33   31   34 1  
    34   32   33 2  
    35   32   38 am 
    36   34   35 1  
    37   35   36 ar 
    38   35   37 ar 
    39   38   39 1  
    40   39   40 1  
    41   39   42 1  
    42   40   41 2  
    43   40   45 am 
    44   42   43 1  
    45   42   44 1  
    46   45   46 1  
    47   45   51 1  
    48   46   47 1  
    49   46   49 1  
    50   47   48 2  
    51   47   52 am 
    52   49   50 1  
    53   50   51 1  
    54   52   53 1  
    55   53   54 1  
    56   53   56 1  
    57   54   55 2  
    58   54   60 am 
    59   56   57 1  
    60   57   58 1  
    61   58   59 1  
    62   60   61 1  
    63   61   62 1  
    64   61   64 1  
    65   62   63 2  
    66   62   67 am 
    67   64   65 1  
    68   64   66 1  
    69   67   68 1  
    70   68   69 1  
    71   68   71 1  
    72   69   70 2  
    73   69   75 am 
    74   71   72 1  
    75   71   73 1  
    76   72   74 1  
    77   75   76 1  
    78   76   77 1  
    79   76   79 1  
    80   77   78 ar 
    81   77   80 ar 
    82    1   81 1  
    83    1   82 1  
    84    1   83 1  
    85    2   84 1  
    86    2   85 1  
    87    5   86 1  
    88    6   87 1  
    89    9   88 1  
    90    9   89 1  
    91   11   90 1  
    92   12   91 1  
    93   13   92 1  
    94   14   93 1  
    95   15   94 1  
    96   16   95 1  
    97   17   96 1  
    98   20   97 1  
    99   20   98 1  
   100   21   99 1  
   101   22  100 1  
   102   23  101 1  
   103   26  102 1  
   104   26  103 1  
   105   30  104 1  
   106   31  105 1  
   107   34  106 1  
   108   34  107 1  
   109   38  108 1  
   110   39  109 1  
   111   42  110 1  
   112   43  111 1  
   113   43  112 1  
   114   43  113 1  
   115   44  114 1  
   116   44  115 1  
   117   44  116 1  
   118   46  117 1  
   119   49  118 1  
   120   49  119 1  
   121   50  120 1  
   122   50  121 1  
   123   51  122 1  
   124   51  123 1  
   125   52  124 1  
   126   53  125 1  
   127   56  126 1  
   128   56  127 1  
   129   57  128 1  
   130   57  129 1  
   131   59  130 1  
   132   59  131 1  
   133   59  132 1  
   134   60  133 1  
   135   61  134 1  
   136   64  135 1  
   137   65  136 1  
   138   65  137 1  
   139   65  138 1  
   140   66  139 1  
   141   66  140 1  
   142   66  141 1  
   143   67  142 1  
   144   68  143 1  
   145   71  144 1  
   146   72  145 1  
   147   72  146 1  
   148   73  147 1  
   149   73  148 1  
   150   73  149 1  
   151   74  150 1  
   152   74  151 1  
   153   74  152 1  
   154   75  153 1  
   155   76  154 1  
   156   79  155 1  
   157   79  156 1  
   158   79  157 1  
@<TRIPOS>SUBSTRUCTURE
     1 GLY         1

