3g2s_ligand
  -I-interpret- 

160161  0  0  0  0  0  0  0  0999 V2000
   11.1430    4.0870  -50.7710 N   0  3  0  0  0
   10.2210    4.9010  -49.9300 C   0  0  0  0  0
   10.6780    4.9860  -48.4890 C   0  0  0  0  0
   11.7570    5.5060  -48.1980 O   0  0  0  0  0
    9.8940    4.3910  -47.5930 N   0  0  0  0  0
    9.9980    4.6870  -46.1670 C   0  0  0  0  0
   10.2020    3.4210  -45.3430 C   0  0  0  0  0
    9.5880    2.3950  -45.6180 O   0  0  0  0  0
    8.7560    5.4370  -45.6830 C   0  0  0  0  0
    8.5800    6.7800  -46.3240 C   0  0  0  0  0
    9.3550    7.8560  -45.9190 C   0  0  0  0  0
    7.7350    6.9390  -47.4100 C   0  0  0  0  0
    9.2210    9.0980  -46.5210 C   0  0  0  0  0
    7.6090    8.1750  -48.0380 C   0  0  0  0  0
    8.3620    9.2550  -47.5940 C   0  0  0  0  0
   11.1490    3.4770  -44.4110 N   0  0  0  0  0
   11.2980    2.4680  -43.3630 C   0  0  0  0  0
   10.0260    2.3330  -42.5380 C   0  0  0  0  0
    9.3650    3.3360  -42.2510 O   0  0  0  0  0
   12.4360    2.8680  -42.4260 C   0  0  0  0  0
   12.8480    1.7370  -41.6800 O   0  0  0  0  0
    9.6960    1.1080  -42.1360 N   0  0  0  0  0
    8.7690    0.9230  -41.0210 C   0  0  0  0  0
    9.5110    0.7380  -39.6890 C   0  0  0  0  0
    8.9330    0.2810  -38.6990 O   0  0  0  0  0
    7.7870   -0.2210  -41.3110 C   0  0  0  0  0
    8.4820   -1.5600  -41.4740 C   0  0  0  0  0
    9.6780   -1.6630  -41.1230 O   0  0  0  0  0
    7.8150   -2.5220  -41.9120 O   0  0  0  0  0
   10.8020    1.0670  -39.6720 N   0  0  0  0  0
   11.6330    0.9140  -38.4700 C   0  0  0  0  0
   12.1080    2.2930  -38.0020 C   0  0  0  0  0
   11.7510    3.3210  -38.5900 O   0  0  0  0  0
   12.8450    0.0210  -38.7740 C   0  0  0  0  0
   13.4450   -0.6590  -37.5370 C   0  0  0  0  0
   12.9340   -0.5020  -36.4030 O   0  0  0  0  0
   14.4060   -1.4450  -37.7270 O   0  0  0  0  0
   12.9840    2.2800  -36.9970 N   0  0  0  0  0
   13.5390    3.4870  -36.3930 C   0  0  0  0  0
   15.0690    3.3390  -36.3810 C   0  0  0  0  0
   15.5980    2.2350  -36.5870 O   0  0  0  0  0
   12.9940    3.6670  -34.9510 C   0  0  0  0  0
   11.4580    3.7290  -34.9580 C   0  0  0  0  0
   13.4700    2.5230  -34.0410 C   0  0  0  0  0
   15.7980    4.4550  -36.2250 N   0  0  0  0  0
   17.2640    4.3890  -36.1380 C   0  0  0  0  0
   17.7670    3.5800  -34.9360 C   0  0  0  0  0
   17.0790    3.4900  -33.9230 O   0  0  0  0  0
   17.6790    5.8690  -35.9900 C   0  0  0  0  0
   16.5280    6.6590  -36.5610 C   0  0  0  0  0
   15.2950    5.8410  -36.2120 C   0  0  0  0  0
   18.9750    3.0250  -35.0520 N   0  0  0  0  0
   19.5580    2.2470  -33.9700 C   0  0  0  0  0
   19.9970    3.1770  -32.8450 C   0  0  0  0  0
   20.5830    4.2330  -33.1090 O   0  0  0  0  0
   20.7680    1.4480  -34.4630 C   0  0  0  0  0
   21.4130    0.6120  -33.3670 C   0  0  0  0  0
   22.7410   -0.4370  -33.9950 S   0  0  0  0  0
   23.9190    0.8430  -34.3440 C   0  0  0  0  0
   19.6810    2.8010  -31.6060 N   0  0  0  0  0
   20.1920    3.4990  -30.4250 C   0  0  0  0  0
   21.6220    3.0570  -30.1050 C   0  0  0  0  0
   21.9600    1.8780  -30.1370 O   0  0  0  0  0
   19.2700    3.2960  -29.1860 C   0  0  0  0  0
   19.9290    3.7970  -27.9020 C   0  0  0  0  0
   17.9370    4.0180  -29.3920 C   0  0  0  0  0
   22.4940    4.0340  -29.8880 N   0  0  0  0  0
   23.8970    3.7350  -29.6260 C   0  0  0  0  0
   24.1360    3.4920  -28.1300 C   0  0  0  0  0
   23.6830    4.2700  -27.2780 O   0  0  0  0  0
   24.8260    4.8700  -30.1450 C   0  0  0  0  0
   24.4730    5.2660  -31.5760 C   0  0  0  0  0
   26.2900    4.4320  -30.0850 C   0  0  0  0  0
   24.4540    4.1270  -32.5660 C   0  0  0  0  0
   24.7800    2.3670  -27.8150 N   0  0  0  0  0
   25.0720    1.9800  -26.4280 C   0  0  0  0  0
   26.2100    2.8130  -25.8210 C   0  0  0  0  0
   26.9330    3.5250  -26.5370 O   0  0  0  0  0
   25.4390    0.4890  -26.3620 C   0  0  0  0  0
   26.3820    2.7800  -24.5940 O   0  0  0  0  0
   10.7932    4.0601  -51.7288 H   0  0  0  0  0
   12.0724    4.5071  -50.7589 H   0  0  0  0  0
   11.1924    3.1385  -50.3991 H   0  0  0  0  0
    9.2409    4.4243  -49.9455 H   0  0  0  0  0
   10.1976    5.9120  -50.3366 H   0  0  0  0  0
    9.2031    3.7111  -47.9105 H   0  0  0  0  0
   10.8734    5.3212  -46.0273 H   0  0  0  0  0
    8.8682    5.5983  -44.6108 H   0  0  0  0  0
    7.8867    4.8334  -45.9440 H   0  0  0  0  0
   10.0800    7.7237  -45.1159 H   0  0  0  0  0
    7.1625    6.0871  -47.7769 H   0  0  0  0  0
    9.7915    9.9492  -46.1494 H   0  0  0  0  0
    6.9217    8.2952  -48.8755 H   0  0  0  0  0
    8.2762   10.2222  -48.0892 H   0  0  0  0  0
   11.8020    4.2604  -44.4279 H   0  0  0  0  0
   11.5106    1.5150  -43.8475 H   0  0  0  0  0
   12.0919    3.6476  -41.7464 H   0  0  0  0  0
   13.2751    3.2444  -43.0112 H   0  0  0  0  0
   13.5633    1.9871  -41.0906 H   0  0  0  0  0
   10.0916    0.2948  -42.6079 H   0  0  0  0  0
    8.1800    1.8343  -40.9169 H   0  0  0  0  0
    7.2739    0.0064  -42.2454 H   0  0  0  0  0
    7.1037   -0.2987  -40.4654 H   0  0  0  0  0
    9.9961   -0.8093  -40.8203 H   0  0  0  0  0
   11.2276    1.4374  -40.5217 H   0  0  0  0  0
   11.0419    0.4455  -37.6831 H   0  0  0  0  0
   13.6190    0.6601  -39.1989 H   0  0  0  0  0
   12.5048   -0.7687  -39.4439 H   0  0  0  0  0
   14.6546   -1.4265  -38.6541 H   0  0  0  0  0
   13.2828    1.3764  -36.6300 H   0  0  0  0  0
   13.2507    4.3692  -36.9645 H   0  0  0  0  0
   13.3821    4.6072  -34.5591 H   0  0  0  0  0
   11.1325    4.5721  -35.5674 H   0  0  0  0  0
   11.0602    2.8033  -35.3739 H   0  0  0  0  0
   11.0961    3.8554  -33.9376 H   0  0  0  0  0
   13.1118    1.5726  -34.4367 H   0  0  0  0  0
   14.5595    2.5165  -34.0074 H   0  0  0  0  0
   13.0751    2.6716  -33.0360 H   0  0  0  0  0
   17.6881    3.8852  -37.0066 H   0  0  0  0  0
   18.6116    6.0803  -36.5132 H   0  0  0  0  0
   17.8711    6.1315  -34.9497 H   0  0  0  0  0
   16.6284    6.8085  -37.6360 H   0  0  0  0  0
   16.4798    7.6669  -36.1488 H   0  0  0  0  0
   14.8604    6.1224  -35.2528 H   0  0  0  0  0
   14.4737    5.9977  -36.9113 H   0  0  0  0  0
   19.5005    3.1489  -35.9174 H   0  0  0  0  0
   18.8024    1.5516  -33.6045 H   0  0  0  0  0
   21.5127    2.1589  -34.8209 H   0  0  0  0  0
   20.4225    0.7672  -35.2409 H   0  0  0  0  0
   20.6461   -0.0339  -32.9395 H   0  0  0  0  0
   21.8400    1.2925  -32.6303 H   0  0  0  0  0
   23.4966    1.5349  -35.0727 H   0  0  0  0  0
   24.1534    1.3798  -33.4247 H   0  0  0  0  0
   24.8282    0.3979  -34.7482 H   0  0  0  0  0
   19.0626    2.0003  -31.4763 H   0  0  0  0  0
   20.1999    4.5634  -30.6599 H   0  0  0  0  0
   19.0950    2.2251  -29.0829 H   0  0  0  0  0
   20.8562    3.2493  -27.7334 H   0  0  0  0  0
   20.1462    4.8608  -27.9978 H   0  0  0  0  0
   19.2531    3.6370  -27.0619 H   0  0  0  0  0
   18.1199    5.0837  -29.5294 H   0  0  0  0  0
   17.4405    3.6165  -30.2754 H   0  0  0  0  0
   17.3042    3.8664  -28.5175 H   0  0  0  0  0
   22.1794    5.0041  -29.9047 H   0  0  0  0  0
   24.1430    2.8224  -30.1689 H   0  0  0  0  0
   24.6785    5.7354  -29.4988 H   0  0  0  0  0
   25.2439    5.9606  -31.9098 H   0  0  0  0  0
   23.4638    5.6769  -31.5492 H   0  0  0  0  0
   26.5562    4.1988  -29.0540 H   0  0  0  0  0
   26.4290    3.5474  -30.7064 H   0  0  0  0  0
   26.9246    5.2387  -30.4519 H   0  0  0  0  0
   25.4398    3.6634  -32.6035 H   0  0  0  0  0
   23.7154    3.3885  -32.2542 H   0  0  0  0  0
   24.1931    4.5094  -33.5528 H   0  0  0  0  0
   25.0824    1.7496  -28.5686 H   0  0  0  0  0
   24.1709    2.1694  -25.8447 H   0  0  0  0  0
   26.6644    3.4318  -27.4539 H   0  0  0  0  0
   24.6041   -0.1061  -26.7319 H   0  0  0  0  0
   26.3191    0.3051  -26.9782 H   0  0  0  0  0
   25.6532    0.2142  -25.3292 H   0  0  0  0  0
  1  2  1  0  0  0
  2  3  1  0  0  0
  3  4  2  0  0  0
  3  5  1  0  0  0
  5  6  1  0  0  0
  6  7  1  0  0  0
  6  9  1  0  0  0
  7  8  2  0  0  0
  7 16  1  0  0  0
  9 10  1  0  0  0
 10 11  4  0  0  0
 10 12  4  0  0  0
 11 13  4  0  0  0
 12 14  4  0  0  0
 13 15  4  0  0  0
 14 15  4  0  0  0
 16 17  1  0  0  0
 17 18  1  0  0  0
 17 20  1  0  0  0
 18 19  2  0  0  0
 18 22  1  0  0  0
 20 21  1  0  0  0
 22 23  1  0  0  0
 23 24  1  0  0  0
 23 26  1  0  0  0
 24 25  2  0  0  0
 24 30  1  0  0  0
 26 27  1  0  0  0
 27 28  1  0  0  0
 27 29  2  0  0  0
 30 31  1  0  0  0
 31 32  1  0  0  0
 31 34  1  0  0  0
 32 33  2  0  0  0
 32 38  1  0  0  0
 34 35  1  0  0  0
 35 36  2  0  0  0
 35 37  1  0  0  0
 38 39  1  0  0  0
 39 40  1  0  0  0
 39 42  1  0  0  0
 40 41  2  0  0  0
 40 45  1  0  0  0
 42 43  1  0  0  0
 42 44  1  0  0  0
 45 46  1  0  0  0
 45 51  1  0  0  0
 46 47  1  0  0  0
 46 49  1  0  0  0
 47 48  2  0  0  0
 47 52  1  0  0  0
 49 50  1  0  0  0
 50 51  1  0  0  0
 52 53  1  0  0  0
 53 54  1  0  0  0
 53 56  1  0  0  0
 54 55  2  0  0  0
 54 60  1  0  0  0
 56 57  1  0  0  0
 57 58  1  0  0  0
 58 59  1  0  0  0
 60 61  1  0  0  0
 61 62  1  0  0  0
 61 64  1  0  0  0
 62 63  2  0  0  0
 62 67  1  0  0  0
 64 65  1  0  0  0
 64 66  1  0  0  0
 67 68  1  0  0  0
 68 69  1  0  0  0
 68 71  1  0  0  0
 69 70  2  0  0  0
 69 75  1  0  0  0
 71 72  1  0  0  0
 71 73  1  0  0  0
 72 74  1  0  0  0
 75 76  1  0  0  0
 76 77  1  0  0  0
 76 79  1  0  0  0
 77 78  1  0  0  0
 77 80  2  0  0  0
  1 81  1  0  0  0
  1 82  1  0  0  0
  1 83  1  0  0  0
  2 84  1  0  0  0
  2 85  1  0  0  0
  5 86  1  0  0  0
  6 87  1  0  0  0
  9 88  1  0  0  0
  9 89  1  0  0  0
 11 90  1  0  0  0
 12 91  1  0  0  0
 13 92  1  0  0  0
 14 93  1  0  0  0
 15 94  1  0  0  0
 16 95  1  0  0  0
 17 96  1  0  0  0
 20 97  1  0  0  0
 20 98  1  0  0  0
 21 99  1  0  0  0
 22100  1  0  0  0
 23101  1  0  0  0
 26102  1  0  0  0
 26103  1  0  0  0
 28104  1  0  0  0
 30105  1  0  0  0
 31106  1  0  0  0
 34107  1  0  0  0
 34108  1  0  0  0
 37109  1  0  0  0
 38110  1  0  0  0
 39111  1  0  0  0
 42112  1  0  0  0
 43113  1  0  0  0
 43114  1  0  0  0
 43115  1  0  0  0
 44116  1  0  0  0
 44117  1  0  0  0
 44118  1  0  0  0
 46119  1  0  0  0
 49120  1  0  0  0
 49121  1  0  0  0
 50122  1  0  0  0
 50123  1  0  0  0
 51124  1  0  0  0
 51125  1  0  0  0
 52126  1  0  0  0
 53127  1  0  0  0
 56128  1  0  0  0
 56129  1  0  0  0
 57130  1  0  0  0
 57131  1  0  0  0
 59132  1  0  0  0
 59133  1  0  0  0
 59134  1  0  0  0
 60135  1  0  0  0
 61136  1  0  0  0
 64137  1  0  0  0
 65138  1  0  0  0
 65139  1  0  0  0
 65140  1  0  0  0
 66141  1  0  0  0
 66142  1  0  0  0
 66143  1  0  0  0
 67144  1  0  0  0
 68145  1  0  0  0
 71146  1  0  0  0
 72147  1  0  0  0
 72148  1  0  0  0
 73149  1  0  0  0
 73150  1  0  0  0
 73151  1  0  0  0
 74152  1  0  0  0
 74153  1  0  0  0
 74154  1  0  0  0
 75155  1  0  0  0
 76156  1  0  0  0
 78157  1  0  0  0
 79158  1  0  0  0
 79159  1  0  0  0
 79160  1  0  0  0
M  END
$$$$
