5l4f_ligand
  -I-interpret- 

 20 20  0  0  0  0  0  0  0  0999 V2000
   84.0340   -1.6190   66.7060 O   0  0  0  0  0
   87.1380   -1.3560   71.8550 C   0  0  0  0  0
   86.7460   -0.9070   70.4810 C   0  0  0  0  0
   87.4660    0.0940   69.8460 C   0  0  0  0  0
   87.1100    0.5110   68.5670 C   0  0  0  0  0
   86.0300   -0.0550   67.8880 C   0  0  0  0  0
   85.3130   -1.0620   68.5360 C   0  0  0  0  0
   85.6630   -1.4870   69.8160 C   0  0  0  0  0
   84.1570   -1.7150   67.9000 N   0  0  0  0  0
   83.3810   -2.3150   68.6140 O   0  0  0  0  0
   85.6520    0.3200   66.6460 O   0  0  0  0  0
   87.9310    1.5950   67.9420 N   0  0  0  0  0
   88.9820    1.8980   68.4590 O   0  0  0  0  0
   87.5020    2.1220   66.9430 O   0  0  0  0  0
   88.1586   -1.7381   71.8336 H   0  0  0  0  0
   87.0790   -0.5120   72.5423 H   0  0  0  0  0
   86.4607   -2.1434   72.1856 H   0  0  0  0  0
   88.3143    0.5560   70.3509 H   0  0  0  0  0
   85.0887   -2.2763   70.3010 H   0  0  0  0  0
   84.8904   -0.1975   66.3746 H   0  0  0  0  0
  9  1  2  0  0  0
  3  2  1  0  0  0
  3  4  4  0  0  0
  8  3  4  0  0  0
  5  4  4  0  0  0
  6  5  4  0  0  0
  5 12  1  0  0  0
  7  6  4  0  0  0
  6 11  1  0  0  0
  7  8  4  0  0  0
  7  9  1  0  0  0
  9 10  2  0  0  0
 12 13  2  0  0  0
 12 14  2  0  0  0
  2 15  1  0  0  0
  2 16  1  0  0  0
  2 17  1  0  0  0
  4 18  1  0  0  0
  8 19  1  0  0  0
 11 20  1  0  0  0
M  END
$$$$
