4qjm_ligand
  -I-interpret- 

 51 53  0  0  0  0  0  0  0  0999 V2000
   14.2160    5.0570   14.9970 F   0  0  0  0  0
   15.5210    5.1570   15.0480 C   0  0  0  0  0
   16.1740    4.1610   15.7840 C   0  0  0  0  0
   15.3570    2.8310   16.6920 S   0  0  0  0  0
   13.8500    2.9240   16.5840 O   0  0  0  0  0
   15.7850    1.2790   16.1100 N   0  0  0  0  0
   15.8470    3.0520   18.0820 O   0  0  0  0  0
   17.5660    4.2810   15.8970 C   0  0  0  0  0
   18.2560    3.3530   16.6110 F   0  0  0  0  0
   18.2710    5.2820   15.2640 C   0  0  0  0  0
   19.6240    5.3320   15.4310 F   0  0  0  0  0
   16.2080    6.1730   14.3650 C   0  0  0  0  0
   17.6150    6.2480   14.4860 C   0  0  0  0  0
   18.7040    7.4640   13.7000 S   0  0  0  0  0
   19.3220    8.5280   14.6080 O   0  0  0  0  0
   17.9030    8.3780   12.7410 O   0  0  0  0  0
   20.0050    6.6060   12.7270 C   0  0  0  0  0
   19.5880    5.7770   11.4780 C   0  0  0  0  0
   18.4360    4.8040   11.4560 C   0  0  0  0  0
   18.3270    3.7340   12.3630 C   0  0  0  0  0
   17.2250    2.8530   12.2560 C   0  0  0  0  0
   17.4160    4.9560   10.4780 C   0  0  0  0  0
   16.3170    4.0880   10.3930 C   0  0  0  0  0
   16.2170    3.0030   11.2650 C   0  0  0  0  0
   15.5460    7.1430   13.5940 N   0  0  0  0  0
   14.6580    6.7360   12.5340 C   0  0  0  0  0
   14.4890    7.8890   11.6300 C   0  0  0  0  0
   13.8000    9.0230   12.1070 C   0  0  0  0  0
   13.6210   10.1310   11.2540 C   0  0  0  0  0
   14.1420   10.0900    9.9560 C   0  0  0  0  0
   14.8150    8.9420    9.4880 C   0  0  0  0  0
   14.9740    7.8340   10.3110 C   0  0  0  0  0
   15.0608    0.6393   15.7832 H   0  0  0  0  0
   16.7642    0.9940   16.0900 H   0  0  0  0  0
   20.4375    5.8796   13.4150 H   0  0  0  0  0
   20.6365    7.4041   12.3367 H   0  0  0  0  0
   20.4511    5.1302   11.3205 H   0  0  0  0  0
   19.2654    6.5463   10.7764 H   0  0  0  0  0
   19.0804    3.5859   13.1367 H   0  0  0  0  0
   17.1458    2.0261   12.9618 H   0  0  0  0  0
   17.4904    5.7785    9.7667 H   0  0  0  0  0
   15.5419    4.2610    9.6464 H   0  0  0  0  0
   15.3929    2.2937   11.1887 H   0  0  0  0  0
   15.6936    8.1342   13.7841 H   0  0  0  0  0
   13.6954    6.4264   12.9409 H   0  0  0  0  0
   15.0740    5.8857   11.9936 H   0  0  0  0  0
   13.4099    9.0427   13.1246 H   0  0  0  0  0
   13.0816   11.0117   11.6025 H   0  0  0  0  0
   14.0267   10.9531    9.3004 H   0  0  0  0  0
   15.2131    8.9241    8.4735 H   0  0  0  0  0
   15.4672    6.9356    9.9400 H   0  0  0  0  0
  1  2  1  0  0  0
  2  3  4  0  0  0
  2 12  4  0  0  0
  3  4  1  0  0  0
  3  8  4  0  0  0
  4  5  2  0  0  0
  4  6  1  0  0  0
  4  7  2  0  0  0
  8  9  1  0  0  0
  8 10  4  0  0  0
 10 11  1  0  0  0
 10 13  4  0  0  0
 12 13  4  0  0  0
 12 25  1  0  0  0
 13 14  1  0  0  0
 14 15  2  0  0  0
 14 16  2  0  0  0
 14 17  1  0  0  0
 17 18  1  0  0  0
 18 19  1  0  0  0
 19 20  4  0  0  0
 19 22  4  0  0  0
 20 21  4  0  0  0
 21 24  4  0  0  0
 22 23  4  0  0  0
 23 24  4  0  0  0
 25 26  1  0  0  0
 26 27  1  0  0  0
 27 28  4  0  0  0
 27 32  4  0  0  0
 28 29  4  0  0  0
 29 30  4  0  0  0
 30 31  4  0  0  0
 31 32  4  0  0  0
  6 33  1  0  0  0
  6 34  1  0  0  0
 17 35  1  0  0  0
 17 36  1  0  0  0
 18 37  1  0  0  0
 18 38  1  0  0  0
 20 39  1  0  0  0
 21 40  1  0  0  0
 22 41  1  0  0  0
 23 42  1  0  0  0
 24 43  1  0  0  0
 25 44  1  0  0  0
 26 45  1  0  0  0
 26 46  1  0  0  0
 28 47  1  0  0  0
 29 48  1  0  0  0
 30 49  1  0  0  0
 31 50  1  0  0  0
 32 51  1  0  0  0
M  END
$$$$
