### 
### Created by X-TOOL on Tue Oct 16 15:17:27 2018
### 

@<TRIPOS>MOLECULE
3m2u_ligand
   37    36     1     0     0
SMALL
GAST_HUCK


@<TRIPOS>ATOM
      1 C          23.3090   38.9740  -20.0060 C.2       1 TXZ         0.0630
      2 N          23.5660   37.6400  -17.9430 N.am      1 TXZ        -0.2685
      3 O          24.5510   39.2930  -19.8320 O.co2     1 TXZ        -0.5665
      4 P          22.2190   42.0550  -17.8220 P.3       1 TXZ         0.2013
      5 C1         23.3960   36.3990  -17.4470 C.2       1 TXZ         0.1777
      6 O1         22.3400   35.7600  -17.6620 O.2       1 TXZ        -0.3970
      7 C2         24.5470   35.8960  -16.5700 C.3       1 TXZ         0.0373
      8 C3         24.8950   34.3690  -16.5980 C.3       1 TXZ        -0.0360
      9 C4         25.9330   33.8830  -15.5850 C.3       1 TXZ        -0.0502
     10 C5         25.2760   33.4920  -14.2390 C.3       1 TXZ        -0.0441
     11 C6         25.0470   31.9970  -14.2380 C.3       1 TXZ        -0.0093
     12 S6         24.0990   31.4360  -12.8190 S.3       1 TXZ        -0.1783
     13 CA         22.5720   38.3250  -18.8340 C.3       1 TXZ         0.1244
     14 CB         21.7420   39.4370  -18.1170 C.3       1 TXZ         0.1208
     15 CG         21.0540   38.8870  -16.8300 C.3       1 TXZ        -0.0304
     16 O1P        23.5680   42.8180  -17.6170 O.co2     1 TXZ        -0.5537
     17 O2P        21.6410   42.2790  -19.1940 O.co2     1 TXZ        -0.5537
     18 O3P        21.2680   42.3560  -16.6960 O.co2     1 TXZ        -0.5537
     19 O4P        22.6740   40.5030  -17.7110 O.3       1 TXZ        -0.2691
     20 OXT        22.6940   39.2220  -21.0660 O.co2     1 TXZ        -0.5665
     21 H1         24.4026   38.1328  -17.7036 H         1 TXZ         0.1876
     22 H2         24.2993   36.1536  -15.5297 H         1 TXZ         0.0502
     23 H3         25.4517   36.4410  -16.8773 H         1 TXZ         0.0502
     24 H4         25.2735   34.1316  -17.6032 H         1 TXZ         0.0290
     25 H5         23.9645   33.8115  -16.4154 H         1 TXZ         0.0290
     26 H6         26.6614   34.6877  -15.4062 H         1 TXZ         0.0267
     27 H7         26.4508   33.0047  -15.9979 H         1 TXZ         0.0267
     28 H8         24.3148   34.0154  -14.1285 H         1 TXZ         0.0273
     29 H9         25.9410   33.7668  -13.4070 H         1 TXZ         0.0273
     30 H10        26.0243   31.4922  -14.2289 H         1 TXZ         0.0374
     31 H11        24.5021   31.7247  -15.1539 H         1 TXZ         0.0374
     32 H12        23.9780   30.4367  -12.8711 H         1 TXZ         0.1016
     33 H13        21.8756   37.5649  -19.2177 H         1 TXZ         0.0756
     34 H14        20.9806   39.8340  -18.8044 H         1 TXZ         0.0688
     35 H15        20.4788   39.6920  -16.3492 H         1 TXZ         0.0260
     36 H16        21.8211   38.5180  -16.1333 H         1 TXZ         0.0260
     37 H17        20.3768   38.0632  -17.0997 H         1 TXZ         0.0260
@<TRIPOS>BOND
     1    1    3 ar 
     2   13    1 1  
     3    1   20 ar 
     4    2    5 am 
     5   13    2 1  
     6    4   16 ar 
     7    4   17 ar 
     8    4   18 ar 
     9   19    4 1  
    10    5    6 2  
    11    5    7 1  
    12    7    8 1  
    13    8    9 1  
    14    9   10 1  
    15   10   11 1  
    16   11   12 1  
    17   14   13 1  
    18   14   15 1  
    19   14   19 1  
    20    2   21 1  
    21    7   22 1  
    22    7   23 1  
    23    8   24 1  
    24    8   25 1  
    25    9   26 1  
    26    9   27 1  
    27   10   28 1  
    28   10   29 1  
    29   11   30 1  
    30   11   31 1  
    31   12   32 1  
    32   13   33 1  
    33   14   34 1  
    34   15   35 1  
    35   15   36 1  
    36   15   37 1  
@<TRIPOS>SUBSTRUCTURE
     1 TXZ         1

