3m2u_ligand
  -I-interpret- 

 40 39  0  0  0  0  0  0  0  0999 V2000
   23.3090   38.9740  -20.0060 C   0  0  0  0  0
   23.5660   37.6400  -17.9430 N   0  0  0  0  0
   24.5510   39.2930  -19.8320 O   0  0  0  0  0
   22.2190   42.0550  -17.8220 P   0  0  0  0  0
   23.3960   36.3990  -17.4470 C   0  0  0  0  0
   22.3400   35.7600  -17.6620 O   0  0  0  0  0
   24.5470   35.8960  -16.5700 C   0  0  0  0  0
   24.8950   34.3690  -16.5980 C   0  0  0  0  0
   25.9330   33.8830  -15.5850 C   0  0  0  0  0
   25.2760   33.4920  -14.2390 C   0  0  0  0  0
   25.0470   31.9970  -14.2380 C   0  0  0  0  0
   24.0990   31.4360  -12.8190 S   0  0  0  0  0
   22.5720   38.3250  -18.8340 C   0  0  0  0  0
   21.7420   39.4370  -18.1170 C   0  0  0  0  0
   21.0540   38.8870  -16.8300 C   0  0  0  0  0
   23.5680   42.8180  -17.6170 O   0  0  0  0  0
   21.6410   42.2790  -19.1940 O   0  0  0  0  0
   21.2680   42.3560  -16.6960 O   0  0  0  0  0
   22.6740   40.5030  -17.7110 O   0  0  0  0  0
   22.6940   39.2220  -21.0660 O   0  0  0  0  0
   24.4193   38.1427  -17.6988 H   0  0  0  0  0
   24.8316   39.0165  -18.9565 H   0  0  0  0  0
   24.2345   36.0985  -15.5456 H   0  0  0  0  0
   25.4363   36.3982  -16.9509 H   0  0  0  0  0
   25.3223   34.1762  -17.5821 H   0  0  0  0  0
   23.9702   33.8456  -16.3553 H   0  0  0  0  0
   26.6398   34.6921  -15.4010 H   0  0  0  0  0
   26.4285   33.0029  -15.9949 H   0  0  0  0  0
   24.3272   34.0154  -14.1204 H   0  0  0  0  0
   25.9272   33.7708  -13.4105 H   0  0  0  0  0
   26.0219   31.5109  -14.2004 H   0  0  0  0  0
   24.4823   31.7461  -15.1359 H   0  0  0  0  0
   23.9393   30.1174  -12.8877 H   0  0  0  0  0
   21.8753   37.5525  -19.1595 H   0  0  0  0  0
   20.9733   39.7995  -18.7994 H   0  0  0  0  0
   20.3834   38.0708  -17.0986 H   0  0  0  0  0
   21.8151   38.5217  -16.1405 H   0  0  0  0  0
   20.4844   39.6855  -16.3545 H   0  0  0  0  0
   24.1625   42.6153  -18.3430 H   0  0  0  0  0
   22.3022   42.0673  -19.8570 H   0  0  0  0  0
  1  3  1  0  0  0
 13  1  1  0  0  0
  1 20  2  0  0  0
  2  5  1  0  0  0
 13  2  1  0  0  0
  4 16  1  0  0  0
  4 17  1  0  0  0
  4 18  2  0  0  0
 19  4  1  0  0  0
  5  6  2  0  0  0
  5  7  1  0  0  0
  7  8  1  0  0  0
  8  9  1  0  0  0
  9 10  1  0  0  0
 10 11  1  0  0  0
 11 12  1  0  0  0
 14 13  1  0  0  0
 14 15  1  0  0  0
 14 19  1  0  0  0
  2 21  1  0  0  0
  3 22  1  0  0  0
  7 23  1  0  0  0
  7 24  1  0  0  0
  8 25  1  0  0  0
  8 26  1  0  0  0
  9 27  1  0  0  0
  9 28  1  0  0  0
 10 29  1  0  0  0
 10 30  1  0  0  0
 11 31  1  0  0  0
 11 32  1  0  0  0
 12 33  1  0  0  0
 13 34  1  0  0  0
 14 35  1  0  0  0
 15 36  1  0  0  0
 15 37  1  0  0  0
 15 38  1  0  0  0
 16 39  1  0  0  0
 17 40  1  0  0  0
M  END
$$$$
