3u78_ligand
  -I-interpret- 

 61 62  0  0  0  0  0  0  0  0999 V2000
  -45.8050   23.9650   21.4060 N   0  0  0  0  0
  -44.7900   24.7990   21.0350 C   0  0  0  0  0
  -44.1420   24.6130   19.8990 N   0  0  0  0  0
  -44.4890   23.6080   19.0760 C   0  0  0  0  0
  -45.5400   22.7400   19.4190 C   0  0  0  0  0
  -46.2090   22.9500   20.6390 C   0  0  0  0  0
  -44.1730   22.3900   17.0380 C   0  0  0  0  0
  -45.2200   21.5150   17.3510 C   0  0  0  0  0
  -45.9070   21.6790   18.5470 C   0  0  0  0  0
  -43.8110   23.4420   17.9060 C   0  0  0  0  0
  -43.4670   22.3160   15.8520 O   0  0  0  0  0
  -45.5730   20.4920   16.4670 O   0  0  0  0  0
  -46.8410   20.4610   15.9320 C   0  0  0  0  0
  -47.2920   22.0990   21.0800 N   0  0  0  0  0
  -44.3440   25.8400   21.9640 N   0  0  0  0  0
  -43.8420   26.3210   23.2600 C   0  0  0  0  0
  -43.6070   25.2150   24.3050 C   0  0  0  0  0
  -42.8620   23.9780   23.9210 C   0  0  0  0  0
  -43.4440   23.0170   22.9990 N   0  3  0  0  0
  -43.7940   21.7690   23.7120 C   0  0  0  0  0
  -42.5320   22.6980   21.9490 C   0  0  0  0  0
  -43.4290   23.4970   15.0880 C   0  0  0  0  0
  -42.0560   24.1540   14.7460 C   0  0  0  0  0
  -41.0550   23.3850   13.8860 C   0  0  0  0  0
  -39.8970   24.2270   13.3660 C   0  0  0  0  0
  -40.0880   25.7410   13.4530 C   0  0  0  0  0
  -38.9990   26.6230   13.0240 N   0  3  0  0  0
  -46.7183   21.0018   18.8139 H   0  0  0  0  0
  -42.9959   24.1161   17.6427 H   0  0  0  0  0
  -47.5718   20.3829   16.7370 H   0  0  0  0  0
  -47.0179   21.3759   15.3665 H   0  0  0  0  0
  -46.9339   19.5998   15.2704 H   0  0  0  0  0
  -47.7462   22.2747   21.9762 H   0  0  0  0  0
  -47.6016   21.3231   20.4948 H   0  0  0  0  0
  -44.4261   26.6948   21.4136 H   0  0  0  0  0
  -44.6009   26.9887   23.6678 H   0  0  0  0  0
  -42.8774   26.7928   23.0729 H   0  0  0  0  0
  -44.6063   24.8645   24.5632 H   0  0  0  0  0
  -42.9848   25.6848   25.0667 H   0  0  0  0  0
  -42.7635   23.4252   24.8553 H   0  0  0  0  0
  -41.9806   24.3491   23.3981 H   0  0  0  0  0
  -44.2824   23.4409   22.6017 H   0  0  0  0  0
  -42.8946   21.3399   24.1536 H   0  0  0  0  0
  -44.5157   21.9913   24.4980 H   0  0  0  0  0
  -44.2287   21.0595   23.0079 H   0  0  0  0  0
  -42.2826   23.6049   21.3981 H   0  0  0  0  0
  -41.6250   22.2692   22.3751 H   0  0  0  0  0
  -42.9942   21.9771   21.2746 H   0  0  0  0  0
  -43.9424   24.2374   15.7014 H   0  0  0  0  0
  -43.8454   23.2124   14.1217 H   0  0  0  0  0
  -41.5591   24.2788   15.7081 H   0  0  0  0  0
  -42.3079   25.0370   14.1587 H   0  0  0  0  0
  -41.5978   23.0147   13.0163 H   0  0  0  0  0
  -40.6265   22.6040   14.5141 H   0  0  0  0  0
  -39.7929   23.9890   12.3074 H   0  0  0  0  0
  -39.0362   23.9878   13.9905 H   0  0  0  0  0
  -40.2123   25.9467   14.5162 H   0  0  0  0  0
  -40.9098   25.9590   12.7709 H   0  0  0  0  0
  -39.2830   27.5952   13.1444 H   0  0  0  0  0
  -38.1702   26.4373   13.5887 H   0  0  0  0  0
  -38.7885   26.4482   12.0414 H   0  0  0  0  0
  2  1  4  0  0  0
  6  1  4  0  0  0
  3  2  4  0  0  0
  2 15  1  0  0  0
  4  3  4  0  0  0
  4  5  4  0  0  0
 10  4  4  0  0  0
  5  6  4  0  0  0
  5  9  4  0  0  0
  6 14  1  0  0  0
  7  8  4  0  0  0
  7 10  4  0  0  0
  7 11  1  0  0  0
  8  9  4  0  0  0
  8 12  1  0  0  0
 11 22  1  0  0  0
 12 13  1  0  0  0
 15 16  1  0  0  0
 16 17  1  0  0  0
 17 18  1  0  0  0
 18 19  1  0  0  0
 19 20  1  0  0  0
 19 21  1  0  0  0
 22 23  1  0  0  0
 23 24  1  0  0  0
 24 25  1  0  0  0
 25 26  1  0  0  0
 26 27  1  0  0  0
  9 28  1  0  0  0
 10 29  1  0  0  0
 13 30  1  0  0  0
 13 31  1  0  0  0
 13 32  1  0  0  0
 14 33  1  0  0  0
 14 34  1  0  0  0
 15 35  1  0  0  0
 16 36  1  0  0  0
 16 37  1  0  0  0
 17 38  1  0  0  0
 17 39  1  0  0  0
 18 40  1  0  0  0
 18 41  1  0  0  0
 19 42  1  0  0  0
 20 43  1  0  0  0
 20 44  1  0  0  0
 20 45  1  0  0  0
 21 46  1  0  0  0
 21 47  1  0  0  0
 21 48  1  0  0  0
 22 49  1  0  0  0
 22 50  1  0  0  0
 23 51  1  0  0  0
 23 52  1  0  0  0
 24 53  1  0  0  0
 24 54  1  0  0  0
 25 55  1  0  0  0
 25 56  1  0  0  0
 26 57  1  0  0  0
 26 58  1  0  0  0
 27 59  1  0  0  0
 27 60  1  0  0  0
 27 61  1  0  0  0
M  END
$$$$
