### 
### Created by X-TOOL on Mon Sep 10 21:13:10 2018
### 

@<TRIPOS>MOLECULE
3u78_ligand
   60    61     1     0     0
SMALL
GAST_HUCK


@<TRIPOS>ATOM
      1 N1        -45.8050   23.9650   21.4060 N.ar      1 E67        -0.2474
      2 C2        -44.7900   24.7990   21.0350 C.ar      1 E67         0.1533
      3 N3        -44.1420   24.6130   19.8990 N.ar      1 E67        -0.3045
      4 C4        -44.4890   23.6080   19.0760 C.ar      1 E67         0.0078
      5 C5        -45.5400   22.7400   19.4190 C.ar      1 E67         0.0265
      6 C6        -46.2090   22.9500   20.6390 C.ar      1 E67         0.1216
      7 CAA       -44.1730   22.3900   17.0380 C.ar      1 E67         0.1280
      8 CAB       -45.2200   21.5150   17.3510 C.ar      1 E67         0.1272
      9 CAC       -45.9070   21.6790   18.5470 C.ar      1 E67        -0.0226
     10 CAF       -43.8110   23.4420   17.9060 C.ar      1 E67        -0.0244
     11 OAK       -43.4670   22.3160   15.8520 O.3       1 E67        -0.3141
     12 OAL       -45.5730   20.4920   16.4670 O.3       1 E67        -0.3230
     13 CAM       -46.8410   20.4610   15.9320 C.3       1 E67         0.0572
     14 NAN       -47.2920   22.0990   21.0800 N.pl3     1 E67        -0.3110
     15 NAU       -44.3440   25.8400   21.9640 N.pl3     1 E67        -0.2962
     16 CAV       -43.8420   26.3210   23.2600 C.3       1 E67         0.0282
     17 CAW       -43.6070   25.2150   24.3050 C.3       1 E67        -0.0511
     18 CAX       -42.8620   23.9780   23.9210 C.3       1 E67        -0.1120
     19 NAY       -43.4440   23.0170   22.9990 N.4       1 E67         0.3987
     20 CAZ       -43.7940   21.7690   23.7120 C.3       1 E67        -0.1260
     21 CBA       -42.5320   22.6980   21.9490 C.3       1 E67        -0.1260
     22 CBB       -43.4290   23.4970   15.0880 C.3       1 E67         0.0710
     23 CBC       -42.0560   24.1540   14.7460 C.3       1 E67        -0.0248
     24 CBD       -41.0550   23.3850   13.8860 C.3       1 E67        -0.0458
     25 CBE       -39.8970   24.2270   13.3660 C.3       1 E67        -0.0126
     26 CBF       -40.0880   25.7410   13.4530 C.3       1 E67        -0.0354
     27 NBG       -38.9990   26.6230   13.0240 N.4       1 E67         0.2185
     28 H         -46.7183   21.0018   18.8139 H         1 E67         0.0541
     29 H         -42.9959   24.1161   17.6427 H         1 E67         0.0461
     30 H         -47.5718   20.3829   16.7370 H         1 E67         0.0573
     31 H         -47.0179   21.3759   15.3665 H         1 E67         0.0573
     32 H         -46.9339   19.5998   15.2704 H         1 E67         0.0573
     33 H         -47.5940   21.3161   20.5001 H         1 E67         0.1862
     34 H         -47.7539   22.2817   21.9709 H         1 E67         0.1862
     35 H         -44.4261   26.6948   21.4136 H         1 E67         0.1855
     36 H         -44.6009   26.9887   23.6678 H         1 E67         0.0523
     37 H         -42.8774   26.7928   23.0729 H         1 E67         0.0523
     38 H         -44.6063   24.8645   24.5632 H         1 E67         0.0265
     39 H         -42.9848   25.6848   25.0667 H         1 E67         0.0265
     40 H         -42.7635   23.4252   24.8553 H         1 E67         0.0017
     41 H         -41.9806   24.3491   23.3981 H         1 E67         0.0017
     42 H         -42.8946   21.3399   24.1536 H         1 E67        -0.0019
     43 H         -44.5157   21.9913   24.4980 H         1 E67        -0.0019
     44 H         -44.2287   21.0595   23.0079 H         1 E67        -0.0019
     45 H         -42.2826   23.6049   21.3981 H         1 E67        -0.0019
     46 H         -41.6250   22.2692   22.3751 H         1 E67        -0.0019
     47 H         -42.9942   21.9771   21.2746 H         1 E67        -0.0019
     48 H         -43.9424   24.2374   15.7014 H         1 E67         0.0615
     49 H         -43.8454   23.2124   14.1217 H         1 E67         0.0615
     50 H         -41.5591   24.2788   15.7081 H         1 E67         0.0291
     51 H         -42.3079   25.0370   14.1587 H         1 E67         0.0291
     52 H         -41.5978   23.0147   13.0163 H         1 E67         0.0268
     53 H         -40.6265   22.6040   14.5141 H         1 E67         0.0268
     54 H         -39.7929   23.9890   12.3074 H         1 E67         0.0317
     55 H         -39.0362   23.9878   13.9905 H         1 E67         0.0317
     56 H         -40.2123   25.9467   14.5162 H         1 E67         0.0813
     57 H         -40.9098   25.9590   12.7709 H         1 E67         0.0813
     58 H         -39.2830   27.5952   13.1444 H         1 E67         0.1994
     59 H         -38.1702   26.4373   13.5887 H         1 E67         0.1994
     60 H         -38.7885   26.4482   12.0414 H         1 E67         0.1994
@<TRIPOS>BOND
     1    2    1 ar 
     2    6    1 ar 
     3    3    2 ar 
     4    2   15 1  
     5    4    3 ar 
     6    4    5 ar 
     7   10    4 ar 
     8    5    6 ar 
     9    5    9 ar 
    10    6   14 1  
    11    7    8 ar 
    12    7   10 ar 
    13    7   11 1  
    14    8    9 ar 
    15    8   12 1  
    16   11   22 1  
    17   12   13 1  
    18   15   16 1  
    19   16   17 1  
    20   17   18 1  
    21   18   19 1  
    22   19   20 1  
    23   19   21 1  
    24   22   23 1  
    25   23   24 1  
    26   24   25 1  
    27   25   26 1  
    28   26   27 1  
    29    9   28 1  
    30   10   29 1  
    31   13   30 1  
    32   13   31 1  
    33   13   32 1  
    34   14   33 1  
    35   14   34 1  
    36   15   35 1  
    37   16   36 1  
    38   16   37 1  
    39   17   38 1  
    40   17   39 1  
    41   18   40 1  
    42   18   41 1  
    43   20   42 1  
    44   20   43 1  
    45   20   44 1  
    46   21   45 1  
    47   21   46 1  
    48   21   47 1  
    49   22   48 1  
    50   22   49 1  
    51   23   50 1  
    52   23   51 1  
    53   24   52 1  
    54   24   53 1  
    55   25   54 1  
    56   25   55 1  
    57   26   56 1  
    58   26   57 1  
    59   27   58 1  
    60   27   59 1  
    61   27   60 1  
@<TRIPOS>SUBSTRUCTURE
     1 E67         1

