6pf4_ligand
  -I-interpret- 

 48 51  0  0  0  0  0  0  0  0999 V2000
   31.9220   -5.8820   -8.0860 N   0  0  0  0  0
   30.9570   -6.7080   -7.5350 C   0  0  0  0  0
   27.9200   -5.2540   -8.6690 O   0  0  0  0  0
   30.0790   -4.6670   -9.0140 N   0  0  0  0  0
   29.6020   -6.5800   -7.6750 C   0  0  0  0  0
   24.0370  -10.2150  -11.9270 O   0  0  0  0  0
   31.1990   -7.8050   -6.7500 N   0  0  0  0  0
   29.1170   -5.4530   -8.4910 C   0  0  0  0  0
   30.7870  -11.0400  -13.3680 O   0  0  0  0  0
   24.9550   -9.1370   -9.3970 C   0  0  0  0  0
   25.7920   -9.6740  -10.4020 C   0  0  0  0  0
   27.1910   -9.6380  -10.2120 C   0  0  0  0  0
   27.7420   -9.0730   -9.0460 C   0  0  0  0  0
   25.2380  -10.2900  -11.6560 C   0  0  0  0  0
   26.1430  -11.5570  -13.6570 C   0  0  0  0  0
   27.3470  -12.1700  -14.0850 C   0  0  0  0  0
   27.3830  -12.8610  -15.3170 C   0  0  0  0  0
   26.2310  -12.9420  -16.1190 C   0  0  0  0  0
   25.0350  -12.3340  -15.6980 C   0  0  0  0  0
   24.9870  -11.6430  -14.4730 C   0  0  0  0  0
   28.6060  -12.0900  -13.2180 C   0  0  0  0  0
   29.6400  -11.1260  -13.8050 C   0  0  0  0  0
   31.4490   -4.9000   -8.8010 C   0  0  0  0  0
   28.9780   -7.6390   -6.9430 C   0  0  0  0  0
   29.9970   -8.3760   -6.3860 C   0  0  0  0  0
   27.5030   -7.9250   -6.7970 C   0  0  0  0  0
   26.9040   -8.5240   -8.0560 C   0  0  0  0  0
   25.5060   -8.5650   -8.2330 C   0  0  0  0  0
   32.2370   -3.9650   -9.4380 N   0  0  0  0  0
   26.1870  -10.8760  -12.4080 N   0  0  0  0  0
   29.1390  -10.4040  -14.8540 O   0  0  0  0  0
   32.9212   -6.0298   -7.9441 H   0  0  0  0  0
   23.8728   -9.1657   -9.5238 H   0  0  0  0  0
   27.8503  -10.0515  -10.9752 H   0  0  0  0  0
   28.8232   -9.0604   -8.9087 H   0  0  0  0  0
   28.3081  -13.3334  -15.6472 H   0  0  0  0  0
   26.2650  -13.4767  -17.0682 H   0  0  0  0  0
   24.1434  -12.3980  -16.3217 H   0  0  0  0  0
   24.0581  -11.1725  -14.1506 H   0  0  0  0  0
   29.0523  -13.0833  -13.1695 H   0  0  0  0  0
   28.3199  -11.7262  -12.2311 H   0  0  0  0  0
   29.8754   -9.2616   -5.7623 H   0  0  0  0  0
   26.9943   -6.9820   -6.5965 H   0  0  0  0  0
   27.3769   -8.6442   -5.9877 H   0  0  0  0  0
   24.8491   -8.1529   -7.4670 H   0  0  0  0  0
   31.8041   -3.2193   -9.9828 H   0  0  0  0  0
   27.1218  -10.8216  -12.0036 H   0  0  0  0  0
   28.2231  -10.6504  -15.0021 H   0  0  0  0  0
  2  1  1  0  0  0
  1 23  1  0  0  0
  5  2  4  0  0  0
  7  2  4  0  0  0
  8  3  2  0  0  0
  8  4  1  0  0  0
  4 23  4  0  0  0
  5  8  1  0  0  0
 24  5  4  0  0  0
 14  6  2  0  0  0
 25  7  4  0  0  0
 22  9  2  0  0  0
 11 10  4  0  0  0
 10 28  4  0  0  0
 12 11  4  0  0  0
 11 14  1  0  0  0
 13 12  4  0  0  0
 27 13  4  0  0  0
 14 30  1  0  0  0
 15 16  4  0  0  0
 15 20  4  0  0  0
 30 15  1  0  0  0
 16 17  4  0  0  0
 16 21  1  0  0  0
 17 18  4  0  0  0
 19 18  4  0  0  0
 20 19  4  0  0  0
 21 22  1  0  0  0
 22 31  1  0  0  0
 23 29  2  0  0  0
 24 25  4  0  0  0
 26 24  1  0  0  0
 26 27  1  0  0  0
 27 28  4  0  0  0
  1 32  1  0  0  0
 10 33  1  0  0  0
 12 34  1  0  0  0
 13 35  1  0  0  0
 17 36  1  0  0  0
 18 37  1  0  0  0
 19 38  1  0  0  0
 20 39  1  0  0  0
 21 40  1  0  0  0
 21 41  1  0  0  0
 25 42  1  0  0  0
 26 43  1  0  0  0
 26 44  1  0  0  0
 28 45  1  0  0  0
 29 46  1  0  0  0
 30 47  1  0  0  0
 31 48  1  0  0  0
M  END
$$$$
