1qk3_ligand
  -I-interpret- 

 38 40  0  0  0  0  0  0  0  0999 V2000
   60.5190  108.3350  114.3770 P   0  0  0  0  0
   59.0930  108.5740  114.6540 O   0  0  0  0  0
   60.8490  108.3850  112.8960 O   0  0  0  0  0
   61.4530  109.2730  115.2070 O   0  0  0  0  0
   60.9550  106.8580  114.8660 O   0  0  0  0  0
   61.5070  106.6510  116.1800 C   0  0  0  0  0
   61.8940  105.2010  116.4460 C   0  0  0  0  0
   60.6160  104.4950  116.6290 O   0  0  0  0  0
   62.5890  104.3960  115.3670 C   0  0  0  0  0
   63.9940  104.5490  115.3850 O   0  0  0  0  0
   62.2710  102.9660  115.7810 C   0  0  0  0  0
   63.1130  102.5420  116.8670 O   0  0  0  0  0
   60.8240  103.1110  116.2570 C   0  0  0  0  0
   59.7550  102.7170  115.3190 N   0  0  0  0  0
   58.9860  103.4930  114.4960 C   0  0  0  0  0
   58.0820  102.8470  113.8100 N   0  0  0  0  0
   58.2410  101.5220  114.2800 C   0  0  0  0  0
   57.4920  100.3820  113.9100 C   0  0  0  0  0
   56.5620  100.3110  113.1170 O   0  0  0  0  0
   57.9230   99.2500  114.6210 N   0  0  0  0  0
   58.9540   99.2570  115.5350 C   0  0  0  0  0
   59.1760   98.0480  116.0990 N   0  0  0  0  0
   59.6720  100.3310  115.8870 N   0  0  0  0  0
   59.2490  101.4350  115.2060 C   0  0  0  0  0
   61.7872  108.2234  112.7727 H   0  0  0  0  0
   62.3690  109.0810  114.9935 H   0  0  0  0  0
   60.7434  106.9281  116.9068 H   0  0  0  0  0
   62.4116  107.2542  116.2574 H   0  0  0  0  0
   62.6085  105.2654  117.2667 H   0  0  0  0  0
   62.2629  104.6955  114.3710 H   0  0  0  0  0
   64.3814  104.0197  114.6840 H   0  0  0  0  0
   62.4215  102.2305  114.9908 H   0  0  0  0  0
   64.0166  102.4552  116.5548 H   0  0  0  0  0
   60.7314  102.4023  117.0800 H   0  0  0  0  0
   59.1182  104.5722  114.4184 H   0  0  0  0  0
   57.4423   98.3668  114.4499 H   0  0  0  0  0
   59.9021   97.9413  116.8073 H   0  0  0  0  0
   58.6173   97.2429  115.8160 H   0  0  0  0  0
  1  4  1  0  0  0
  1  5  1  0  0  0
  1  3  1  0  0  0
  1  2  2  0  0  0
  5  6  1  0  0  0
  6  7  1  0  0  0
  7  9  1  0  0  0
  7  8  1  0  0  0
  8 13  1  0  0  0
 13 14  1  0  0  0
 13 11  1  0  0  0
 11 12  1  0  0  0
 11  9  1  0  0  0
  9 10  1  0  0  0
 14 15  4  0  0  0
 14 24  4  0  0  0
 24 23  1  0  0  0
 24 17  4  0  0  0
 17 18  1  0  0  0
 17 16  4  0  0  0
 16 15  4  0  0  0
 18 19  2  0  0  0
 18 20  1  0  0  0
 20 21  1  0  0  0
 21 22  1  0  0  0
 21 23  2  0  0  0
  3 25  1  0  0  0
  4 26  1  0  0  0
  6 27  1  0  0  0
  6 28  1  0  0  0
  7 29  1  0  0  0
  9 30  1  0  0  0
 10 31  1  0  0  0
 11 32  1  0  0  0
 12 33  1  0  0  0
 13 34  1  0  0  0
 15 35  1  0  0  0
 20 36  1  0  0  0
 22 37  1  0  0  0
 22 38  1  0  0  0
M  END
$$$$
