4eqj_ligand
  -I-interpret- 

 95 96  0  0  0  0  0  0  0  0999 V2000
    2.4970    4.6270    8.1240 N   0  3  0  0  0
    3.6550    4.0680    8.8930 C   0  0  0  0  0
    3.1870    3.5500   10.2360 C   0  0  0  0  0
    3.0600    4.3030   11.1900 O   0  0  0  0  0
    4.7360    5.1180    9.1340 C   0  0  0  0  0
    2.9870    2.2450   10.3080 N   0  0  0  0  0
    2.6410    1.5930   11.5590 C   0  0  0  0  0
    3.7490    0.6680   12.0750 C   0  0  0  0  0
    3.7190   -0.5460   11.8260 O   0  0  0  0  0
    1.3950    0.7350   11.3820 C   0  0  0  0  0
    0.3440    1.5340   10.8170 O   0  0  0  0  0
    0.9900    0.1580   12.7160 C   0  0  0  0  0
    4.7060    1.2230   12.8130 N   0  0  0  0  0
    5.8790    0.4340   13.2080 C   0  0  0  0  0
    5.7080   -0.2020   14.5720 C   0  0  0  0  0
    5.0670    0.3330   15.4780 O   0  0  0  0  0
    7.1650    1.2430   13.1420 C   0  0  0  0  0
    7.3800    1.8950   11.8160 C   0  0  0  0  0
    7.6560    1.1310   10.6830 C   0  0  0  0  0
    7.2290    3.2620   11.6750 C   0  0  0  0  0
    7.8200    1.7340    9.4430 C   0  0  0  0  0
    7.3950    3.8700   10.4400 C   0  0  0  0  0
    7.6880    3.1050    9.3240 C   0  0  0  0  0
    6.2880   -1.3720   14.6900 N   0  0  0  0  0
    5.8090   -2.3430   15.6350 C   0  0  0  0  0
    6.5470   -3.6270   15.3030 C   0  0  0  0  0
    6.6060   -4.0670   14.1460 O   0  0  0  0  0
    4.2870   -2.5340   15.5190 C   0  0  0  0  0
    3.8410   -3.9190   15.9210 C   0  0  0  0  0
    3.7390   -4.2740   17.2590 C   0  0  0  0  0
    3.6000   -4.8940   14.9650 C   0  0  0  0  0
    3.3910   -5.5550   17.6330 C   0  0  0  0  0
    3.2450   -6.1760   15.3270 C   0  0  0  0  0
    3.1430   -6.5030   16.6610 C   0  0  0  0  0
    2.7950   -7.7840   17.0200 O   0  0  0  0  0
    7.1360   -4.1940   16.3410 N   0  0  0  0  0
    8.0850   -5.2600   16.2130 C   0  0  0  0  0
    7.9050   -6.1840   17.4100 C   0  0  0  0  0
    8.4170   -5.9030   18.4930 O   0  0  0  0  0
    9.5170   -4.7110   16.2650 C   0  0  0  0  0
   10.4890   -5.8360   16.5840 C   0  0  0  0  0
    9.8740   -3.9910   14.9680 C   0  0  0  0  0
    7.1710   -7.2720   17.2080 N   0  0  0  0  0
    6.9500   -8.2810   18.2440 C   0  0  0  0  0
    8.0010   -9.3920   18.1870 C   0  0  0  0  0
    8.4102   -9.8289   17.0783 O   0  0  0  0  0
    5.5480   -8.8880   18.0880 C   0  0  0  0  0
    8.4605   -9.8735   19.2569 O   0  0  0  0  0
    1.7989    3.8966    7.9842 H   0  0  0  0  0
    2.0834    5.3986    8.6475 H   0  0  0  0  0
    2.8231    4.9651    7.2186 H   0  0  0  0  0
    4.0753    3.2596    8.2948 H   0  0  0  0  0
    4.3223    5.9341    9.7264 H   0  0  0  0  0
    5.5688    4.6636    9.6707 H   0  0  0  0  0
    5.0862    5.5035    8.1765 H   0  0  0  0  0
    3.0781    1.6813    9.4628 H   0  0  0  0  0
    2.4808    2.3973   12.2770 H   0  0  0  0  0
    1.5993   -0.0916   10.7015 H   0  0  0  0  0
   -0.4419    0.9942   10.7050 H   0  0  0  0  0
    0.7613    0.9694   13.4070 H   0  0  0  0  0
    0.1084   -0.4698   12.5863 H   0  0  0  0  0
    1.8087   -0.4409   13.1150 H   0  0  0  0  0
    4.6249    2.1971   13.1046 H   0  0  0  0  0
    5.9614   -0.3718   12.4786 H   0  0  0  0  0
    7.9959    0.5585   13.3129 H   0  0  0  0  0
    7.0990    2.0314   13.8917 H   0  0  0  0  0
    7.7440    0.0482   10.7715 H   0  0  0  0  0
    6.9766    3.8687   12.5446 H   0  0  0  0  0
    8.0519    1.1287    8.5667 H   0  0  0  0  0
    7.2947    4.9514   10.3477 H   0  0  0  0  0
    7.8145    3.5831    8.3526 H   0  0  0  0  0
    7.0910   -1.5963   14.1024 H   0  0  0  0  0
    5.9922   -2.0254   16.6615 H   0  0  0  0  0
    4.0094   -2.3827   14.4759 H   0  0  0  0  0
    3.8082   -1.8205   16.1897 H   0  0  0  0  0
    3.9375   -3.5271   18.0277 H   0  0  0  0  0
    3.6929   -4.6424   13.9085 H   0  0  0  0  0
    3.3124   -5.8168   18.6882 H   0  0  0  0  0
    3.0462   -6.9265   14.5619 H   0  0  0  0  0
    2.6591   -8.3110   16.2292 H   0  0  0  0  0
    6.9047   -3.8577   17.2758 H   0  0  0  0  0
    7.9259   -5.7755   15.2659 H   0  0  0  0  0
    9.5879   -3.9710   17.0622 H   0  0  0  0  0
   10.2342   -6.2716   17.5501 H   0  0  0  0  0
   10.4237   -6.6011   15.8104 H   0  0  0  0  0
   11.5035   -5.4389   16.6193 H   0  0  0  0  0
    9.7963   -4.6881   14.1337 H   0  0  0  0  0
    9.1857   -3.1599   14.8140 H   0  0  0  0  0
   10.8941   -3.6124   15.0330 H   0  0  0  0  0
    6.7434   -7.4100   16.2923 H   0  0  0  0  0
    7.0359   -7.7877   19.2122 H   0  0  0  0  0
    4.8000   -8.1011   18.1849 H   0  0  0  0  0
    5.4623   -9.3537   17.1062 H   0  0  0  0  0
    5.3902   -9.6385   18.8626 H   0  0  0  0  0
    8.0493   -9.4359   20.0060 H   0  0  0  0  0
  1  2  1  0  0  0
  2  3  1  0  0  0
  2  5  1  0  0  0
  3  4  2  0  0  0
  3  6  1  0  0  0
  6  7  1  0  0  0
  7  8  1  0  0  0
  7 10  1  0  0  0
  8  9  2  0  0  0
  8 13  1  0  0  0
 10 11  1  0  0  0
 10 12  1  0  0  0
 13 14  1  0  0  0
 14 15  1  0  0  0
 14 17  1  0  0  0
 15 16  2  0  0  0
 15 24  1  0  0  0
 17 18  1  0  0  0
 18 19  4  0  0  0
 18 20  4  0  0  0
 19 21  4  0  0  0
 20 22  4  0  0  0
 21 23  4  0  0  0
 22 23  4  0  0  0
 24 25  1  0  0  0
 25 26  1  0  0  0
 25 28  1  0  0  0
 26 27  2  0  0  0
 26 36  1  0  0  0
 28 29  1  0  0  0
 29 30  4  0  0  0
 29 31  4  0  0  0
 30 32  4  0  0  0
 31 33  4  0  0  0
 32 34  4  0  0  0
 33 34  4  0  0  0
 34 35  1  0  0  0
 36 37  1  0  0  0
 37 38  1  0  0  0
 37 40  1  0  0  0
 38 39  2  0  0  0
 38 43  1  0  0  0
 40 41  1  0  0  0
 40 42  1  0  0  0
 43 44  1  0  0  0
 44 45  1  0  0  0
 44 47  1  0  0  0
 45 46  2  0  0  0
 45 48  1  0  0  0
  1 49  1  0  0  0
  1 50  1  0  0  0
  1 51  1  0  0  0
  2 52  1  0  0  0
  5 53  1  0  0  0
  5 54  1  0  0  0
  5 55  1  0  0  0
  6 56  1  0  0  0
  7 57  1  0  0  0
 10 58  1  0  0  0
 11 59  1  0  0  0
 12 60  1  0  0  0
 12 61  1  0  0  0
 12 62  1  0  0  0
 13 63  1  0  0  0
 14 64  1  0  0  0
 17 65  1  0  0  0
 17 66  1  0  0  0
 19 67  1  0  0  0
 20 68  1  0  0  0
 21 69  1  0  0  0
 22 70  1  0  0  0
 23 71  1  0  0  0
 24 72  1  0  0  0
 25 73  1  0  0  0
 28 74  1  0  0  0
 28 75  1  0  0  0
 30 76  1  0  0  0
 31 77  1  0  0  0
 32 78  1  0  0  0
 33 79  1  0  0  0
 35 80  1  0  0  0
 36 81  1  0  0  0
 37 82  1  0  0  0
 40 83  1  0  0  0
 41 84  1  0  0  0
 41 85  1  0  0  0
 41 86  1  0  0  0
 42 87  1  0  0  0
 42 88  1  0  0  0
 42 89  1  0  0  0
 43 90  1  0  0  0
 44 91  1  0  0  0
 47 92  1  0  0  0
 47 93  1  0  0  0
 47 94  1  0  0  0
 48 95  1  0  0  0
M  END
$$$$
