4dff_ligand
  -I-interpret- 

 37 40  0  0  0  0  0  0  0  0999 V2000
    7.6610   38.3340   56.9970 C   0  0  0  0  0
    8.5750   38.4720   59.6520 C   0  0  0  0  0
    9.0860   37.6610   53.9350 C   0  0  0  0  0
   10.9440   41.4910   55.7050 C   0  0  0  0  0
    8.8250   37.8760   51.7520 C   0  0  0  0  0
    8.8130   39.0780   57.3080 C   0  0  0  0  0
    9.2650   39.1380   58.6570 C   0  0  0  0  0
    6.9280   37.6800   57.9970 C   0  0  0  0  0
    7.3870   37.7360   59.3260 C   0  0  0  0  0
    9.8200   39.8730   54.9180 C   0  0  0  0  0
    9.5700   39.8290   56.2970 C   0  0  0  0  0
    9.4020   38.9920   53.8240 C   0  0  0  0  0
   10.4670   39.9810   59.0020 C   0  0  0  0  0
   10.3410   41.2740   58.1860 C   0  0  0  0  0
    5.1430   36.7830   56.5400 C   0  0  0  0  0
    6.7640   36.9990   61.5960 C   0  0  0  0  0
    8.7410   36.9940   52.7650 N   0  0  0  0  0
   10.6920   40.8910   54.5900 N   0  0  0  0  0
   10.3050   40.8940   56.7580 N   0  0  0  0  0
    5.7960   36.8900   57.8120 O   0  0  0  0  0
    6.6220   36.9730   60.1660 O   0  0  0  0  0
    9.3290   39.4860   52.1660 S   0  0  0  0  0
    7.3322   38.2646   55.9601 H   0  0  0  0  0
    8.9320   38.5056   60.6813 H   0  0  0  0  0
    9.1047   37.1497   54.8975 H   0  0  0  0  0
   11.5872   42.3662   55.7967 H   0  0  0  0  0
    8.5892   37.5949   50.7256 H   0  0  0  0  0
   11.3926   39.4573   58.7629 H   0  0  0  0  0
   10.4997   40.1953   60.0702 H   0  0  0  0  0
   11.1851   41.9346   58.3843 H   0  0  0  0  0
    9.4340   41.8123   58.4610 H   0  0  0  0  0
    4.8064   37.7697   56.2217 H   0  0  0  0  0
    5.8426   36.3822   55.8065 H   0  0  0  0  0
    4.2854   36.1161   56.6283 H   0  0  0  0  0
    7.7766   36.6983   61.8648 H   0  0  0  0  0
    6.5746   38.0087   61.9603 H   0  0  0  0  0
    6.0481   36.3096   62.0435 H   0  0  0  0  0
  6  1  4  0  0  0
  1  8  4  0  0  0
  7  2  4  0  0  0
  2  9  4  0  0  0
 12  3  4  0  0  0
  3 17  4  0  0  0
 18  4  4  0  0  0
  4 19  4  0  0  0
 17  5  4  0  0  0
  5 22  4  0  0  0
  6  7  4  0  0  0
 11  6  1  0  0  0
  7 13  1  0  0  0
  8  9  4  0  0  0
  8 20  1  0  0  0
  9 21  1  0  0  0
 10 11  4  0  0  0
 10 12  1  0  0  0
 10 18  4  0  0  0
 11 19  4  0  0  0
 12 22  4  0  0  0
 13 14  1  0  0  0
 14 19  1  0  0  0
 20 15  1  0  0  0
 21 16  1  0  0  0
  1 23  1  0  0  0
  2 24  1  0  0  0
  3 25  1  0  0  0
  4 26  1  0  0  0
  5 27  1  0  0  0
 13 28  1  0  0  0
 13 29  1  0  0  0
 14 30  1  0  0  0
 14 31  1  0  0  0
 15 32  1  0  0  0
 15 33  1  0  0  0
 15 34  1  0  0  0
 16 35  1  0  0  0
 16 36  1  0  0  0
 16 37  1  0  0  0
M  END
$$$$
