5dt2_ligand
  -I-interpret- 

 55 59  0  0  0  0  0  0  0  0999 V2000
   33.2520   -6.8210    8.1640 C   0  0  0  0  0
   33.9840   -7.8090    8.8230 C   0  0  0  0  0
   35.1210   -7.4800    9.5950 C   0  0  0  0  0
   33.9080  -10.2120    9.1180 C   0  0  0  0  0
   36.9550   -6.2090   11.6600 C   0  0  0  0  0
   35.1020  -10.8080    8.6590 C   0  0  0  0  0
   35.5560  -12.0300    9.1910 C   0  0  0  0  0
   34.7930  -12.6710   10.1800 C   0  0  0  0  0
   33.5900  -12.1000   10.6210 C   0  0  0  0  0
   33.1640  -10.8620   10.1090 C   0  0  0  0  0
   38.4560   -6.1170   13.4990 C   0  0  0  0  0
   38.0030   -7.3660   13.9480 C   0  0  0  0  0
   37.0060   -8.0310   13.2040 C   0  0  0  0  0
   31.1380  -10.6990   11.4940 C   0  0  0  0  0
   31.4050  -10.4360   12.8510 C   0  0  0  0  0
   30.4980  -10.8740   13.8360 C   0  0  0  0  0
   29.3380  -11.5710   13.4560 C   0  0  0  0  0
   29.0670  -11.8150   12.1000 C   0  0  0  0  0
   29.9650  -11.3760   11.1180 C   0  0  0  0  0
   35.4420   -6.1020    9.7380 C   0  0  0  0  0
   34.7490   -5.1430    8.9790 C   0  0  0  0  0
   33.6600   -5.4850    8.1540 C   0  0  0  0  0
   32.2040   -7.5930    7.4260 C   0  0  0  0  0
   32.3970   -8.8800    7.7550 C   0  0  0  0  0
   33.4370   -9.0180    8.5740 N   0  0  0  0  0
   31.5330   -9.9970    7.2230 C   0  0  0  0  0
   36.4720   -5.6540   10.5070 N   0  0  0  0  0
   37.9290   -5.5840   12.3760 N   0  0  0  0  0
   36.5200   -7.4160   12.0860 N   0  0  0  0  0
   31.9790  -10.2240   10.4890 O   0  0  0  0  0
   36.5190   -9.2600   13.5670 N   0  0  0  0  0
   35.7190  -10.1680   12.7420 C   0  0  0  0  0
   35.7293   -8.2537   10.0634 H   0  0  0  0  0
   35.6824  -10.3141    7.8797 H   0  0  0  0  0
   36.4880  -12.4727    8.8395 H   0  0  0  0  0
   35.1360  -13.6139   10.6059 H   0  0  0  0  0
   32.9832  -12.6182   11.3635 H   0  0  0  0  0
   39.2272   -5.5809   14.0521 H   0  0  0  0  0
   38.4129   -7.8137   14.8533 H   0  0  0  0  0
   32.3079   -9.8968   13.1378 H   0  0  0  0  0
   30.6951  -10.6731   14.8890 H   0  0  0  0  0
   28.6443  -11.9244   14.2189 H   0  0  0  0  0
   28.1593  -12.3452   11.8117 H   0  0  0  0  0
   29.7543  -11.5592   10.0644 H   0  0  0  0  0
   35.0647   -4.1010    9.0306 H   0  0  0  0  0
   33.1582   -4.7408    7.5356 H   0  0  0  0  0
   31.4409   -7.1927    6.7586 H   0  0  0  0  0
   30.4986   -9.8288    7.5228 H   0  0  0  0  0
   31.5984  -10.0186    6.1352 H   0  0  0  0  0
   31.8801  -10.9475    7.6281 H   0  0  0  0  0
   36.9380   -4.8054   10.1859 H   0  0  0  0  0
   36.7370   -9.5756   14.5121 H   0  0  0  0  0
   34.7935   -9.6716   12.4503 H   0  0  0  0  0
   36.2839  -10.4394   11.8502 H   0  0  0  0  0
   35.4863  -11.0664   13.3137 H   0  0  0  0  0
  2  1  4  0  0  0
  1 22  4  0  0  0
  1 23  4  0  0  0
  3  2  4  0  0  0
  2 25  4  0  0  0
 20  3  4  0  0  0
  4  6  4  0  0  0
  4 10  4  0  0  0
 25  4  1  0  0  0
 27  5  1  0  0  0
  5 28  4  0  0  0
  5 29  4  0  0  0
  6  7  4  0  0  0
  7  8  4  0  0  0
  9  8  4  0  0  0
 10  9  4  0  0  0
 10 30  1  0  0  0
 11 12  4  0  0  0
 28 11  4  0  0  0
 13 12  4  0  0  0
 29 13  4  0  0  0
 13 31  1  0  0  0
 14 15  4  0  0  0
 14 19  4  0  0  0
 30 14  1  0  0  0
 15 16  4  0  0  0
 16 17  4  0  0  0
 18 17  4  0  0  0
 19 18  4  0  0  0
 20 21  4  0  0  0
 20 27  1  0  0  0
 21 22  4  0  0  0
 23 24  4  0  0  0
 24 25  4  0  0  0
 24 26  1  0  0  0
 31 32  1  0  0  0
  3 33  1  0  0  0
  6 34  1  0  0  0
  7 35  1  0  0  0
  8 36  1  0  0  0
  9 37  1  0  0  0
 11 38  1  0  0  0
 12 39  1  0  0  0
 15 40  1  0  0  0
 16 41  1  0  0  0
 17 42  1  0  0  0
 18 43  1  0  0  0
 19 44  1  0  0  0
 21 45  1  0  0  0
 22 46  1  0  0  0
 23 47  1  0  0  0
 26 48  1  0  0  0
 26 49  1  0  0  0
 26 50  1  0  0  0
 27 51  1  0  0  0
 31 52  1  0  0  0
 32 53  1  0  0  0
 32 54  1  0  0  0
 32 55  1  0  0  0
M  END
$$$$
