4to8_ligand
  -I-interpret- 

 21 20  0  0  0  0  0  0  0  0999 V2000
   14.1110   27.4880    7.8970 C   0  0  0  0  0
   15.1820   27.8310    6.8710 C   0  0  0  0  0
   15.4870   26.8800    5.7240 C   0  0  0  0  0
   14.2780   26.5890    4.8400 C   0  0  0  0  0
   16.5660   27.5670    4.9280 C   0  0  0  0  0
   17.3070   26.6260    4.0060 C   0  0  0  0  0
   13.2380   28.3580    8.1710 O   0  0  0  0  0
   14.0910   26.3810    8.5020 O   0  0  0  0  0
   14.0940   25.4040    4.4450 O   0  0  0  0  0
   13.4610   27.4900    4.5020 O   0  0  0  0  0
   18.3050   27.0840    3.4020 O   0  0  0  0  0
   16.9410   25.4180    3.8450 O   0  0  0  0  0
   16.0200   25.6490    6.1700 O   0  0  0  0  0
   16.1063   27.8599    7.4480 H   0  0  0  0  0
   14.8060   28.7293    6.3814 H   0  0  0  0  0
   17.2880   27.9794    5.6328 H   0  0  0  0  0
   16.0903   28.3302    4.3122 H   0  0  0  0  0
   13.3855   29.1385    7.6319 H   0  0  0  0  0
   14.7951   24.8425    4.7837 H   0  0  0  0  0
   16.1645   25.2457    4.3826 H   0  0  0  0  0
   15.3569   25.1817    6.6833 H   0  0  0  0  0
  1  2  1  0  0  0
  1  7  1  0  0  0
  1  8  2  0  0  0
  2  3  1  0  0  0
  3  4  1  0  0  0
  3  5  1  0  0  0
  3 13  1  0  0  0
  4  9  1  0  0  0
  4 10  2  0  0  0
  5  6  1  0  0  0
  6 11  2  0  0  0
  6 12  1  0  0  0
  2 14  1  0  0  0
  2 15  1  0  0  0
  5 16  1  0  0  0
  5 17  1  0  0  0
  7 18  1  0  0  0
  9 19  1  0  0  0
 12 20  1  0  0  0
 13 21  1  0  0  0
M  END
$$$$
