1nju_ligand
  -I-interpret- 

115115  0  0  0  0  0  0  0  0999 V2000
    1.2370   73.4000  -19.1380 C   0  0  0  0  0
    1.6510   72.0560  -18.5520 C   0  0  0  0  0
    0.9670   71.0460  -18.7510 O   0  0  0  0  0
    1.1250   74.4870  -18.0710 C   0  0  0  0  0
    0.4540   75.7490  -18.6370 C   0  0  0  0  0
    0.8570   75.9540  -20.1050 C   0  0  0  0  0
    0.0440   77.0340  -20.8000 C   0  0  0  0  0
    0.4510   77.1570  -22.2410 N   0  3  0  0  0
    2.7690   72.0350  -17.8360 N   0  0  0  0  0
    3.2580   70.7930  -17.2520 C   0  0  0  0  0
    4.6110   70.3770  -17.9060 C   0  0  0  0  0
    5.5850   71.5450  -17.8740 C   0  0  0  0  0
    5.2120   69.1930  -17.1490 C   0  0  0  0  0
    4.3760   69.9760  -19.3560 C   0  0  0  0  0
    3.4220   70.8860  -15.7380 C   0  0  0  0  0
    3.8260   71.9220  -15.2120 O   0  0  0  0  0
    3.0960   69.7990  -15.0410 N   0  0  0  0  0
    3.2200   69.7550  -13.5860 C   0  0  0  0  0
    1.8620   69.5130  -12.9130 C   0  0  0  0  0
    1.3570   68.1280  -13.2520 C   0  0  0  0  0
    2.0110   69.6510  -11.4170 C   0  0  0  0  0
    0.8700   70.5340  -13.3960 C   0  0  0  0  0
    4.1760   68.6450  -13.1680 C   0  0  0  0  0
    3.9930   67.4810  -13.5270 O   0  0  0  0  0
    5.2000   69.0120  -12.4070 N   0  0  0  0  0
    6.1940   68.0530  -11.9460 C   0  0  0  0  0
    7.6000   68.5530  -12.2880 C   0  0  0  0  0
    7.8160   68.6890  -13.7810 C   0  0  0  0  0
    7.0190   68.1770  -14.5760 O   0  0  0  0  0
    8.9060   69.3670  -14.1780 N   0  0  0  0  0
    9.8790   69.9720  -13.3120 C   0  0  0  0  0
    9.1790   69.5370  -15.5620 C   0  0  0  0  0
    6.1100   67.7820  -10.4500 C   0  0  0  0  0
    6.0010   68.7070   -9.6420 O   0  0  0  0  0
    6.1640   66.5010  -10.0890 N   0  0  0  0  0
    6.1170   66.0860   -8.6910 C   0  0  0  0  0
    7.4160   65.3310   -8.3070 C   0  0  0  0  0
    7.1330   64.5170   -7.2120 O   0  0  0  0  0
    4.9120   65.1930   -8.4650 C   0  0  0  0  0
    8.5720   66.3300   -7.9560 C   0  0  0  0  0
    8.8610   67.2680   -8.7220 O   0  0  0  0  0
    9.2300   66.1200   -6.8090 N   0  0  0  0  0
   10.3340   66.9550   -6.3150 C   0  0  0  0  0
   11.5550   66.1040   -5.9210 C   0  0  0  0  0
   12.4800   66.8450   -4.9460 C   0  0  0  0  0
    9.8920   67.7530   -5.1100 C   0  0  0  0  0
    9.8860   69.1390   -5.1450 C   0  0  0  0  0
    9.5000   69.8830   -4.0270 C   0  0  0  0  0
    9.1140   69.2340   -2.8600 C   0  0  0  0  0
    9.1150   67.8530   -2.8130 C   0  0  0  0  0
    9.5020   67.1180   -3.9350 C   0  0  0  0  0
    0.2583   73.2796  -19.6025 H   0  0  0  0  0
    1.9994   73.7062  -19.8543 H   0  0  0  0  0
    2.1273   74.7470  -17.7307 H   0  0  0  0  0
    0.5185   74.1079  -17.2485 H   0  0  0  0  0
    0.7745   76.6136  -18.0558 H   0  0  0  0  0
   -0.6283   75.6337  -18.5778 H   0  0  0  0  0
    0.6809   75.0159  -20.6314 H   0  0  0  0  0
    1.9021   76.2631  -20.1219 H   0  0  0  0  0
    0.2214   77.9863  -20.3003 H   0  0  0  0  0
   -1.0117   76.7669  -20.7527 H   0  0  0  0  0
   -0.1049   77.8854  -22.6891 H   0  0  0  0  0
    1.4399   77.4013  -22.2941 H   0  0  0  0  0
    0.2934   76.2675  -22.7147 H   0  0  0  0  0
    3.2919   72.8990  -17.6931 H   0  0  0  0  0
    2.5049   70.0315  -17.4546 H   0  0  0  0  0
    5.1621   72.3843  -18.4261 H   0  0  0  0  0
    5.7617   71.8408  -16.8399 H   0  0  0  0  0
    6.5266   71.2439  -18.3331 H   0  0  0  0  0
    5.3859   69.4774  -16.1112 H   0  0  0  0  0
    4.5204   68.3513  -17.1854 H   0  0  0  0  0
    6.1568   68.9089  -17.6124 H   0  0  0  0  0
    3.6826   69.1358  -19.3914 H   0  0  0  0  0
    3.9540   70.8202  -19.9013 H   0  0  0  0  0
    5.3238   69.6860  -19.8096 H   0  0  0  0  0
    2.7510   68.9763  -15.5356 H   0  0  0  0  0
    3.6067   70.7226  -13.2661 H   0  0  0  0  0
    1.2439   68.0383  -14.3324 H   0  0  0  0  0
    2.0715   67.3852  -12.8972 H   0  0  0  0  0
    0.3930   67.9660  -12.7698 H   0  0  0  0  0
    2.7323   68.9180  -11.0558 H   0  0  0  0  0
    2.3616   70.6553  -11.1792 H   0  0  0  0  0
    1.0463   69.4790  -10.9397 H   0  0  0  0  0
    1.2266   71.5327  -13.1441 H   0  0  0  0  0
    0.7594   70.4482  -14.4770 H   0  0  0  0  0
   -0.0928   70.3588  -12.9159 H   0  0  0  0  0
    5.2929   69.9915  -12.1382 H   0  0  0  0  0
    5.9842   67.1151  -12.4602 H   0  0  0  0  0
    8.3184   67.8268  -11.9077 H   0  0  0  0  0
    7.7272   69.5373  -11.8374 H   0  0  0  0  0
    9.3909   70.7168  -12.6835 H   0  0  0  0  0
   10.3313   69.2047  -12.6837 H   0  0  0  0  0
   10.6506   70.4520  -13.9139 H   0  0  0  0  0
    9.2936   68.5598  -16.0311 H   0  0  0  0  0
    8.3531   70.0719  -16.0309 H   0  0  0  0  0
   10.0989   70.1092  -15.6820 H   0  0  0  0  0
    6.2407   65.7870  -10.8134 H   0  0  0  0  0
    6.0325   66.9722   -8.0620 H   0  0  0  0  0
    7.7527   64.7317   -9.1529 H   0  0  0  0  0
    7.9254   64.0390   -6.9568 H   0  0  0  0  0
    4.0032   65.7422   -8.7110 H   0  0  0  0  0
    4.9895   64.3121   -9.1023 H   0  0  0  0  0
    4.8804   64.8852   -7.4198 H   0  0  0  0  0
    8.9450   65.3245   -6.2378 H   0  0  0  0  0
   10.6174   67.6257   -7.1262 H   0  0  0  0  0
   12.1211   65.8801   -6.8252 H   0  0  0  0  0
   11.1964   65.1991   -5.4304 H   0  0  0  0  0
   12.8392   67.7617   -5.4136 H   0  0  0  0  0
   11.9278   67.0906   -4.0389 H   0  0  0  0  0
   13.3276   66.2071   -4.6955 H   0  0  0  0  0
   10.1864   69.6552   -6.0568 H   0  0  0  0  0
    9.5016   70.9722   -4.0700 H   0  0  0  0  0
    8.8120   69.8116   -1.9863 H   0  0  0  0  0
    8.8139   67.3380   -1.9007 H   0  0  0  0  0
    9.4986   66.0289   -3.8898 H   0  0  0  0  0
  1  2  1  0  0  0
  1  4  1  0  0  0
  2  3  2  0  0  0
  2  9  1  0  0  0
  4  5  1  0  0  0
  5  6  1  0  0  0
  6  7  1  0  0  0
  7  8  1  0  0  0
  9 10  1  0  0  0
 10 11  1  0  0  0
 10 15  1  0  0  0
 11 12  1  0  0  0
 11 13  1  0  0  0
 11 14  1  0  0  0
 15 16  2  0  0  0
 15 17  1  0  0  0
 17 18  1  0  0  0
 18 19  1  0  0  0
 18 23  1  0  0  0
 19 20  1  0  0  0
 19 21  1  0  0  0
 19 22  1  0  0  0
 23 24  2  0  0  0
 23 25  1  0  0  0
 25 26  1  0  0  0
 26 27  1  0  0  0
 26 33  1  0  0  0
 27 28  1  0  0  0
 28 29  2  0  0  0
 28 30  1  0  0  0
 30 31  1  0  0  0
 30 32  1  0  0  0
 33 34  2  0  0  0
 33 35  1  0  0  0
 35 36  1  0  0  0
 36 37  1  0  0  0
 36 39  1  0  0  0
 37 38  1  0  0  0
 37 40  1  0  0  0
 40 41  2  0  0  0
 40 42  1  0  0  0
 42 43  1  0  0  0
 43 44  1  0  0  0
 43 46  1  0  0  0
 44 45  1  0  0  0
 46 47  4  0  0  0
 46 51  4  0  0  0
 47 48  4  0  0  0
 48 49  4  0  0  0
 49 50  4  0  0  0
 50 51  4  0  0  0
  1 52  1  0  0  0
  1 53  1  0  0  0
  4 54  1  0  0  0
  4 55  1  0  0  0
  5 56  1  0  0  0
  5 57  1  0  0  0
  6 58  1  0  0  0
  6 59  1  0  0  0
  7 60  1  0  0  0
  7 61  1  0  0  0
  8 62  1  0  0  0
  8 63  1  0  0  0
  8 64  1  0  0  0
  9 65  1  0  0  0
 10 66  1  0  0  0
 12 67  1  0  0  0
 12 68  1  0  0  0
 12 69  1  0  0  0
 13 70  1  0  0  0
 13 71  1  0  0  0
 13 72  1  0  0  0
 14 73  1  0  0  0
 14 74  1  0  0  0
 14 75  1  0  0  0
 17 76  1  0  0  0
 18 77  1  0  0  0
 20 78  1  0  0  0
 20 79  1  0  0  0
 20 80  1  0  0  0
 21 81  1  0  0  0
 21 82  1  0  0  0
 21 83  1  0  0  0
 22 84  1  0  0  0
 22 85  1  0  0  0
 22 86  1  0  0  0
 25 87  1  0  0  0
 26 88  1  0  0  0
 27 89  1  0  0  0
 27 90  1  0  0  0
 31 91  1  0  0  0
 31 92  1  0  0  0
 31 93  1  0  0  0
 32 94  1  0  0  0
 32 95  1  0  0  0
 32 96  1  0  0  0
 35 97  1  0  0  0
 36 98  1  0  0  0
 37 99  1  0  0  0
 38100  1  0  0  0
 39101  1  0  0  0
 39102  1  0  0  0
 39103  1  0  0  0
 42104  1  0  0  0
 43105  1  0  0  0
 44106  1  0  0  0
 44107  1  0  0  0
 45108  1  0  0  0
 45109  1  0  0  0
 45110  1  0  0  0
 47111  1  0  0  0
 48112  1  0  0  0
 49113  1  0  0  0
 50114  1  0  0  0
 51115  1  0  0  0
M  END
$$$$
