5w6t_ligand
  -I-interpret- 

220225  0  0  0  0  0  0  0  0999 V2000
  -22.5440  -52.0620  -24.0970 C   0  0  0  0  0
  -22.4150  -52.1950  -22.8800 O   0  0  0  0  0
  -21.3510  -51.7410  -24.9950 C   0  0  0  0  0
  -25.6530  -53.5370  -24.9390 C   0  0  0  0  0
  -23.6970  -52.1800  -24.7450 N   0  0  0  0  0
  -25.3760  -53.6470  -26.1320 O   0  0  0  0  0
  -24.9450  -52.5060  -24.0730 C   0  0  0  0  0
  -25.7910  -51.2660  -24.0140 C   0  0  0  0  0
  -28.2910  -50.2830  -21.6660 C   0  0  0  0  0
  -26.5190  -51.2820  -22.7060 C   0  0  0  0  0
  -27.8950  -50.6890  -22.9110 C   0  0  0  0  0
  -29.0600  -49.5000  -19.1430 C   0  0  0  0  0
  -29.5150  -50.6950  -21.1710 C   0  0  0  0  0
  -27.4400  -49.4940  -20.9100 C   0  0  0  0  0
  -29.9050  -50.3020  -19.8990 C   0  0  0  0  0
  -27.8270  -49.0960  -19.6440 C   0  0  0  0  0
  -26.5340  -54.3280  -24.3160 N   0  0  0  0  0
  -27.2220  -55.3830  -25.0730 C   0  0  0  0  0
  -26.6670  -56.7380  -24.6450 C   0  0  0  0  0
  -25.1590  -56.7220  -24.6900 C   0  0  0  0  0
  -24.6150  -58.0340  -24.2060 C   0  0  0  0  0
  -24.9910  -59.0950  -25.1500 N   0  0  0  0  0
  -28.5900  -55.4200  -24.8420 C   0  0  0  0  0
  -29.0840  -55.2770  -23.7250 O   0  0  0  0  0
  -29.4210  -55.6560  -25.8480 N   0  0  0  0  0
  -28.9450  -55.8650  -27.2370 C   0  0  0  0  0
  -30.8370  -55.7550  -25.5120 C   0  0  0  0  0
  -31.7210  -55.0400  -26.5220 C   0  0  0  0  0
  -31.4700  -53.5340  -26.4750 C   0  0  0  0  0
  -32.5590  -52.8470  -27.2890 C   0  0  0  0  0
  -31.5380  -53.0260  -25.0390 C   0  0  0  0  0
  -31.0790  -57.1200  -25.5360 C   0  0  0  0  0
  -31.4440  -57.6790  -26.5670 O   0  0  0  0  0
  -30.8330  -57.9020  -24.4090 N   0  0  0  0  0
  -31.0720  -59.3620  -24.4800 C   0  0  0  0  0
  -32.3510  -59.5910  -24.0090 C   0  0  0  0  0
  -32.5510  -59.8910  -22.8340 O   0  0  0  0  0
  -30.0700  -60.1170  -23.6180 C   0  0  0  0  0
  -29.1330  -60.9540  -24.4900 C   0  0  0  0  0
  -28.2970  -61.8600  -23.5780 C   0  0  0  0  0
  -27.9980  -62.9980  -24.0100 O   0  0  0  0  0
  -27.9850  -61.3950  -22.4600 O   0  0  0  0  0
  -33.4220  -59.4370  -24.8800 N   0  0  0  0  0
  -34.7980  -59.6150  -24.3980 C   0  0  0  0  0
  -35.1970  -60.9420  -24.5100 C   0  0  0  0  0
  -36.0910  -61.3690  -23.7850 O   0  0  0  0  0
  -35.7220  -58.7060  -25.1990 C   0  0  0  0  0
  -35.5250  -57.3680  -24.8410 C   0  0  0  0  0
  -34.8590  -57.0200  -23.6660 C   0  0  0  0  0
  -36.0180  -56.3630  -25.6650 C   0  0  0  0  0
  -34.6730  -55.6870  -23.3190 C   0  0  0  0  0
  -35.8360  -55.0280  -25.3190 C   0  0  0  0  0
  -35.1660  -54.6920  -24.1490 C   0  0  0  0  0
  -35.0030  -53.3910  -23.8160 O   0  0  0  0  0
  -34.5670  -61.7990  -25.4310 N   0  0  0  0  0
  -32.7190  -63.2380  -26.2070 O   0  0  0  0  0
  -40.3500  -59.7950  -27.0920 Cl  0  0  0  0  0
  -39.1120  -62.0910  -26.2740 C   0  0  0  0  0
  -37.8710  -60.5730  -27.6590 C   0  0  0  0  0
  -37.8060  -59.0830  -28.5310 Cl  0  0  0  0  0
  -38.0170  -62.9520  -26.2350 C   0  0  0  0  0
  -36.7830  -61.4320  -27.6260 C   0  0  0  0  0
  -35.7490  -63.4710  -26.8770 C   0  0  0  0  0
  -33.6680  -63.8770  -25.7620 C   0  0  0  0  0
  -39.0330  -60.9020  -26.9900 C   0  0  0  0  0
  -36.8490  -62.6200  -26.9090 C   0  0  0  0  0
  -34.9040  -63.2390  -25.6250 C   0  0  0  0  0
  -33.4430  -65.2260  -25.4030 N   0  0  0  0  0
  -32.0760  -65.8760  -25.4750 C   0  0  0  0  0
  -31.5840  -66.0610  -26.7690 C   0  0  0  0  0
  -30.3750  -66.0270  -27.0120 O   0  0  0  0  0
  -32.0410  -67.1950  -24.6630 C   0  0  0  0  0
  -31.0930  -68.2650  -25.2570 C   0  0  0  0  0
  -29.6000  -68.0570  -24.8970 C   0  0  0  0  0
  -28.7510  -68.3950  -25.7590 O   0  0  0  0  0
  -29.3340  -67.6110  -23.7580 O   0  0  0  0  0
  -32.4600  -66.2200  -27.8280 N   0  0  0  0  0
  -31.8740  -66.3940  -29.1730 C   0  0  0  0  0
  -31.3250  -65.2190  -29.6560 C   0  0  0  0  0
  -30.5740  -65.2820  -30.6290 O   0  0  0  0  0
  -32.8940  -66.8990  -30.1610 C   0  0  0  0  0
  -34.0820  -65.9580  -30.2390 C   0  0  0  0  0
  -35.0980  -65.9790  -29.3920 C   0  0  0  0  0
  -34.2630  -65.0290  -31.1710 C   0  0  0  0  0
  -35.9320  -65.0320  -29.8030 N   0  0  0  0  0
  -35.4260  -64.4450  -30.8930 C   0  0  0  0  0
  -33.5360  -64.6340  -32.2240 C   0  0  0  0  0
  -35.8860  -63.4530  -31.6590 C   0  0  0  0  0
  -33.9690  -63.5990  -33.0580 C   0  0  0  0  0
  -35.1800  -62.9940  -32.7670 C   0  0  0  0  0
  -31.5650  -63.9840  -29.0110 N   0  0  0  0  0
  -30.9000  -62.7760  -29.5450 C   0  0  0  0  0
  -29.5710  -62.9430  -29.2720 C   0  0  0  0  0
  -29.2100  -63.5620  -28.2710 O   0  0  0  0  0
  -31.3120  -61.4820  -28.8620 C   0  0  0  0  0
  -32.8210  -61.3500  -28.8130 C   0  0  0  0  0
  -33.1300  -60.0580  -28.0610 C   0  0  0  0  0
  -33.3910  -61.2830  -30.2340 C   0  0  0  0  0
  -28.6380  -62.4130  -30.1450 N   0  0  0  0  0
  -27.2330  -62.6490  -29.8130 C   0  0  0  0  0
  -26.8410  -61.7130  -28.8840 C   0  0  0  0  0
  -27.2370  -61.7680  -27.7220 O   0  0  0  0  0
  -26.4020  -62.4750  -31.0720 C   0  0  0  0  0
  -26.9770  -61.3790  -31.7840 O   0  0  0  0  0
  -25.9630  -60.7050  -29.2450 N   0  0  0  0  0
  -25.5730  -59.7080  -28.2300 C   0  0  0  0  0
  -24.6580  -60.2910  -27.1640 C   0  0  0  0  0
  -25.3990  -61.2680  -26.3360 N   0  0  0  0  0
  -24.8370  -62.3780  -25.8270 C   0  0  0  0  0
  -25.4340  -63.2060  -25.1350 O   0  0  0  0  0
  -23.3530  -62.5510  -26.1590 C   0  0  0  0  0
  -22.5170  -61.9430  -25.0260 C   0  0  0  0  0
  -21.1720  -61.5890  -25.4930 N   0  3  0  0  0
  -24.2610  -59.2760  -26.3290 C   0  0  0  0  0
  -23.2950  -58.5650  -26.6070 O   0  0  0  0  0
  -20.9098  -50.7934  -24.6859 H   0  0  0  0  0
  -20.6086  -52.5344  -24.9081 H   0  0  0  0  0
  -21.6861  -51.6669  -26.0296 H   0  0  0  0  0
  -23.7079  -52.0362  -25.7548 H   0  0  0  0  0
  -24.7718  -52.8837  -23.0653 H   0  0  0  0  0
  -26.4973  -51.2458  -24.8439 H   0  0  0  0  0
  -25.1684  -50.3748  -24.0936 H   0  0  0  0  0
  -25.9693  -50.6970  -21.9686 H   0  0  0  0  0
  -26.6070  -52.3061  -22.3432 H   0  0  0  0  0
  -27.8782  -49.8619  -23.6207 H   0  0  0  0  0
  -28.5880  -51.4122  -23.3409 H   0  0  0  0  0
  -29.3665  -49.1836  -18.1460 H   0  0  0  0  0
  -30.1683  -51.3238  -21.7758 H   0  0  0  0  0
  -26.4729  -49.1893  -21.3100 H   0  0  0  0  0
  -30.8666  -50.6200  -19.4963 H   0  0  0  0  0
  -27.1695  -48.4690  -19.0417 H   0  0  0  0  0
  -26.7267  -54.1997  -23.3226 H   0  0  0  0  0
  -27.0535  -55.1670  -26.1280 H   0  0  0  0  0
  -27.0359  -57.5054  -25.3255 H   0  0  0  0  0
  -26.9910  -56.9503  -23.6262 H   0  0  0  0  0
  -24.7903  -55.9227  -24.0471 H   0  0  0  0  0
  -24.8334  -56.5566  -25.7170 H   0  0  0  0  0
  -25.0271  -58.2587  -23.2222 H   0  0  0  0  0
  -23.5287  -57.9751  -24.1378 H   0  0  0  0  0
  -25.7858  -59.7006  -24.9452 H   0  0  0  0  0
  -29.2123  -56.8699  -27.5640 H   0  0  0  0  0
  -29.4122  -55.1314  -27.8941 H   0  0  0  0  0
  -27.8619  -55.7468  -27.2702 H   0  0  0  0  0
  -31.0627  -55.2860  -24.5543 H   0  0  0  0  0
  -32.7660  -55.2340  -26.2801 H   0  0  0  0  0
  -31.4887  -55.4082  -27.5213 H   0  0  0  0  0
  -30.4807  -53.3179  -26.8784 H   0  0  0  0  0
  -32.5203  -53.2028  -28.3186 H   0  0  0  0  0
  -33.5334  -53.0795  -26.8592 H   0  0  0  0  0
  -32.3998  -51.7689  -27.2696 H   0  0  0  0  0
  -32.5258  -53.2340  -24.6278 H   0  0  0  0  0
  -30.7800  -53.5308  -24.4401 H   0  0  0  0  0
  -31.3567  -51.9513  -25.0262 H   0  0  0  0  0
  -30.4931  -57.4749  -23.5473 H   0  0  0  0  0
  -30.9583  -59.7103  -25.5066 H   0  0  0  0  0
  -30.6126  -60.7805  -22.9447 H   0  0  0  0  0
  -29.4777  -59.3976  -23.0526 H   0  0  0  0  0
  -28.4779  -60.3000  -25.0655 H   0  0  0  0  0
  -29.7145  -61.5606  -25.1843 H   0  0  0  0  0
  -28.3572  -63.1082  -24.8934 H   0  0  0  0  0
  -33.2524  -59.1996  -25.8574 H   0  0  0  0  0
  -34.8470  -59.3475  -23.3425 H   0  0  0  0  0
  -36.7561  -58.9797  -24.9899 H   0  0  0  0  0
  -35.5023  -58.8245  -26.2600 H   0  0  0  0  0
  -34.4792  -57.8041  -23.0109 H   0  0  0  0  0
  -36.5472  -56.6210  -26.5823 H   0  0  0  0  0
  -34.1441  -55.4262  -22.4023 H   0  0  0  0  0
  -36.2207  -54.2419  -25.9687 H   0  0  0  0  0
  -34.5238  -53.3318  -22.9863 H   0  0  0  0  0
  -33.8243  -61.4062  -26.0093 H   0  0  0  0  0
  -40.0288  -62.3493  -25.7441 H   0  0  0  0  0
  -38.0772  -63.8857  -25.6757 H   0  0  0  0  0
  -35.8716  -61.1739  -28.1652 H   0  0  0  0  0
  -35.1320  -63.2737  -27.7536 H   0  0  0  0  0
  -36.1068  -64.5005  -26.8683 H   0  0  0  0  0
  -35.4946  -63.6175  -24.7907 H   0  0  0  0  0
  -34.2337  -65.7849  -25.0822 H   0  0  0  0  0
  -31.3948  -65.1591  -25.0165 H   0  0  0  0  0
  -33.0486  -67.6106  -24.6720 H   0  0  0  0  0
  -31.6763  -66.9540  -23.6645 H   0  0  0  0  0
  -31.1750  -68.2020  -26.3421 H   0  0  0  0  0
  -31.3935  -69.2276  -24.8434 H   0  0  0  0  0
  -29.2029  -68.7037  -26.5477 H   0  0  0  0  0
  -33.4700  -66.2172  -27.6858 H   0  0  0  0  0
  -31.0813  -67.1340  -29.0627 H   0  0  0  0  0
  -33.2430  -67.8789  -29.8354 H   0  0  0  0  0
  -32.4293  -66.9602  -31.1451 H   0  0  0  0  0
  -35.2242  -66.6384  -28.5333 H   0  0  0  0  0
  -32.5881  -65.1292  -32.4349 H   0  0  0  0  0
  -36.8407  -62.9899  -31.4097 H   0  0  0  0  0
  -33.3715  -63.2781  -33.9113 H   0  0  0  0  0
  -35.5677  -62.1846  -33.3856 H   0  0  0  0  0
  -32.1802  -63.9278  -28.1993 H   0  0  0  0  0
  -31.1624  -62.6844  -30.5990 H   0  0  0  0  0
  -30.9059  -60.6434  -29.4277 H   0  0  0  0  0
  -30.9282  -61.4876  -27.8418 H   0  0  0  0  0
  -33.2712  -62.2081  -28.3140 H   0  0  0  0  0
  -32.7144  -60.1164  -27.0550 H   0  0  0  0  0
  -32.6855  -59.2155  -28.5908 H   0  0  0  0  0
  -34.2100  -59.9228  -28.0021 H   0  0  0  0  0
  -32.9727  -60.4197  -30.7516 H   0  0  0  0  0
  -33.1285  -62.1935  -30.7727 H   0  0  0  0  0
  -34.4758  -61.1883  -30.1849 H   0  0  0  0  0
  -28.9143  -61.8869  -30.9740 H   0  0  0  0  0
  -27.0982  -63.6539  -29.4128 H   0  0  0  0  0
  -26.4108  -63.3824  -31.6759 H   0  0  0  0  0
  -25.3578  -62.2794  -30.8283 H   0  0  0  0  0
  -26.4823  -61.2296  -32.5931 H   0  0  0  0  0
  -25.5931  -60.6528  -30.1941 H   0  0  0  0  0
  -26.4798  -59.3550  -27.7390 H   0  0  0  0  0
  -25.0337  -58.9066  -28.7350 H   0  0  0  0  0
  -23.8101  -60.7729  -27.6508 H   0  0  0  0  0
  -26.3845  -61.0906  -26.1419 H   0  0  0  0  0
  -23.1240  -62.0466  -27.0978 H   0  0  0  0  0
  -23.1193  -63.6107  -26.2619 H   0  0  0  0  0
  -22.4262  -62.6782  -24.2264 H   0  0  0  0  0
  -23.0129  -61.0387  -24.6734 H   0  0  0  0  0
  -20.6398  -61.1880  -24.7207 H   0  0  0  0  0
  -20.7003  -62.4267  -25.8338 H   0  0  0  0  0
  -21.2441  -60.9070  -26.2480 H   0  0  0  0  0
  1  2  2  0  0  0
  1  3  1  0  0  0
  4  6  2  0  0  0
  4  7  1  0  0  0
  7  5  1  0  0  0
  7  8  1  0  0  0
  8 10  1  0  0  0
 11  9  1  0  0  0
  9 13  4  0  0  0
  9 14  4  0  0  0
 10 11  1  0  0  0
 15 12  4  0  0  0
 16 12  4  0  0  0
 13 15  4  0  0  0
 14 16  4  0  0  0
  5  1  1  0  0  0
 18 17  1  0  0  0
 19 18  1  0  0  0
 18 23  1  0  0  0
 23 24  2  0  0  0
 20 19  1  0  0  0
 21 20  1  0  0  0
 22 21  1  0  0  0
 17  4  1  0  0  0
 25 26  1  0  0  0
 25 27  1  0  0  0
 27 28  1  0  0  0
 27 32  1  0  0  0
 28 29  1  0  0  0
 29 30  1  0  0  0
 29 31  1  0  0  0
 32 33  2  0  0  0
 23 25  1  0  0  0
 34 35  1  0  0  0
 35 38  1  0  0  0
 35 36  1  0  0  0
 36 37  2  0  0  0
 38 39  1  0  0  0
 39 40  1  0  0  0
 40 42  2  0  0  0
 40 41  1  0  0  0
 32 34  1  0  0  0
 43 44  1  0  0  0
 44 47  1  0  0  0
 44 45  1  0  0  0
 45 46  2  0  0  0
 47 48  1  0  0  0
 48 49  4  0  0  0
 48 50  4  0  0  0
 50 52  4  0  0  0
 52 53  4  0  0  0
 53 54  1  0  0  0
 51 53  4  0  0  0
 49 51  4  0  0  0
 36 43  1  0  0  0
 55 67  1  0  0  0
 64 56  2  0  0  0
 65 57  1  0  0  0
 61 58  4  0  0  0
 58 65  4  0  0  0
 59 60  1  0  0  0
 62 59  4  0  0  0
 59 65  4  0  0  0
 66 61  4  0  0  0
 66 62  4  0  0  0
 63 66  1  0  0  0
 67 63  1  0  0  0
 67 64  1  0  0  0
 45 55  1  0  0  0
 68 69  1  0  0  0
 69 72  1  0  0  0
 69 70  1  0  0  0
 70 71  2  0  0  0
 72 73  1  0  0  0
 73 74  1  0  0  0
 74 76  2  0  0  0
 74 75  1  0  0  0
 64 68  1  0  0  0
 77 78  1  0  0  0
 78 81  1  0  0  0
 78 79  1  0  0  0
 79 80  2  0  0  0
 81 82  1  0  0  0
 82 83  4  0  0  0
 82 84  4  0  0  0
 84 87  4  0  0  0
 84 86  4  0  0  0
 86 88  4  0  0  0
 86 85  4  0  0  0
 83 85  4  0  0  0
 88 90  4  0  0  0
 89 90  4  0  0  0
 87 89  4  0  0  0
 70 77  1  0  0  0
 91 92  1  0  0  0
 92 95  1  0  0  0
 92 93  1  0  0  0
 93 94  2  0  0  0
 95 96  1  0  0  0
 96 97  1  0  0  0
 96 98  1  0  0  0
 79 91  1  0  0  0
 99100  1  0  0  0
100103  1  0  0  0
100101  1  0  0  0
101102  2  0  0  0
103104  1  0  0  0
 93 99  1  0  0  0
106105  1  0  0  0
107106  1  0  0  0
107108  1  0  0  0
114107  1  0  0  0
108109  1  0  0  0
109110  2  0  0  0
109111  1  0  0  0
111112  1  0  0  0
112113  1  0  0  0
114115  2  0  0  0
 22114  1  0  0  0
101105  1  0  0  0
  3116  1  0  0  0
  3117  1  0  0  0
  3118  1  0  0  0
  5119  1  0  0  0
  7120  1  0  0  0
  8121  1  0  0  0
  8122  1  0  0  0
 10123  1  0  0  0
 10124  1  0  0  0
 11125  1  0  0  0
 11126  1  0  0  0
 12127  1  0  0  0
 13128  1  0  0  0
 14129  1  0  0  0
 15130  1  0  0  0
 16131  1  0  0  0
 17132  1  0  0  0
 18133  1  0  0  0
 19134  1  0  0  0
 19135  1  0  0  0
 20136  1  0  0  0
 20137  1  0  0  0
 21138  1  0  0  0
 21139  1  0  0  0
 22140  1  0  0  0
 26141  1  0  0  0
 26142  1  0  0  0
 26143  1  0  0  0
 27144  1  0  0  0
 28145  1  0  0  0
 28146  1  0  0  0
 29147  1  0  0  0
 30148  1  0  0  0
 30149  1  0  0  0
 30150  1  0  0  0
 31151  1  0  0  0
 31152  1  0  0  0
 31153  1  0  0  0
 34154  1  0  0  0
 35155  1  0  0  0
 38156  1  0  0  0
 38157  1  0  0  0
 39158  1  0  0  0
 39159  1  0  0  0
 41160  1  0  0  0
 43161  1  0  0  0
 44162  1  0  0  0
 47163  1  0  0  0
 47164  1  0  0  0
 49165  1  0  0  0
 50166  1  0  0  0
 51167  1  0  0  0
 52168  1  0  0  0
 54169  1  0  0  0
 55170  1  0  0  0
 58171  1  0  0  0
 61172  1  0  0  0
 62173  1  0  0  0
 63174  1  0  0  0
 63175  1  0  0  0
 67176  1  0  0  0
 68177  1  0  0  0
 69178  1  0  0  0
 72179  1  0  0  0
 72180  1  0  0  0
 73181  1  0  0  0
 73182  1  0  0  0
 75183  1  0  0  0
 77184  1  0  0  0
 78185  1  0  0  0
 81186  1  0  0  0
 81187  1  0  0  0
 83188  1  0  0  0
 87189  1  0  0  0
 88190  1  0  0  0
 89191  1  0  0  0
 90192  1  0  0  0
 91193  1  0  0  0
 92194  1  0  0  0
 95195  1  0  0  0
 95196  1  0  0  0
 96197  1  0  0  0
 97198  1  0  0  0
 97199  1  0  0  0
 97200  1  0  0  0
 98201  1  0  0  0
 98202  1  0  0  0
 98203  1  0  0  0
 99204  1  0  0  0
100205  1  0  0  0
103206  1  0  0  0
103207  1  0  0  0
104208  1  0  0  0
105209  1  0  0  0
106210  1  0  0  0
106211  1  0  0  0
107212  1  0  0  0
108213  1  0  0  0
111214  1  0  0  0
111215  1  0  0  0
112216  1  0  0  0
112217  1  0  0  0
113218  1  0  0  0
113219  1  0  0  0
113220  1  0  0  0
M  END
$$$$
