### 
### Created by X-TOOL on Mon Sep 10 21:13:34 2018
### 

@<TRIPOS>MOLECULE
5w6t_ligand
  219   224     1     0     0
SMALL
GAST_HUCK


@<TRIPOS>ATOM
      1 C         -22.5440  -52.0620  -24.0970 C.2       1 ACE         0.1751
      2 O         -22.4150  -52.1950  -22.8800 O.2       1 ACE        -0.3972
      3 CH3       -21.3510  -51.7410  -24.9950 C.3       1 ACE         0.0258
      4 C         -25.6530  -53.5370  -24.9390 C.2       1 PH8         0.2039
      5 N         -23.6970  -52.1800  -24.7450 N.am      1 PH8        -0.2658
      6 O         -25.3760  -53.6470  -26.1320 O.2       1 PH8        -0.3944
      7 CA        -24.9450  -52.5060  -24.0730 C.3       1 PH8         0.1310
      8 CB        -25.7910  -51.2660  -24.0140 C.3       1 PH8        -0.0106
      9 CG        -28.2910  -50.2830  -21.6660 C.ar      1 PH8        -0.0430
     10 CI        -26.5190  -51.2820  -22.7060 C.3       1 PH8        -0.0390
     11 CJ        -27.8950  -50.6890  -22.9110 C.3       1 PH8        -0.0189
     12 CZ        -29.0600  -49.5000  -19.1430 C.ar      1 PH8        -0.0687
     13 CD1       -29.5150  -50.6950  -21.1710 C.ar      1 PH8        -0.0603
     14 CD2       -27.4400  -49.4940  -20.9100 C.ar      1 PH8        -0.0603
     15 CE1       -29.9050  -50.3020  -19.8990 C.ar      1 PH8        -0.0686
     16 CE2       -27.8270  -49.0960  -19.6440 C.ar      1 PH8        -0.0686
     17 N         -26.5340  -54.3280  -24.3160 N.am      1 ORN        -0.2637
     18 CA        -27.2220  -55.3830  -25.0730 C.3       1 ORN         0.1312
     19 CB        -26.6670  -56.7380  -24.6450 C.3       1 ORN        -0.0106
     20 CG        -25.1590  -56.7220  -24.6900 C.3       1 ORN        -0.0285
     21 CD        -24.6150  -58.0340  -24.2060 C.3       1 ORN         0.0312
     22 NE        -24.9910  -59.0950  -25.1500 N.am      1 ORN        -0.2850
     23 C         -28.5900  -55.4200  -24.8420 C.2       1 ORN         0.2061
     24 O         -29.0840  -55.2770  -23.7250 O.2       1 ORN        -0.3942
     25 N         -29.4210  -55.6560  -25.8480 N.am      1 MLE        -0.2529
     26 CN        -28.9450  -55.8650  -27.2370 C.3       1 MLE         0.0254
     27 CA        -30.8370  -55.7550  -25.5120 C.3       1 MLE         0.1336
     28 CB        -31.7210  -55.0400  -26.5220 C.3       1 MLE        -0.0099
     29 CG        -31.4700  -53.5340  -26.4750 C.3       1 MLE        -0.0425
     30 CD1       -32.5590  -52.8470  -27.2890 C.3       1 MLE        -0.0625
     31 CD2       -31.5380  -53.0260  -25.0390 C.3       1 MLE        -0.0625
     32 C         -31.0790  -57.1200  -25.5360 C.2       1 MLE         0.2041
     33 O         -31.4440  -57.6790  -26.5670 O.2       1 MLE        -0.3944
     34 N         -30.8330  -57.9020  -24.4090 N.am      1 GLU        -0.2636
     35 CA        -31.0720  -59.3620  -24.4800 C.3       1 GLU         0.1325
     36 C         -32.3510  -59.5910  -24.0090 C.2       1 GLU         0.2041
     37 O         -32.5510  -59.8910  -22.8340 O.2       1 GLU        -0.3944
     38 CB        -30.0700  -60.1170  -23.6180 C.3       1 GLU        -0.0008
     39 CG        -29.1330  -60.9540  -24.4900 C.3       1 GLU         0.0044
     40 CD        -28.2970  -61.8600  -23.5780 C.2       1 GLU         0.0350
     41 OE1       -27.9980  -62.9980  -24.0100 O.co2     1 GLU        -0.5690
     42 OE2       -27.9850  -61.3950  -22.4600 O.co2     1 GLU        -0.5690
     43 N         -33.4220  -59.4370  -24.8800 N.am      1 TYR        -0.2621
     44 CA        -34.7980  -59.6150  -24.3980 C.3       1 TYR         0.1390
     45 C         -35.1970  -60.9420  -24.5100 C.2       1 TYR         0.2059
     46 O         -36.0910  -61.3690  -23.7850 O.2       1 TYR        -0.3942
     47 CB        -35.7220  -58.7060  -25.1990 C.3       1 TYR         0.0163
     48 CG        -35.5250  -57.3680  -24.8410 C.ar      1 TYR        -0.0493
     49 CD1       -34.8590  -57.0200  -23.6660 C.ar      1 TYR        -0.0685
     50 CD2       -36.0180  -56.3630  -25.6650 C.ar      1 TYR        -0.0685
     51 CE1       -34.6730  -55.6870  -23.3190 C.ar      1 TYR        -0.0398
     52 CE2       -35.8360  -55.0280  -25.3190 C.ar      1 TYR        -0.0398
     53 CZ        -35.1660  -54.6920  -24.1490 C.ar      1 TYR         0.0805
     54 OH        -35.0030  -53.3910  -23.8160 O.3       1 TYR        -0.3376
     55 N         -34.5670  -61.7990  -25.4310 N.am      1 ZCL        -0.2618
     56 O         -32.7190  -63.2380  -26.2070 O.2       1 ZCL        -0.3942
     57 CLZ       -40.3500  -59.7950  -27.0920 Cl        1 ZCL        -0.0764
     58 CE2       -39.1120  -62.0910  -26.2740 C.ar      1 ZCL        -0.0541
     59 CE1       -37.8710  -60.5730  -27.6590 C.ar      1 ZCL         0.0477
     60 CLE1      -37.8060  -59.0830  -28.5310 Cl        1 ZCL        -0.0718
     61 CD2       -38.0170  -62.9520  -26.2350 C.ar      1 ZCL        -0.0594
     62 CD1       -36.7830  -61.4320  -27.6260 C.ar      1 ZCL        -0.0457
     63 CB        -35.7490  -63.4710  -26.8770 C.3       1 ZCL         0.0216
     64 C         -33.6680  -63.8770  -25.7620 C.2       1 ZCL         0.2060
     65 CZ        -39.0330  -60.9020  -26.9900 C.ar      1 ZCL         0.0469
     66 CG        -36.8490  -62.6200  -26.9090 C.ar      1 ZCL        -0.0378
     67 CA        -34.9040  -63.2390  -25.6250 C.3       1 ZCL         0.1405
     68 N         -33.4430  -65.2260  -25.4030 N.am      1 GLU        -0.2635
     69 CA        -32.0760  -65.8760  -25.4750 C.3       1 GLU         0.1325
     70 C         -31.5840  -66.0610  -26.7690 C.2       1 GLU         0.2041
     71 O         -30.3750  -66.0270  -27.0120 O.2       1 GLU        -0.3944
     72 CB        -32.0410  -67.1950  -24.6630 C.3       1 GLU        -0.0008
     73 CG        -31.0930  -68.2650  -25.2570 C.3       1 GLU         0.0044
     74 CD        -29.6000  -68.0570  -24.8970 C.2       1 GLU         0.0350
     75 OE1       -28.7510  -68.3950  -25.7590 O.co2     1 GLU        -0.5690
     76 OE2       -29.3340  -67.6110  -23.7580 O.co2     1 GLU        -0.5690
     77 N         -32.4600  -66.2200  -27.8280 N.am      1 TRP        -0.2627
     78 CA        -31.8740  -66.3940  -29.1730 C.3       1 TRP         0.1352
     79 C         -31.3250  -65.2190  -29.6560 C.2       1 TRP         0.2052
     80 O         -30.5740  -65.2820  -30.6290 O.2       1 TRP        -0.3942
     81 CB        -32.8940  -66.8990  -30.1610 C.3       1 TRP         0.0042
     82 CG        -34.0820  -65.9580  -30.2390 C.2       1 TRP        -0.0418
     83 CD1       -35.0980  -65.9790  -29.3920 C.2       1 TRP         0.0167
     84 CD2       -34.2630  -65.0290  -31.1710 C.ar      1 TRP        -0.0214
     85 NE1       -35.9320  -65.0320  -29.8030 N.pl3     1 TRP        -0.2890
     86 CE2       -35.4260  -64.4450  -30.8930 C.ar      1 TRP         0.0603
     87 CE3       -33.5360  -64.6340  -32.2240 C.ar      1 TRP        -0.0747
     88 CZ2       -35.8860  -63.4530  -31.6590 C.ar      1 TRP        -0.0443
     89 CZ3       -33.9690  -63.5990  -33.0580 C.ar      1 TRP        -0.0792
     90 CH2       -35.1800  -62.9940  -32.7670 C.ar      1 TRP        -0.0768
     91 N         -31.5650  -63.9840  -29.0110 N.am      1 LEU        -0.2636
     92 CA        -30.9000  -62.7760  -29.5450 C.3       1 LEU         0.1312
     93 C         -29.5710  -62.9430  -29.2720 C.2       1 LEU         0.2040
     94 O         -29.2100  -63.5620  -28.2710 O.2       1 LEU        -0.3944
     95 CB        -31.3120  -61.4820  -28.8620 C.3       1 LEU        -0.0101
     96 CG        -32.8210  -61.3500  -28.8130 C.3       1 LEU        -0.0425
     97 CD1       -33.1300  -60.0580  -28.0610 C.3       1 LEU        -0.0625
     98 CD2       -33.3910  -61.2830  -30.2340 C.3       1 LEU        -0.0625
     99 N         -28.6380  -62.4130  -30.1450 N.am      1 SER        -0.2616
    100 CA        -27.2330  -62.6490  -29.8130 C.3       1 SER         0.1538
    101 C         -26.8410  -61.7130  -28.8840 C.2       1 SER         0.2041
    102 O         -27.2370  -61.7680  -27.7220 O.2       1 SER        -0.3944
    103 CB        -26.4020  -62.4750  -31.0720 C.3       1 SER         0.0843
    104 OG        -26.9770  -61.3790  -31.7840 O.3       1 SER        -0.3903
    105 NDV       -25.9630  -60.7050  -29.2450 N.am      1 9WV        -0.2805
    106 CB        -25.5730  -59.7080  -28.2300 C.3       1 9WV         0.0711
    107 CA        -24.6580  -60.2910  -27.1640 C.3       1 9WV         0.1507
    108 N         -25.3990  -61.2680  -26.3360 N.am      1 9WV        -0.2635
    109 CEG       -24.8370  -62.3780  -25.8270 C.2       1 9WV         0.1834
    110 OEK       -25.4340  -63.2060  -25.1350 O.2       1 9WV        -0.3967
    111 CEH       -23.3530  -62.5510  -26.1590 C.3       1 9WV         0.0773
    112 CEI       -22.5170  -61.9430  -25.0260 C.3       1 9WV        -0.0184
    113 NEJ       -21.1720  -61.5890  -25.4930 N.4       1 9WV         0.2202
    114 C         -24.2610  -59.2760  -26.3290 C.2       1 9WV         0.2037
    115 O         -23.2950  -58.5650  -26.6070 O.2       1 9WV        -0.3945
    116 H1        -21.6880  -51.6660  -26.0394 H         1 ACE         0.0467
    117 H2        -20.6010  -52.5410  -24.9083 H         1 ACE         0.0467
    118 H3        -20.9048  -50.7848  -24.6842 H         1 ACE         0.0467
    119 H4        -23.7077  -52.0390  -25.7350 H         1 PH8         0.1882
    120 H5        -24.7597  -52.8989  -23.0624 H         1 PH8         0.0800
    121 H6        -26.5115  -51.2626  -24.8451 H         1 PH8         0.0314
    122 H7        -25.1530  -50.3722  -24.0781 H         1 PH8         0.0314
    123 H8        -25.9650  -50.6852  -21.9665 H         1 PH8         0.0289
    124 H9        -26.6118  -52.3174  -22.3464 H         1 PH8         0.0289
    125 H10       -27.8491  -49.8335  -23.6009 H         1 PH8         0.0426
    126 H11       -28.5870  -51.4452  -23.3101 H         1 PH8         0.0426
    127 H12       -29.3648  -49.1854  -18.1514 H         1 PH8         0.0559
    128 H13       -30.1648  -51.3204  -21.7725 H         1 PH8         0.0557
    129 H14       -26.4782  -49.1910  -21.3078 H         1 PH8         0.0557
    130 H15       -30.8614  -50.6183  -19.4985 H         1 PH8         0.0599
    131 H16       -27.1731  -48.4725  -19.0450 H         1 PH8         0.0599
    132 H17       -26.7230  -54.2022  -23.3421 H         1 ORN         0.1883
    133 H18       -27.0414  -55.2233  -26.1462 H         1 ORN         0.0800
    134 H19       -27.0424  -57.5159  -25.3261 H         1 ORN         0.0313
    135 H20       -26.9974  -56.9583  -23.6192 H         1 ORN         0.0313
    136 H21       -24.7843  -55.9129  -24.0458 H         1 ORN         0.0287
    137 H22       -24.8276  -56.5502  -25.7247 H         1 ORN         0.0287
    138 H23       -25.0319  -58.2608  -23.2137 H         1 ORN         0.0520
    139 H24       -23.5187  -57.9744  -24.1383 H         1 ORN         0.0520
    140 H25       -25.7702  -59.6887  -24.9492 H         1 ORN         0.1851
    141 H26       -29.8068  -56.0426  -27.8971 H         1 MLE         0.0488
    142 H27       -28.2741  -56.7362  -27.2675 H         1 MLE         0.0488
    143 H28       -28.4011  -54.9712  -27.5766 H         1 MLE         0.0488
    144 H29       -31.0256  -55.3407  -24.5106 H         1 MLE         0.0802
    145 H30       -32.7766  -55.2393  -26.2854 H         1 MLE         0.0315
    146 H31       -31.4945  -55.4141  -27.5313 H         1 MLE         0.0315
    147 H32       -30.4809  -53.3085  -26.9002 H         1 MLE         0.0298
    148 H33       -32.3994  -51.7588  -27.2702 H         1 MLE         0.0232
    149 H34       -33.5429  -53.0808  -26.8563 H         1 MLE         0.0232
    150 H35       -32.5210  -53.2052  -28.3283 H         1 MLE         0.0232
    151 H36       -30.7558  -53.5149  -24.4397 H         1 MLE         0.0232
    152 H37       -32.5253  -53.2595  -24.6138 H         1 MLE         0.0232
    153 H38       -31.3819  -51.9372  -25.0274 H         1 MLE         0.0232
    154 H39       -30.4998  -57.4833  -23.5642 H         1 GLU         0.1883
    155 H40       -30.9867  -59.7035  -25.5222 H         1 GLU         0.0801
    156 H41       -30.6133  -60.7814  -22.9300 H         1 GLU         0.0330
    157 H42       -29.4758  -59.3954  -23.0382 H         1 GLU         0.0330
    158 H43       -28.4687  -60.2906  -25.0633 H         1 GLU         0.0433
    159 H44       -29.7238  -61.5701  -25.1838 H         1 GLU         0.0433
    160 H45       -33.2557  -59.2042  -25.8382 H         1 TYR         0.1885
    161 H46       -34.8437  -59.3252  -23.3379 H         1 TYR         0.0821
    162 H47       -36.7670  -58.9843  -24.9978 H         1 TYR         0.0453
    163 H48       -35.5098  -58.8286  -26.2713 H         1 TYR         0.0453
    164 H49       -34.4813  -57.7997  -23.0145 H         1 TYR         0.0530
    165 H50       -36.5443  -56.6196  -26.5773 H         1 TYR         0.0530
    166 H51       -34.1470  -55.4276  -22.4073 H         1 TYR         0.0525
    167 H52       -36.2186  -54.2462  -25.9651 H         1 TYR         0.0525
    168 H53       -35.8545  -52.9805  -23.7211 H         1 TYR         0.2458
    169 H54       -33.8388  -61.4139  -25.9979 H         1 ZCL         0.1885
    170 H55       -40.0238  -62.3479  -25.7470 H         1 ZCL         0.0606
    171 H56       -38.0769  -63.8805  -25.6788 H         1 ZCL         0.0559
    172 H57       -35.8766  -61.1753  -28.1623 H         1 ZCL         0.0562
    173 H58       -35.1287  -63.2885  -27.7669 H         1 ZCL         0.0474
    174 H59       -36.1016  -64.5129  -26.8833 H         1 ZCL         0.0474
    175 H60       -35.4446  -63.6239  -24.7477 H         1 ZCL         0.0823
    176 H61       -34.2182  -65.7739  -25.0885 H         1 GLU         0.1883
    177 H62       -31.3809  -65.1808  -24.9816 H         1 GLU         0.0801
    178 H63       -33.0587  -67.6112  -24.6321 H         1 GLU         0.0330
    179 H64       -31.7077  -66.9648  -23.6403 H         1 GLU         0.0330
    180 H65       -31.1905  -68.2432  -26.3524 H         1 GLU         0.0433
    181 H66       -31.4051  -69.2504  -24.8806 H         1 GLU         0.0433
    182 H67       -33.4502  -66.2173  -27.6886 H         1 TRP         0.1884
    183 H68       -31.0708  -67.1413  -29.0934 H         1 TRP         0.0815
    184 H69       -33.2419  -67.8931  -29.8436 H         1 TRP         0.0397
    185 H70       -32.4275  -66.9736  -31.1544 H         1 TRP         0.0397
    186 H71       -35.2241  -66.6378  -28.5341 H         1 TRP         0.0795
    187 H72       -36.8264  -64.7880  -29.3541 H         1 TRP         0.2216
    188 H73       -32.5934  -65.1264  -32.4338 H         1 TRP         0.0540
    189 H74       -36.8355  -62.9924  -31.4111 H         1 TRP         0.0541
    190 H75       -33.3748  -63.2798  -33.9066 H         1 TRP         0.0510
    191 H76       -35.5656  -62.1891  -33.3822 H         1 TRP         0.0530
    192 H77       -32.1681  -63.9289  -28.2152 H         1 LEU         0.1883
    193 H78       -31.0823  -62.6977  -30.6270 H         1 LEU         0.0800
    194 H79       -30.8946  -60.6315  -29.4210 H         1 LEU         0.0315
    195 H80       -30.9169  -61.4755  -27.8354 H         1 LEU         0.0315
    196 H81       -33.2583  -62.2091  -28.2833 H         1 LEU         0.0298
    197 H82       -34.2197  -59.9204  -28.0008 H         1 LEU         0.0232
    198 H83       -32.6819  -59.2069  -28.5947 H         1 LEU         0.0232
    199 H84       -32.7111  -60.1156  -27.0455 H         1 LEU         0.0232
    200 H85       -33.1622  -62.2186  -30.7653 H         1 LEU         0.0232
    201 H86       -32.9385  -60.4363  -30.7711 H         1 LEU         0.0232
    202 H87       -34.4814  -61.1461  -30.1856 H         1 LEU         0.0232
    203 H88       -28.9089  -61.8973  -30.9578 H         1 SER         0.1884
    204 H89       -27.1017  -63.6636  -29.4088 H         1 SER         0.0823
    205 H90       -26.4410  -63.3886  -31.6833 H         1 SER         0.0606
    206 H91       -25.3568  -62.2530  -30.8107 H         1 SER         0.0606
    207 H92       -26.4875  -61.2312  -32.5846 H         1 SER         0.2097
    208 H93       -25.6004  -60.6538  -30.1755 H         1 9WV         0.1854
    209 H94       -26.4823  -59.3251  -27.7437 H         1 9WV         0.0568
    210 H95       -25.0490  -58.8807  -28.7309 H         1 9WV         0.0568
    211 H96       -23.7871  -60.7705  -27.6347 H         1 9WV         0.0821
    212 H97       -26.3652  -61.0941  -26.1457 H         1 9WV         0.1883
    213 H98       -23.1235  -62.0370  -27.1041 H         1 9WV         0.0556
    214 H99       -23.1188  -63.6213  -26.2574 H         1 9WV         0.0556
    215 H100      -22.4325  -62.6750  -24.2093 H         1 9WV         0.0839
    216 H101      -23.0187  -61.0368  -24.6558 H         1 9WV         0.0839
    217 H102      -20.6451  -61.1926  -24.7305 H         1 9WV         0.1996
    218 H103      -21.2420  -60.9150  -26.2392 H         1 9WV         0.1996
    219 H104      -20.7048  -62.4161  -25.8300 H         1 9WV         0.1996
@<TRIPOS>BOND
     1    1    2 2  
     2    1    3 1  
     3    4    6 2  
     4    4    7 1  
     5    7    5 1  
     6    7    8 1  
     7    8   10 1  
     8   11    9 1  
     9    9   13 ar 
    10    9   14 ar 
    11   10   11 1  
    12   15   12 ar 
    13   16   12 ar 
    14   13   15 ar 
    15   14   16 ar 
    16    5    1 am 
    17   18   17 1  
    18   19   18 1  
    19   18   23 1  
    20   23   24 2  
    21   20   19 1  
    22   21   20 1  
    23   22   21 1  
    24   17    4 am 
    25   25   26 1  
    26   25   27 1  
    27   27   28 1  
    28   27   32 1  
    29   28   29 1  
    30   29   30 1  
    31   29   31 1  
    32   32   33 2  
    33   23   25 am 
    34   34   35 1  
    35   35   38 1  
    36   35   36 1  
    37   36   37 2  
    38   38   39 1  
    39   39   40 1  
    40   40   42 ar 
    41   40   41 ar 
    42   32   34 am 
    43   43   44 1  
    44   44   47 1  
    45   44   45 1  
    46   45   46 2  
    47   47   48 1  
    48   48   49 ar 
    49   48   50 ar 
    50   50   52 ar 
    51   52   53 ar 
    52   53   54 1  
    53   51   53 ar 
    54   49   51 ar 
    55   36   43 am 
    56   55   67 1  
    57   64   56 2  
    58   65   57 1  
    59   61   58 ar 
    60   58   65 ar 
    61   59   60 1  
    62   62   59 ar 
    63   59   65 ar 
    64   66   61 ar 
    65   66   62 ar 
    66   63   66 1  
    67   67   63 1  
    68   67   64 1  
    69   45   55 am 
    70   68   69 1  
    71   69   72 1  
    72   69   70 1  
    73   70   71 2  
    74   72   73 1  
    75   73   74 1  
    76   74   76 ar 
    77   74   75 ar 
    78   64   68 am 
    79   77   78 1  
    80   78   81 1  
    81   78   79 1  
    82   79   80 2  
    83   81   82 1  
    84   82   83 2  
    85   82   84 1  
    86   84   87 ar 
    87   84   86 ar 
    88   86   88 ar 
    89   86   85 1  
    90   83   85 1  
    91   88   90 ar 
    92   89   90 ar 
    93   87   89 ar 
    94   70   77 am 
    95   91   92 1  
    96   92   95 1  
    97   92   93 1  
    98   93   94 2  
    99   95   96 1  
   100   96   97 1  
   101   96   98 1  
   102   79   91 am 
   103   99  100 1  
   104  100  103 1  
   105  100  101 1  
   106  101  102 2  
   107  103  104 1  
   108   93   99 am 
   109  106  105 1  
   110  107  106 1  
   111  107  108 1  
   112  114  107 1  
   113  108  109 am 
   114  109  110 2  
   115  109  111 1  
   116  111  112 1  
   117  112  113 1  
   118  114  115 2  
   119   22  114 am 
   120  101  105 am 
   121    3  116 1  
   122    3  117 1  
   123    3  118 1  
   124    5  119 1  
   125    7  120 1  
   126    8  121 1  
   127    8  122 1  
   128   10  123 1  
   129   10  124 1  
   130   11  125 1  
   131   11  126 1  
   132   12  127 1  
   133   13  128 1  
   134   14  129 1  
   135   15  130 1  
   136   16  131 1  
   137   17  132 1  
   138   18  133 1  
   139   19  134 1  
   140   19  135 1  
   141   20  136 1  
   142   20  137 1  
   143   21  138 1  
   144   21  139 1  
   145   22  140 1  
   146   26  141 1  
   147   26  142 1  
   148   26  143 1  
   149   27  144 1  
   150   28  145 1  
   151   28  146 1  
   152   29  147 1  
   153   30  148 1  
   154   30  149 1  
   155   30  150 1  
   156   31  151 1  
   157   31  152 1  
   158   31  153 1  
   159   34  154 1  
   160   35  155 1  
   161   38  156 1  
   162   38  157 1  
   163   39  158 1  
   164   39  159 1  
   165   43  160 1  
   166   44  161 1  
   167   47  162 1  
   168   47  163 1  
   169   49  164 1  
   170   50  165 1  
   171   51  166 1  
   172   52  167 1  
   173   54  168 1  
   174   55  169 1  
   175   58  170 1  
   176   61  171 1  
   177   62  172 1  
   178   63  173 1  
   179   63  174 1  
   180   67  175 1  
   181   68  176 1  
   182   69  177 1  
   183   72  178 1  
   184   72  179 1  
   185   73  180 1  
   186   73  181 1  
   187   77  182 1  
   188   78  183 1  
   189   81  184 1  
   190   81  185 1  
   191   83  186 1  
   192   85  187 1  
   193   87  188 1  
   194   88  189 1  
   195   89  190 1  
   196   90  191 1  
   197   91  192 1  
   198   92  193 1  
   199   95  194 1  
   200   95  195 1  
   201   96  196 1  
   202   97  197 1  
   203   97  198 1  
   204   97  199 1  
   205   98  200 1  
   206   98  201 1  
   207   98  202 1  
   208   99  203 1  
   209  100  204 1  
   210  103  205 1  
   211  103  206 1  
   212  104  207 1  
   213  105  208 1  
   214  106  209 1  
   215  106  210 1  
   216  107  211 1  
   217  108  212 1  
   218  111  213 1  
   219  111  214 1  
   220  112  215 1  
   221  112  216 1  
   222  113  217 1  
   223  113  218 1  
   224  113  219 1  
@<TRIPOS>SUBSTRUCTURE
     1 ACE         1

