6c7q_ligand
  -I-interpret- 

 56 61  0  0  0  0  0  0  0  0999 V2000
   14.5790   -4.8450    5.8200 C   0  0  0  0  0
   15.5450   -5.6920    6.2620 C   0  0  0  0  0
   16.7660   -5.3250    7.0370 C   0  0  0  0  0
   17.0600   -5.9010    8.2970 C   0  0  0  0  0
   16.5840   -7.6870    9.8270 C   0  0  0  0  0
   18.1800   -5.5110    9.0250 C   0  0  0  0  0
   18.6090   -4.7940   12.1690 C   0  0  0  0  0
   16.8160   -3.1940   12.3510 C   0  0  0  0  0
   16.0500   -4.1110   13.0540 C   0  0  0  0  0
   17.6530   -4.3590    6.5310 C   0  0  0  0  0
   15.0860   -6.9900    5.8590 C   0  0  0  0  0
   15.8160   -8.2910    5.9170 C   0  0  0  0  0
   13.9200   -6.9250    5.2910 N   0  0  0  0  0
   13.5810   -5.5500    5.2480 O   0  0  0  0  0
   14.4450   -3.3710    5.7890 C   0  0  0  0  0
   18.7590   -3.9690    7.2670 C   0  0  0  0  0
   19.7580   -3.0740    6.9340 N   0  0  0  0  0
   20.7040   -3.0410    7.9360 C   0  0  0  0  0
   21.8560   -2.3460    7.9270 N   0  0  0  0  0
   22.6400   -2.5530    8.9920 C   0  0  0  0  0
   23.9350   -1.8070    9.0430 C   0  0  0  0  0
   22.3630   -3.3690   10.0170 N   0  0  0  0  0
   21.2140   -4.0670   10.0530 C   0  0  0  0  0
   20.2910   -3.9380    8.9730 C   0  0  0  0  0
   19.0390   -4.5340    8.5260 C   0  0  0  0  0
   16.1800   -6.8510    8.7420 O   0  0  0  0  0
   20.9740   -4.8510   11.1880 N   0  0  0  0  0
   19.9460   -5.3610   11.9100 C   0  0  0  0  0
   18.0850   -3.5310   11.9010 C   0  0  0  0  0
   16.5320   -5.3860   13.3100 C   0  0  0  0  0
   17.8090   -5.7180   12.8640 C   0  0  0  0  0
   18.6420   -6.8330   12.9870 N   0  0  0  0  0
   19.9060   -6.6260   12.4470 N   0  0  0  0  0
   18.2680   -8.1160   13.5700 C   0  0  0  0  0
   17.4788   -8.2411    9.5434 H   0  0  0  0  0
   16.7986   -7.0696   10.6993 H   0  0  0  0  0
   15.7819   -8.3861   10.0635 H   0  0  0  0  0
   18.3864   -5.9723    9.9908 H   0  0  0  0  0
   16.4181   -2.1994   12.1498 H   0  0  0  0  0
   15.0593   -3.8272   13.4090 H   0  0  0  0  0
   17.4689   -3.9142    5.5531 H   0  0  0  0  0
   16.7202   -8.2261    5.3117 H   0  0  0  0  0
   16.0841   -8.5100    6.9506 H   0  0  0  0  0
   15.1749   -9.0834    5.5309 H   0  0  0  0  0
   14.4905   -2.9818    6.8061 H   0  0  0  0  0
   15.2572   -2.9459    5.1993 H   0  0  0  0  0
   13.4890   -3.1038    5.3388 H   0  0  0  0  0
   24.5415   -2.0750    8.1779 H   0  0  0  0  0
   23.7362   -0.7353    9.0311 H   0  0  0  0  0
   24.4679   -2.0688    9.9571 H   0  0  0  0  0
   21.8609   -5.1287   11.6083 H   0  0  0  0  0
   18.6726   -2.8065   11.3371 H   0  0  0  0  0
   15.9243   -6.1129   13.8489 H   0  0  0  0  0
   17.9676   -7.9685   14.6073 H   0  0  0  0  0
   17.4373   -8.5412   13.0068 H   0  0  0  0  0
   19.1205   -8.7940   13.5302 H   0  0  0  0  0
  2  1  4  0  0  0
  1 14  4  0  0  0
  1 15  1  0  0  0
  3  2  1  0  0  0
  2 11  4  0  0  0
  4  3  4  0  0  0
 10  3  4  0  0  0
  6  4  4  0  0  0
  4 26  1  0  0  0
 26  5  1  0  0  0
 25  6  4  0  0  0
 28  7  4  0  0  0
  7 29  4  0  0  0
  7 31  4  0  0  0
  8  9  4  0  0  0
 29  8  4  0  0  0
  9 30  4  0  0  0
 16 10  4  0  0  0
 11 12  1  0  0  0
 11 13  4  0  0  0
 13 14  4  0  0  0
 16 17  4  0  0  0
 25 16  4  0  0  0
 18 17  4  0  0  0
 18 19  4  0  0  0
 24 18  4  0  0  0
 20 19  4  0  0  0
 20 21  1  0  0  0
 22 20  4  0  0  0
 23 22  4  0  0  0
 23 24  4  0  0  0
 27 23  1  0  0  0
 24 25  4  0  0  0
 27 28  1  0  0  0
 28 33  4  0  0  0
 30 31  4  0  0  0
 31 32  4  0  0  0
 32 33  4  0  0  0
 32 34  1  0  0  0
  5 35  1  0  0  0
  5 36  1  0  0  0
  5 37  1  0  0  0
  6 38  1  0  0  0
  8 39  1  0  0  0
  9 40  1  0  0  0
 10 41  1  0  0  0
 12 42  1  0  0  0
 12 43  1  0  0  0
 12 44  1  0  0  0
 15 45  1  0  0  0
 15 46  1  0  0  0
 15 47  1  0  0  0
 21 48  1  0  0  0
 21 49  1  0  0  0
 21 50  1  0  0  0
 27 51  1  0  0  0
 29 52  1  0  0  0
 30 53  1  0  0  0
 34 54  1  0  0  0
 34 55  1  0  0  0
 34 56  1  0  0  0
M  END
$$$$
