### 
### Created by X-TOOL on Mon Sep 10 21:12:58 2018
### 

@<TRIPOS>MOLECULE
2pj2_ligand
   59    60     1     0     0
SMALL
GAST_HUCK


@<TRIPOS>ATOM
      1 C1         37.1570   11.2900   59.7160 C.3       1 864         0.0592
      2 C2         37.2910   10.5750   61.0050 C.2       1 864         0.0508
      3 C3         38.4500   11.2270   58.9360 C.ar      1 864        -0.0322
      4 C4         39.6360   12.0320   59.2630 C.ar      1 864        -0.0653
      5 C5         40.8790   11.9450   58.5420 C.ar      1 864        -0.0748
      6 C6         40.9260   11.0080   57.4480 C.ar      1 864        -0.0621
      7 C7         39.7870   10.1910   57.0740 C.ar      1 864        -0.0052
      8 C8         38.5530   10.3010   57.8190 C.ar      1 864        -0.0522
      9 C9         39.8590    9.2460   55.9530 C.3       1 864        -0.0032
     10 N10        39.9850    7.8380   56.3680 N.4       1 864         0.2307
     11 O13        37.6870   11.1330   62.0610 O.co2     1 864        -0.5660
     12 O14        37.0180    9.3580   61.0390 O.co2     1 864        -0.5660
     13 C15        36.6050   12.7390   60.0370 C.3       1 864         0.0391
     14 P24        35.0440   12.9250   60.6430 P.3       1 864         0.0147
     15 C25        34.8300   14.3630   61.4890 C.3       1 864         0.1107
     16 C26        34.9330   15.7110   60.6910 C.3       1 864        -0.0072
     17 C27        36.3250   16.2340   60.2970 C.3       1 864        -0.0591
     18 C28        34.2450   16.8510   61.4660 C.3       1 864        -0.0591
     19 N29        35.7230   14.3150   62.6340 N.am      1 864        -0.2434
     20 C30        35.3160   14.2320   63.9310 C.2       1 864         0.3230
     21 O31        34.0980   14.2100   64.2660 O.2       1 864        -0.3774
     22 O32        36.3170   14.1540   64.8440 O.3       1 864        -0.2506
     23 C33        36.1950   13.9520   66.2620 C.3       1 864         0.1113
     24 O34        34.0960   12.8650   59.5580 O.co2     1 864        -0.6174
     25 O35        34.7870   11.8600   61.5730 O.co2     1 864        -0.6174
     26 C36        37.4950   13.9730   66.9450 C.ar      1 864        -0.0130
     27 C37        37.5960   14.6960   68.2040 C.ar      1 864        -0.0578
     28 C38        38.8670   14.7330   68.9040 C.ar      1 864        -0.0685
     29 C39        40.0070   14.0410   68.3220 C.ar      1 864        -0.0687
     30 C40        39.9210   13.3150   67.0650 C.ar      1 864        -0.0685
     31 C41        38.6480   13.2800   66.3680 C.ar      1 864        -0.0578
     32 H1         36.3964   10.7762   59.1097 H         1 864         0.0638
     33 H2         39.5710   12.7283   60.0913 H         1 864         0.0502
     34 H3         41.7359   12.5532   58.8084 H         1 864         0.0582
     35 H4         41.8464   10.9101   56.8838 H         1 864         0.0503
     36 H5         37.7005    9.6906   57.5439 H         1 864         0.0499
     37 H6         40.7325    9.5051   55.3367 H         1 864         0.0978
     38 H7         38.9430    9.3497   55.3528 H         1 864         0.0978
     39 H8         40.0288    7.2495   55.5508 H         1 864         0.2008
     40 H9         39.1863    7.5794   56.9259 H         1 864         0.2008
     41 H10        40.8261    7.7218   56.9112 H         1 864         0.2008
     42 H11        36.6534   13.3131   59.1000 H         1 864         0.0508
     43 H12        37.2884   13.1839   60.7753 H         1 864         0.0508
     44 H13        33.8012   14.3395   61.8775 H         1 864         0.0766
     45 H14        34.3810   15.5481   59.7536 H         1 864         0.0334
     46 H15        36.2188   17.1810   59.7475 H         1 864         0.0234
     47 H16        36.8275   15.4934   59.6575 H         1 864         0.0234
     48 H17        36.9240   16.4017   61.2042 H         1 864         0.0234
     49 H18        33.2391   16.5298   61.7743 H         1 864         0.0234
     50 H19        34.1648   17.7375   60.8198 H         1 864         0.0234
     51 H20        34.8397   17.0995   62.3573 H         1 864         0.0234
     52 H21        36.7068   14.3451   62.4571 H         1 864         0.1886
     53 H22        35.7183   12.9768   66.4401 H         1 864         0.0776
     54 H23        35.5639   14.7504   66.6795 H         1 864         0.0776
     55 H24        36.7301   15.2022   68.6152 H         1 864         0.0557
     56 H25        38.9651   15.2661   69.8427 H         1 864         0.0599
     57 H26        40.9561   14.0677   68.8451 H         1 864         0.0559
     58 H27        40.7893   12.8105   66.6569 H         1 864         0.0599
     59 H28        38.5523   12.7459   65.4295 H         1 864         0.0557
@<TRIPOS>BOND
     1    1    2 1  
     2    1    3 1  
     3    1   13 1  
     4    2   11 ar 
     5    2   12 ar 
     6    3    4 ar 
     7    3    8 ar 
     8    4    5 ar 
     9    5    6 ar 
    10    6    7 ar 
    11    7    8 ar 
    12    7    9 1  
    13    9   10 1  
    14   13   14 1  
    15   14   15 1  
    16   14   24 ar 
    17   14   25 ar 
    18   15   16 1  
    19   15   19 1  
    20   16   17 1  
    21   16   18 1  
    22   19   20 am 
    23   20   21 2  
    24   20   22 1  
    25   22   23 1  
    26   23   26 1  
    27   26   27 ar 
    28   26   31 ar 
    29   27   28 ar 
    30   28   29 ar 
    31   29   30 ar 
    32   30   31 ar 
    33    1   32 1  
    34    4   33 1  
    35    5   34 1  
    36    6   35 1  
    37    8   36 1  
    38    9   37 1  
    39    9   38 1  
    40   10   39 1  
    41   10   40 1  
    42   10   41 1  
    43   13   42 1  
    44   13   43 1  
    45   15   44 1  
    46   16   45 1  
    47   17   46 1  
    48   17   47 1  
    49   17   48 1  
    50   18   49 1  
    51   18   50 1  
    52   18   51 1  
    53   19   52 1  
    54   23   53 1  
    55   23   54 1  
    56   27   55 1  
    57   28   56 1  
    58   29   57 1  
    59   30   58 1  
    60   31   59 1  
@<TRIPOS>SUBSTRUCTURE
     1 864         1

