2pj2_ligand
  -I-interpret- 

 61 62  0  0  0  0  0  0  0  0999 V2000
   37.1570   11.2900   59.7160 C   0  0  0  0  0
   37.2910   10.5750   61.0050 C   0  0  0  0  0
   38.4500   11.2270   58.9360 C   0  0  0  0  0
   39.6360   12.0320   59.2630 C   0  0  0  0  0
   40.8790   11.9450   58.5420 C   0  0  0  0  0
   40.9260   11.0080   57.4480 C   0  0  0  0  0
   39.7870   10.1910   57.0740 C   0  0  0  0  0
   38.5530   10.3010   57.8190 C   0  0  0  0  0
   39.8590    9.2460   55.9530 C   0  0  0  0  0
   39.9850    7.8380   56.3680 N   0  3  0  0  0
   37.6870   11.1330   62.0610 O   0  0  0  0  0
   37.0180    9.3580   61.0390 O   0  0  0  0  0
   36.6050   12.7390   60.0370 C   0  0  0  0  0
   35.0440   12.9250   60.6430 P   0  0  0  0  0
   34.8300   14.3630   61.4890 C   0  0  0  0  0
   34.9330   15.7110   60.6910 C   0  0  0  0  0
   36.3250   16.2340   60.2970 C   0  0  0  0  0
   34.2450   16.8510   61.4660 C   0  0  0  0  0
   35.7230   14.3150   62.6340 N   0  0  0  0  0
   35.3160   14.2320   63.9310 C   0  0  0  0  0
   34.0980   14.2100   64.2660 O   0  0  0  0  0
   36.3170   14.1540   64.8440 O   0  0  0  0  0
   36.1950   13.9520   66.2620 C   0  0  0  0  0
   34.0960   12.8650   59.5580 O   0  0  0  0  0
   34.7870   11.8600   61.5730 O   0  0  0  0  0
   37.4950   13.9730   66.9450 C   0  0  0  0  0
   37.5960   14.6960   68.2040 C   0  0  0  0  0
   38.8670   14.7330   68.9040 C   0  0  0  0  0
   40.0070   14.0410   68.3220 C   0  0  0  0  0
   39.9210   13.3150   67.0650 C   0  0  0  0  0
   38.6480   13.2800   66.3680 C   0  0  0  0  0
   36.4379   10.8202   59.0450 H   0  0  0  0  0
   39.5706   12.7321   60.0959 H   0  0  0  0  0
   41.7406   12.5566   58.8098 H   0  0  0  0  0
   41.8515   10.9095   56.8806 H   0  0  0  0  0
   37.6958    9.6872   57.5424 H   0  0  0  0  0
   40.7490    9.4950   55.3751 H   0  0  0  0  0
   38.9292    9.3370   55.3915 H   0  0  0  0  0
   40.0292    7.2435   55.5403 H   0  0  0  0  0
   40.8364    7.7216   56.9175 H   0  0  0  0  0
   39.1763    7.5775   56.9324 H   0  0  0  0  0
   37.8577   12.0614   61.8864 H   0  0  0  0  0
   36.5866   13.2454   59.0720 H   0  0  0  0  0
   37.2533   13.1097   60.8310 H   0  0  0  0  0
   33.7800   14.4011   61.7792 H   0  0  0  0  0
   34.4463   15.4368   59.7550 H   0  0  0  0  0
   36.9175   16.3997   61.1968 H   0  0  0  0  0
   36.8218   15.4993   59.6634 H   0  0  0  0  0
   36.2185   17.1723   59.7527 H   0  0  0  0  0
   33.1933   16.6055   61.6132 H   0  0  0  0  0
   34.7296   16.9743   62.4345 H   0  0  0  0  0
   34.3271   17.7769   60.8967 H   0  0  0  0  0
   36.7264   14.3457   62.4536 H   0  0  0  0  0
   35.7442   12.9731   66.4254 H   0  0  0  0  0
   35.5885   14.7621   66.6669 H   0  0  0  0  0
   34.2726   13.5784   58.9404 H   0  0  0  0  0
   36.7253   15.2050   68.6174 H   0  0  0  0  0
   38.9656   15.2691   69.8479 H   0  0  0  0  0
   40.9613   14.0678   68.8480 H   0  0  0  0  0
   40.7941   12.8077   66.6547 H   0  0  0  0  0
   38.5518   12.7430   65.4244 H   0  0  0  0  0
  1  2  1  0  0  0
  1  3  1  0  0  0
  1 13  1  0  0  0
  2 11  1  0  0  0
  2 12  2  0  0  0
  3  4  4  0  0  0
  3  8  4  0  0  0
  4  5  4  0  0  0
  5  6  4  0  0  0
  6  7  4  0  0  0
  7  8  4  0  0  0
  7  9  1  0  0  0
  9 10  1  0  0  0
 13 14  1  0  0  0
 14 15  1  0  0  0
 14 24  1  0  0  0
 14 25  2  0  0  0
 15 16  1  0  0  0
 15 19  1  0  0  0
 16 17  1  0  0  0
 16 18  1  0  0  0
 19 20  1  0  0  0
 20 21  2  0  0  0
 20 22  1  0  0  0
 22 23  1  0  0  0
 23 26  1  0  0  0
 26 27  4  0  0  0
 26 31  4  0  0  0
 27 28  4  0  0  0
 28 29  4  0  0  0
 29 30  4  0  0  0
 30 31  4  0  0  0
  1 32  1  0  0  0
  4 33  1  0  0  0
  5 34  1  0  0  0
  6 35  1  0  0  0
  8 36  1  0  0  0
  9 37  1  0  0  0
  9 38  1  0  0  0
 10 39  1  0  0  0
 10 40  1  0  0  0
 10 41  1  0  0  0
 11 42  1  0  0  0
 13 43  1  0  0  0
 13 44  1  0  0  0
 15 45  1  0  0  0
 16 46  1  0  0  0
 17 47  1  0  0  0
 17 48  1  0  0  0
 17 49  1  0  0  0
 18 50  1  0  0  0
 18 51  1  0  0  0
 18 52  1  0  0  0
 19 53  1  0  0  0
 23 54  1  0  0  0
 23 55  1  0  0  0
 24 56  1  0  0  0
 27 57  1  0  0  0
 28 58  1  0  0  0
 29 59  1  0  0  0
 30 60  1  0  0  0
 31 61  1  0  0  0
M  END
$$$$
