5duc_ligand
  -I-interpret- 

 57 61  0  0  0  0  0  0  0  0999 V2000
   -5.6660   32.4980  -37.6490 O   0  0  0  0  0
   -6.1790   33.4590  -38.2130 C   0  0  0  0  0
   -5.8990   33.8220  -39.4660 N   0  0  0  0  0
   -4.9730   33.2060  -40.4030 C   0  0  0  0  0
   -5.8370   32.4720  -41.4060 C   0  0  0  0  0
   -5.4210   32.3110  -42.7420 C   0  0  0  0  0
   -6.2230   31.6360  -43.6740 C   0  0  0  0  0
   -7.4430   31.1400  -43.2220 C   0  0  0  0  0
   -8.3980   30.4390  -43.9100 O   0  0  0  0  0
   -9.3970   30.0020  -42.9610 C   0  0  0  0  0
   -9.0750   30.6960  -41.7390 O   0  0  0  0  0
   -7.8520   31.2940  -41.9180 C   0  0  0  0  0
   -7.0690   31.9600  -40.9820 C   0  0  0  0  0
   -7.2000   34.2640  -37.4940 C   0  0  0  0  0
   -8.1930   35.1260  -37.9670 C   0  0  0  0  0
   -8.8900   35.6280  -36.8980 N   0  0  0  0  0
   -8.3370   35.0770  -35.7260 N   0  0  0  0  0
   -8.8850   35.4470  -34.4200 C   0  0  0  0  0
   -9.2050   36.9220  -34.4880 C   0  0  0  0  0
  -10.0830   37.1690  -35.4420 F   0  0  0  0  0
   -9.7100   37.2560  -33.3220 F   0  0  0  0  0
   -8.1110   37.6120  -34.7570 F   0  0  0  0  0
   -7.3400   34.3040  -36.0320 C   0  0  0  0  0
   -6.6840   33.6370  -35.0700 N   0  0  0  0  0
   -7.2020   33.7240  -33.7110 C   0  0  0  0  0
   -7.8190   35.0920  -33.3900 C   0  0  0  0  0
   -6.1250   33.3920  -32.7560 C   0  0  0  0  0
   -4.8220   33.8370  -32.9540 C   0  0  0  0  0
   -3.8380   33.4990  -32.0280 C   0  0  0  0  0
   -4.1590   32.7320  -30.9140 C   0  0  0  0  0
   -3.1000   32.3610  -29.9060 C   0  0  0  0  0
   -1.8300   31.9520  -30.6110 C   0  0  0  0  0
   -5.4620   32.2940  -30.7300 C   0  0  0  0  0
   -6.4420   32.6240  -31.6490 C   0  0  0  0  0
   -6.4008   34.6397  -39.8125 H   0  0  0  0  0
   -4.2863   32.5276  -39.8968 H   0  0  0  0  0
   -4.3435   33.9512  -40.8893 H   0  0  0  0  0
   -4.4600   32.7177  -43.0568 H   0  0  0  0  0
   -5.9047   31.5053  -44.7083 H   0  0  0  0  0
   -9.3838   28.9202  -42.8281 H   0  0  0  0  0
  -10.4069   30.2296  -43.3022 H   0  0  0  0  0
   -7.4035   32.0796  -39.9515 H   0  0  0  0  0
   -8.3825   35.3609  -39.0144 H   0  0  0  0  0
   -9.8010   34.9256  -34.1422 H   0  0  0  0  0
   -5.8512   33.0879  -35.2829 H   0  0  0  0  0
   -8.0137   33.0023  -33.6193 H   0  0  0  0  0
   -8.2782   35.0521  -32.4022 H   0  0  0  0  0
   -7.0357   35.8497  -33.4132 H   0  0  0  0  0
   -4.5737   34.4439  -33.8247 H   0  0  0  0  0
   -2.8126   33.8371  -32.1774 H   0  0  0  0  0
   -3.4580   31.5265  -29.3031 H   0  0  0  0  0
   -2.8940   33.2228  -29.2713 H   0  0  0  0  0
   -2.0315   31.0926  -31.2504 H   0  0  0  0  0
   -1.4698   32.7821  -31.2187 H   0  0  0  0  0
   -1.0745   31.6870  -29.8713 H   0  0  0  0  0
   -5.7144   31.6885  -29.8595 H   0  0  0  0  0
   -7.4652   32.2787  -31.5011 H   0  0  0  0  0
  1  2  2  0  0  0
  2  3  1  0  0  0
  2 14  1  0  0  0
  3  4  1  0  0  0
  4  5  1  0  0  0
  5  6  4  0  0  0
  5 13  4  0  0  0
  6  7  4  0  0  0
  7  8  4  0  0  0
  8  9  1  0  0  0
  8 12  4  0  0  0
  9 10  1  0  0  0
 10 11  1  0  0  0
 11 12  1  0  0  0
 12 13  4  0  0  0
 14 15  4  0  0  0
 14 23  4  0  0  0
 15 16  4  0  0  0
 16 17  4  0  0  0
 17 18  1  0  0  0
 17 23  4  0  0  0
 18 19  1  0  0  0
 18 26  1  0  0  0
 19 20  1  0  0  0
 19 21  1  0  0  0
 19 22  1  0  0  0
 23 24  1  0  0  0
 24 25  1  0  0  0
 25 26  1  0  0  0
 25 27  1  0  0  0
 27 28  4  0  0  0
 27 34  4  0  0  0
 28 29  4  0  0  0
 29 30  4  0  0  0
 30 31  1  0  0  0
 30 33  4  0  0  0
 31 32  1  0  0  0
 33 34  4  0  0  0
  3 35  1  0  0  0
  4 36  1  0  0  0
  4 37  1  0  0  0
  6 38  1  0  0  0
  7 39  1  0  0  0
 10 40  1  0  0  0
 10 41  1  0  0  0
 13 42  1  0  0  0
 15 43  1  0  0  0
 18 44  1  0  0  0
 24 45  1  0  0  0
 25 46  1  0  0  0
 26 47  1  0  0  0
 26 48  1  0  0  0
 28 49  1  0  0  0
 29 50  1  0  0  0
 31 51  1  0  0  0
 31 52  1  0  0  0
 32 53  1  0  0  0
 32 54  1  0  0  0
 32 55  1  0  0  0
 33 56  1  0  0  0
 34 57  1  0  0  0
M  END
$$$$
