1y2j_ligand
  -I-interpret- 

 36 37  0  0  0  0  0  0  0  0999 V2000
   40.5100    1.5730   58.0170 O   0  0  0  0  0
   39.4690    1.4350   58.6870 N   0  0  0  0  0
   38.3310    1.5290   58.2130 O   0  0  0  0  0
   39.5810    1.9410   59.9600 C   0  0  0  0  0
   38.7710    3.0400   60.3140 C   0  0  0  0  0
   40.5230    1.4150   60.8710 C   0  0  0  0  0
   40.6190    2.0070   62.1120 C   0  0  0  0  0
   39.8070    3.0930   62.4330 C   0  0  0  0  0
   38.9030    3.6280   61.5470 C   0  0  0  0  0
   41.4210    1.6080   63.1290 N   0  0  0  0  0
   42.7150    1.7970   63.2960 C   0  0  0  0  0
   43.6570    2.4760   62.2900 C   0  0  0  0  0
   43.0610    1.2830   64.4920 C   0  0  0  0  0
   41.8130    0.7510   65.0610 C   0  0  0  0  0
   40.9010    0.9900   64.2090 N   0  0  0  0  0
   41.5330    0.0570   66.3610 C   0  0  0  0  0
   44.3980    1.2460   65.0920 C   0  0  0  0  0
   44.4900    0.8220   66.2330 O   0  0  0  0  0
   45.4470    1.2680   64.2470 O   0  0  0  0  0
   46.7720    1.2960   64.8090 C   0  0  0  0  0
   47.7820    1.7950   63.7440 C   0  0  0  0  0
   38.0371    3.4239   59.6054 H   0  0  0  0  0
   41.1539    0.5680   60.6015 H   0  0  0  0  0
   39.8922    3.5354   63.4255 H   0  0  0  0  0
   38.3051    4.4985   61.8170 H   0  0  0  0  0
   43.6482    1.9192   61.3530 H   0  0  0  0  0
   43.3200    3.4969   62.1106 H   0  0  0  0  0
   44.6688    2.4919   62.6952 H   0  0  0  0  0
   42.1215   -0.8588   66.4166 H   0  0  0  0  0
   41.8025    0.7143   67.1877 H   0  0  0  0  0
   40.4723   -0.1870   66.4200 H   0  0  0  0  0
   47.0502    0.2914   65.1276 H   0  0  0  0  0
   46.7869    1.9709   65.6648 H   0  0  0  0  0
   47.7669    1.1215   62.8871 H   0  0  0  0  0
   47.5038    2.7990   63.4236 H   0  0  0  0  0
   48.7829    1.8140   64.1751 H   0  0  0  0  0
  1  2  2  0  0  0
  2  3  2  0  0  0
  2  4  1  0  0  0
  4  5  4  0  0  0
  4  6  4  0  0  0
  5  9  4  0  0  0
  6  7  4  0  0  0
  7  8  4  0  0  0
  7 10  1  0  0  0
  8  9  4  0  0  0
 10 11  4  0  0  0
 10 15  4  0  0  0
 11 12  1  0  0  0
 11 13  4  0  0  0
 13 14  4  0  0  0
 13 17  1  0  0  0
 14 15  4  0  0  0
 14 16  1  0  0  0
 17 18  2  0  0  0
 17 19  1  0  0  0
 19 20  1  0  0  0
 20 21  1  0  0  0
  5 22  1  0  0  0
  6 23  1  0  0  0
  8 24  1  0  0  0
  9 25  1  0  0  0
 12 26  1  0  0  0
 12 27  1  0  0  0
 12 28  1  0  0  0
 16 29  1  0  0  0
 16 30  1  0  0  0
 16 31  1  0  0  0
 20 32  1  0  0  0
 20 33  1  0  0  0
 21 34  1  0  0  0
 21 35  1  0  0  0
 21 36  1  0  0  0
M  END
$$$$
