2aw1_ligand
  -I-interpret- 

 36 38  0  0  0  0  0  0  0  0999 V2000
   -5.7340    0.9590   16.4520 S   0  0  0  0  0
   -7.2960    1.0600   16.2460 O   0  0  0  0  0
   -5.1630    1.1480   17.9040 O   0  0  0  0  0
   -5.1870   -0.5400   15.8630 N   0  0  0  0  0
   -5.0120    2.2420   15.5120 C   0  0  0  0  0
   -5.8510    3.1310   14.7850 C   0  0  0  0  0
   -5.2550    4.1820   14.0460 C   0  0  0  0  0
   -3.8200    4.3800   14.0120 C   0  0  0  0  0
   -3.0190    3.4480   14.7660 C   0  0  0  0  0
   -3.6040    2.3910   15.5050 C   0  0  0  0  0
   -3.2270    5.4750   13.2660 C   0  0  0  0  0
   -2.0250    5.4500   12.4870 C   0  0  0  0  0
   -1.0300    4.3420   12.1790 C   0  0  0  0  0
   -1.7770    6.6960   11.9560 O   0  0  0  0  0
   -2.7450    7.4750   12.3470 N   0  0  0  0  0
   -3.6830    6.8460   13.1400 C   0  0  0  0  0
   -4.8610    7.5220   13.6350 C   0  0  0  0  0
   -5.8290    8.0660   12.7240 C   0  0  0  0  0
   -6.9920    8.7250   13.1870 C   0  0  0  0  0
   -7.2180    8.8560   14.5800 C   0  0  0  0  0
   -6.2850    8.3340   15.5100 C   0  0  0  0  0
   -5.1220    7.6750   15.0470 C   0  0  0  0  0
   -5.8495   -1.2012   15.4576 H   0  0  0  0  0
   -4.1965   -0.7777   15.9152 H   0  0  0  0  0
   -6.9337    3.0057   14.7964 H   0  0  0  0  0
   -5.8956    4.8629   13.4855 H   0  0  0  0  0
   -1.9348    3.5599   14.7673 H   0  0  0  0  0
   -2.9754    1.6978   16.0639 H   0  0  0  0  0
   -0.5983    3.9740   13.1098 H   0  0  0  0  0
   -1.5424    3.5272   11.6675 H   0  0  0  0  0
   -0.2386    4.7334   11.5398 H   0  0  0  0  0
   -5.6637    7.9688   11.6510 H   0  0  0  0  0
   -7.7113    9.1303   12.4754 H   0  0  0  0  0
   -8.1149    9.3613   14.9381 H   0  0  0  0  0
   -6.4631    8.4400   16.5801 H   0  0  0  0  0
   -4.4100    7.2755   15.7692 H   0  0  0  0  0
  1  2  2  0  0  0
  1  3  2  0  0  0
  1  4  1  0  0  0
  1  5  1  0  0  0
  5  6  4  0  0  0
  5 10  4  0  0  0
  6  7  4  0  0  0
  7  8  4  0  0  0
  8  9  4  0  0  0
  8 11  1  0  0  0
  9 10  4  0  0  0
 11 12  4  0  0  0
 11 16  4  0  0  0
 12 13  1  0  0  0
 12 14  4  0  0  0
 14 15  4  0  0  0
 15 16  4  0  0  0
 16 17  1  0  0  0
 17 18  4  0  0  0
 17 22  4  0  0  0
 18 19  4  0  0  0
 19 20  4  0  0  0
 20 21  4  0  0  0
 21 22  4  0  0  0
  4 23  1  0  0  0
  4 24  1  0  0  0
  6 25  1  0  0  0
  7 26  1  0  0  0
  9 27  1  0  0  0
 10 28  1  0  0  0
 13 29  1  0  0  0
 13 30  1  0  0  0
 13 31  1  0  0  0
 18 32  1  0  0  0
 19 33  1  0  0  0
 20 34  1  0  0  0
 21 35  1  0  0  0
 22 36  1  0  0  0
M  END
$$$$
