4pd5_ligand
  -I-interpret- 

 29 30  0  0  0  0  0  0  0  0999 V2000
   -9.1450   53.9420    0.2910 O   0  0  0  0  0
  -10.3000   54.7890    0.1210 C   0  0  0  0  0
  -10.5970   54.9010   -1.3680 C   0  0  0  0  0
   -9.4560   55.4780   -2.0700 O   0  0  0  0  0
   -9.3240   54.8490   -3.3380 C   0  0  0  0  0
   -7.9960   54.2200   -3.4490 N   0  0  0  0  0
   -7.2510   54.0030   -2.3220 C   0  0  0  0  0
   -6.0420   53.4360   -2.4180 C   0  0  0  0  0
   -5.5330   53.0650   -3.6960 C   0  0  0  0  0
   -6.2630   53.2820   -4.7940 N   0  0  0  0  0
   -7.4850   53.8570   -4.6990 C   0  0  0  0  0
   -8.1540   54.0510   -5.7250 O   0  0  0  0  0
   -4.3280   52.5000   -3.7960 N   0  0  0  0  0
  -10.4520   53.8150   -3.4330 C   0  0  0  0  0
  -10.0480   52.6940   -4.0460 F   0  0  0  0  0
  -11.5090   54.3470   -4.0730 F   0  0  0  0  0
  -10.8010   53.5410   -1.9810 C   0  0  0  0  0
  -12.1540   53.1300   -1.8600 O   0  0  0  0  0
   -8.9440   53.8609    1.2262 H   0  0  0  0  0
  -10.1035   55.7767    0.5380 H   0  0  0  0  0
  -11.1568   54.3612    0.6416 H   0  0  0  0  0
  -11.4905   55.5180   -1.4631 H   0  0  0  0  0
   -9.4028   55.5639   -4.1570 H   0  0  0  0  0
   -7.6418   54.2917   -1.3463 H   0  0  0  0  0
   -5.4487   53.2587   -1.5210 H   0  0  0  0  0
   -5.8980   53.0132   -5.7077 H   0  0  0  0  0
   -3.7715   52.3338   -2.9575 H   0  0  0  0  0
  -10.2139   52.7480   -1.5177 H   0  0  0  0  0
  -12.3548   52.9619   -0.9364 H   0  0  0  0  0
  1  2  1  0  0  0
  2  3  1  0  0  0
  3  4  1  0  0  0
  3 17  1  0  0  0
  4  5  1  0  0  0
  5  6  1  0  0  0
  5 14  1  0  0  0
  6  7  1  0  0  0
  6 11  1  0  0  0
  7  8  2  0  0  0
  8  9  1  0  0  0
  9 10  1  0  0  0
  9 13  2  0  0  0
 10 11  1  0  0  0
 11 12  2  0  0  0
 14 15  1  0  0  0
 14 16  1  0  0  0
 14 17  1  0  0  0
 17 18  1  0  0  0
  1 19  1  0  0  0
  2 20  1  0  0  0
  2 21  1  0  0  0
  3 22  1  0  0  0
  5 23  1  0  0  0
  7 24  1  0  0  0
  8 25  1  0  0  0
 10 26  1  0  0  0
 13 27  1  0  0  0
 17 28  1  0  0  0
 18 29  1  0  0  0
M  END
$$$$
