### 
### Created by X-TOOL on Mon Sep 10 21:13:20 2018
### 

@<TRIPOS>MOLECULE
4pd5_ligand
   29    30     1     0     0
SMALL
GAST_HUCK


@<TRIPOS>ATOM
      1 O5'        -9.1450   53.9420    0.2910 O.3       1 GEO        -0.3924
      2 C5'       -10.3000   54.7890    0.1210 C.3       1 GEO         0.0732
      3 C4'       -10.5970   54.9010   -1.3680 C.3       1 GEO         0.1170
      4 O4'        -9.4560   55.4780   -2.0700 O.3       1 GEO        -0.3331
      5 C1'        -9.3240   54.8490   -3.3380 C.3       1 GEO         0.2487
      6 N1         -7.9960   54.2200   -3.4490 N.am      1 GEO        -0.1433
      7 C6         -7.2510   54.0030   -2.3220 C.2       1 GEO         0.0740
      8 C5         -6.0420   53.4360   -2.4180 C.2       1 GEO         0.0019
      9 C4         -5.5330   53.0650   -3.6960 C.2       1 GEO         0.0853
     10 N3         -6.2630   53.2820   -4.7940 N.am      1 GEO        -0.1924
     11 C2         -7.4850   53.8570   -4.6990 C.2       1 GEO         0.3489
     12 O2         -8.1540   54.0510   -5.7250 O.2       1 GEO        -0.3777
     13 N4         -4.3280   52.5000   -3.7960 N.2       1 GEO        -0.4291
     14 C2'       -10.4520   53.8150   -3.4330 C.3       1 GEO         0.3317
     15 F1        -10.0480   52.6940   -4.0460 F         1 GEO        -0.1965
     16 F2        -11.5090   54.3470   -4.0730 F         1 GEO        -0.1965
     17 C3'       -10.8010   53.5410   -1.9810 C.3       1 GEO         0.1520
     18 O3'       -12.1540   53.1300   -1.8600 O.3       1 GEO        -0.3830
     19 H          -9.3279   53.0827   -0.0704 H         1 GEO         0.2095
     20 H         -10.0933   55.7870    0.5349 H         1 GEO         0.0584
     21 H         -11.1638   54.3483    0.6402 H         1 GEO         0.0584
     22 H         -11.4922   55.5232   -1.5147 H         1 GEO         0.0648
     23 H          -9.4359   55.5927   -4.1407 H         1 GEO         0.1049
     24 H          -7.6414   54.2914   -1.3472 H         1 GEO         0.1288
     25 H          -5.4493   53.2589   -1.5218 H         1 GEO         0.0330
     26 H          -5.9051   53.0185   -5.6898 H         1 GEO         0.2412
     27 H          -3.7777   52.3365   -2.9675 H         1 GEO         0.0340
     28 H         -10.1369   52.7863   -1.5344 H         1 GEO         0.0682
     29 H         -12.3527   52.9637   -0.9460 H         1 GEO         0.2101
@<TRIPOS>BOND
     1    1    2 1  
     2    2    3 1  
     3    3    4 1  
     4    3   17 1  
     5    4    5 1  
     6    5    6 1  
     7    5   14 1  
     8    6    7 1  
     9    6   11 am 
    10    7    8 2  
    11    8    9 1  
    12    9   10 1  
    13    9   13 2  
    14   10   11 am 
    15   11   12 2  
    16   14   15 1  
    17   14   16 1  
    18   14   17 1  
    19   17   18 1  
    20    1   19 1  
    21    2   20 1  
    22    2   21 1  
    23    3   22 1  
    24    5   23 1  
    25    7   24 1  
    26    8   25 1  
    27   10   26 1  
    28   13   27 1  
    29   17   28 1  
    30   18   29 1  
@<TRIPOS>SUBSTRUCTURE
     1 GEO         1

