4lxd_ligand
  -I-interpret- 

 87 92  0  0  0  0  0  0  0  0999 V2000
   29.4840   28.2330    5.4050 C   0  0  0  0  0
   27.1090   27.8750    5.3430 C   0  0  0  0  0
   22.9140   31.4270   12.5320 C   0  0  0  0  0
   24.5180   33.1730   12.9230 C   0  0  0  0  0
   28.0200   30.4490    2.4590 Cl  0  0  0  0  0
   23.8710   30.7060   11.8300 C   0  0  0  0  0
   25.4550   32.4420   12.2120 C   0  0  0  0  0
   20.1390   37.5030   12.7150 C   0  0  0  0  0
   20.1740   36.3930   13.5430 C   0  0  0  0  0
   29.3840   29.1100    4.3450 C   0  0  0  0  0
   27.0060   28.7640    4.2960 C   0  0  0  0  0
   18.8900   35.1590   11.9390 C   0  0  0  0  0
   28.3470   27.6240    5.9140 C   0  0  0  0  0
   23.2480   32.6520   13.0740 C   0  0  0  0  0
   25.1560   31.2010   11.6560 C   0  0  0  0  0
   19.5040   37.4590   11.4780 C   0  0  0  0  0
   18.8830   36.2670   11.1200 C   0  0  0  0  0
   19.5640   35.2220   13.1380 C   0  0  0  0  0
   28.1410   29.3660    3.7970 C   0  0  0  0  0
   28.4790   26.6600    7.0090 C   0  0  0  0  0
   28.8570   26.9620    8.2740 C   0  0  0  0  0
   22.2320   33.4570   13.7880 C   0  0  0  0  0
   28.1720   25.2580    6.5770 C   0  0  0  0  0
   29.0260   25.8610    9.2790 C   0  0  0  0  0
   19.3310   40.6580   11.8420 C   0  0  0  0  0
   20.3650   40.5660    9.5920 C   0  0  0  0  0
   25.9220   29.0310   10.7330 C   0  0  0  0  0
   27.5260   30.9230   11.0890 C   0  0  0  0  0
   26.7560   28.5610    9.5500 C   0  0  0  0  0
   28.4240   30.3840    9.9730 C   0  0  0  0  0
   28.5390   24.2260    7.6330 C   0  0  0  0  0
   20.0260   41.9960   12.0470 C   0  0  0  0  0
   20.8700   41.9880    9.8330 C   0  0  0  0  0
   20.1590   39.7980   10.9030 C   0  0  0  0  0
   29.1570   28.3400    8.7830 C   0  0  0  0  0
   26.1440   30.4730   10.9030 N   0  0  0  0  0
   28.1930   28.9150    9.7900 N   0  3  0  0  0
   19.4390   38.5600   10.5900 N   0  0  0  0  0
   20.9430   32.9180   13.6950 N   0  0  0  0  0
   18.1660   36.0910    9.8650 N   0  0  0  0  0
   17.6790   34.9850    9.6370 O   0  0  0  0  0
   22.4630   34.5190   14.3430 O   0  0  0  0  0
   18.0710   37.0380    9.0930 O   0  0  0  0  0
   18.4020   32.9610   13.8680 O   0  0  0  0  0
   19.7470   34.2250   15.5430 O   0  0  0  0  0
   28.2380   24.7070    8.9440 O   0  0  0  0  0
   20.0650   42.6880   10.8030 O   0  0  0  0  0
   19.5700   33.7730   14.1690 S   0  0  0  0  0
   30.4586   28.0183    5.8433 H   0  0  0  0  0
   26.2200   27.3705    5.7214 H   0  0  0  0  0
   21.9067   31.0287   12.6542 H   0  0  0  0  0
   24.7776   34.1397   13.3546 H   0  0  0  0  0
   23.6088   29.7355   11.4088 H   0  0  0  0  0
   26.4573   32.8507   12.0837 H   0  0  0  0  0
   20.6175   38.4274   13.0385 H   0  0  0  0  0
   20.6794   36.4434   14.5074 H   0  0  0  0  0
   30.2741   29.5952    3.9444 H   0  0  0  0  0
   26.0312   28.9904    3.8640 H   0  0  0  0  0
   18.3706   34.2477   11.6426 H   0  0  0  0  0
   28.7591   25.0465    5.6833 H   0  0  0  0  0
   27.0987   25.1893    6.4000 H   0  0  0  0  0
   28.6970   26.2303   10.2503 H   0  0  0  0  0
   30.0756   25.5671    9.2920 H   0  0  0  0  0
   18.3442   40.8230   11.4095 H   0  0  0  0  0
   19.2257   40.1518   12.8016 H   0  0  0  0  0
   21.1113   40.0355    9.0006 H   0  0  0  0  0
   19.4050   40.6281    9.0796 H   0  0  0  0  0
   26.2160   28.4964   11.6362 H   0  0  0  0  0
   24.8659   28.8322   10.5509 H   0  0  0  0  0
   27.5486   32.0125   11.0648 H   0  0  0  0  0
   27.8920   30.5521   12.0464 H   0  0  0  0  0
   26.4062   29.0469    8.6392 H   0  0  0  0  0
   26.6584   27.4811    9.4390 H   0  0  0  0  0
   29.4672   30.5512   10.2412 H   0  0  0  0  0
   28.1884   30.9016    9.0431 H   0  0  0  0  0
   29.6087   24.0264    7.5704 H   0  0  0  0  0
   27.9619   23.3193    7.4518 H   0  0  0  0  0
   21.0404   41.8334   12.4113 H   0  0  0  0  0
   19.4796   42.5874   12.7818 H   0  0  0  0  0
   20.8194   42.5328    8.8902 H   0  0  0  0  0
   21.8894   41.9284   10.2144 H   0  0  0  0  0
   21.1113   39.5630   11.3784 H   0  0  0  0  0
   29.1115   28.9973    7.9146 H   0  0  0  0  0
   30.1174   28.2689    9.2935 H   0  0  0  0  0
   28.4006   28.4582   10.6780 H   0  0  0  0  0
   18.8911   38.4917    9.7324 H   0  0  0  0  0
   20.8308   31.9734   13.3269 H   0  0  0  0  0
  1 10  4  0  0  0
 13  1  4  0  0  0
  2 11  4  0  0  0
 13  2  4  0  0  0
  3  6  4  0  0  0
 14  3  4  0  0  0
  4  7  4  0  0  0
 14  4  4  0  0  0
 19  5  1  0  0  0
  6 15  4  0  0  0
  7 15  4  0  0  0
  9  8  4  0  0  0
  8 16  4  0  0  0
 18  9  4  0  0  0
 10 19  4  0  0  0
 11 19  4  0  0  0
 12 17  4  0  0  0
 18 12  4  0  0  0
 20 13  1  0  0  0
 22 14  1  0  0  0
 15 36  1  0  0  0
 17 16  4  0  0  0
 16 38  1  0  0  0
 17 40  1  0  0  0
 48 18  1  0  0  0
 21 20  2  0  0  0
 20 23  1  0  0  0
 21 24  1  0  0  0
 35 21  1  0  0  0
 39 22  1  0  0  0
 22 42  2  0  0  0
 23 31  1  0  0  0
 24 46  1  0  0  0
 25 32  1  0  0  0
 34 25  1  0  0  0
 26 33  1  0  0  0
 34 26  1  0  0  0
 27 29  1  0  0  0
 36 27  1  0  0  0
 28 30  1  0  0  0
 36 28  1  0  0  0
 29 37  1  0  0  0
 30 37  1  0  0  0
 46 31  1  0  0  0
 32 47  1  0  0  0
 33 47  1  0  0  0
 38 34  1  0  0  0
 37 35  1  0  0  0
 39 48  1  0  0  0
 40 41  2  0  0  0
 40 43  2  0  0  0
 48 44  2  0  0  0
 48 45  2  0  0  0
  1 49  1  0  0  0
  2 50  1  0  0  0
  3 51  1  0  0  0
  4 52  1  0  0  0
  6 53  1  0  0  0
  7 54  1  0  0  0
  8 55  1  0  0  0
  9 56  1  0  0  0
 10 57  1  0  0  0
 11 58  1  0  0  0
 12 59  1  0  0  0
 23 60  1  0  0  0
 23 61  1  0  0  0
 24 62  1  0  0  0
 24 63  1  0  0  0
 25 64  1  0  0  0
 25 65  1  0  0  0
 26 66  1  0  0  0
 26 67  1  0  0  0
 27 68  1  0  0  0
 27 69  1  0  0  0
 28 70  1  0  0  0
 28 71  1  0  0  0
 29 72  1  0  0  0
 29 73  1  0  0  0
 30 74  1  0  0  0
 30 75  1  0  0  0
 31 76  1  0  0  0
 31 77  1  0  0  0
 32 78  1  0  0  0
 32 79  1  0  0  0
 33 80  1  0  0  0
 33 81  1  0  0  0
 34 82  1  0  0  0
 35 83  1  0  0  0
 35 84  1  0  0  0
 37 85  1  0  0  0
 38 86  1  0  0  0
 39 87  1  0  0  0
M  END
$$$$
