6n7d_ligand
  -I-interpret- 

 40 44  0  0  0  0  0  0  0  0999 V2000
  -20.8610    4.7670   -1.4030 C   0  0  0  0  0
  -26.6140    6.3430   -2.3340 C   0  0  0  0  0
  -21.5300    3.6400   -0.9100 C   0  0  0  0  0
  -22.6370    3.1100   -1.5760 C   0  0  0  0  0
  -27.8790    3.4600   -0.5310 C   0  0  0  0  0
  -23.2570    1.8670   -1.0560 C   0  0  0  0  0
  -24.6010    1.6090   -0.7180 C   0  0  0  0  0
  -24.6480    0.2310   -0.3390 C   0  0  0  0  0
  -26.9170    2.3670   -0.2810 C   0  0  0  0  0
  -29.2560    3.4920   -0.2540 C   0  0  0  0  0
  -27.6200    4.6760   -1.1650 C   0  0  0  0  0
  -22.5450    0.7390   -0.9030 N   0  0  0  0  0
  -25.6620    2.5480   -0.8090 N   0  0  0  0  0
  -21.3240    5.3860   -2.5800 C   0  0  0  0  0
  -29.8360    4.6110   -0.6710 N   0  0  0  0  0
  -27.2510    1.3740    0.3600 O   0  0  0  0  0
  -26.4820    5.1790   -1.7110 N   0  0  0  0  0
  -27.8300    7.0670   -2.4300 C   0  0  0  0  0
  -28.9440    6.5450   -1.8700 C   0  0  0  0  0
  -28.8270    5.3320   -1.2320 N   0  0  0  0  0
  -23.4000   -0.2220   -0.4760 N   0  0  0  0  0
  -23.0830    3.7460   -2.7520 C   0  0  0  0  0
  -24.1400    3.1500   -3.3880 O   0  0  0  0  0
  -24.5020    3.6290   -4.6870 C   0  0  0  0  0
  -19.7500    5.5530   -1.0040 C   0  0  0  0  0
  -19.5420    6.5510   -1.8420 N   0  0  0  0  0
  -20.5010    6.4430   -2.8060 N   0  0  0  0  0
  -22.4410    4.8760   -3.2340 C   0  0  0  0  0
  -25.7286    6.7717   -2.8035 H   0  0  0  0  0
  -21.1809    3.1687    0.0087 H   0  0  0  0  0
  -25.5206   -0.3318   -0.0075 H   0  0  0  0  0
  -29.7901    2.6857    0.2487 H   0  0  0  0  0
  -25.4788    3.4214   -1.3029 H   0  0  0  0  0
  -27.8654    8.0266   -2.9458 H   0  0  0  0  0
  -29.8999    7.0661   -1.9221 H   0  0  0  0  0
  -24.7688    4.6839   -4.6225 H   0  0  0  0  0
  -23.6580    3.5072   -5.3660 H   0  0  0  0  0
  -25.3539    3.0595   -5.0585 H   0  0  0  0  0
  -19.1452    5.3578   -0.1184 H   0  0  0  0  0
  -22.8140    5.3686   -4.1319 H   0  0  0  0  0
  3  1  4  0  0  0
  1 14  4  0  0  0
  1 25  4  0  0  0
 17  2  4  0  0  0
  2 18  4  0  0  0
  4  3  4  0  0  0
  6  4  1  0  0  0
  4 22  4  0  0  0
  5  9  1  0  0  0
  5 10  4  0  0  0
 11  5  4  0  0  0
  7  6  4  0  0  0
  6 12  4  0  0  0
  7  8  4  0  0  0
 13  7  1  0  0  0
  8 21  4  0  0  0
  9 13  1  0  0  0
  9 16  2  0  0  0
 10 15  4  0  0  0
 11 17  4  0  0  0
 11 20  4  0  0  0
 12 21  4  0  0  0
 14 27  4  0  0  0
 14 28  4  0  0  0
 15 20  4  0  0  0
 18 19  4  0  0  0
 19 20  4  0  0  0
 22 23  1  0  0  0
 22 28  4  0  0  0
 23 24  1  0  0  0
 25 26  4  0  0  0
 26 27  4  0  0  0
  2 29  1  0  0  0
  3 30  1  0  0  0
  8 31  1  0  0  0
 10 32  1  0  0  0
 13 33  1  0  0  0
 18 34  1  0  0  0
 19 35  1  0  0  0
 24 36  1  0  0  0
 24 37  1  0  0  0
 24 38  1  0  0  0
 25 39  1  0  0  0
 28 40  1  0  0  0
M  END
$$$$
