2yc0_ligand
  -I-interpret- 

 18 17  0  0  0  0  0  0  0  0999 V2000
   22.5370   25.2660   27.9690 C   0  0  0  0  0
   23.6720   25.6980   28.2870 O   0  0  0  0  0
   21.3470   26.1910   28.2830 C   0  0  0  0  0
   22.2880   24.1810   27.4270 O   0  0  0  0  0
   20.1320   25.3330   28.6500 C   0  0  0  0  0
   21.6750   27.0990   29.3240 O   0  0  0  0  0
   18.9490   26.2480   29.0140 C   0  0  0  0  0
   16.7090   25.8740   29.6990 O   0  0  0  0  0
   17.6020   25.5450   28.8910 C   0  0  0  0  0
   17.4660   24.7290   27.9470 O   0  0  0  0  0
   23.5818   26.5641   28.6911 H   0  0  0  0  0
   21.1057   26.7875   27.4032 H   0  0  0  0  0
   20.3781   24.7006   29.5030 H   0  0  0  0  0
   19.8592   24.7070   27.8004 H   0  0  0  0  0
   22.4380   27.6202   29.0638 H   0  0  0  0  0
   18.9516   27.0898   28.3216 H   0  0  0  0  0
   19.0718   26.5568   30.0521 H   0  0  0  0  0
   18.2969   24.6484   27.4730 H   0  0  0  0  0
  1  2  1  0  0  0
  1  3  1  0  0  0
  1  4  2  0  0  0
  3  5  1  0  0  0
  3  6  1  0  0  0
  5  7  1  0  0  0
  7  9  1  0  0  0
  9  8  2  0  0  0
  9 10  1  0  0  0
  2 11  1  0  0  0
  3 12  1  0  0  0
  5 13  1  0  0  0
  5 14  1  0  0  0
  6 15  1  0  0  0
  7 16  1  0  0  0
  7 17  1  0  0  0
 10 18  1  0  0  0
M  END
$$$$
