### 
### Created by X-TOOL on Mon Sep 10 21:12:55 2018
### 

@<TRIPOS>MOLECULE
2j87_ligand
   42    43     1     0     0
SMALL
GAST_HUCK


@<TRIPOS>ATOM
      1 PA         -8.6000  -10.6670  -15.0020 P.3       1 TTP         0.3266
      2 O1A        -9.7920  -10.8910  -14.1020 O.co2     1 TTP        -0.5692
      3 O2A        -7.3770  -10.0670  -14.3230 O.co2     1 TTP        -0.5692
      4 O3A        -9.0520   -9.7060  -16.2010 O.3       1 TTP        -0.1171
      5 PB         -9.7550   -8.3250  -15.7660 P.3       1 TTP         0.3553
      6 O1B        -8.7270   -7.3160  -15.2890 O.co2     1 TTP        -0.5652
      7 O2B       -10.6430   -7.7640  -16.8540 O.co2     1 TTP        -0.5652
      8 O3B       -10.6840   -8.7800  -14.5530 O.3       1 TTP        -0.1546
      9 PG        -11.6690   -7.6590  -14.0300 P.3       1 TTP         0.1879
     10 O1G       -11.0700   -6.2960  -14.2960 O.co2     1 TTP        -0.6091
     11 O2G       -11.8430   -7.9270  -12.5500 O.co2     1 TTP        -0.6091
     12 O3G       -12.9470   -7.7870  -14.8300 O.co2     1 TTP        -0.6091
     13 O5'        -8.2510  -12.0550  -15.7030 O.3       1 TTP        -0.2441
     14 C5'        -7.1870  -12.8540  -15.2150 C.3       1 TTP         0.1130
     15 C4'        -7.0490  -14.0650  -16.1160 C.3       1 TTP         0.1163
     16 O4'        -6.4370  -15.1080  -15.3610 O.3       1 TTP        -0.3395
     17 C3'        -8.3950  -14.5820  -16.6350 C.3       1 TTP         0.0889
     18 O3'        -8.5200  -14.4770  -18.0710 O.3       1 TTP        -0.3890
     19 C2'        -8.4630  -16.0380  -16.2120 C.3       1 TTP         0.0308
     20 C1'        -7.0850  -16.3540  -15.6370 C.3       1 TTP         0.1757
     21 N1         -7.1990  -17.1420  -14.4130 N.am      1 TTP        -0.1736
     22 C2         -6.3650  -18.2720  -14.1880 C.2       1 TTP         0.3265
     23 O2         -5.5280  -18.6110  -15.0390 O.2       1 TTP        -0.3843
     24 N3         -6.4440  -19.0030  -13.0710 N.am      1 TTP        -0.1859
     25 C4         -7.3380  -18.6770  -12.1310 C.2       1 TTP         0.1930
     26 O4         -7.4200  -19.3600  -11.0910 O.2       1 TTP        -0.4079
     27 C5         -8.2300  -17.4950  -12.3360 C.2       1 TTP         0.0225
     28 C5M        -9.2540  -17.0700  -11.3130 C.3       1 TTP        -0.0437
     29 C6         -8.1030  -16.7650  -13.5060 C.2       1 TTP         0.0524
     30 H1         -7.4066  -13.1784  -14.1871 H         1 TTP         0.0648
     31 H2         -6.2520  -12.2747  -15.2249 H         1 TTP         0.0648
     32 H3         -6.4136  -13.8007  -16.9742 H         1 TTP         0.0650
     33 H4         -9.2126  -14.0136  -16.1677 H         1 TTP         0.0622
     34 H5         -9.3685  -14.8095  -18.3390 H         1 TTP         0.2099
     35 H6         -8.6760  -16.6816  -17.0783 H         1 TTP         0.0344
     36 H7         -9.2415  -16.1816  -15.4483 H         1 TTP         0.0344
     37 H8         -6.4994  -16.9212  -16.3755 H         1 TTP         0.0959
     38 H9         -5.8388  -19.7881  -12.9394 H         1 TTP         0.2259
     39 H10        -9.7897  -16.1812  -11.6778 H         1 TTP         0.0296
     40 H11        -8.7485  -16.8304  -10.3659 H         1 TTP         0.0296
     41 H12        -9.9705  -17.8884  -11.1495 H         1 TTP         0.0296
     42 H13        -8.7326  -15.8944  -13.6839 H         1 TTP         0.1011
@<TRIPOS>BOND
     1    1    2 ar 
     2    1    3 ar 
     3    1    4 1  
     4    1   13 1  
     5    4    5 1  
     6    5    6 ar 
     7    5    7 ar 
     8    5    8 1  
     9    8    9 1  
    10    9   10 ar 
    11    9   11 ar 
    12    9   12 ar 
    13   13   14 1  
    14   14   15 1  
    15   15   16 1  
    16   15   17 1  
    17   16   20 1  
    18   17   18 1  
    19   17   19 1  
    20   19   20 1  
    21   20   21 1  
    22   21   22 am 
    23   21   29 1  
    24   22   23 2  
    25   22   24 am 
    26   24   25 am 
    27   25   26 2  
    28   25   27 1  
    29   27   28 1  
    30   27   29 2  
    31   14   30 1  
    32   14   31 1  
    33   15   32 1  
    34   17   33 1  
    35   18   34 1  
    36   19   35 1  
    37   19   36 1  
    38   20   37 1  
    39   24   38 1  
    40   28   39 1  
    41   28   40 1  
    42   28   41 1  
    43   29   42 1  
@<TRIPOS>SUBSTRUCTURE
     1 TTP         1

