4k5p_ligand
  -I-interpret- 

 28 28  0  0  0  0  0  0  0  0999 V2000
   12.5880   12.7180   10.1510 O   0  0  0  0  0
   13.0330   11.8140   11.4100 P   0  0  0  0  0
   12.2240   10.4850   10.7180 O   0  0  0  0  0
   14.6280   12.0300   11.3710 O   0  0  0  0  0
   12.1020   12.8080   12.5390 C   0  0  0  0  0
   10.7180   12.3400   12.3130 N   0  3  0  0  0
   12.4180   12.5650   13.9580 C   0  0  0  0  0
   13.1930   13.4020   14.7390 C   0  0  0  0  0
   13.3070   13.0360   16.0920 C   0  0  0  0  0
   12.6540   11.9040   16.6390 C   0  0  0  0  0
   12.7640   11.4140   18.0860 C   0  0  0  0  0
   11.7630   11.2560   18.8600 N   0  0  0  0  0
   13.9690   11.0500   18.5490 N   0  0  0  0  0
   11.8770   11.1160   15.8320 C   0  0  0  0  0
   11.7660   11.4530   14.4930 C   0  0  0  0  0
   11.6337   12.6808   10.0532 H   0  0  0  0  0
   11.2798   10.5734   10.8673 H   0  0  0  0  0
   12.3002   13.8656   12.3650 H   0  0  0  0  0
   10.4637   12.4931   11.3371 H   0  0  0  0  0
   10.6572   11.3451   12.5294 H   0  0  0  0  0
   10.0816   12.8601   12.9171 H   0  0  0  0  0
   13.6832   14.2869   14.3330 H   0  0  0  0  0
   13.9243   13.6497   16.7481 H   0  0  0  0  0
   10.8216   11.4596   18.5243 H   0  0  0  0  0
   14.0588   10.6632   19.4886 H   0  0  0  0  0
   14.7956   11.1599   17.9616 H   0  0  0  0  0
   11.3588   10.2452   16.2335 H   0  0  0  0  0
   11.1527   10.8328   13.8393 H   0  0  0  0  0
  1  2  1  0  0  0
  2  3  1  0  0  0
  2  4  2  0  0  0
  2  5  1  0  0  0
  5  6  1  0  0  0
  5  7  1  0  0  0
  7  8  4  0  0  0
  7 15  4  0  0  0
  8  9  4  0  0  0
  9 10  4  0  0  0
 10 11  1  0  0  0
 10 14  4  0  0  0
 11 12  2  0  0  0
 11 13  1  0  0  0
 14 15  4  0  0  0
  1 16  1  0  0  0
  3 17  1  0  0  0
  5 18  1  0  0  0
  6 19  1  0  0  0
  6 20  1  0  0  0
  6 21  1  0  0  0
  8 22  1  0  0  0
  9 23  1  0  0  0
 12 24  1  0  0  0
 13 25  1  0  0  0
 13 26  1  0  0  0
 14 27  1  0  0  0
 15 28  1  0  0  0
M  END
$$$$
