3bmy_ligand
  -I-interpret- 

 48 51  0  0  0  0  0  0  0  0999 V2000
   -0.4850    4.5650   21.9250 C   0  0  0  0  0
    0.5220    5.3270   22.5790 C   0  0  0  0  0
    1.8270    5.1250   22.1290 C   0  0  0  0  0
    2.1590    4.2460   21.1210 C   0  0  0  0  0
    1.1510    3.5140   20.5020 C   0  0  0  0  0
   -0.1740    3.6530   20.8940 C   0  0  0  0  0
   -1.0830    2.8710   20.2320 N   0  0  0  0  0
   -0.7560    1.5420   19.6840 C   0  0  0  0  0
   -1.3900    1.2910   18.3290 C   0  0  0  0  0
   -0.6190    1.9400   17.2350 N   0  3  0  0  0
   -1.3690    1.9210   15.9050 C   0  0  0  0  0
   -0.4980    2.5780   14.8400 C   0  0  0  0  0
   -0.1870    3.9180   15.1990 O   0  0  0  0  0
    0.5700    3.9580   16.4120 C   0  0  0  0  0
   -0.2000    3.3940   17.5500 C   0  0  0  0  0
    3.5570    4.3440   20.9910 C   0  0  0  0  0
    4.0630    5.2240   21.8760 N   0  0  0  0  0
    2.9650    5.7120   22.5900 O   0  0  0  0  0
    4.3700    3.6220   20.0190 C   0  0  0  0  0
    4.0200    2.2960   19.6970 C   0  0  0  0  0
    4.7540    1.5790   18.7640 C   0  0  0  0  0
    5.8560    2.1680   18.1410 C   0  0  0  0  0
    6.2200    3.4910   18.4440 C   0  0  0  0  0
    5.4730    4.2090   19.3860 C   0  0  0  0  0
    5.8090    5.4970   19.6780 O   0  0  0  0  0
    6.6010    1.4940   17.2060 O   0  0  0  0  0
    4.2800   -0.0360   18.4130 Cl  0  0  0  0  0
   -1.5247    4.6887   22.2281 H   0  0  0  0  0
    0.2886    6.0258   23.3823 H   0  0  0  0  0
    1.4045    2.8222   19.6987 H   0  0  0  0  0
   -2.0320    3.2252   20.1124 H   0  0  0  0  0
   -1.1404    0.7925   20.3758 H   0  0  0  0  0
    0.3257    1.4893   19.5607 H   0  0  0  0  0
   -2.3962    1.7100   18.3367 H   0  0  0  0  0
   -1.4044    0.2160   18.1494 H   0  0  0  0  0
    0.2273    1.3761   17.1567 H   0  0  0  0  0
   -2.3076    2.4665   16.0025 H   0  0  0  0  0
   -1.5885    0.8922   15.6195 H   0  0  0  0  0
   -1.0420    2.5842   13.8955 H   0  0  0  0  0
    0.4303    2.0141   14.7479 H   0  0  0  0  0
    0.8088    4.9975   16.6369 H   0  0  0  0  0
    1.4731    3.3629   16.2763 H   0  0  0  0  0
    0.4234    3.4021   18.4441 H   0  0  0  0  0
   -1.0930    3.9974   17.7132 H   0  0  0  0  0
    3.1646    1.8293   20.1855 H   0  0  0  0  0
    7.0750    3.9536   17.9509 H   0  0  0  0  0
    6.5808    5.7492   19.1658 H   0  0  0  0  0
    7.3106    2.0608   16.8947 H   0  0  0  0  0
  1  2  4  0  0  0
  1  6  4  0  0  0
  2  3  4  0  0  0
  3  4  4  0  0  0
  3 18  4  0  0  0
  4  5  4  0  0  0
  4 16  4  0  0  0
  5  6  4  0  0  0
  6  7  1  0  0  0
  7  8  1  0  0  0
  8  9  1  0  0  0
  9 10  1  0  0  0
 10 11  1  0  0  0
 10 15  1  0  0  0
 11 12  1  0  0  0
 12 13  1  0  0  0
 13 14  1  0  0  0
 14 15  1  0  0  0
 16 17  4  0  0  0
 16 19  1  0  0  0
 17 18  4  0  0  0
 19 20  4  0  0  0
 19 24  4  0  0  0
 20 21  4  0  0  0
 21 22  4  0  0  0
 21 27  1  0  0  0
 22 23  4  0  0  0
 22 26  1  0  0  0
 23 24  4  0  0  0
 24 25  1  0  0  0
  1 28  1  0  0  0
  2 29  1  0  0  0
  5 30  1  0  0  0
  7 31  1  0  0  0
  8 32  1  0  0  0
  8 33  1  0  0  0
  9 34  1  0  0  0
  9 35  1  0  0  0
 10 36  1  0  0  0
 11 37  1  0  0  0
 11 38  1  0  0  0
 12 39  1  0  0  0
 12 40  1  0  0  0
 14 41  1  0  0  0
 14 42  1  0  0  0
 15 43  1  0  0  0
 15 44  1  0  0  0
 20 45  1  0  0  0
 23 46  1  0  0  0
 25 47  1  0  0  0
 26 48  1  0  0  0
M  END
$$$$
