### 
### Created by X-TOOL on Mon Sep 10 21:13:15 2018
### 

@<TRIPOS>MOLECULE
4hy9_ligand
  163   167     1     0     0
SMALL
GAST_HUCK


@<TRIPOS>ATOM
      1 N         -43.6250   27.2510  -21.9520 N.4       1 LEU         0.2379
      2 CA        -43.8090   28.2120  -20.8010 C.3       1 LEU         0.0652
      3 C         -42.5570   29.0810  -20.5210 C.2       1 LEU         0.2268
      4 O         -41.4020   28.6350  -20.6360 O.2       1 LEU        -0.3907
      5 CB        -44.4240   27.5190  -19.5200 C.3       1 LEU         0.0102
      6 CG        -45.9330   27.1990  -19.3800 C.3       1 LEU        -0.0394
      7 CD1       -46.6710   26.8180  -20.6690 C.3       1 LEU        -0.0623
      8 CD2       -46.1660   26.1080  -18.3360 C.3       1 LEU        -0.0623
      9 N         -42.8170   30.3430  -20.1910 N.am      1 TYR        -0.2594
     10 CA        -41.8310   31.3420  -20.1110 C.3       1 TYR         0.1391
     11 C         -42.0300   32.1850  -18.8460 C.2       1 TYR         0.2057
     12 O         -42.5830   33.3060  -18.9190 O.2       1 TYR        -0.3942
     13 CB        -42.0750   32.3370  -21.2660 C.3       1 TYR         0.0164
     14 CG        -41.7990   31.7080  -22.6770 C.ar      1 TYR        -0.0493
     15 CD1       -40.4750   31.4830  -23.0750 C.ar      1 TYR        -0.0685
     16 CD2       -42.8510   31.1770  -23.4970 C.ar      1 TYR        -0.0685
     17 CE1       -40.1530   30.8750  -24.2940 C.ar      1 TYR        -0.0398
     18 CE2       -42.5470   30.5730  -24.7470 C.ar      1 TYR        -0.0398
     19 CZ        -41.2010   30.4090  -25.1150 C.ar      1 TYR         0.0805
     20 OH        -40.8280   29.7950  -26.2930 O.3       1 TYR        -0.3376
     21 N         -41.5620   31.6510  -17.7340 N.am      1 ALC        -0.2636
     22 CA        -41.7720   32.2960  -16.4570 C.3       1 ALC         0.1312
     23 C         -40.4530   32.6300  -15.8090 C.2       1 ALC         0.2039
     24 O         -39.5040   31.8090  -15.7760 O.2       1 ALC        -0.3944
     25 CB        -42.5790   31.3370  -15.5480 C.3       1 ALC        -0.0096
     26 CG        -44.0120   31.0910  -16.0810 C.3       1 ALC        -0.0368
     27 CD2       -44.7150   29.9030  -15.3290 C.3       1 ALC        -0.0500
     28 CE2       -46.2050   29.7940  -15.8220 C.3       1 ALC        -0.0528
     29 CZ        -46.9650   31.0730  -15.4580 C.3       1 ALC        -0.0530
     30 CE1       -46.3370   32.1920  -16.3050 C.3       1 ALC        -0.0528
     31 CD1       -44.8440   32.3500  -15.9170 C.3       1 ALC        -0.0500
     32 N         -40.4390   33.8020  -15.1790 N.am      1 ALC        -0.2637
     33 CA        -39.2210   34.2750  -14.5280 C.3       1 ALC         0.1314
     34 C         -39.1350   33.5740  -13.1380 C.2       1 ALC         0.2064
     35 O         -40.1500   33.0700  -12.6140 O.2       1 ALC        -0.3942
     36 CB        -39.2290   35.7750  -14.3160 C.3       1 ALC        -0.0096
     37 CG        -39.0030   36.4930  -15.6500 C.3       1 ALC        -0.0368
     38 CD2       -39.5810   37.8810  -15.4280 C.3       1 ALC        -0.0500
     39 CE2       -39.4090   38.7490  -16.7150 C.3       1 ALC        -0.0528
     40 CZ        -37.9330   38.8510  -16.9780 C.3       1 ALC        -0.0530
     41 CE1       -37.3490   37.4530  -17.1110 C.3       1 ALC        -0.0528
     42 CD1       -37.5200   36.5300  -15.8980 C.3       1 ALC        -0.0500
     43 N         -37.9280   33.5640  -12.5490 N.am      1 PRO        -0.2498
     44 CA        -37.8800   33.0270  -11.1720 C.3       1 PRO         0.1338
     45 C         -38.7160   33.8520  -10.1910 C.2       1 PRO         0.2041
     46 O         -38.9720   35.0170  -10.3760 O.2       1 PRO        -0.3944
     47 CB        -36.3910   33.1470  -10.7930 C.3       1 PRO        -0.0104
     48 CG        -35.6630   33.1930  -12.1640 C.3       1 PRO        -0.0281
     49 CD        -36.6010   33.9640  -13.0630 C.3       1 PRO         0.0369
     50 N         -39.1800   33.1550   -9.1690 N.am      1 ARG        -0.2637
     51 CA        -39.9930   33.7670   -8.0690 C.3       1 ARG         0.1313
     52 C         -39.0880   34.6600   -7.2450 C.2       1 ARG         0.2064
     53 O         -37.8720   34.6440   -7.3390 O.2       1 ARG        -0.3942
     54 CB        -40.6400   32.6700   -7.2210 C.3       1 ARG        -0.0092
     55 CG        -41.8000   32.0470   -8.0080 C.3       1 ARG        -0.0156
     56 CD        -42.3150   30.7650   -7.4000 C.3       1 ARG         0.0627
     57 NE        -41.3700   29.6890   -7.6310 N.pl3     1 ARG        -0.2723
     58 CZ        -41.5090   28.4680   -7.1460 C.cat     1 ARG         0.2882
     59 NH1       -40.5870   27.5520   -7.4290 N.pl3     1 ARG        -0.2849
     60 NH2       -42.5480   28.1710   -6.3540 N.pl3     1 ARG        -0.2849
     61 N         -39.6980   35.4360   -6.3480 N.am      1 PRO        -0.2498
     62 CA        -38.7880   36.2740   -5.5550 C.3       1 PRO         0.1338
     63 C         -37.8560   35.4950   -4.6150 C.2       1 PRO         0.2042
     64 O         -38.1860   34.3800   -4.2260 O.2       1 PRO        -0.3944
     65 CB        -39.7350   37.0910   -4.7020 C.3       1 PRO        -0.0104
     66 CG        -41.0460   37.0700   -5.5060 C.3       1 PRO        -0.0281
     67 CD        -41.1220   35.7110   -6.1180 C.3       1 PRO         0.0369
     68 N         -36.6750   36.0650   -4.3900 N.am      1 THR        -0.2613
     69 CA        -35.7010   35.3560   -3.5420 C.3       1 THR         0.1561
     70 C         -36.2300   35.3740   -2.0960 C.2       1 THR         0.2017
     71 O         -37.0680   36.1900   -1.7200 O.2       1 THR        -0.3946
     72 CB        -34.3270   35.9790   -3.6290 C.3       1 THR         0.0924
     73 OG1       -34.4790   37.3850   -3.4370 O.3       1 THR        -0.3874
     74 CG2       -33.8100   35.7680   -5.0650 C.3       1 THR        -0.0346
     75 N         -35.7090   34.4580   -1.2740 N.am      1 THR        -0.2989
     76 H1        -44.4702   26.7176  -22.0827 H         1 LEU         0.2015
     77 H2        -42.8611   26.6256  -21.7487 H         1 LEU         0.2015
     78 H3        -43.4210   27.7686  -22.7926 H         1 LEU         0.2015
     79 H4        -44.5778   28.9231  -21.1376 H         1 LEU         0.1098
     80 H5        -44.1720   28.1717  -18.6712 H         1 LEU         0.0348
     81 H6        -43.8987   26.5585  -19.4126 H         1 LEU         0.0348
     82 H7        -46.4069   28.1199  -19.0094 H         1 LEU         0.0299
     83 H8        -47.7277   26.6155  -20.4403 H         1 LEU         0.0232
     84 H9        -46.2108   25.9180  -21.1027 H         1 LEU         0.0232
     85 H10       -46.6040   27.6472  -21.3887 H         1 LEU         0.0232
     86 H11       -45.6403   26.3718  -17.4064 H         1 LEU         0.0232
     87 H12       -45.7818   25.1496  -18.7152 H         1 LEU         0.0232
     88 H13       -47.2436   26.0172  -18.1347 H         1 LEU         0.0232
     89 H14       -43.7636   30.5945  -19.9892 H         1 TYR         0.1886
     90 H15       -40.8237   30.9018  -20.1496 H         1 TYR         0.0821
     91 H16       -41.4101   33.2028  -21.1308 H         1 TYR         0.0453
     92 H17       -43.1228   32.6698  -21.2282 H         1 TYR         0.0453
     93 H18       -39.6714   31.7906  -22.4157 H         1 TYR         0.0530
     94 H19       -43.8801   31.2369  -23.1618 H         1 TYR         0.0530
     95 H20       -39.1192   30.7645  -24.6008 H         1 TYR         0.0525
     96 H21       -43.3417   30.2438  -25.4066 H         1 TYR         0.0525
     97 H22       -39.8802   29.7830  -26.3562 H         1 TYR         0.2458
     98 H23       -41.0558   30.7895  -17.7748 H         1 ALC         0.1883
     99 H24       -42.3427   33.2242  -16.6078 H         1 ALC         0.0800
    100 H25       -42.6462   31.7759  -14.5416 H         1 ALC         0.0315
    101 H26       -42.0514   30.3733  -15.4933 H         1 ALC         0.0315
    102 H27       -43.9486   30.8409  -17.1503 H         1 ALC         0.0303
    103 H28       -44.6981   30.0911  -14.2453 H         1 ALC         0.0268
    104 H29       -44.1851   28.9639  -15.5465 H         1 ALC         0.0268
    105 H30       -46.6878   28.9319  -15.3386 H         1 ALC         0.0265
    106 H31       -46.2199   29.6582  -16.9135 H         1 ALC         0.0265
    107 H32       -46.8507   31.2942  -14.3866 H         1 ALC         0.0265
    108 H33       -48.0330   30.9649  -15.6982 H         1 ALC         0.0265
    109 H34       -46.8676   33.1371  -16.1173 H         1 ALC         0.0265
    110 H35       -46.4144   31.9335  -17.3714 H         1 ALC         0.0265
    111 H36       -44.4062   33.1356  -16.5504 H         1 ALC         0.0268
    112 H37       -44.7944   32.6591  -14.8625 H         1 ALC         0.0268
    113 H38       -41.2672   34.3617  -15.1514 H         1 ALC         0.1883
    114 H39       -38.3501   34.0033  -15.1425 H         1 ALC         0.0800
    115 H40       -38.4268   36.0482  -13.6147 H         1 ALC         0.0315
    116 H41       -40.2003   36.0789  -13.8986 H         1 ALC         0.0315
    117 H42       -39.5144   35.9839  -16.4802 H         1 ALC         0.0303
    118 H43       -39.0553   38.3640  -14.5911 H         1 ALC         0.0268
    119 H44       -40.6511   37.7949  -15.1882 H         1 ALC         0.0268
    120 H45       -39.8350   39.7506  -16.5556 H         1 ALC         0.0265
    121 H46       -39.9126   38.2675  -17.5662 H         1 ALC         0.0265
    122 H47       -37.4460   39.3747  -16.1422 H         1 ALC         0.0265
    123 H48       -37.7635   39.4103  -17.9099 H         1 ALC         0.0265
    124 H49       -36.2712   37.5564  -17.3048 H         1 ALC         0.0265
    125 H50       -37.8316   36.9681  -17.9724 H         1 ALC         0.0265
    126 H51       -37.1390   35.5225  -16.1209 H         1 ALC         0.0268
    127 H52       -36.9909   36.9370  -15.0237 H         1 ALC         0.0268
    128 H53       -38.2158   31.9797  -11.1517 H         1 PRO         0.0802
    129 H54       -36.0648   32.2765  -10.2050 H         1 PRO         0.0313
    130 H55       -36.2054   34.0672  -10.2196 H         1 PRO         0.0313
    131 H56       -35.4997   32.1768  -12.5521 H         1 PRO         0.0287
    132 H57       -34.6967   33.7109  -12.0743 H         1 PRO         0.0287
    133 H58       -36.4458   35.0485  -12.9645 H         1 PRO         0.0524
    134 H59       -36.4760   33.6697  -14.1155 H         1 PRO         0.0524
    135 H60       -38.9799   32.1761   -9.1277 H         1 ARG         0.1883
    136 H61       -40.7912   34.3822   -8.5098 H         1 ARG         0.0800
    137 H62       -41.0210   33.1043   -6.2850 H         1 ARG         0.0313
    138 H63       -39.8942   31.8955   -6.9890 H         1 ARG         0.0313
    139 H64       -41.4536   31.8339   -9.0300 H         1 ARG         0.0301
    140 H65       -42.6262   32.7723   -8.0446 H         1 ARG         0.0301
    141 H66       -43.2803   30.5063   -7.8597 H         1 ARG         0.0689
    142 H67       -42.4501   30.9043   -6.3173 H         1 ARG         0.0689
    143 H68       -40.5405   29.8890   -8.2080 H         1 ARG         0.2642
    144 H69       -40.6807   26.5955   -7.0586 H         1 ARG         0.2615
    145 H70       -39.7794   27.7992   -8.0185 H         1 ARG         0.2615
    146 H71       -43.2557   28.8888   -6.1420 H         1 ARG         0.2615
    147 H72       -42.6391   27.2249   -5.9571 H         1 ARG         0.2615
    148 H73       -38.1849   36.9127   -6.2170 H         1 PRO         0.0802
    149 H74       -39.3655   38.1197   -4.5782 H         1 PRO         0.0313
    150 H75       -39.8722   36.6292   -3.7131 H         1 PRO         0.0313
    151 H76       -41.0285   37.8427   -6.2887 H         1 PRO         0.0287
    152 H77       -41.9061   37.2402   -4.8418 H         1 PRO         0.0287
    153 H78       -41.5697   34.9804   -5.4282 H         1 PRO         0.0524
    154 H79       -41.6900   35.7219   -7.0599 H         1 PRO         0.0524
    155 H80       -36.4533   36.9553   -4.7878 H         1 THR         0.1884
    156 H81       -35.6271   34.3125   -3.8822 H         1 THR         0.0826
    157 H82       -33.6417   35.5435   -2.8870 H         1 THR         0.0639
    158 H83       -34.8637   37.5472   -2.5836 H         1 THR         0.2101
    159 H84       -32.8081   36.2114   -5.1628 H         1 THR         0.0257
    160 H85       -34.4958   36.2513   -5.7764 H         1 THR         0.0257
    161 H86       -33.7569   34.6907   -5.2810 H         1 THR         0.0257
    162 H87       -36.0080   34.4138   -0.3208 H         1 THR         0.1815
    163 H88       -35.0202   33.8168   -1.6122 H         1 THR         0.1815
@<TRIPOS>BOND
     1    1    2 1  
     2    2    3 1  
     3    2    5 1  
     4    3    4 2  
     5    3    9 am 
     6    5    6 1  
     7    6    7 1  
     8    6    8 1  
     9    9   10 1  
    10   10   11 1  
    11   10   13 1  
    12   11   12 2  
    13   11   21 am 
    14   13   14 1  
    15   14   15 ar 
    16   14   16 ar 
    17   15   17 ar 
    18   16   18 ar 
    19   17   19 ar 
    20   18   19 ar 
    21   19   20 1  
    22   21   22 1  
    23   22   23 1  
    24   22   25 1  
    25   23   24 2  
    26   23   32 am 
    27   25   26 1  
    28   26   27 1  
    29   26   31 1  
    30   27   28 1  
    31   28   29 1  
    32   29   30 1  
    33   30   31 1  
    34   32   33 1  
    35   33   34 1  
    36   33   36 1  
    37   34   35 2  
    38   34   43 am 
    39   36   37 1  
    40   37   38 1  
    41   37   42 1  
    42   38   39 1  
    43   39   40 1  
    44   40   41 1  
    45   41   42 1  
    46   43   44 1  
    47   43   49 1  
    48   44   45 1  
    49   44   47 1  
    50   45   46 2  
    51   45   50 am 
    52   47   48 1  
    53   48   49 1  
    54   50   51 1  
    55   51   52 1  
    56   51   54 1  
    57   52   53 2  
    58   52   61 am 
    59   54   55 1  
    60   55   56 1  
    61   56   57 1  
    62   57   58 ar 
    63   58   59 ar 
    64   58   60 ar 
    65   61   62 1  
    66   61   67 1  
    67   62   63 1  
    68   62   65 1  
    69   63   64 2  
    70   63   68 am 
    71   65   66 1  
    72   66   67 1  
    73   68   69 1  
    74   69   70 1  
    75   69   72 1  
    76   70   71 2  
    77   70   75 am 
    78   72   73 1  
    79   72   74 1  
    80    1   76 1  
    81    1   77 1  
    82    1   78 1  
    83    2   79 1  
    84    5   80 1  
    85    5   81 1  
    86    6   82 1  
    87    7   83 1  
    88    7   84 1  
    89    7   85 1  
    90    8   86 1  
    91    8   87 1  
    92    8   88 1  
    93    9   89 1  
    94   10   90 1  
    95   13   91 1  
    96   13   92 1  
    97   15   93 1  
    98   16   94 1  
    99   17   95 1  
   100   18   96 1  
   101   20   97 1  
   102   21   98 1  
   103   22   99 1  
   104   25  100 1  
   105   25  101 1  
   106   26  102 1  
   107   27  103 1  
   108   27  104 1  
   109   28  105 1  
   110   28  106 1  
   111   29  107 1  
   112   29  108 1  
   113   30  109 1  
   114   30  110 1  
   115   31  111 1  
   116   31  112 1  
   117   32  113 1  
   118   33  114 1  
   119   36  115 1  
   120   36  116 1  
   121   37  117 1  
   122   38  118 1  
   123   38  119 1  
   124   39  120 1  
   125   39  121 1  
   126   40  122 1  
   127   40  123 1  
   128   41  124 1  
   129   41  125 1  
   130   42  126 1  
   131   42  127 1  
   132   44  128 1  
   133   47  129 1  
   134   47  130 1  
   135   48  131 1  
   136   48  132 1  
   137   49  133 1  
   138   49  134 1  
   139   50  135 1  
   140   51  136 1  
   141   54  137 1  
   142   54  138 1  
   143   55  139 1  
   144   55  140 1  
   145   56  141 1  
   146   56  142 1  
   147   57  143 1  
   148   59  144 1  
   149   59  145 1  
   150   60  146 1  
   151   60  147 1  
   152   62  148 1  
   153   65  149 1  
   154   65  150 1  
   155   66  151 1  
   156   66  152 1  
   157   67  153 1  
   158   67  154 1  
   159   68  155 1  
   160   69  156 1  
   161   72  157 1  
   162   73  158 1  
   163   74  159 1  
   164   74  160 1  
   165   74  161 1  
   166   75  162 1  
   167   75  163 1  
@<TRIPOS>SUBSTRUCTURE
     1 LEU         1

