4hy9_ligand
  -I-interpret- 

162166  0  0  0  0  0  0  0  0999 V2000
  -43.6250   27.2510  -21.9520 N   0  3  0  0  0
  -43.8090   28.2120  -20.8010 C   0  0  0  0  0
  -42.5570   29.0810  -20.5210 C   0  0  0  0  0
  -41.4020   28.6350  -20.6360 O   0  0  0  0  0
  -44.4240   27.5190  -19.5200 C   0  0  0  0  0
  -45.9330   27.1990  -19.3800 C   0  0  0  0  0
  -46.6710   26.8180  -20.6690 C   0  0  0  0  0
  -46.1660   26.1080  -18.3360 C   0  0  0  0  0
  -42.8170   30.3430  -20.1910 N   0  0  0  0  0
  -41.8310   31.3420  -20.1110 C   0  0  0  0  0
  -42.0300   32.1850  -18.8460 C   0  0  0  0  0
  -42.5830   33.3060  -18.9190 O   0  0  0  0  0
  -42.0750   32.3370  -21.2660 C   0  0  0  0  0
  -41.7990   31.7080  -22.6770 C   0  0  0  0  0
  -40.4750   31.4830  -23.0750 C   0  0  0  0  0
  -42.8510   31.1770  -23.4970 C   0  0  0  0  0
  -40.1530   30.8750  -24.2940 C   0  0  0  0  0
  -42.5470   30.5730  -24.7470 C   0  0  0  0  0
  -41.2010   30.4090  -25.1150 C   0  0  0  0  0
  -40.8280   29.7950  -26.2930 O   0  0  0  0  0
  -41.5620   31.6510  -17.7340 N   0  0  0  0  0
  -41.7720   32.2960  -16.4570 C   0  0  0  0  0
  -40.4530   32.6300  -15.8090 C   0  0  0  0  0
  -39.5040   31.8090  -15.7760 O   0  0  0  0  0
  -42.5790   31.3370  -15.5480 C   0  0  0  0  0
  -44.0120   31.0910  -16.0810 C   0  0  0  0  0
  -44.7150   29.9030  -15.3290 C   0  0  0  0  0
  -46.2050   29.7940  -15.8220 C   0  0  0  0  0
  -46.9650   31.0730  -15.4580 C   0  0  0  0  0
  -46.3370   32.1920  -16.3050 C   0  0  0  0  0
  -44.8440   32.3500  -15.9170 C   0  0  0  0  0
  -40.4390   33.8020  -15.1790 N   0  0  0  0  0
  -39.2210   34.2750  -14.5280 C   0  0  0  0  0
  -39.1350   33.5740  -13.1380 C   0  0  0  0  0
  -40.1500   33.0700  -12.6140 O   0  0  0  0  0
  -39.2290   35.7750  -14.3160 C   0  0  0  0  0
  -39.0030   36.4930  -15.6500 C   0  0  0  0  0
  -39.5810   37.8810  -15.4280 C   0  0  0  0  0
  -39.4090   38.7490  -16.7150 C   0  0  0  0  0
  -37.9330   38.8510  -16.9780 C   0  0  0  0  0
  -37.3490   37.4530  -17.1110 C   0  0  0  0  0
  -37.5200   36.5300  -15.8980 C   0  0  0  0  0
  -37.9280   33.5640  -12.5490 N   0  0  0  0  0
  -37.8800   33.0270  -11.1720 C   0  0  0  0  0
  -38.7160   33.8520  -10.1910 C   0  0  0  0  0
  -38.9720   35.0170  -10.3760 O   0  0  0  0  0
  -36.3910   33.1470  -10.7930 C   0  0  0  0  0
  -35.6630   33.1930  -12.1640 C   0  0  0  0  0
  -36.6010   33.9640  -13.0630 C   0  0  0  0  0
  -39.1800   33.1550   -9.1690 N   0  0  0  0  0
  -39.9930   33.7670   -8.0690 C   0  0  0  0  0
  -39.0880   34.6600   -7.2450 C   0  0  0  0  0
  -37.8720   34.6440   -7.3390 O   0  0  0  0  0
  -40.6400   32.6700   -7.2210 C   0  0  0  0  0
  -41.8000   32.0470   -8.0080 C   0  0  0  0  0
  -42.3150   30.7650   -7.4000 C   0  0  0  0  0
  -41.3700   29.6890   -7.6310 N   0  0  0  0  0
  -41.5090   28.4680   -7.1460 C   0  0  0  0  0
  -40.5870   27.5520   -7.4290 N   0  0  0  0  0
  -42.5480   28.1710   -6.3540 N   0  0  0  0  0
  -39.6980   35.4360   -6.3480 N   0  0  0  0  0
  -38.7880   36.2740   -5.5550 C   0  0  0  0  0
  -37.8560   35.4950   -4.6150 C   0  0  0  0  0
  -38.1860   34.3800   -4.2260 O   0  0  0  0  0
  -39.7350   37.0910   -4.7020 C   0  0  0  0  0
  -41.0460   37.0700   -5.5060 C   0  0  0  0  0
  -41.1220   35.7110   -6.1180 C   0  0  0  0  0
  -36.6750   36.0650   -4.3900 N   0  0  0  0  0
  -35.7010   35.3560   -3.5420 C   0  0  0  0  0
  -36.2300   35.3740   -2.0960 C   0  0  0  0  0
  -37.0680   36.1900   -1.7200 O   0  0  0  0  0
  -34.3270   35.9790   -3.6290 C   0  0  0  0  0
  -34.4790   37.3850   -3.4370 O   0  0  0  0  0
  -33.8100   35.7680   -5.0650 C   0  0  0  0  0
  -35.7090   34.4580   -1.2740 N   0  0  0  0  0
  -43.2271   27.7486  -22.7485 H   0  0  0  0  0
  -42.9949   26.5004  -21.6692 H   0  0  0  0  0
  -44.5292   26.8575  -22.2127 H   0  0  0  0  0
  -44.5645   28.9296  -21.1210 H   0  0  0  0  0
  -44.2507   28.2524  -18.7325 H   0  0  0  0  0
  -43.9594   26.5330  -19.5228 H   0  0  0  0  0
  -46.3619   28.1512  -19.0679 H   0  0  0  0  0
  -46.2881   25.8664  -21.0376 H   0  0  0  0  0
  -47.7373   26.7265  -20.4622 H   0  0  0  0  0
  -46.5103   27.5913  -21.4202 H   0  0  0  0  0
  -47.2341   26.0190  -18.1375 H   0  0  0  0  0
  -45.7849   25.1589  -18.7129 H   0  0  0  0  0
  -45.6447   26.3705  -17.4155 H   0  0  0  0  0
  -43.7825   30.5995  -19.9851 H   0  0  0  0  0
  -40.8520   30.8632  -20.1309 H   0  0  0  0  0
  -41.3917   33.1760  -21.1345 H   0  0  0  0  0
  -43.1223   32.6374  -21.2329 H   0  0  0  0  0
  -39.6669   31.7923  -22.4121 H   0  0  0  0  0
  -43.8858   31.2373  -23.1599 H   0  0  0  0  0
  -39.1135   30.7639  -24.6025 H   0  0  0  0  0
  -43.3461   30.2419  -25.4103 H   0  0  0  0  0
  -41.6133   29.5186  -26.7711 H   0  0  0  0  0
  -41.0457   30.7723  -17.7756 H   0  0  0  0  0
  -42.3219   33.2255  -16.6045 H   0  0  0  0  0
  -42.6584   31.7926  -14.5610 H   0  0  0  0  0
  -42.0591   30.3794  -15.5199 H   0  0  0  0  0
  -43.9327   30.8275  -17.1357 H   0  0  0  0  0
  -44.6960   30.0858  -14.2546 H   0  0  0  0  0
  -44.1891   28.9720  -15.5404 H   0  0  0  0  0
  -46.6830   28.9407  -15.3408 H   0  0  0  0  0
  -46.2185   29.6615  -16.9038 H   0  0  0  0  0
  -46.8854   31.2909  -14.3930 H   0  0  0  0  0
  -48.0307   30.9720  -15.6635 H   0  0  0  0  0
  -46.8634   33.1286  -16.1212 H   0  0  0  0  0
  -46.4149   31.9376  -17.3620 H   0  0  0  0  0
  -44.4197   33.1008  -16.5836 H   0  0  0  0  0
  -44.8162   32.6143  -14.8599 H   0  0  0  0  0
  -41.2838   34.3729  -15.1508 H   0  0  0  0  0
  -38.3681   34.0396  -15.1646 H   0  0  0  0  0
  -38.4309   36.0439  -13.6240 H   0  0  0  0  0
  -40.1936   36.0744  -13.9062 H   0  0  0  0  0
  -39.4675   36.0174  -16.5138 H   0  0  0  0  0
  -39.0541   38.3590  -14.6022 H   0  0  0  0  0
  -40.6424   37.7927  -15.1964 H   0  0  0  0  0
  -39.8465   39.7377  -16.5762 H   0  0  0  0  0
  -39.9221   38.2921  -17.5612 H   0  0  0  0  0
  -37.4499   39.3714  -16.1510 H   0  0  0  0  0
  -37.7640   39.4066  -17.9005 H   0  0  0  0  0
  -36.2752   37.5831  -17.2458 H   0  0  0  0  0
  -37.8827   36.9770  -17.9336 H   0  0  0  0  0
  -37.1146   35.5355  -16.0843 H   0  0  0  0  0
  -36.9721   36.8954  -15.0294 H   0  0  0  0  0
  -38.2803   32.0142  -11.1263 H   0  0  0  0  0
  -36.0528   32.3183  -10.1709 H   0  0  0  0  0
  -36.1871   34.0282  -10.1848 H   0  0  0  0  0
  -35.4543   32.1952  -12.5500 H   0  0  0  0  0
  -34.6840   33.6668  -12.0916 H   0  0  0  0  0
  -36.4359   35.0410  -13.0330 H   0  0  0  0  0
  -36.4644   33.7382  -14.1206 H   0  0  0  0  0
  -38.9759   32.1565   -9.1269 H   0  0  0  0  0
  -40.8017   34.3715   -8.4796 H   0  0  0  0  0
  -41.0152   33.0980   -6.2914 H   0  0  0  0  0
  -39.9014   31.9032   -6.9873 H   0  0  0  0  0
  -41.4317   31.8128   -9.0068 H   0  0  0  0  0
  -42.6207   32.7643   -8.0075 H   0  0  0  0  0
  -43.2689   30.5084   -7.8608 H   0  0  0  0  0
  -42.4431   30.9043   -6.3266 H   0  0  0  0  0
  -40.5486   29.8870   -8.2024 H   0  0  0  0  0
  -39.7872   27.7968   -8.0128 H   0  0  0  0  0
  -42.6382   27.2341   -5.9610 H   0  0  0  0  0
  -43.2488   28.8818   -6.1441 H   0  0  0  0  0
  -38.1251   36.8328   -6.2156 H   0  0  0  0  0
  -39.3701   38.1022   -4.5219 H   0  0  0  0  0
  -39.8526   36.6829   -3.6981 H   0  0  0  0  0
  -41.0584   37.8502   -6.2671 H   0  0  0  0  0
  -41.9072   37.2675   -4.8677 H   0  0  0  0  0
  -41.6220   34.9704   -5.4939 H   0  0  0  0  0
  -41.7345   35.6632   -7.0184 H   0  0  0  0  0
  -36.4489   36.9731   -4.7958 H   0  0  0  0  0
  -35.5927   34.3285   -3.8892 H   0  0  0  0  0
  -33.6502   35.5452   -2.8928 H   0  0  0  0  0
  -33.6189   37.8085   -3.4873 H   0  0  0  0  0
  -33.7579   34.7002   -5.2778 H   0  0  0  0  0
  -34.4904   36.2473   -5.7689 H   0  0  0  0  0
  -32.8172   36.2077   -5.1607 H   0  0  0  0  0
  -36.0054   34.4205   -0.2987 H   0  0  0  0  0
  -35.0150   33.7964   -1.6219 H   0  0  0  0  0
  1  2  1  0  0  0
  2  3  1  0  0  0
  2  5  1  0  0  0
  3  4  2  0  0  0
  3  9  1  0  0  0
  5  6  1  0  0  0
  6  7  1  0  0  0
  6  8  1  0  0  0
  9 10  1  0  0  0
 10 11  1  0  0  0
 10 13  1  0  0  0
 11 12  2  0  0  0
 11 21  1  0  0  0
 13 14  1  0  0  0
 14 15  4  0  0  0
 14 16  4  0  0  0
 15 17  4  0  0  0
 16 18  4  0  0  0
 17 19  4  0  0  0
 18 19  4  0  0  0
 19 20  1  0  0  0
 21 22  1  0  0  0
 22 23  1  0  0  0
 22 25  1  0  0  0
 23 24  2  0  0  0
 23 32  1  0  0  0
 25 26  1  0  0  0
 26 27  1  0  0  0
 26 31  1  0  0  0
 27 28  1  0  0  0
 28 29  1  0  0  0
 29 30  1  0  0  0
 30 31  1  0  0  0
 32 33  1  0  0  0
 33 34  1  0  0  0
 33 36  1  0  0  0
 34 35  2  0  0  0
 34 43  1  0  0  0
 36 37  1  0  0  0
 37 38  1  0  0  0
 37 42  1  0  0  0
 38 39  1  0  0  0
 39 40  1  0  0  0
 40 41  1  0  0  0
 41 42  1  0  0  0
 43 44  1  0  0  0
 43 49  1  0  0  0
 44 45  1  0  0  0
 44 47  1  0  0  0
 45 46  2  0  0  0
 45 50  1  0  0  0
 47 48  1  0  0  0
 48 49  1  0  0  0
 50 51  1  0  0  0
 51 52  1  0  0  0
 51 54  1  0  0  0
 52 53  2  0  0  0
 52 61  1  0  0  0
 54 55  1  0  0  0
 55 56  1  0  0  0
 56 57  1  0  0  0
 57 58  1  0  0  0
 58 59  2  0  0  0
 58 60  1  0  0  0
 61 62  1  0  0  0
 61 67  1  0  0  0
 62 63  1  0  0  0
 62 65  1  0  0  0
 63 64  2  0  0  0
 63 68  1  0  0  0
 65 66  1  0  0  0
 66 67  1  0  0  0
 68 69  1  0  0  0
 69 70  1  0  0  0
 69 72  1  0  0  0
 70 71  2  0  0  0
 70 75  1  0  0  0
 72 73  1  0  0  0
 72 74  1  0  0  0
  1 76  1  0  0  0
  1 77  1  0  0  0
  1 78  1  0  0  0
  2 79  1  0  0  0
  5 80  1  0  0  0
  5 81  1  0  0  0
  6 82  1  0  0  0
  7 83  1  0  0  0
  7 84  1  0  0  0
  7 85  1  0  0  0
  8 86  1  0  0  0
  8 87  1  0  0  0
  8 88  1  0  0  0
  9 89  1  0  0  0
 10 90  1  0  0  0
 13 91  1  0  0  0
 13 92  1  0  0  0
 15 93  1  0  0  0
 16 94  1  0  0  0
 17 95  1  0  0  0
 18 96  1  0  0  0
 20 97  1  0  0  0
 21 98  1  0  0  0
 22 99  1  0  0  0
 25100  1  0  0  0
 25101  1  0  0  0
 26102  1  0  0  0
 27103  1  0  0  0
 27104  1  0  0  0
 28105  1  0  0  0
 28106  1  0  0  0
 29107  1  0  0  0
 29108  1  0  0  0
 30109  1  0  0  0
 30110  1  0  0  0
 31111  1  0  0  0
 31112  1  0  0  0
 32113  1  0  0  0
 33114  1  0  0  0
 36115  1  0  0  0
 36116  1  0  0  0
 37117  1  0  0  0
 38118  1  0  0  0
 38119  1  0  0  0
 39120  1  0  0  0
 39121  1  0  0  0
 40122  1  0  0  0
 40123  1  0  0  0
 41124  1  0  0  0
 41125  1  0  0  0
 42126  1  0  0  0
 42127  1  0  0  0
 44128  1  0  0  0
 47129  1  0  0  0
 47130  1  0  0  0
 48131  1  0  0  0
 48132  1  0  0  0
 49133  1  0  0  0
 49134  1  0  0  0
 50135  1  0  0  0
 51136  1  0  0  0
 54137  1  0  0  0
 54138  1  0  0  0
 55139  1  0  0  0
 55140  1  0  0  0
 56141  1  0  0  0
 56142  1  0  0  0
 57143  1  0  0  0
 59144  1  0  0  0
 60145  1  0  0  0
 60146  1  0  0  0
 62147  1  0  0  0
 65148  1  0  0  0
 65149  1  0  0  0
 66150  1  0  0  0
 66151  1  0  0  0
 67152  1  0  0  0
 67153  1  0  0  0
 68154  1  0  0  0
 69155  1  0  0  0
 72156  1  0  0  0
 73157  1  0  0  0
 74158  1  0  0  0
 74159  1  0  0  0
 74160  1  0  0  0
 75161  1  0  0  0
 75162  1  0  0  0
M  END
$$$$
