4uu8_ligand
  -I-interpret- 

139140  0  0  0  0  0  0  0  0999 V2000
  -32.6720  -26.1100   12.6500 C   0  0  0  0  0
  -32.1610  -27.2250   12.7580 O   0  0  0  0  0
  -33.6070  -25.7600   13.6440 C   0  0  0  0  0
  -34.6890  -24.9010   13.3750 C   0  0  0  0  0
  -35.6010  -24.5970   14.3580 C   0  0  0  0  0
  -35.4030  -25.1770   15.6060 C   0  0  0  0  0
  -34.3400  -26.0360   15.8940 C   0  0  0  0  0
  -33.4320  -26.3340   14.9060 C   0  0  0  0  0
  -32.4250  -25.2290   11.6020 N   0  0  0  0  0
  -31.4320  -25.4780   10.5130 C   0  0  0  0  0
  -31.6480  -24.3660    9.5360 C   0  0  0  0  0
  -32.6890  -23.7160    9.5390 O   0  0  0  0  0
  -30.6360  -24.0980    8.7200 N   0  0  0  0  0
  -30.6640  -22.9220    7.8640 C   0  0  0  0  0
  -31.4510  -23.1960    6.6030 C   0  0  0  0  0
  -31.0100  -23.9220    5.7350 O   0  0  0  0  0
  -29.2640  -22.4690    7.4570 C   0  0  0  0  0
  -29.3480  -21.2760    6.5160 C   0  0  0  0  0
  -28.4590  -22.0820    8.6750 C   0  0  0  0  0
  -32.6280  -22.6120    6.5060 N   0  0  0  0  0
  -33.3810  -22.6870    5.2760 C   0  0  0  0  0
  -32.5460  -22.1380    4.1140 C   0  0  0  0  0
  -32.0060  -21.0250    4.1880 O   0  0  0  0  0
  -34.7080  -21.9220    5.3810 C   0  0  0  0  0
  -35.9580  -22.7910    5.3040 C   0  0  0  0  0
  -36.0090  -23.8000    6.4320 C   0  0  0  0  0
  -37.2030  -21.9130    5.2880 C   0  0  0  0  0
  -32.4400  -22.9630    3.0670 N   0  0  0  0  0
  -31.8640  -22.6110    1.8020 C   0  0  0  0  0
  -32.3400  -21.2330    1.4230 C   0  0  0  0  0
  -33.4970  -20.9440    1.5400 O   0  0  0  0  0
  -32.3570  -23.5810    0.6970 C   0  0  0  0  0
  -31.3550  -23.4020   -0.4330 C   0  0  0  0  0
  -31.8180  -24.2600   -1.5590 C   0  0  0  0  0
  -30.6030  -24.2970   -2.4470 C   0  0  0  0  0
  -31.1400  -24.8750   -3.6630 N   0  3  0  0  0
  -31.4350  -20.3900    0.9540 N   0  0  0  0  0
  -31.7480  -19.0110    0.5740 C   0  0  0  0  0
  -32.5860  -18.2000    1.5920 C   0  0  0  0  0
  -33.2810  -17.2370    1.2540 O   0  0  0  0  0
  -32.3180  -18.9980   -0.8350 C   0  0  0  0  0
  -31.2000  -18.6900   -1.8270 C   0  0  0  0  0
  -31.5210  -19.1280   -3.2310 C   0  0  0  0  0
  -32.7060  -19.1110   -3.5820 O   0  0  0  0  0
  -30.5910  -19.5010   -3.9700 O   0  0  0  0  0
  -32.4020  -18.5760    2.8570 N   0  0  0  0  0
  -33.1770  -18.0980    3.9790 C   0  0  0  0  0
  -34.6820  -18.2240    3.7640 C   0  0  0  0  0
  -35.4130  -17.3670    4.2130 O   0  0  0  0  0
  -32.8250  -16.6520    4.2600 C   0  0  0  0  0
  -31.3350  -16.3370    4.4120 C   0  0  0  0  0
  -30.5510  -16.9830    5.3620 C   0  0  0  0  0
  -30.7330  -15.3580    3.6280 C   0  0  0  0  0
  -29.2070  -16.6740    5.4990 C   0  0  0  0  0
  -29.4020  -15.0400    3.7540 C   0  0  0  0  0
  -28.6260  -15.6980    4.6810 C   0  0  0  0  0
  -27.2600  -15.3680    4.8010 O   0  0  0  0  0
  -35.1600  -19.2770    3.0980 N   0  0  0  0  0
  -36.5910  -19.4490    2.8430 C   0  0  0  0  0
  -37.2520  -18.4270    1.9150 C   0  0  0  0  0
  -38.4690  -18.4810    1.7290 O   0  0  0  0  0
  -36.4930  -17.4910    1.3310 N   0  0  0  0  0
  -37.0680  -16.5040    0.3680 C   0  0  0  0  0
  -37.7050  -17.2320   -0.8160 C   0  0  0  0  0
  -37.1000  -18.1570   -1.3760 O   0  0  0  0  0
  -36.0060  -15.4770   -0.1590 C   0  0  0  0  0
  -36.1830  -15.1660   -1.6540 C   0  0  0  0  0
  -36.0220  -14.1870    0.6720 C   0  0  0  0  0
  -38.8475  -16.8906   -1.2231 O   0  0  0  0  0
  -34.8049  -24.4732   12.3792 H   0  0  0  0  0
  -36.4422  -23.9306   14.1673 H   0  0  0  0  0
  -36.1138  -24.9497   16.4004 H   0  0  0  0  0
  -34.2318  -26.4649   16.8902 H   0  0  0  0  0
  -32.5942  -27.0031   15.1025 H   0  0  0  0  0
  -32.9551  -24.3580   11.5751 H   0  0  0  0  0
  -31.5724  -26.4557   10.0520 H   0  0  0  0  0
  -30.4100  -25.4922   10.8917 H   0  0  0  0  0
  -29.8304  -24.7230    8.6928 H   0  0  0  0  0
  -31.1374  -22.1326    8.4478 H   0  0  0  0  0
  -28.7734  -23.2994    6.9492 H   0  0  0  0  0
  -29.9053  -21.5580    5.6227 H   0  0  0  0  0
  -29.8568  -20.4535    7.0187 H   0  0  0  0  0
  -28.3418  -20.9650    6.2350 H   0  0  0  0  0
  -28.9592  -21.2650    9.1950 H   0  0  0  0  0
  -28.3746  -22.9407    9.3410 H   0  0  0  0  0
  -27.4643  -21.7620    8.3649 H   0  0  0  0  0
  -33.0095  -22.1041    7.3041 H   0  0  0  0  0
  -33.6140  -23.7353    5.0891 H   0  0  0  0  0
  -34.7461  -21.2387    4.5326 H   0  0  0  0  0
  -34.7181  -21.4408    6.3590 H   0  0  0  0  0
  -35.9215  -23.3594    4.3746 H   0  0  0  0  0
  -35.1352  -24.4492    6.3768 H   0  0  0  0  0
  -36.0136  -23.2752    7.3873 H   0  0  0  0  0
  -36.9148  -24.3994    6.3409 H   0  0  0  0  0
  -37.2364  -21.3156    6.1991 H   0  0  0  0  0
  -37.1699  -21.2537    4.4207 H   0  0  0  0  0
  -38.0902  -22.5438    5.2329 H   0  0  0  0  0
  -32.7951  -23.9129    3.1763 H   0  0  0  0  0
  -30.7784  -22.6569    1.8878 H   0  0  0  0  0
  -33.3764  -23.3595    0.3810 H   0  0  0  0  0
  -32.4023  -24.6125    1.0463 H   0  0  0  0  0
  -30.3539  -23.6904   -0.1124 H   0  0  0  0  0
  -31.2991  -22.3575   -0.7394 H   0  0  0  0  0
  -32.7057  -23.8728   -2.0591 H   0  0  0  0  0
  -32.1489  -25.2483   -1.2399 H   0  0  0  0  0
  -29.7756  -24.8676   -2.0251 H   0  0  0  0  0
  -30.1468  -23.3186   -2.5975 H   0  0  0  0  0
  -30.3971  -24.9536   -4.3575 H   0  0  0  0  0
  -31.5170  -25.8008   -3.4603 H   0  0  0  0  0
  -31.8824  -24.2758   -4.0238 H   0  0  0  0  0
  -30.4738  -20.7159    0.8523 H   0  0  0  0  0
  -30.8062  -18.4623    0.5872 H   0  0  0  0  0
  -33.0925  -18.2346   -0.9088 H   0  0  0  0  0
  -32.7508  -19.9721   -1.0631 H   0  0  0  0  0
  -30.3117  -19.2334   -1.5049 H   0  0  0  0  0
  -31.0573  -17.6095   -1.8410 H   0  0  0  0  0
  -29.7593  -19.4320   -3.4954 H   0  0  0  0  0
  -31.6604  -19.2500    3.0471 H   0  0  0  0  0
  -32.9234  -18.7284    4.8313 H   0  0  0  0  0
  -33.2873  -16.4063    5.2160 H   0  0  0  0  0
  -33.1705  -16.0814    3.3980 H   0  0  0  0  0
  -30.9984  -17.7404    6.0056 H   0  0  0  0  0
  -31.3356  -14.8269    2.8912 H   0  0  0  0  0
  -28.6022  -17.1911    6.2439 H   0  0  0  0  0
  -28.9621  -14.2689    3.1216 H   0  0  0  0  0
  -27.0401  -14.6840    4.1643 H   0  0  0  0  0
  -34.5084  -19.9834    2.7563 H   0  0  0  0  0
  -37.0833  -19.3394    3.8093 H   0  0  0  0  0
  -36.6936  -20.4145    2.3477 H   0  0  0  0  0
  -35.4974  -17.4509    1.5491 H   0  0  0  0  0
  -37.8239  -15.9393    0.9137 H   0  0  0  0  0
  -35.0303  -15.9489   -0.0435 H   0  0  0  0  0
  -36.0778  -16.0854   -2.2300 H   0  0  0  0  0
  -37.1734  -14.7425   -1.8209 H   0  0  0  0  0
  -35.4229  -14.4504   -1.9674 H   0  0  0  0  0
  -37.0094  -13.7294    0.6112 H   0  0  0  0  0
  -35.7929  -14.4229    1.7112 H   0  0  0  0  0
  -35.2751  -13.4957    0.2818 H   0  0  0  0  0
  -39.1741  -16.1654   -0.6854 H   0  0  0  0  0
  1  2  2  0  0  0
  1  3  1  0  0  0
  1  9  1  0  0  0
  3  4  4  0  0  0
  3  8  4  0  0  0
  4  5  4  0  0  0
  5  6  4  0  0  0
  6  7  4  0  0  0
  7  8  4  0  0  0
  9 10  1  0  0  0
 10 11  1  0  0  0
 11 12  2  0  0  0
 11 13  1  0  0  0
 13 14  1  0  0  0
 14 15  1  0  0  0
 14 17  1  0  0  0
 15 16  2  0  0  0
 15 20  1  0  0  0
 17 18  1  0  0  0
 17 19  1  0  0  0
 20 21  1  0  0  0
 21 22  1  0  0  0
 21 24  1  0  0  0
 22 23  2  0  0  0
 22 28  1  0  0  0
 24 25  1  0  0  0
 25 26  1  0  0  0
 25 27  1  0  0  0
 28 29  1  0  0  0
 29 30  1  0  0  0
 29 32  1  0  0  0
 30 31  2  0  0  0
 30 37  1  0  0  0
 32 33  1  0  0  0
 33 34  1  0  0  0
 34 35  1  0  0  0
 35 36  1  0  0  0
 37 38  1  0  0  0
 38 39  1  0  0  0
 38 41  1  0  0  0
 39 40  2  0  0  0
 39 46  1  0  0  0
 41 42  1  0  0  0
 42 43  1  0  0  0
 43 44  2  0  0  0
 43 45  1  0  0  0
 46 47  1  0  0  0
 47 48  1  0  0  0
 47 50  1  0  0  0
 48 49  2  0  0  0
 48 58  1  0  0  0
 50 51  1  0  0  0
 51 52  4  0  0  0
 51 53  4  0  0  0
 52 54  4  0  0  0
 53 55  4  0  0  0
 54 56  4  0  0  0
 55 56  4  0  0  0
 56 57  1  0  0  0
 58 59  1  0  0  0
 59 60  1  0  0  0
 60 61  2  0  0  0
 60 62  1  0  0  0
 62 63  1  0  0  0
 63 64  1  0  0  0
 63 66  1  0  0  0
 64 65  2  0  0  0
 66 67  1  0  0  0
 66 68  1  0  0  0
 64 69  1  0  0  0
  4 70  1  0  0  0
  5 71  1  0  0  0
  6 72  1  0  0  0
  7 73  1  0  0  0
  8 74  1  0  0  0
  9 75  1  0  0  0
 10 76  1  0  0  0
 10 77  1  0  0  0
 13 78  1  0  0  0
 14 79  1  0  0  0
 17 80  1  0  0  0
 18 81  1  0  0  0
 18 82  1  0  0  0
 18 83  1  0  0  0
 19 84  1  0  0  0
 19 85  1  0  0  0
 19 86  1  0  0  0
 20 87  1  0  0  0
 21 88  1  0  0  0
 24 89  1  0  0  0
 24 90  1  0  0  0
 25 91  1  0  0  0
 26 92  1  0  0  0
 26 93  1  0  0  0
 26 94  1  0  0  0
 27 95  1  0  0  0
 27 96  1  0  0  0
 27 97  1  0  0  0
 28 98  1  0  0  0
 29 99  1  0  0  0
 32100  1  0  0  0
 32101  1  0  0  0
 33102  1  0  0  0
 33103  1  0  0  0
 34104  1  0  0  0
 34105  1  0  0  0
 35106  1  0  0  0
 35107  1  0  0  0
 36108  1  0  0  0
 36109  1  0  0  0
 36110  1  0  0  0
 37111  1  0  0  0
 38112  1  0  0  0
 41113  1  0  0  0
 41114  1  0  0  0
 42115  1  0  0  0
 42116  1  0  0  0
 45117  1  0  0  0
 46118  1  0  0  0
 47119  1  0  0  0
 50120  1  0  0  0
 50121  1  0  0  0
 52122  1  0  0  0
 53123  1  0  0  0
 54124  1  0  0  0
 55125  1  0  0  0
 57126  1  0  0  0
 58127  1  0  0  0
 59128  1  0  0  0
 59129  1  0  0  0
 62130  1  0  0  0
 63131  1  0  0  0
 66132  1  0  0  0
 67133  1  0  0  0
 67134  1  0  0  0
 67135  1  0  0  0
 68136  1  0  0  0
 68137  1  0  0  0
 68138  1  0  0  0
 69139  1  0  0  0
M  END
$$$$
