### 
### Created by X-TOOL on Mon Sep 10 21:13:18 2018
### 

@<TRIPOS>MOLECULE
4uu8_ligand
  137   138     1     0     0
SMALL
GAST_HUCK


@<TRIPOS>ATOM
      1 C         -32.6720  -26.1100   12.6500 C.2       1 BEZ         0.2070
      2 O1        -32.1610  -27.2250   12.7580 O.2       1 BEZ        -0.3845
      3 C1        -33.6070  -25.7600   13.6440 C.ar      1 BEZ         0.0500
      4 C2        -34.6890  -24.9010   13.3750 C.ar      1 BEZ        -0.0419
      5 C3        -35.6010  -24.5970   14.3580 C.ar      1 BEZ        -0.0562
      6 C4        -35.4030  -25.1770   15.6060 C.ar      1 BEZ        -0.0575
      7 C5        -34.3400  -26.0360   15.8940 C.ar      1 BEZ        -0.0562
      8 C6        -33.4320  -26.3340   14.9060 C.ar      1 BEZ        -0.0419
      9 N         -32.4250  -25.2290   11.6020 N.am      1 GLY        -0.2676
     10 CA        -31.4320  -25.4780   10.5130 C.3       1 GLY         0.1197
     11 C         -31.6480  -24.3660    9.5360 C.2       1 GLY         0.2007
     12 O         -32.6890  -23.7160    9.5390 O.2       1 GLY        -0.3947
     13 N         -30.6360  -24.0980    8.7200 N.am      1 VAL        -0.2637
     14 CA        -30.6640  -22.9220    7.8640 C.3       1 VAL         0.1332
     15 C         -31.4510  -23.1960    6.6030 C.2       1 VAL         0.2041
     16 O         -31.0100  -23.9220    5.7350 O.2       1 VAL        -0.3944
     17 CB        -29.2640  -22.4690    7.4570 C.3       1 VAL        -0.0063
     18 CG1       -29.3480  -21.2760    6.5160 C.3       1 VAL        -0.0584
     19 CG2       -28.4590  -22.0820    8.6750 C.3       1 VAL        -0.0584
     20 N         -32.6280  -22.6120    6.5060 N.am      1 LEU        -0.2637
     21 CA        -33.3810  -22.6870    5.2760 C.3       1 LEU         0.1312
     22 C         -32.5460  -22.1380    4.1140 C.2       1 LEU         0.2039
     23 O         -32.0060  -21.0250    4.1880 O.2       1 LEU        -0.3944
     24 CB        -34.7080  -21.9220    5.3810 C.3       1 LEU        -0.0101
     25 CG        -35.9580  -22.7910    5.3040 C.3       1 LEU        -0.0425
     26 CD1       -36.0090  -23.8000    6.4320 C.3       1 LEU        -0.0625
     27 CD2       -37.2030  -21.9130    5.2880 C.3       1 LEU        -0.0625
     28 N         -32.4400  -22.9630    3.0670 N.am      1 LYS        -0.2637
     29 CA        -31.8640  -22.6110    1.8020 C.3       1 LYS         0.1310
     30 C         -32.3400  -21.2330    1.4230 C.2       1 LYS         0.2039
     31 O         -33.4970  -20.9440    1.5400 O.2       1 LYS        -0.3944
     32 CB        -32.3570  -23.5810    0.6970 C.3       1 LYS        -0.0122
     33 CG        -31.3550  -23.4020   -0.4330 C.3       1 LYS        -0.0440
     34 CD        -31.8180  -24.2600   -1.5590 C.3       1 LYS        -0.0124
     35 CE        -30.6030  -24.2970   -2.4470 C.3       1 LYS        -0.0354
     36 NZ        -31.1400  -24.8750   -3.6630 N.4       1 LYS         0.2185
     37 N         -31.4350  -20.3900    0.9540 N.am      1 GLU        -0.2636
     38 CA        -31.7480  -19.0110    0.5740 C.3       1 GLU         0.1325
     39 C         -32.5860  -18.2000    1.5920 C.2       1 GLU         0.2041
     40 O         -33.2810  -17.2370    1.2540 O.2       1 GLU        -0.3944
     41 CB        -32.3180  -18.9980   -0.8350 C.3       1 GLU        -0.0008
     42 CG        -31.2000  -18.6900   -1.8270 C.3       1 GLU         0.0044
     43 CD        -31.5210  -19.1280   -3.2310 C.2       1 GLU         0.0350
     44 OE1       -32.7060  -19.1110   -3.5820 O.co2     1 GLU        -0.5690
     45 OE2       -30.5910  -19.5010   -3.9700 O.co2     1 GLU        -0.5690
     46 N         -32.4020  -18.5760    2.8570 N.am      1 TYR        -0.2621
     47 CA        -33.1770  -18.0980    3.9790 C.3       1 TYR         0.1390
     48 C         -34.6820  -18.2240    3.7640 C.2       1 TYR         0.2055
     49 O         -35.4130  -17.3670    4.2130 O.2       1 TYR        -0.3942
     50 CB        -32.8250  -16.6520    4.2600 C.3       1 TYR         0.0163
     51 CG        -31.3350  -16.3370    4.4120 C.ar      1 TYR        -0.0493
     52 CD1       -30.5510  -16.9830    5.3620 C.ar      1 TYR        -0.0685
     53 CD2       -30.7330  -15.3580    3.6280 C.ar      1 TYR        -0.0685
     54 CE1       -29.2070  -16.6740    5.4990 C.ar      1 TYR        -0.0398
     55 CE2       -29.4020  -15.0400    3.7540 C.ar      1 TYR        -0.0398
     56 CZ        -28.6260  -15.6980    4.6810 C.ar      1 TYR         0.0805
     57 OH        -27.2600  -15.3680    4.8010 O.3       1 TYR        -0.3376
     58 N         -35.1600  -19.2770    3.0980 N.am      1 GLY        -0.2663
     59 CA        -36.5910  -19.4490    2.8430 C.3       1 GLY         0.1201
     60 C         -37.2520  -18.4270    1.9150 C.2       1 GLY         0.2003
     61 O         -38.4690  -18.4810    1.7290 O.2       1 GLY        -0.3947
     62 N         -36.4930  -17.4910    1.3310 N.am      1 VAL        -0.2670
     63 CA        -37.0680  -16.5040    0.3680 C.3       1 VAL         0.1248
     64 C         -37.7050  -17.2320   -0.8160 C.2       1 VAL         0.2152
     65 O         -37.1000  -18.1570   -1.3760 O.co2     1 VAL        -0.4120
     66 CB        -36.0060  -15.4770   -0.1590 C.3       1 VAL        -0.0094
     67 CG1       -36.1830  -15.1660   -1.6540 C.3       1 VAL        -0.0589
     68 CG2       -36.0220  -14.1870    0.6720 C.3       1 VAL        -0.0589
     69 H         -34.8043  -24.4756   12.3846 H         1 BEZ         0.0669
     70 H         -36.4376  -23.9343   14.1683 H         1 BEZ         0.0629
     71 H         -36.1099  -24.9509   16.3961 H         1 BEZ         0.0653
     72 H         -34.2324  -26.4625   16.8847 H         1 BEZ         0.0629
     73 H         -32.5988  -26.9994   15.1014 H         1 BEZ         0.0669
     74 H         -32.9447  -24.3751   11.5756 H         1 GLY         0.1874
     75 H         -31.6152  -26.4527   10.0371 H         1 GLY         0.0763
     76 H         -30.4066  -25.4508   10.9102 H         1 GLY         0.0763
     77 H         -29.8462  -24.7108    8.6934 H         1 VAL         0.1883
     78 H         -31.1504  -22.1063    8.4190 H         1 VAL         0.0802
     79 H         -28.7585  -23.2989    6.9415 H         1 VAL         0.0343
     80 H         -28.3331  -20.9611    6.2317 H         1 VAL         0.0234
     81 H         -29.8613  -20.4452    7.0221 H         1 VAL         0.0234
     82 H         -29.9102  -21.5593    5.6140 H         1 VAL         0.0234
     83 H         -28.3944  -22.9405    9.3597 H         1 VAL         0.0234
     84 H         -28.9496  -21.2410    9.1868 H         1 VAL         0.0234
     85 H         -27.4467  -21.7828    8.3656 H         1 VAL         0.0234
     86 H         -33.0020  -22.1141    7.2884 H         1 LEU         0.1883
     87 H         -33.6080  -23.7443    5.0746 H         1 LEU         0.0800
     88 H         -34.7479  -21.1926    4.5586 H         1 LEU         0.0315
     89 H         -34.7205  -21.3901    6.3438 H         1 LEU         0.0315
     90 H         -35.9241  -23.3501    4.3573 H         1 LEU         0.0298
     91 H         -36.9228  -24.4056    6.3412 H         1 LEU         0.0232
     92 H         -36.0137  -23.2716    7.3967 H         1 LEU         0.0232
     93 H         -35.1276  -24.4559    6.3774 H         1 LEU         0.0232
     94 H         -37.1336  -21.1935    4.4589 H         1 LEU         0.0232
     95 H         -37.2799  -21.3684    6.2406 H         1 LEU         0.0232
     96 H         -38.0944  -22.5432    5.1529 H         1 LEU         0.0232
     97 H         -32.7882  -23.8943    3.1742 H         1 LYS         0.1883
     98 H         -30.7664  -22.6366    1.8694 H         1 LYS         0.0800
     99 H         -33.3706  -23.3115    0.3655 H         1 LYS         0.0312
    100 H         -32.3538  -24.6194    1.0599 H         1 LYS         0.0312
    101 H         -30.3535  -23.7165   -0.1044 H         1 LYS         0.0269
    102 H         -31.3236  -22.3485   -0.7479 H         1 LYS         0.0269
    103 H         -32.6776  -23.8097   -2.0770 H         1 LYS         0.0317
    104 H         -32.0875  -25.2673   -1.2089 H         1 LYS         0.0317
    105 H         -29.8127  -24.9305   -2.0179 H         1 LYS         0.0813
    106 H         -30.2066  -23.2865   -2.6253 H         1 LYS         0.0813
    107 H         -30.4067  -24.9532   -4.3502 H         1 LYS         0.1994
    108 H         -31.8738  -24.2836   -4.0206 H         1 LYS         0.1994
    109 H         -31.5129  -25.7901   -3.4639 H         1 LYS         0.1994
    110 H         -30.4927  -20.7095    0.8543 H         1 GLU         0.1883
    111 H         -30.7819  -18.4878    0.5207 H         1 GLU         0.0801
    112 H         -33.0981  -18.2261   -0.9090 H         1 GLU         0.0330
    113 H         -32.7528  -19.9819   -1.0649 H         1 GLU         0.0330
    114 H         -30.2873  -19.2085   -1.4983 H         1 GLU         0.0433
    115 H         -31.0239  -17.6042   -1.8304 H         1 GLU         0.0433
    116 H         -31.6750  -19.2368    3.0434 H         1 TYR         0.1885
    117 H         -32.9086  -18.7024    4.8580 H         1 TYR         0.0821
    118 H         -33.3269  -16.3597    5.1942 H         1 TYR         0.0453
    119 H         -33.2135  -16.0444    3.4294 H         1 TYR         0.0453
    120 H         -30.9960  -17.7362    6.0021 H         1 TYR         0.0530
    121 H         -31.3322  -14.8298    2.8952 H         1 TYR         0.0530
    122 H         -28.6055  -17.1883    6.2398 H         1 TYR         0.0525
    123 H         -28.9645  -14.2731    3.1251 H         1 TYR         0.0525
    124 H         -26.8641  -15.9044    5.4778 H         1 TYR         0.2458
    125 H         -34.5211  -19.9696    2.7630 H         1 GLY         0.1881
    126 H         -37.1099  -19.4039    3.8118 H         1 GLY         0.0763
    127 H         -36.7327  -20.4445    2.3971 H         1 GLY         0.0763
    128 H         -35.5169  -17.4517    1.5448 H         1 VAL         0.1876
    129 H         -37.8528  -15.9399    0.8932 H         1 VAL         0.0754
    130 O2        -38.8475  -16.8906   -1.2231 O.co2     1 VAL        -0.4120
    131 H         -35.0156  -15.9393   -0.0355 H         1 VAL         0.0336
    132 H         -35.4164  -14.4438   -1.9715 H         1 VAL         0.0234
    133 H         -37.1822  -14.7385   -1.8238 H         1 VAL         0.0234
    134 H         -36.0770  -16.0931   -2.2365 H         1 VAL         0.0234
    135 H         -35.8940  -14.4347    1.7361 H         1 VAL         0.0234
    136 H         -36.9826  -13.6705    0.5288 H         1 VAL         0.0234
    137 H         -35.2009  -13.5312    0.3469 H         1 VAL         0.0234
@<TRIPOS>BOND
     1    1    2 2  
     2    1    3 1  
     3    1    9 am 
     4    3    4 ar 
     5    3    8 ar 
     6    4    5 ar 
     7    5    6 ar 
     8    6    7 ar 
     9    7    8 ar 
    10    9   10 1  
    11   10   11 1  
    12   11   12 2  
    13   11   13 am 
    14   13   14 1  
    15   14   15 1  
    16   14   17 1  
    17   15   16 2  
    18   15   20 am 
    19   17   18 1  
    20   17   19 1  
    21   20   21 1  
    22   21   22 1  
    23   21   24 1  
    24   22   23 2  
    25   22   28 am 
    26   24   25 1  
    27   25   26 1  
    28   25   27 1  
    29   28   29 1  
    30   29   30 1  
    31   29   32 1  
    32   30   31 2  
    33   30   37 am 
    34   32   33 1  
    35   33   34 1  
    36   34   35 1  
    37   35   36 1  
    38   37   38 1  
    39   38   39 1  
    40   38   41 1  
    41   39   40 2  
    42   39   46 am 
    43   41   42 1  
    44   42   43 1  
    45   43   44 ar 
    46   43   45 ar 
    47   46   47 1  
    48   47   48 1  
    49   47   50 1  
    50   48   49 2  
    51   48   58 am 
    52   50   51 1  
    53   51   52 ar 
    54   51   53 ar 
    55   52   54 ar 
    56   53   55 ar 
    57   54   56 ar 
    58   55   56 ar 
    59   56   57 1  
    60   58   59 1  
    61   59   60 1  
    62   60   61 2  
    63   60   62 am 
    64   62   63 1  
    65   63   64 1  
    66   63   66 1  
    67   64   65 ar 
    68   66   67 1  
    69   66   68 1  
    70    4   69 1  
    71    5   70 1  
    72    6   71 1  
    73    7   72 1  
    74    8   73 1  
    75    9   74 1  
    76   10   75 1  
    77   10   76 1  
    78   13   77 1  
    79   14   78 1  
    80   17   79 1  
    81   18   80 1  
    82   18   81 1  
    83   18   82 1  
    84   19   83 1  
    85   19   84 1  
    86   19   85 1  
    87   20   86 1  
    88   21   87 1  
    89   24   88 1  
    90   24   89 1  
    91   25   90 1  
    92   26   91 1  
    93   26   92 1  
    94   26   93 1  
    95   27   94 1  
    96   27   95 1  
    97   27   96 1  
    98   28   97 1  
    99   29   98 1  
   100   32   99 1  
   101   32  100 1  
   102   33  101 1  
   103   33  102 1  
   104   34  103 1  
   105   34  104 1  
   106   35  105 1  
   107   35  106 1  
   108   36  107 1  
   109   36  108 1  
   110   36  109 1  
   111   37  110 1  
   112   38  111 1  
   113   41  112 1  
   114   41  113 1  
   115   42  114 1  
   116   42  115 1  
   117   46  116 1  
   118   47  117 1  
   119   50  118 1  
   120   50  119 1  
   121   52  120 1  
   122   53  121 1  
   123   54  122 1  
   124   55  123 1  
   125   57  124 1  
   126   58  125 1  
   127   59  126 1  
   128   59  127 1  
   129   62  128 1  
   130   63  129 1  
   131   64  130 ar 
   132   66  131 1  
   133   67  132 1  
   134   67  133 1  
   135   67  134 1  
   136   68  135 1  
   137   68  136 1  
   138   68  137 1  
@<TRIPOS>SUBSTRUCTURE
     1 BEZ         1

