### 
### Created by X-TOOL on Mon Sep 10 21:13:30 2018
### 

@<TRIPOS>MOLECULE
5igq_ligand
  172   173     1     0     0
SMALL
GAST_HUCK


@<TRIPOS>ATOM
      1 N         -31.8110  -59.5160   20.5270 N.4       1 SER         0.2396
      2 CA        -30.5500  -59.1710   21.1770 C.3       1 SER         0.0885
      3 C         -29.8420  -60.4140   21.7100 C.2       1 SER         0.2291
      4 O         -29.8100  -61.4510   21.0510 O.2       1 SER        -0.3906
      5 CB        -30.7870  -58.1690   22.3080 C.3       1 SER         0.1041
      6 OG        -31.2500  -56.9280   21.7980 O.3       1 SER        -0.3870
      7 N         -29.2630  -60.2990   22.9030 N.am      1 ASP        -0.2594
      8 CA        -28.5480  -61.3960   23.5430 C.3       1 ASP         0.1424
      9 C         -29.1100  -61.6050   24.9490 C.2       1 ASP         0.2056
     10 O         -30.0650  -60.9380   25.3670 O.2       1 ASP        -0.3943
     11 CB        -27.0350  -61.1330   23.5760 C.3       1 ASP         0.0406
     12 CG        -26.4420  -60.8830   22.1890 C.2       1 ASP         0.0393
     13 OD1       -26.9920  -61.3810   21.1820 O.co2     1 ASP        -0.5688
     14 OD2       -25.4130  -60.1810   22.1080 O.co2     1 ASP        -0.5688
     15 N         -28.5040  -62.5510   25.6790 N.am      1 GLN        -0.2635
     16 CA        -28.9240  -62.9290   27.0370 C.3       1 GLN         0.1330
     17 C         -30.3800  -63.3800   27.0740 C.2       1 GLN         0.2041
     18 O         -31.0930  -63.1700   28.0580 O.2       1 GLN        -0.3944
     19 CB        -28.6820  -61.7920   28.0340 C.3       1 GLN         0.0045
     20 CG        -27.2140  -61.4630   28.2740 C.3       1 GLN         0.0412
     21 CD        -26.3840  -62.6730   28.6670 C.2       1 GLN         0.1737
     22 OE1       -25.8230  -63.3630   27.8130 O.2       1 GLN        -0.3973
     23 NE2       -26.3090  -62.9400   29.9670 N.am      1 GLN        -0.3009
     24 N         -30.8260  -64.0100   25.9930 N.am      1 ILE        -0.2635
     25 CA        -32.1860  -64.5210   25.8920 C.3       1 ILE         0.1335
     26 C         -32.1770  -65.9830   26.3180 C.2       1 ILE         0.2042
     27 O         -31.5490  -66.8320   25.6780 O.2       1 ILE        -0.3944
     28 CB        -32.7590  -64.3670   24.4800 C.3       1 ILE        -0.0037
     29 CG1       -32.5730  -62.9330   23.9780 C.3       1 ILE        -0.0491
     30 CG2       -34.2300  -64.7500   24.4800 C.3       1 ILE        -0.0582
     31 CD1       -32.3070  -62.8100   22.4790 C.3       1 ILE        -0.0648
     32 N         -32.8500  -66.2620   27.4270 N.am      1 VAL        -0.2635
     33 CA        -33.0990  -67.6150   27.9160 C.3       1 VAL         0.1334
     34 C         -33.7580  -68.4150   26.7980 C.2       1 VAL         0.2066
     35 O         -34.6030  -67.8650   26.0760 O.2       1 VAL        -0.3942
     36 CB        -33.9560  -67.5640   29.1960 C.3       1 VAL        -0.0062
     37 CG1       -34.5090  -68.9270   29.5690 C.3       1 VAL        -0.0584
     38 CG2       -33.1310  -66.9710   30.3440 C.3       1 VAL        -0.0584
     39 N         -33.3820  -69.6940   26.5850 N.am      1 PRO        -0.2498
     40 CA        -34.0650  -70.5020   25.5670 C.3       1 PRO         0.1338
     41 C         -35.4870  -70.8550   25.9720 C.2       1 PRO         0.2041
     42 O         -36.0250  -70.2870   26.9260 O.2       1 PRO        -0.3944
     43 CB        -33.1840  -71.7580   25.4420 C.3       1 PRO        -0.0104
     44 CG        -32.0280  -71.5690   26.3580 C.3       1 PRO        -0.0281
     45 CD        -32.3430  -70.4540   27.2920 C.3       1 PRO         0.0369
     46 N         -36.1000  -71.7940   25.2570 N.am      1 GLU        -0.2636
     47 CA        -37.4600  -72.2060   25.5680 C.3       1 GLU         0.1325
     48 C         -37.7190  -73.5760   24.9590 C.2       1 GLU         0.2041
     49 O         -37.2460  -73.8720   23.8580 O.2       1 GLU        -0.3944
     50 CB        -38.4820  -71.1830   25.0510 C.3       1 GLU        -0.0008
     51 CG        -39.7140  -71.0410   25.9350 C.3       1 GLU         0.0044
     52 CD        -40.9340  -70.5870   25.1610 C.2       1 GLU         0.0350
     53 OE1       -40.7840  -69.7860   24.2140 O.co2     1 GLU        -0.5690
     54 OE2       -42.0460  -71.0340   25.5010 O.co2     1 GLU        -0.5690
     55 N         -38.4680  -74.4020   25.6840 N.am      1 TYR        -0.2621
     56 CA        -38.8100  -75.7460   25.2500 C.3       1 TYR         0.1390
     57 C         -40.3190  -75.8210   25.0580 C.2       1 TYR         0.2057
     58 O         -41.0800  -75.1640   25.7780 O.2       1 TYR        -0.3942
     59 CB        -38.3270  -76.7770   26.2770 C.3       1 TYR         0.0163
     60 CG        -38.3100  -78.2030   25.7930 C.ar      1 TYR        -0.0493
     61 CD1       -37.8440  -78.5210   24.5230 C.ar      1 TYR        -0.0685
     62 CD2       -38.7310  -79.2360   26.6160 C.ar      1 TYR        -0.0685
     63 CE1       -37.8190  -79.8300   24.0830 C.ar      1 TYR        -0.0398
     64 CE2       -38.7050  -80.5430   26.1880 C.ar      1 TYR        -0.0398
     65 CZ        -38.2520  -80.8350   24.9210 C.ar      1 TYR         0.0805
     66 OH        -38.2330  -82.1440   24.4990 O.3       1 TYR        -0.3376
     67 N         -40.7550  -76.6130   24.0780 N.am      1 GLN        -0.2634
     68 CA        -42.1540  -76.5530   23.6400 C.3       1 GLN         0.1330
     69 C         -43.1110  -77.0330   24.7780 C.2       1 GLN         0.2040
     70 O         -43.7570  -76.1650   25.3620 O.2       1 GLN        -0.3944
     71 CB        -42.3450  -77.3000   22.3090 C.3       1 GLN         0.0045
     72 CG        -41.7410  -76.5990   21.1000 C.3       1 GLN         0.0412
     73 CD        -42.4720  -75.3190   20.7410 C.2       1 GLN         0.1737
     74 OE1       -43.6960  -75.2220   20.8700 O.2       1 GLN        -0.3973
     75 NE2       -41.7170  -74.3230   20.2840 N.am      1 GLN        -0.3009
     76 N         -43.2530  -78.3230   25.1370 N.am      1 GLU        -0.2636
     77 CA        -42.8250  -79.5220   24.4020 C.3       1 GLU         0.1324
     78 C         -44.0680  -80.1780   23.7870 C.2       1 GLU         0.2035
     79 O         -44.9470  -80.6530   24.5110 O.2       1 GLU        -0.3944
     80 CB        -42.0750  -80.5070   25.3060 C.3       1 GLU        -0.0008
     81 CG        -42.7420  -80.7660   26.6570 C.3       1 GLU         0.0044
     82 CD        -42.0840  -81.9010   27.4350 C.2       1 GLU         0.0350
     83 OE1       -41.0230  -82.3940   26.9970 O.co2     1 GLU        -0.5690
     84 OE2       -42.6380  -82.3150   28.4780 O.co2     1 GLU        -0.5690
     85 N         -44.1370  -80.1980   22.4550 N.am      1 ASP        -0.2679
     86 CA        -45.3210  -80.6670   21.7230 C.3       1 ASP         0.1057
     87 C         -45.6660  -82.1230   22.0340 C.2       1 ASP         0.0618
     88 O         -46.8280  -82.5230   21.9420 O.co2     1 ASP        -0.5665
     89 CB        -45.1090  -80.5020   20.2120 C.3       1 ASP         0.0351
     90 CG        -46.3410  -79.9530   19.5000 C.2       1 ASP         0.0387
     91 OD1       -47.4290  -80.5580   19.6320 O.co2     1 ASP        -0.5688
     92 OD2       -46.2230  -78.9290   18.7960 O.co2     1 ASP        -0.5688
     93 OXT       -44.7860  -82.9130   22.3800 O.co2     1 ASP        -0.5665
     94 H1        -32.2539  -58.6770   20.1864 H         1 SER         0.2016
     95 H2        -32.4180  -59.9705   21.1911 H         1 SER         0.2016
     96 H3        -31.6317  -60.1385   19.7548 H         1 SER         0.2016
     97 H4        -29.8969  -58.6991   20.4282 H         1 SER         0.1122
     98 H5        -29.8428  -58.0062   22.8484 H         1 SER         0.0640
     99 H6        -31.5393  -58.5773   22.9989 H         1 SER         0.0640
    100 H7        -31.3897  -56.3235   22.5175 H         1 SER         0.2099
    101 H8        -29.3211  -59.4224   23.3806 H         1 ASP         0.1886
    102 H9        -28.7209  -62.3122   22.9594 H         1 ASP         0.0819
    103 H10       -26.5365  -62.0084   24.0178 H         1 ASP         0.0478
    104 H11       -26.8464  -60.2487   24.2024 H         1 ASP         0.0478
    105 H12       -27.7216  -63.0272   25.2777 H         1 GLN         0.1883
    106 H13       -28.3040  -63.7827   27.3482 H         1 GLN         0.0801
    107 H14       -29.1317  -62.0776   28.9964 H         1 GLN         0.0337
    108 H15       -29.1783  -60.8881   27.6512 H         1 GLN         0.0337
    109 H16       -27.1504  -60.7187   29.0815 H         1 GLN         0.0504
    110 H17       -26.7957  -61.0379   27.3497 H         1 GLN         0.0504
    111 H18       -25.7769  -63.7241   30.2865 H         1 GLN         0.1814
    112 H19       -26.7847  -62.3568   30.6255 H         1 GLN         0.1814
    113 H20       -30.2049  -64.1382   25.2198 H         1 ILE         0.1883
    114 H21       -32.8261  -63.9533   26.5833 H         1 ILE         0.0803
    115 H22       -32.2185  -65.0461   23.8042 H         1 ILE         0.0345
    116 H23       -31.7209  -62.4902   24.5144 H         1 ILE         0.0267
    117 H24       -33.4871  -62.3673   24.2111 H         1 ILE         0.0267
    118 H25       -34.3401  -65.7823   24.8436 H         1 ILE         0.0235
    119 H26       -34.6279  -64.6772   23.4571 H         1 ILE         0.0235
    120 H27       -34.7866  -64.0677   25.1393 H         1 ILE         0.0235
    121 H28       -32.1876  -61.7492   22.2137 H         1 ILE         0.0230
    122 H29       -33.1540  -63.2346   21.9202 H         1 ILE         0.0230
    123 H30       -31.3878  -63.3575   22.2236 H         1 ILE         0.0230
    124 H31       -33.2094  -65.4972   27.9617 H         1 VAL         0.1883
    125 H32       -32.1382  -68.0892   28.1651 H         1 VAL         0.0803
    126 H33       -34.8100  -66.8971   29.0066 H         1 VAL         0.0343
    127 H34       -35.1114  -68.8400   30.4853 H         1 VAL         0.0234
    128 H35       -33.6770  -69.6254   29.7421 H         1 VAL         0.0234
    129 H36       -35.1395  -69.3035   28.7501 H         1 VAL         0.0234
    130 H37       -32.7437  -65.9855   30.0462 H         1 VAL         0.0234
    131 H38       -32.2898  -67.6409   30.5752 H         1 VAL         0.0234
    132 H39       -33.7676  -66.8610   31.2343 H         1 VAL         0.0234
    133 H40       -34.0956  -69.9602   24.6102 H         1 PRO         0.0802
    134 H41       -32.8311  -71.8708   24.4063 H         1 PRO         0.0313
    135 H42       -33.7556  -72.6513   25.7340 H         1 PRO         0.0313
    136 H43       -31.1289  -71.3215   25.7746 H         1 PRO         0.0287
    137 H44       -31.8520  -72.4926   26.9289 H         1 PRO         0.0287
    138 H45       -32.7218  -70.8395   28.2501 H         1 PRO         0.0524
    139 H46       -31.4550  -69.8306   27.4729 H         1 PRO         0.0524
    140 H47       -35.6183  -72.2237   24.4933 H         1 GLU         0.1883
    141 H48       -37.5645  -72.2787   26.6606 H         1 GLU         0.0801
    142 H49       -38.8092  -71.4964   24.0487 H         1 GLU         0.0330
    143 H50       -37.9879  -70.2024   24.9855 H         1 GLU         0.0330
    144 H51       -39.5005  -70.3025   26.7217 H         1 GLU         0.0433
    145 H52       -39.9315  -72.0156   26.3962 H         1 GLU         0.0433
    146 H53       -38.8113  -74.0838   26.5677 H         1 TYR         0.1885
    147 H54       -38.3167  -75.9513   24.2885 H         1 TYR         0.0821
    148 H55       -38.9908  -76.7225   27.1524 H         1 TYR         0.0453
    149 H56       -37.3034  -76.5066   26.5756 H         1 TYR         0.0453
    150 H57       -37.4952  -77.7305   23.8684 H         1 TYR         0.0530
    151 H58       -39.0870  -79.0098   27.6146 H         1 TYR         0.0530
    152 H59       -37.4618  -80.0650   23.0869 H         1 TYR         0.0525
    153 H60       -39.0392  -81.3384   26.8443 H         1 TYR         0.0525
    154 H61       -37.8977  -82.1845   23.6111 H         1 TYR         0.2458
    155 H62       -40.1241  -77.2523   23.6385 H         1 GLN         0.1883
    156 H63       -42.3933  -75.4967   23.4480 H         1 GLN         0.0801
    157 H64       -43.4244  -77.4190   22.1335 H         1 GLN         0.0337
    158 H65       -41.8769  -78.2912   22.4009 H         1 GLN         0.0337
    159 H66       -41.7839  -77.2822   20.2390 H         1 GLN         0.0504
    160 H67       -40.6918  -76.3547   21.3224 H         1 GLN         0.0504
    161 H68       -42.1382  -73.4524   20.0296 H         1 GLN         0.1814
    162 H69       -40.7285  -74.4451   20.1950 H         1 GLN         0.1814
    163 H70       -43.7064  -78.4858   26.0133 H         1 GLU         0.1883
    164 H71       -42.1469  -79.2157   23.5919 H         1 GLU         0.0801
    165 H72       -41.0686  -80.1038   25.4920 H         1 GLU         0.0330
    166 H73       -41.9932  -81.4665   24.7744 H         1 GLU         0.0330
    167 H74       -43.7971  -81.0245   26.4839 H         1 GLU         0.0433
    168 H75       -42.6836  -79.8474   27.2593 H         1 GLU         0.0433
    169 H76       -43.3470  -79.8793   21.9312 H         1 ASP         0.1876
    170 H77       -46.1746  -80.0429   22.0259 H         1 ASP         0.0745
    171 H78       -44.8629  -81.4841   19.7821 H         1 ASP         0.0471
    172 H79       -44.2703  -79.8094   20.0481 H         1 ASP         0.0471
@<TRIPOS>BOND
     1    1    2 1  
     2    2    3 1  
     3    2    5 1  
     4    3    4 2  
     5    3    7 am 
     6    5    6 1  
     7    7    8 1  
     8    8    9 1  
     9    8   11 1  
    10    9   10 2  
    11    9   15 am 
    12   11   12 1  
    13   12   13 ar 
    14   12   14 ar 
    15   15   16 1  
    16   16   17 1  
    17   16   19 1  
    18   17   18 2  
    19   17   24 am 
    20   19   20 1  
    21   20   21 1  
    22   21   22 2  
    23   21   23 am 
    24   24   25 1  
    25   25   26 1  
    26   25   28 1  
    27   26   27 2  
    28   26   32 am 
    29   28   29 1  
    30   28   30 1  
    31   29   31 1  
    32   32   33 1  
    33   33   34 1  
    34   33   36 1  
    35   34   35 2  
    36   34   39 am 
    37   36   37 1  
    38   36   38 1  
    39   39   40 1  
    40   39   45 1  
    41   40   41 1  
    42   40   43 1  
    43   41   42 2  
    44   41   46 am 
    45   43   44 1  
    46   44   45 1  
    47   46   47 1  
    48   47   48 1  
    49   47   50 1  
    50   48   49 2  
    51   48   55 am 
    52   50   51 1  
    53   51   52 1  
    54   52   53 ar 
    55   52   54 ar 
    56   55   56 1  
    57   56   57 1  
    58   56   59 1  
    59   57   58 2  
    60   57   67 am 
    61   59   60 1  
    62   60   61 ar 
    63   60   62 ar 
    64   61   63 ar 
    65   62   64 ar 
    66   63   65 ar 
    67   64   65 ar 
    68   65   66 1  
    69   67   68 1  
    70   68   69 1  
    71   68   71 1  
    72   69   70 2  
    73   69   76 am 
    74   71   72 1  
    75   72   73 1  
    76   73   74 2  
    77   73   75 am 
    78   76   77 1  
    79   77   78 1  
    80   77   80 1  
    81   78   79 2  
    82   78   85 am 
    83   80   81 1  
    84   81   82 1  
    85   82   83 ar 
    86   82   84 ar 
    87   85   86 1  
    88   86   87 1  
    89   86   89 1  
    90   87   88 ar 
    91   87   93 ar 
    92   89   90 1  
    93   90   91 ar 
    94   90   92 ar 
    95    1   94 1  
    96    1   95 1  
    97    1   96 1  
    98    2   97 1  
    99    5   98 1  
   100    5   99 1  
   101    6  100 1  
   102    7  101 1  
   103    8  102 1  
   104   11  103 1  
   105   11  104 1  
   106   15  105 1  
   107   16  106 1  
   108   19  107 1  
   109   19  108 1  
   110   20  109 1  
   111   20  110 1  
   112   23  111 1  
   113   23  112 1  
   114   24  113 1  
   115   25  114 1  
   116   28  115 1  
   117   29  116 1  
   118   29  117 1  
   119   30  118 1  
   120   30  119 1  
   121   30  120 1  
   122   31  121 1  
   123   31  122 1  
   124   31  123 1  
   125   32  124 1  
   126   33  125 1  
   127   36  126 1  
   128   37  127 1  
   129   37  128 1  
   130   37  129 1  
   131   38  130 1  
   132   38  131 1  
   133   38  132 1  
   134   40  133 1  
   135   43  134 1  
   136   43  135 1  
   137   44  136 1  
   138   44  137 1  
   139   45  138 1  
   140   45  139 1  
   141   46  140 1  
   142   47  141 1  
   143   50  142 1  
   144   50  143 1  
   145   51  144 1  
   146   51  145 1  
   147   55  146 1  
   148   56  147 1  
   149   59  148 1  
   150   59  149 1  
   151   61  150 1  
   152   62  151 1  
   153   63  152 1  
   154   64  153 1  
   155   66  154 1  
   156   67  155 1  
   157   68  156 1  
   158   71  157 1  
   159   71  158 1  
   160   72  159 1  
   161   72  160 1  
   162   75  161 1  
   163   75  162 1  
   164   76  163 1  
   165   77  164 1  
   166   80  165 1  
   167   80  166 1  
   168   81  167 1  
   169   81  168 1  
   170   85  169 1  
   171   86  170 1  
   172   89  171 1  
   173   89  172 1  
@<TRIPOS>SUBSTRUCTURE
     1 SER         1

