5igq_ligand
  -I-interpret- 

177178  0  0  0  0  0  0  0  0999 V2000
  -31.8110  -59.5160   20.5270 N   0  3  0  0  0
  -30.5500  -59.1710   21.1770 C   0  0  0  0  0
  -29.8420  -60.4140   21.7100 C   0  0  0  0  0
  -29.8100  -61.4510   21.0510 O   0  0  0  0  0
  -30.7870  -58.1690   22.3080 C   0  0  0  0  0
  -31.2500  -56.9280   21.7980 O   0  0  0  0  0
  -29.2630  -60.2990   22.9030 N   0  0  0  0  0
  -28.5480  -61.3960   23.5430 C   0  0  0  0  0
  -29.1100  -61.6050   24.9490 C   0  0  0  0  0
  -30.0650  -60.9380   25.3670 O   0  0  0  0  0
  -27.0350  -61.1330   23.5760 C   0  0  0  0  0
  -26.4420  -60.8830   22.1890 C   0  0  0  0  0
  -26.9920  -61.3810   21.1820 O   0  0  0  0  0
  -25.4130  -60.1810   22.1080 O   0  0  0  0  0
  -28.5040  -62.5510   25.6790 N   0  0  0  0  0
  -28.9240  -62.9290   27.0370 C   0  0  0  0  0
  -30.3800  -63.3800   27.0740 C   0  0  0  0  0
  -31.0930  -63.1700   28.0580 O   0  0  0  0  0
  -28.6820  -61.7920   28.0340 C   0  0  0  0  0
  -27.2140  -61.4630   28.2740 C   0  0  0  0  0
  -26.3840  -62.6730   28.6670 C   0  0  0  0  0
  -25.8230  -63.3630   27.8130 O   0  0  0  0  0
  -26.3090  -62.9400   29.9670 N   0  0  0  0  0
  -30.8260  -64.0100   25.9930 N   0  0  0  0  0
  -32.1860  -64.5210   25.8920 C   0  0  0  0  0
  -32.1770  -65.9830   26.3180 C   0  0  0  0  0
  -31.5490  -66.8320   25.6780 O   0  0  0  0  0
  -32.7590  -64.3670   24.4800 C   0  0  0  0  0
  -32.5730  -62.9330   23.9780 C   0  0  0  0  0
  -34.2300  -64.7500   24.4800 C   0  0  0  0  0
  -32.3070  -62.8100   22.4790 C   0  0  0  0  0
  -32.8500  -66.2620   27.4270 N   0  0  0  0  0
  -33.0990  -67.6150   27.9160 C   0  0  0  0  0
  -33.7580  -68.4150   26.7980 C   0  0  0  0  0
  -34.6030  -67.8650   26.0760 O   0  0  0  0  0
  -33.9560  -67.5640   29.1960 C   0  0  0  0  0
  -34.5090  -68.9270   29.5690 C   0  0  0  0  0
  -33.1310  -66.9710   30.3440 C   0  0  0  0  0
  -33.3820  -69.6940   26.5850 N   0  0  0  0  0
  -34.0650  -70.5020   25.5670 C   0  0  0  0  0
  -35.4870  -70.8550   25.9720 C   0  0  0  0  0
  -36.0250  -70.2870   26.9260 O   0  0  0  0  0
  -33.1840  -71.7580   25.4420 C   0  0  0  0  0
  -32.0280  -71.5690   26.3580 C   0  0  0  0  0
  -32.3430  -70.4540   27.2920 C   0  0  0  0  0
  -36.1000  -71.7940   25.2570 N   0  0  0  0  0
  -37.4600  -72.2060   25.5680 C   0  0  0  0  0
  -37.7190  -73.5760   24.9590 C   0  0  0  0  0
  -37.2460  -73.8720   23.8580 O   0  0  0  0  0
  -38.4820  -71.1830   25.0510 C   0  0  0  0  0
  -39.7140  -71.0410   25.9350 C   0  0  0  0  0
  -40.9340  -70.5870   25.1610 C   0  0  0  0  0
  -40.7840  -69.7860   24.2140 O   0  0  0  0  0
  -42.0460  -71.0340   25.5010 O   0  0  0  0  0
  -38.4680  -74.4020   25.6840 N   0  0  0  0  0
  -38.8100  -75.7460   25.2500 C   0  0  0  0  0
  -40.3190  -75.8210   25.0580 C   0  0  0  0  0
  -41.0800  -75.1640   25.7780 O   0  0  0  0  0
  -38.3270  -76.7770   26.2770 C   0  0  0  0  0
  -38.3100  -78.2030   25.7930 C   0  0  0  0  0
  -37.8440  -78.5210   24.5230 C   0  0  0  0  0
  -38.7310  -79.2360   26.6160 C   0  0  0  0  0
  -37.8190  -79.8300   24.0830 C   0  0  0  0  0
  -38.7050  -80.5430   26.1880 C   0  0  0  0  0
  -38.2520  -80.8350   24.9210 C   0  0  0  0  0
  -38.2330  -82.1440   24.4990 O   0  0  0  0  0
  -40.7550  -76.6130   24.0780 N   0  0  0  0  0
  -42.1540  -76.5530   23.6400 C   0  0  0  0  0
  -43.1110  -77.0330   24.7780 C   0  0  0  0  0
  -43.7570  -76.1650   25.3620 O   0  0  0  0  0
  -42.3450  -77.3000   22.3090 C   0  0  0  0  0
  -41.7410  -76.5990   21.1000 C   0  0  0  0  0
  -42.4720  -75.3190   20.7410 C   0  0  0  0  0
  -43.6960  -75.2220   20.8700 O   0  0  0  0  0
  -41.7170  -74.3230   20.2840 N   0  0  0  0  0
  -43.2530  -78.3230   25.1370 N   0  0  0  0  0
  -42.8250  -79.5220   24.4020 C   0  0  0  0  0
  -44.0680  -80.1780   23.7870 C   0  0  0  0  0
  -44.9470  -80.6530   24.5110 O   0  0  0  0  0
  -42.0750  -80.5070   25.3060 C   0  0  0  0  0
  -42.7420  -80.7660   26.6570 C   0  0  0  0  0
  -42.0840  -81.9010   27.4350 C   0  0  0  0  0
  -41.0230  -82.3940   26.9970 O   0  0  0  0  0
  -42.6380  -82.3150   28.4780 O   0  0  0  0  0
  -44.1370  -80.1980   22.4550 N   0  0  0  0  0
  -45.3210  -80.6670   21.7230 C   0  0  0  0  0
  -45.6660  -82.1230   22.0340 C   0  0  0  0  0
  -46.8280  -82.5230   21.9420 O   0  0  0  0  0
  -45.1090  -80.5020   20.2120 C   0  0  0  0  0
  -46.3410  -79.9530   19.5000 C   0  0  0  0  0
  -47.4290  -80.5580   19.6320 O   0  0  0  0  0
  -46.2230  -78.9290   18.7960 O   0  0  0  0  0
  -44.7860  -82.9130   22.3800 O   0  0  0  0  0
  -31.6338  -60.1840   19.7768 H   0  0  0  0  0
  -32.4425  -59.9316   21.2117 H   0  0  0  0  0
  -32.2345  -58.6726   20.1400 H   0  0  0  0  0
  -29.9046  -58.7111   20.4286 H   0  0  0  0  0
  -29.8455  -58.0030   22.8316 H   0  0  0  0  0
  -31.5418  -58.5740   22.9821 H   0  0  0  0  0
  -31.3911  -56.3172   22.5250 H   0  0  0  0  0
  -29.3222  -59.4048   23.3902 H   0  0  0  0  0
  -28.6946  -62.3066   22.9621 H   0  0  0  0  0
  -26.5527  -62.0191   23.9886 H   0  0  0  0  0
  -26.8663  -60.2384   24.1755 H   0  0  0  0  0
  -27.7636  -61.8825   21.4554 H   0  0  0  0  0
  -27.7059  -63.0367   25.2697 H   0  0  0  0  0
  -28.3077  -63.7769   27.3358 H   0  0  0  0  0
  -29.0972  -62.1122   28.9896 H   0  0  0  0  0
  -29.1449  -60.8979   27.6163 H   0  0  0  0  0
  -27.1664  -60.7494   29.0966 H   0  0  0  0  0
  -26.8069  -61.0730   27.3412 H   0  0  0  0  0
  -25.7710  -63.7431   30.2925 H   0  0  0  0  0
  -26.7894  -62.3418   30.6391 H   0  0  0  0  0
  -30.1925  -64.1407   25.2044 H   0  0  0  0  0
  -32.8335  -63.9388   26.5477 H   0  0  0  0  0
  -32.2217  -65.0321   23.8040 H   0  0  0  0  0
  -31.6991  -62.5291   24.4891 H   0  0  0  0  0
  -33.5043  -62.4035   24.1791 H   0  0  0  0  0
  -34.3344  -65.7861   24.8022 H   0  0  0  0  0
  -34.7737  -64.0988   25.1645 H   0  0  0  0  0
  -34.6331  -64.6388   23.4734 H   0  0  0  0  0
  -31.3960  -63.3529   22.2272 H   0  0  0  0  0
  -33.1469  -63.2311   21.9265 H   0  0  0  0  0
  -32.1889  -61.7585   22.2173 H   0  0  0  0  0
  -33.2166  -65.4819   27.9724 H   0  0  0  0  0
  -32.1669  -68.1108   28.1870 H   0  0  0  0  0
  -34.8158  -66.9225   29.0026 H   0  0  0  0  0
  -35.1335  -69.2990   28.7568 H   0  0  0  0  0
  -33.6837  -69.6181   29.7402 H   0  0  0  0  0
  -35.1056  -68.8395   30.4770 H   0  0  0  0  0
  -32.2540  -67.5942   30.5191 H   0  0  0  0  0
  -32.8144  -65.9622   30.0789 H   0  0  0  0  0
  -33.7400  -66.9365   31.2473 H   0  0  0  0  0
  -34.1746  -69.9673   24.6235 H   0  0  0  0  0
  -32.8450  -71.8914   24.4147 H   0  0  0  0  0
  -33.7465  -72.6526   25.7094 H   0  0  0  0  0
  -31.1328  -71.3313   25.7833 H   0  0  0  0  0
  -31.8451  -72.4848   26.9201 H   0  0  0  0  0
  -32.6769  -70.8088   28.2670 H   0  0  0  0  0
  -31.4687  -69.8466   27.5258 H   0  0  0  0  0
  -35.6086  -72.2323   24.4780 H   0  0  0  0  0
  -37.5730  -72.2617   26.6507 H   0  0  0  0  0
  -38.8216  -71.5289   24.0747 H   0  0  0  0  0
  -37.9861  -70.2126   25.0277 H   0  0  0  0  0
  -39.4984  -70.2891   26.6941 H   0  0  0  0  0
  -39.9333  -72.0180   26.3656 H   0  0  0  0  0
  -39.8529  -69.5708   24.1228 H   0  0  0  0  0
  -38.8182  -74.0774   26.5854 H   0  0  0  0  0
  -38.3161  -75.9739   24.3054 H   0  0  0  0  0
  -39.0258  -76.7380   27.1127 H   0  0  0  0  0
  -37.2972  -76.5168   26.5217 H   0  0  0  0  0
  -37.4932  -77.7261   23.8648 H   0  0  0  0  0
  -39.0890  -79.0085   27.6201 H   0  0  0  0  0
  -37.4598  -80.0663   23.0814 H   0  0  0  0  0
  -39.0410  -81.3428   26.8480 H   0  0  0  0  0
  -38.5650  -82.7098   25.1999 H   0  0  0  0  0
  -40.1115  -77.2651   23.6297 H   0  0  0  0  0
  -42.4237  -75.5162   23.4391 H   0  0  0  0  0
  -43.4185  -77.3706   22.1338 H   0  0  0  0  0
  -41.8393  -78.2606   22.4066 H   0  0  0  0  0
  -41.8137  -77.2763   20.2491 H   0  0  0  0  0
  -40.7107  -76.3395   21.3433 H   0  0  0  0  0
  -42.1466  -73.4352   20.0241 H   0  0  0  0  0
  -40.7087  -74.4474   20.1936 H   0  0  0  0  0
  -43.7154  -78.4890   26.0309 H   0  0  0  0  0
  -42.1271  -79.2318   23.6166 H   0  0  0  0  0
  -41.0984  -80.0690   25.5123 H   0  0  0  0  0
  -42.0427  -81.4607   24.7793 H   0  0  0  0  0
  -43.7779  -81.0479   26.4686 H   0  0  0  0  0
  -42.6519  -79.8576   27.2527 H   0  0  0  0  0
  -43.4357  -81.8057   28.6391 H   0  0  0  0  0
  -43.3312  -79.8730   21.9207 H   0  0  0  0  0
  -46.1593  -80.0534   22.0529 H   0  0  0  0  0
  -47.3936  -81.7985   21.6648 H   0  0  0  0  0
  -44.8929  -81.4858   19.7954 H   0  0  0  0  0
  -44.2941  -79.7934   20.0643 H   0  0  0  0  0
  -47.3053  -81.3140   20.2106 H   0  0  0  0  0
  1  2  1  0  0  0
  2  3  1  0  0  0
  2  5  1  0  0  0
  3  4  2  0  0  0
  3  7  1  0  0  0
  5  6  1  0  0  0
  7  8  1  0  0  0
  8  9  1  0  0  0
  8 11  1  0  0  0
  9 10  2  0  0  0
  9 15  1  0  0  0
 11 12  1  0  0  0
 12 13  1  0  0  0
 12 14  2  0  0  0
 15 16  1  0  0  0
 16 17  1  0  0  0
 16 19  1  0  0  0
 17 18  2  0  0  0
 17 24  1  0  0  0
 19 20  1  0  0  0
 20 21  1  0  0  0
 21 22  2  0  0  0
 21 23  1  0  0  0
 24 25  1  0  0  0
 25 26  1  0  0  0
 25 28  1  0  0  0
 26 27  2  0  0  0
 26 32  1  0  0  0
 28 29  1  0  0  0
 28 30  1  0  0  0
 29 31  1  0  0  0
 32 33  1  0  0  0
 33 34  1  0  0  0
 33 36  1  0  0  0
 34 35  2  0  0  0
 34 39  1  0  0  0
 36 37  1  0  0  0
 36 38  1  0  0  0
 39 40  1  0  0  0
 39 45  1  0  0  0
 40 41  1  0  0  0
 40 43  1  0  0  0
 41 42  2  0  0  0
 41 46  1  0  0  0
 43 44  1  0  0  0
 44 45  1  0  0  0
 46 47  1  0  0  0
 47 48  1  0  0  0
 47 50  1  0  0  0
 48 49  2  0  0  0
 48 55  1  0  0  0
 50 51  1  0  0  0
 51 52  1  0  0  0
 52 53  1  0  0  0
 52 54  2  0  0  0
 55 56  1  0  0  0
 56 57  1  0  0  0
 56 59  1  0  0  0
 57 58  2  0  0  0
 57 67  1  0  0  0
 59 60  1  0  0  0
 60 61  4  0  0  0
 60 62  4  0  0  0
 61 63  4  0  0  0
 62 64  4  0  0  0
 63 65  4  0  0  0
 64 65  4  0  0  0
 65 66  1  0  0  0
 67 68  1  0  0  0
 68 69  1  0  0  0
 68 71  1  0  0  0
 69 70  2  0  0  0
 69 76  1  0  0  0
 71 72  1  0  0  0
 72 73  1  0  0  0
 73 74  2  0  0  0
 73 75  1  0  0  0
 76 77  1  0  0  0
 77 78  1  0  0  0
 77 80  1  0  0  0
 78 79  2  0  0  0
 78 85  1  0  0  0
 80 81  1  0  0  0
 81 82  1  0  0  0
 82 83  2  0  0  0
 82 84  1  0  0  0
 85 86  1  0  0  0
 86 87  1  0  0  0
 86 89  1  0  0  0
 87 88  1  0  0  0
 87 93  2  0  0  0
 89 90  1  0  0  0
 90 91  1  0  0  0
 90 92  2  0  0  0
  1 94  1  0  0  0
  1 95  1  0  0  0
  1 96  1  0  0  0
  2 97  1  0  0  0
  5 98  1  0  0  0
  5 99  1  0  0  0
  6100  1  0  0  0
  7101  1  0  0  0
  8102  1  0  0  0
 11103  1  0  0  0
 11104  1  0  0  0
 13105  1  0  0  0
 15106  1  0  0  0
 16107  1  0  0  0
 19108  1  0  0  0
 19109  1  0  0  0
 20110  1  0  0  0
 20111  1  0  0  0
 23112  1  0  0  0
 23113  1  0  0  0
 24114  1  0  0  0
 25115  1  0  0  0
 28116  1  0  0  0
 29117  1  0  0  0
 29118  1  0  0  0
 30119  1  0  0  0
 30120  1  0  0  0
 30121  1  0  0  0
 31122  1  0  0  0
 31123  1  0  0  0
 31124  1  0  0  0
 32125  1  0  0  0
 33126  1  0  0  0
 36127  1  0  0  0
 37128  1  0  0  0
 37129  1  0  0  0
 37130  1  0  0  0
 38131  1  0  0  0
 38132  1  0  0  0
 38133  1  0  0  0
 40134  1  0  0  0
 43135  1  0  0  0
 43136  1  0  0  0
 44137  1  0  0  0
 44138  1  0  0  0
 45139  1  0  0  0
 45140  1  0  0  0
 46141  1  0  0  0
 47142  1  0  0  0
 50143  1  0  0  0
 50144  1  0  0  0
 51145  1  0  0  0
 51146  1  0  0  0
 53147  1  0  0  0
 55148  1  0  0  0
 56149  1  0  0  0
 59150  1  0  0  0
 59151  1  0  0  0
 61152  1  0  0  0
 62153  1  0  0  0
 63154  1  0  0  0
 64155  1  0  0  0
 66156  1  0  0  0
 67157  1  0  0  0
 68158  1  0  0  0
 71159  1  0  0  0
 71160  1  0  0  0
 72161  1  0  0  0
 72162  1  0  0  0
 75163  1  0  0  0
 75164  1  0  0  0
 76165  1  0  0  0
 77166  1  0  0  0
 80167  1  0  0  0
 80168  1  0  0  0
 81169  1  0  0  0
 81170  1  0  0  0
 84171  1  0  0  0
 85172  1  0  0  0
 86173  1  0  0  0
 88174  1  0  0  0
 89175  1  0  0  0
 89176  1  0  0  0
 91177  1  0  0  0
M  END
$$$$
