3b0w_ligand
  -I-interpret- 

119126  0  0  0  0  0  0  0  0999 V2000
   25.4880   18.9970   -1.4820 C   0  0  0  0  0
   25.5040   19.4360   -2.9610 C   0  0  0  0  0
   26.5860   20.4940   -3.2030 C   0  0  0  0  0
   27.8720   19.9200   -2.9540 O   0  0  0  0  0
   26.3410   21.6990   -2.2700 C   0  0  0  0  0
   26.2840   21.3090   -0.7680 C   0  0  0  0  0
   25.9780   22.5680    0.0850 C   0  0  0  0  0
   24.5330   23.0700   -0.1130 C   0  0  0  0  0
   23.5000   21.9500    0.1490 C   0  0  0  0  0
   23.8060   20.7110   -0.7390 C   0  0  0  0  0
   25.2380   20.1850   -0.5190 C   0  0  0  0  0
   22.7430   19.5850   -0.5680 C   0  0  0  0  0
   21.3630   20.1500   -0.9110 C   0  0  0  0  0
   20.3770   19.1090   -0.8930 O   0  0  0  0  0
   20.9740   21.3030    0.0600 C   0  0  0  0  0
   22.0460   22.4370    0.0000 C   0  0  0  0  0
   21.8000   23.4240    1.0060 O   0  0  0  0  0
   21.7390   23.1450   -1.3380 C   0  0  0  0  0
   20.2000   23.1850   -1.3860 C   0  0  0  0  0
   19.7020   21.9640   -0.5630 C   0  0  0  0  0
   20.7700   20.7700    1.4860 C   0  0  0  0  0
   25.4200   19.6170    0.9020 C   0  0  0  0  0
   29.0030   20.6740   -3.4180 C   0  0  0  0  0
   33.5800   21.3390   -6.0770 C   0  0  0  0  0
   38.6700   19.7950   -6.4360 C   0  0  0  0  0
   18.6120   22.4290    0.3850 C   0  0  0  0  0
   17.3070   21.7190    0.7130 C   0  0  0  0  0
   16.5270   22.6590    1.5240 O   0  0  0  0  0
   18.5810   23.5790    1.0500 C   0  0  0  0  0
   17.3360   23.6900    1.8140 C   0  0  0  0  0
   17.0770   24.6100    2.5750 O   0  0  0  0  0
   30.2800   20.0070   -2.9150 C   0  0  0  0  0
   34.7390   22.3430   -6.0050 C   0  0  0  0  0
   39.7060   19.9740   -7.5620 C   0  0  0  0  0
   31.5360   20.6690   -3.5170 C   0  0  0  0  0
   31.7640   21.9650   -2.9650 O   0  0  0  0  0
   35.9100   21.7880   -6.8320 C   0  0  0  0  0
   35.5200   21.7590   -8.2110 O   0  0  0  0  0
   41.0840   20.3500   -6.9960 C   0  0  0  0  0
   41.6030   19.2410   -6.2510 O   0  0  0  0  0
   31.4530   20.8750   -5.0360 C   0  0  0  0  0
   32.4560   21.8480   -5.3540 O   0  0  0  0  0
   36.2950   20.3810   -6.3110 C   0  0  0  0  0
   37.3750   19.8050   -7.0690 O   0  0  0  0  0
   40.9640   21.5980   -6.0970 C   0  0  0  0  0
   42.2570   22.0020   -5.6170 O   0  0  0  0  0
   30.0950   21.4760   -5.4320 C   0  0  0  0  0
   29.0370   20.7100   -4.8550 O   0  0  0  0  0
   35.0560   19.4650   -6.3170 C   0  0  0  0  0
   34.0280   20.0940   -5.5340 O   0  0  0  0  0
   40.0170   21.2840   -4.9220 C   0  0  0  0  0
   38.7440   20.8280   -5.4180 O   0  0  0  0  0
   29.9510   21.5050   -6.9540 C   0  0  0  0  0
   35.4000   18.0940   -5.7270 C   0  0  0  0  0
   39.8100   22.5490   -4.0750 C   0  0  0  0  0
   26.4622   18.5691   -1.2456 H   0  0  0  0  0
   24.6783   18.2791   -1.3509 H   0  0  0  0  0
   24.5328   19.8628   -3.2114 H   0  0  0  0  0
   25.7169   18.5668   -3.5833 H   0  0  0  0  0
   26.5479   20.8374   -4.2368 H   0  0  0  0  0
   25.3763   22.1313   -2.5356 H   0  0  0  0  0
   27.1727   22.3914   -2.3999 H   0  0  0  0  0
   27.2542   20.9128   -0.4683 H   0  0  0  0  0
   26.6578   23.3613   -0.2258 H   0  0  0  0  0
   26.1043   22.3046    1.1351 H   0  0  0  0  0
   24.4233   23.4050   -1.1444 H   0  0  0  0  0
   24.3499   23.8793    0.5938 H   0  0  0  0  0
   23.5981   21.6467    1.1913 H   0  0  0  0  0
   23.7433   21.0467   -1.7741 H   0  0  0  0  0
   22.7488   19.2260    0.4612 H   0  0  0  0  0
   22.9765   18.7537   -1.2332 H   0  0  0  0  0
   21.4047   20.5650   -1.9180 H   0  0  0  0  0
   19.5183   19.4794   -1.1099 H   0  0  0  0  0
   20.8968   23.7399    0.9287 H   0  0  0  0  0
   22.1680   22.6222   -2.1928 H   0  0  0  0  0
   22.1825   24.1392   -1.3934 H   0  0  0  0  0
   19.8398   23.1366   -2.4136 H   0  0  0  0  0
   19.8203   24.1180   -0.9695 H   0  0  0  0  0
   19.2144   21.1797   -1.1419 H   0  0  0  0  0
   19.9723   20.0272    1.4842 H   0  0  0  0  0
   21.6945   20.3113    1.8368 H   0  0  0  0  0
   20.4990   21.5945    2.1454 H   0  0  0  0  0
   25.2241   20.4012    1.6332 H   0  0  0  0  0
   24.7224   18.7935    1.0548 H   0  0  0  0  0
   26.4417   19.2559    1.0195 H   0  0  0  0  0
   28.9235   21.6935   -3.0407 H   0  0  0  0  0
   33.2673   21.1845   -7.1097 H   0  0  0  0  0
   38.8660   18.8603   -5.9106 H   0  0  0  0  0
   17.4886   20.7893    1.2522 H   0  0  0  0  0
   16.7703   21.4412   -0.1942 H   0  0  0  0  0
   19.3690   24.3318    1.0299 H   0  0  0  0  0
   30.2640   18.9591   -3.2145 H   0  0  0  0  0
   30.3204   20.1106   -1.8307 H   0  0  0  0  0
   35.0469   22.4851   -4.9691 H   0  0  0  0  0
   34.4237   23.3074   -6.4034 H   0  0  0  0  0
   39.3697   20.7758   -8.2194 H   0  0  0  0  0
   39.7977   19.0321   -8.1029 H   0  0  0  0  0
   32.3400   19.9735   -3.2762 H   0  0  0  0  0
   32.5510   22.3463   -3.3610 H   0  0  0  0  0
   36.7898   22.4239   -6.7337 H   0  0  0  0  0
   36.2432   21.4139   -8.7397 H   0  0  0  0  0
   41.7661   20.5833   -7.8135 H   0  0  0  0  0
   42.4644   19.4711   -5.8951 H   0  0  0  0  0
   31.5846   19.9249   -5.5537 H   0  0  0  0  0
   36.6526   20.4829   -5.2864 H   0  0  0  0  0
   40.5538   22.4245   -6.6772 H   0  0  0  0  0
   42.1622   22.7785   -5.0605 H   0  0  0  0  0
   30.0405   22.4979   -5.0567 H   0  0  0  0  0
   34.7125   19.3148   -7.3405 H   0  0  0  0  0
   40.4628   20.5004   -4.3094 H   0  0  0  0  0
   30.7482   22.1131   -7.3816 H   0  0  0  0  0
   30.0184   20.4892   -7.3435 H   0  0  0  0  0
   28.9841   21.9333   -7.2181 H   0  0  0  0  0
   36.1867   17.6307   -6.3224 H   0  0  0  0  0
   35.7448   18.2178   -4.7004 H   0  0  0  0  0
   34.5125   17.4613   -5.7398 H   0  0  0  0  0
   40.7711   22.8859   -3.6865 H   0  0  0  0  0
   39.3725   23.3319   -4.6945 H   0  0  0  0  0
   39.1401   22.3235   -3.2453 H   0  0  0  0  0
  2  1  1  0  0  0
  1 11  1  0  0  0
  3  2  1  0  0  0
  4  3  1  0  0  0
  3  5  1  0  0  0
 23  4  1  0  0  0
  5  6  1  0  0  0
  6  7  1  0  0  0
  6 11  1  0  0  0
  7  8  1  0  0  0
  8  9  1  0  0  0
 10  9  1  0  0  0
  9 16  1  0  0  0
 11 10  1  0  0  0
 10 12  1  0  0  0
 11 22  1  0  0  0
 12 13  1  0  0  0
 13 14  1  0  0  0
 13 15  1  0  0  0
 16 15  1  0  0  0
 15 20  1  0  0  0
 15 21  1  0  0  0
 16 17  1  0  0  0
 16 18  1  0  0  0
 18 19  1  0  0  0
 20 19  1  0  0  0
 20 26  1  0  0  0
 32 23  1  0  0  0
 23 48  1  0  0  0
 33 24  1  0  0  0
 24 42  1  0  0  0
 24 50  1  0  0  0
 25 34  1  0  0  0
 44 25  1  0  0  0
 25 52  1  0  0  0
 26 27  1  0  0  0
 26 29  2  0  0  0
 27 28  1  0  0  0
 30 28  1  0  0  0
 29 30  1  0  0  0
 30 31  2  0  0  0
 35 32  1  0  0  0
 37 33  1  0  0  0
 34 39  1  0  0  0
 35 36  1  0  0  0
 41 35  1  0  0  0
 37 38  1  0  0  0
 43 37  1  0  0  0
 39 40  1  0  0  0
 39 45  1  0  0  0
 42 41  1  0  0  0
 41 47  1  0  0  0
 43 44  1  0  0  0
 43 49  1  0  0  0
 45 46  1  0  0  0
 45 51  1  0  0  0
 47 48  1  0  0  0
 47 53  1  0  0  0
 49 50  1  0  0  0
 49 54  1  0  0  0
 51 52  1  0  0  0
 51 55  1  0  0  0
  1 56  1  0  0  0
  1 57  1  0  0  0
  2 58  1  0  0  0
  2 59  1  0  0  0
  3 60  1  0  0  0
  5 61  1  0  0  0
  5 62  1  0  0  0
  6 63  1  0  0  0
  7 64  1  0  0  0
  7 65  1  0  0  0
  8 66  1  0  0  0
  8 67  1  0  0  0
  9 68  1  0  0  0
 10 69  1  0  0  0
 12 70  1  0  0  0
 12 71  1  0  0  0
 13 72  1  0  0  0
 14 73  1  0  0  0
 17 74  1  0  0  0
 18 75  1  0  0  0
 18 76  1  0  0  0
 19 77  1  0  0  0
 19 78  1  0  0  0
 20 79  1  0  0  0
 21 80  1  0  0  0
 21 81  1  0  0  0
 21 82  1  0  0  0
 22 83  1  0  0  0
 22 84  1  0  0  0
 22 85  1  0  0  0
 23 86  1  0  0  0
 24 87  1  0  0  0
 25 88  1  0  0  0
 27 89  1  0  0  0
 27 90  1  0  0  0
 29 91  1  0  0  0
 32 92  1  0  0  0
 32 93  1  0  0  0
 33 94  1  0  0  0
 33 95  1  0  0  0
 34 96  1  0  0  0
 34 97  1  0  0  0
 35 98  1  0  0  0
 36 99  1  0  0  0
 37100  1  0  0  0
 38101  1  0  0  0
 39102  1  0  0  0
 40103  1  0  0  0
 41104  1  0  0  0
 43105  1  0  0  0
 45106  1  0  0  0
 46107  1  0  0  0
 47108  1  0  0  0
 49109  1  0  0  0
 51110  1  0  0  0
 53111  1  0  0  0
 53112  1  0  0  0
 53113  1  0  0  0
 54114  1  0  0  0
 54115  1  0  0  0
 54116  1  0  0  0
 55117  1  0  0  0
 55118  1  0  0  0
 55119  1  0  0  0
M  END
$$$$
