3usx_ligand
  -I-interpret- 

 44 43  0  0  0  0  0  0  0  0999 V2000
  -34.3880  -17.6260  -41.0770 C   0  0  0  0  0
  -33.7600  -18.1540  -40.1310 O   0  0  0  0  0
  -33.8310  -16.6690  -41.6640 O   0  0  0  0  0
  -35.7800  -18.0990  -41.4960 C   0  0  0  0  0
  -36.0040  -19.6160  -41.3620 C   0  0  0  0  0
  -36.3990  -20.3350  -42.6650 C   0  0  0  0  0
  -36.2410  -21.8600  -42.5840 C   0  0  0  0  0
  -34.9290  -22.3590  -43.1790 C   0  0  0  0  0
  -33.7040  -21.8710  -42.3930 C   0  0  0  0  0
  -32.9910  -22.9870  -41.6190 C   0  0  0  0  0
  -33.4830  -23.0750  -40.1780 C   0  0  0  0  0
  -33.5540  -24.5290  -39.7060 C   0  0  0  0  0
  -34.9860  -24.9650  -39.3940 C   0  0  0  0  0
  -35.0510  -26.4000  -38.8760 C   0  0  0  0  0
  -36.1250  -27.2070  -39.6170 C   0  0  0  0  0
  -37.3660  -27.4760  -38.7700 C   0  0  0  0  0
  -34.4031  -16.3485  -42.3652 H   0  0  0  0  0
  -35.8980  -17.8504  -42.5507 H   0  0  0  0  0
  -36.4959  -17.6106  -40.8349 H   0  0  0  0  0
  -36.8316  -19.7509  -40.6656 H   0  0  0  0  0
  -35.0554  -20.0463  -41.0411 H   0  0  0  0  0
  -35.7391  -19.9754  -43.4545 H   0  0  0  0  0
  -37.4507  -20.1209  -42.8554 H   0  0  0  0  0
  -37.0545  -22.3076  -43.1549 H   0  0  0  0  0
  -36.2533  -22.1383  -41.5302 H   0  0  0  0  0
  -34.8522  -21.9728  -44.1954 H   0  0  0  0  0
  -34.9376  -23.4485  -43.1461 H   0  0  0  0  0
  -34.0518  -21.1377  -41.6654 H   0  0  0  0  0
  -32.9930  -21.4648  -43.1125 H   0  0  0  0  0
  -31.9233  -22.7681  -41.6052 H   0  0  0  0  0
  -33.2004  -23.9360  -42.1126 H   0  0  0  0  0
  -34.4820  -22.6423  -40.1242 H   0  0  0  0  0
  -32.7851  -22.5350  -39.5382 H   0  0  0  0  0
  -32.9654  -24.6185  -38.7929 H   0  0  0  0  0
  -33.1723  -25.1643  -40.5053 H   0  0  0  0  0
  -35.5660  -24.9100  -40.3152 H   0  0  0  0  0
  -35.3804  -24.3065  -38.6201 H   0  0  0  0  0
  -35.3020  -26.3768  -37.8155 H   0  0  0  0  0
  -34.0834  -26.8741  -39.0402 H   0  0  0  0  0
  -35.6902  -28.1709  -39.8814 H   0  0  0  0  0
  -36.4366  -26.6243  -40.4839 H   0  0  0  0  0
  -37.0828  -28.0411  -37.8820 H   0  0  0  0  0
  -37.8131  -26.5278  -38.4715 H   0  0  0  0  0
  -38.0852  -28.0505  -39.3538 H   0  0  0  0  0
  1  2  2  0  0  0
  1  3  1  0  0  0
  1  4  1  0  0  0
  4  5  1  0  0  0
  5  6  1  0  0  0
  6  7  1  0  0  0
  7  8  1  0  0  0
  8  9  1  0  0  0
  9 10  1  0  0  0
 10 11  1  0  0  0
 11 12  1  0  0  0
 12 13  1  0  0  0
 13 14  1  0  0  0
 14 15  1  0  0  0
 15 16  1  0  0  0
  3 17  1  0  0  0
  4 18  1  0  0  0
  4 19  1  0  0  0
  5 20  1  0  0  0
  5 21  1  0  0  0
  6 22  1  0  0  0
  6 23  1  0  0  0
  7 24  1  0  0  0
  7 25  1  0  0  0
  8 26  1  0  0  0
  8 27  1  0  0  0
  9 28  1  0  0  0
  9 29  1  0  0  0
 10 30  1  0  0  0
 10 31  1  0  0  0
 11 32  1  0  0  0
 11 33  1  0  0  0
 12 34  1  0  0  0
 12 35  1  0  0  0
 13 36  1  0  0  0
 13 37  1  0  0  0
 14 38  1  0  0  0
 14 39  1  0  0  0
 15 40  1  0  0  0
 15 41  1  0  0  0
 16 42  1  0  0  0
 16 43  1  0  0  0
 16 44  1  0  0  0
M  END
$$$$
