6cc9_ligand
  -I-interpret- 

 48 51  0  0  0  0  0  0  0  0999 V2000
   28.8690   -3.1460  -11.5470 C   0  0  0  0  0
   30.0670   -3.7790  -10.8240 C   0  0  0  0  0
   27.5880   -3.9440  -11.3010 C   0  0  0  0  0
   27.2920   -3.9640   -9.7850 C   0  0  0  0  0
   29.6720   -4.5300   -9.5450 C   0  0  0  0  0
   30.8900   -4.6100   -8.6000 C   0  0  0  0  0
   30.6380   -5.3520   -7.4510 C   0  0  0  0  0
   30.7190   -6.7670   -7.4960 C   0  0  0  0  0
   30.2910   -4.6760   -6.2510 C   0  0  0  0  0
   30.0280   -5.4200   -5.0890 C   0  0  0  0  0
   30.1170   -6.8250   -5.1410 C   0  0  0  0  0
   30.4570   -7.5120   -6.3340 C   0  0  0  0  0
   29.0270   -4.6560  -15.7380 C   0  0  0  0  0
   29.4430   -5.5010  -16.7890 C   0  0  0  0  0
   29.9310   -4.9420  -17.9930 C   0  0  0  0  0
   29.9810   -3.5420  -18.1060 C   0  0  0  0  0
   29.5760   -2.7770  -17.0690 C   0  0  0  0  0
   29.1010   -3.3070  -15.9090 C   0  0  0  0  0
   29.0510   -1.1350  -15.7570 C   0  0  0  0  0
   28.3880   -2.3060  -13.8360 C   0  0  0  0  0
   29.1680   -3.0090  -12.9870 N   0  0  0  0  0
   28.4820   -3.9040   -8.9190 N   0  3  0  0  0
   29.5260   -1.4500  -16.9570 N   0  0  0  0  0
   27.3340   -1.7700  -13.4900 O   0  0  0  0  0
   28.7960   -2.2750  -15.1150 C   0  0  0  0  0
   29.7810   -7.7490   -3.7130 Cl  0  0  0  0  0
   29.3830   -7.3580  -16.5720 Br  0  0  0  0  0
   28.6975   -2.1493  -11.1404 H   0  0  0  0  0
   30.7443   -2.9739  -10.5390 H   0  0  0  0  0
   30.5205   -4.5000  -11.5042 H   0  0  0  0  0
   27.7144   -4.9638  -11.6645 H   0  0  0  0  0
   26.7573   -3.4789  -11.8318 H   0  0  0  0  0
   26.7955   -4.9110   -9.5733 H   0  0  0  0  0
   26.6990   -3.0755   -9.5679 H   0  0  0  0  0
   29.3815   -5.5530   -9.7842 H   0  0  0  0  0
   31.1386   -3.5945   -8.2918 H   0  0  0  0  0
   31.6989   -5.1005   -9.1415 H   0  0  0  0  0
   30.9825   -7.2728   -8.4249 H   0  0  0  0  0
   30.2293   -3.5879   -6.2320 H   0  0  0  0  0
   29.7588   -4.9173   -4.1600 H   0  0  0  0  0
   30.5142   -8.6004   -6.3493 H   0  0  0  0  0
   28.6526   -5.0763  -14.8046 H   0  0  0  0  0
   30.2600   -5.5808  -18.8126 H   0  0  0  0  0
   30.3436   -3.0773  -19.0229 H   0  0  0  0  0
   28.8978   -0.1282  -15.3684 H   0  0  0  0  0
   30.0014   -3.4661  -13.3569 H   0  0  0  0  0
   28.2728   -4.4141   -8.0608 H   0  0  0  0  0
   28.6969   -2.9218   -8.7470 H   0  0  0  0  0
  1  2  1  0  0  0
  1  3  1  0  0  0
 21  1  1  0  0  0
  2  5  1  0  0  0
  3  4  1  0  0  0
  4 22  1  0  0  0
  5  6  1  0  0  0
  5 22  1  0  0  0
  6  7  1  0  0  0
  7  8  4  0  0  0
  7  9  4  0  0  0
  8 12  4  0  0  0
  9 10  4  0  0  0
 10 11  4  0  0  0
 12 11  4  0  0  0
 11 26  1  0  0  0
 13 14  4  0  0  0
 18 13  4  0  0  0
 14 15  4  0  0  0
 14 27  1  0  0  0
 16 15  4  0  0  0
 17 16  4  0  0  0
 18 17  4  0  0  0
 23 17  4  0  0  0
 25 18  4  0  0  0
 19 23  4  0  0  0
 25 19  4  0  0  0
 20 21  1  0  0  0
 20 24  2  0  0  0
 20 25  1  0  0  0
  1 28  1  0  0  0
  2 29  1  0  0  0
  2 30  1  0  0  0
  3 31  1  0  0  0
  3 32  1  0  0  0
  4 33  1  0  0  0
  4 34  1  0  0  0
  5 35  1  0  0  0
  6 36  1  0  0  0
  6 37  1  0  0  0
  8 38  1  0  0  0
  9 39  1  0  0  0
 10 40  1  0  0  0
 12 41  1  0  0  0
 13 42  1  0  0  0
 15 43  1  0  0  0
 16 44  1  0  0  0
 19 45  1  0  0  0
 21 46  1  0  0  0
 22 47  1  0  0  0
 22 48  1  0  0  0
M  END
$$$$
