5y5u_ligand
  -I-interpret- 

 52 56  0  0  0  0  0  0  0  0999 V2000
    3.7350   -7.1090   -2.2820 C   0  0  0  0  0
    3.0700   -6.2320   -1.3880 C   0  0  0  0  0
    1.7010   -6.4860   -1.2660 C   0  0  0  0  0
    1.1760   -7.5520   -1.8590 N   0  0  0  0  0
    3.0960   -8.1420   -2.8990 N   0  0  0  0  0
   -0.4190   -9.5330   -2.7570 C   0  0  0  0  0
   -1.3140   -8.9870   -3.7410 C   0  0  0  0  0
   -0.9640   -9.5100   -5.1760 C   0  0  0  0  0
   -1.7860   -8.7860   -6.1190 O   0  0  0  0  0
    0.4700   -9.3000   -5.5720 C   0  0  0  0  0
    1.2980  -10.0020   -4.4780 C   0  0  0  0  0
    0.9920   -9.3150   -3.2180 N   0  0  0  0  0
    1.7870   -8.3680   -2.6790 C   0  0  0  0  0
    5.0900   -6.9310   -2.5590 C   0  0  0  0  0
    5.7890   -5.8880   -1.9580 C   0  0  0  0  0
    5.1710   -5.0620   -1.1330 N   0  0  0  0  0
    3.8100   -5.2010   -0.8230 C   0  0  0  0  0
    3.3260   -4.3860   -0.0580 O   0  0  0  0  0
    0.7410   -6.0540   -0.4630 N   0  0  0  0  0
    0.0470   -4.9600   -0.1410 C   0  0  0  0  0
   -1.0870   -5.7870   -0.4640 C   0  0  0  0  0
   -2.3840   -5.5820   -0.3070 C   0  0  0  0  0
   -3.4460   -6.2530   -0.7260 C   0  0  0  0  0
   -4.5210   -5.5870   -0.3000 N   0  0  0  0  0
   -4.1700   -4.5890    0.3290 N   0  0  0  0  0
   -5.0840   -3.5970    0.9630 C   0  0  0  0  0
   -2.8420   -4.5540    0.3480 C   0  0  0  0  0
   -1.9450   -3.7450    0.8400 C   0  0  0  0  0
   -0.5940   -4.0390    0.7200 C   0  0  0  0  0
   -0.6084  -10.5994   -2.6349 H   0  0  0  0  0
   -0.5762   -9.0388   -1.7983 H   0  0  0  0  0
   -1.2194   -7.9011   -3.7334 H   0  0  0  0  0
   -2.3305   -9.2951   -3.4963 H   0  0  0  0  0
   -1.1432  -10.5852   -5.1758 H   0  0  0  0  0
   -1.5912   -9.0878   -7.0093 H   0  0  0  0  0
    0.7161   -8.2407   -5.6451 H   0  0  0  0  0
    0.6787   -9.7105   -6.5599 H   0  0  0  0  0
    2.3635   -9.9503   -4.7017 H   0  0  0  0  0
    1.0454  -11.0605   -4.4165 H   0  0  0  0  0
    5.6007   -7.6071   -3.2447 H   0  0  0  0  0
    6.8498   -5.7524   -2.1689 H   0  0  0  0  0
    5.6995   -4.2999   -0.7084 H   0  0  0  0  0
    0.4176   -6.8314    0.1127 H   0  0  0  0  0
    0.7990   -4.1852   -0.2905 H   0  0  0  0  0
   -0.9377   -6.5967    0.2503 H   0  0  0  0  0
   -1.0255   -5.7722   -1.5522 H   0  0  0  0  0
   -3.4427   -7.1744   -1.3083 H   0  0  0  0  0
   -5.7173   -3.1477    0.1981 H   0  0  0  0  0
   -5.7068   -4.0998    1.7029 H   0  0  0  0  0
   -4.4939   -2.8207    1.4501 H   0  0  0  0  0
   -2.2582   -2.8330    1.3482 H   0  0  0  0  0
    0.0668   -3.4810    1.3834 H   0  0  0  0  0
  1  2  4  0  0  0
  5  1  4  0  0  0
  1 14  1  0  0  0
  3  2  4  0  0  0
  2 17  1  0  0  0
  4  3  4  0  0  0
  3 19  1  0  0  0
 13  4  4  0  0  0
 13  5  4  0  0  0
  6  7  1  0  0  0
 12  6  1  0  0  0
  7  8  1  0  0  0
  8  9  1  0  0  0
 10  8  1  0  0  0
 11 10  1  0  0  0
 12 11  1  0  0  0
 12 13  1  0  0  0
 14 15  2  0  0  0
 15 16  1  0  0  0
 16 17  1  0  0  0
 17 18  2  0  0  0
 19 20  1  0  0  0
 20 21  1  0  0  0
 20 29  1  0  0  0
 21 22  1  0  0  0
 22 23  4  0  0  0
 22 27  4  0  0  0
 23 24  4  0  0  0
 24 25  4  0  0  0
 25 26  1  0  0  0
 25 27  4  0  0  0
 27 28  1  0  0  0
 28 29  2  0  0  0
  6 30  1  0  0  0
  6 31  1  0  0  0
  7 32  1  0  0  0
  7 33  1  0  0  0
  8 34  1  0  0  0
  9 35  1  0  0  0
 10 36  1  0  0  0
 10 37  1  0  0  0
 11 38  1  0  0  0
 11 39  1  0  0  0
 14 40  1  0  0  0
 15 41  1  0  0  0
 16 42  1  0  0  0
 19 43  1  0  0  0
 20 44  1  0  0  0
 21 45  1  0  0  0
 21 46  1  0  0  0
 23 47  1  0  0  0
 26 48  1  0  0  0
 26 49  1  0  0  0
 26 50  1  0  0  0
 28 51  1  0  0  0
 29 52  1  0  0  0
M  END
$$$$
