### 
### Created by X-TOOL on Sun Sep  9 21:51:36 2018
### 

@<TRIPOS>MOLECULE
4a1w_ligand
  330   334     1     0     0
SMALL
GAST_HUCK


@<TRIPOS>ATOM
      1 N         -50.3880  -14.9430   35.7470 N.4       1 NON         0.2381
      2 CA        -49.1430  -14.7360   36.4840 C.3       1 NON         0.0675
      3 C         -48.0440  -13.9600   35.7260 C.2       1 NON         0.2252
      4 O         -48.1170  -13.7420   34.5090 O.2       1 NON        -0.3909
      5 CB        -48.5590  -16.0820   37.0120 C.3       1 NON         0.0164
      6 CG1       -47.8280  -15.8820   38.3270 C.3       1 NON        -0.0460
      7 CG2       -47.5710  -16.6880   36.0590 C.3       1 NON        -0.0551
      8 CD1       -47.1700  -17.1200   38.8030 C.3       1 NON        -0.0647
      9 N         -47.0420  -13.5360   36.4950 N.am      1 NON        -0.2758
     10 CB        -46.4430  -12.4550   35.7330 C.3       1 NON         0.0630
     11 CG        -46.7450  -11.1020   36.4030 C.3       1 NON        -0.0111
     12 CD        -48.1120  -10.5400   36.1250 C.2       1 NON        -0.0439
     13 CE2       -49.2960  -10.7000   36.9260 C.ar      1 NON        -0.0215
     14 CZ3       -49.5790  -11.3670   38.1290 C.ar      1 NON        -0.0747
     15 CH3       -50.8640  -11.3250   38.6430 C.ar      1 NON        -0.0792
     16 CT2       -51.8820  -10.6290   37.9770 C.ar      1 NON        -0.0768
     17 CH2       -51.6490   -9.9620   36.7990 C.ar      1 NON        -0.0443
     18 CZ2       -50.3390  -10.0030   36.2760 C.ar      1 NON         0.0603
     19 NZ1       -49.8180   -9.4470   35.1370 N.pl3     1 NON        -0.2891
     20 CE1       -48.4810   -9.7680   35.0560 C.2       1 NON         0.0165
     21 CA        -44.9340  -12.6460   35.6570 C.3       1 NON         0.0614
     22 C         -44.4510  -13.8050   34.8110 C.2       1 NON         0.1806
     23 O         -44.1160  -13.6360   33.6400 O.2       1 NON        -0.3968
     24 N         -44.3830  -14.9910   35.4020 N.am      1 NON        -0.2653
     25 CA        -43.7780  -16.1360   34.7220 C.3       1 NON         0.1334
     26 C         -44.4690  -16.5050   33.4130 C.2       1 NON         0.2041
     27 O         -43.8050  -16.7000   32.3960 O.2       1 NON        -0.3944
     28 CB        -43.7020  -17.3530   35.6400 C.3       1 NON        -0.0037
     29 CG1       -42.7210  -17.0740   36.7800 C.3       1 NON        -0.0491
     30 CG2       -43.2720  -18.5850   34.8690 C.3       1 NON        -0.0582
     31 CD1       -42.8990  -17.9970   37.9730 C.3       1 NON        -0.0648
     32 N         -45.7970  -16.5630   33.4330 N.am      1 NON        -0.2640
     33 CA        -46.5590  -17.0480   32.2870 C.3       1 NON         0.1282
     34 C         -46.4890  -16.1140   31.0940 C.2       1 NON         0.2036
     35 O         -46.4060  -16.5680   29.9470 O.2       1 NON        -0.3944
     36 CB        -48.0070  -17.2910   32.6750 C.3       1 NON        -0.0244
     37 N         -46.5410  -14.8120   31.3630 N.am      1 NON        -0.2636
     38 CA        -46.5270  -13.8040   30.3040 C.3       1 NON         0.1329
     39 C         -45.1080  -13.5420   29.8250 C.2       1 NON         0.2022
     40 O         -44.8940  -13.1560   28.6780 O.2       1 NON        -0.3945
     41 CB        -47.2190  -12.5350   30.7710 C.3       1 NON         0.0045
     42 CG        -48.6020  -12.8250   31.3340 C.3       1 NON         0.0412
     43 CD        -49.4440  -11.5830   31.4940 C.2       1 NON         0.1737
     44 OE1       -48.9290  -10.4910   31.7630 O.2       1 NON        -0.3973
     45 NE2       -50.7470  -11.7360   31.3120 N.am      1 NON        -0.3009
     46 N         -44.1530  -13.7670   30.7270 N.am      1 NON        -0.2796
     47 CB        -42.8760  -13.1980   30.2700 C.3       1 NON         0.0602
     48 CG        -42.2600  -12.1710   31.2290 C.3       1 NON        -0.0162
     49 CD        -42.3430  -10.7150   30.8350 C.3       1 NON         0.0024
     50 CE        -41.6370  -10.3410   29.5410 C.2       1 NON         0.0349
     51 OF2       -40.3760  -10.2800   29.4590 O.co2     1 NON        -0.5690
     52 OF1       -42.3800  -10.0700   28.5790 O.co2     1 NON        -0.5690
     53 CA        -41.8320  -14.2930   30.1370 C.3       1 NON         0.0604
     54 C         -42.1830  -15.3770   29.1160 C.2       1 NON         0.1804
     55 O         -41.9340  -15.2000   27.9220 O.2       1 NON        -0.3968
     56 N         -42.7560  -16.4800   29.5970 N.am      1 NON        -0.2656
     57 CA        -42.9720  -17.6790   28.7910 C.3       1 NON         0.1311
     58 C         -43.7590  -17.4140   27.5380 C.2       1 NON         0.2039
     59 O         -43.4680  -18.0100   26.5150 O.2       1 NON        -0.3944
     60 CB        -43.6830  -18.7710   29.5890 C.3       1 NON        -0.0101
     61 CG        -42.8630  -19.4260   30.6920 C.3       1 NON        -0.0425
     62 CD1       -43.7590  -20.3170   31.5070 C.3       1 NON        -0.0625
     63 CD2       -41.6990  -20.2060   30.1010 C.3       1 NON        -0.0625
     64 N         -44.7440  -16.5230   27.5970 N.am      1 NON        -0.2637
     65 CA        -45.5980  -16.3380   26.4260 C.3       1 NON         0.1311
     66 C         -44.9960  -15.4220   25.3610 C.2       1 NON         0.2039
     67 O         -44.9340  -15.7600   24.1810 O.2       1 NON        -0.3944
     68 CB        -46.9890  -15.8510   26.8090 C.3       1 NON        -0.0092
     69 CG        -47.9490  -15.9030   25.6390 C.3       1 NON        -0.0156
     70 CD        -48.9140  -14.7330   25.6790 C.3       1 NON         0.0627
     71 NE        -49.7330  -14.6780   26.8890 N.pl3     1 NON        -0.2723
     72 CZ        -50.1190  -13.5460   27.4800 C.cat     1 NON         0.2882
     73 NH1       -49.7560  -12.3680   26.9940 N.pl3     1 NON        -0.2849
     74 NH2       -50.8640  -13.5880   28.5730 N.pl3     1 NON        -0.2849
     75 N         -44.5390  -14.2630   25.7950 N.am      1 NON        -0.2637
     76 CA        -44.0840  -13.2370   24.8840 C.3       1 NON         0.1310
     77 C         -42.6680  -13.5370   24.4000 C.2       1 NON         0.2020
     78 O         -42.3020  -13.2480   23.2590 O.2       1 NON        -0.3945
     79 CB        -44.1230  -11.9080   25.6330 C.3       1 NON        -0.0092
     80 CG        -43.6360  -10.7060   24.8800 C.3       1 NON        -0.0156
     81 CD        -43.4090   -9.5260   25.8350 C.3       1 NON         0.0627
     82 NE        -42.2740   -8.7360   25.3760 N.pl3     1 NON        -0.2723
     83 CZ        -41.0600   -8.7600   25.9100 C.cat     1 NON         0.2882
     84 NH1       -40.8020   -9.5020   26.9580 N.pl3     1 NON        -0.2849
     85 NH2       -40.0970   -8.0210   25.4020 N.pl3     1 NON        -0.2849
     86 C         -40.8520  -16.7000   24.0040 C.2       1 NON         0.1802
     87 O         -40.3520  -16.6710   22.8810 O.2       1 NON        -0.3969
     88 CA        -40.2010  -15.9530   25.1620 C.3       1 NON         0.0606
     89 CB        -40.5060  -14.4600   25.0130 C.3       1 NON         0.0613
     90 N         -41.8890  -14.1490   25.2820 N.am      1 NON        -0.2795
     91 CG        -39.7740  -13.4640   25.9380 C.3       1 NON        -0.0189
     92 CD2       -39.2270  -13.9060   27.3070 C.3       1 NON        -0.0602
     93 CD1       -38.7080  -12.7280   25.1710 C.3       1 NON        -0.0511
     94 CE1       -39.2360  -11.3380   24.9540 C.3       1 NON        -0.0650
     95 N         -41.9640  -17.3800   24.2720 N.am      1 NON        -0.2682
     96 CA        -42.6540  -18.1450   23.2420 C.3       1 NON         0.1201
     97 C         -42.9480  -17.4470   21.9080 C.2       1 NON         0.2008
     98 O         -42.6750  -17.9990   20.8310 O.2       1 NON        -0.3947
     99 N         -43.5140  -16.2450   21.9650 N.am      1 NON        -0.2624
    100 CA        -43.9590  -15.5720   20.7510 C.3       1 NON         0.1423
    101 C         -42.8080  -15.0740   19.9030 C.2       1 NON         0.2056
    102 O         -42.9540  -14.8900   18.7000 O.2       1 NON        -0.3943
    103 CB        -44.9050  -14.4160   21.0750 C.3       1 NON         0.0406
    104 CG        -46.3070  -14.8880   21.4120 C.2       1 NON         0.0393
    105 OD1       -46.6260  -16.0680   21.1500 O.co2     1 NON        -0.5688
    106 OD2       -47.0880  -14.0730   21.9370 O.co2     1 NON        -0.5688
    107 N         -41.6640  -14.8660   20.5370 N.am      1 NON        -0.2635
    108 CA        -40.4850  -14.3500   19.8560 C.3       1 NON         0.1323
    109 C         -39.7940  -15.4880   19.1360 C.2       1 NON         0.2023
    110 O         -39.4470  -15.3750   17.9540 O.2       1 NON        -0.3945
    111 CB        -39.5200  -13.7220   20.8680 C.3       1 NON        -0.0008
    112 CG        -38.1260  -13.4210   20.3280 C.3       1 NON         0.0044
    113 CD        -37.3600  -12.4320   21.1950 C.2       1 NON         0.0350
    114 OE1       -37.6630  -11.2220   21.1260 O.co2     1 NON        -0.5690
    115 OE2       -36.4480  -12.8580   21.9430 O.co2     1 NON        -0.5690
    116 N         -39.5950  -16.5810   19.8690 N.am      1 NON        -0.2778
    117 CA        -38.9390  -17.7720   19.3510 C.3       1 NON         0.0682
    118 CB        -37.9900  -18.2990   20.4350 C.3       1 NON         0.0061
    119 CG        -37.3300  -19.6250   20.1280 C.ar      1 NON        -0.0407
    120 CD1       -36.1730  -19.6690   19.3610 C.ar      1 NON        -0.0603
    121 CE1       -35.5660  -20.8920   19.0890 C.ar      1 NON        -0.0686
    122 CH        -36.0930  -22.0740   19.5970 C.ar      1 NON        -0.0687
    123 CE2       -37.2460  -22.0310   20.3660 C.ar      1 NON        -0.0686
    124 CD2       -37.8520  -20.8130   20.6380 C.ar      1 NON        -0.0603
    125 CCC       -40.0160  -18.7960   19.0280 C.3       1 NON         0.0622
    126 C         -40.7310  -18.5110   17.7220 C.2       1 NON         0.1807
    127 O         -40.1300  -18.4670   16.6720 O.2       1 NON        -0.3968
    128 N         -42.0400  -18.3140   17.8240 N.am      1 NON        -0.2634
    129 CA        -42.9240  -18.0830   16.6900 C.3       1 NON         0.1475
    130 C         -42.5900  -16.9540   15.7100 C.2       1 NON         0.2062
    131 O         -42.8250  -17.0870   14.5030 O.2       1 NON        -0.3942
    132 CB        -44.3600  -17.9430   17.1840 C.3       1 NON         0.0773
    133 CG        -45.3760  -18.2970   16.1190 C.2       1 NON         0.1780
    134 OD1       -45.4980  -19.4540   15.7150 O.2       1 NON        -0.3970
    135 ND2       -46.1240  -17.3060   15.6740 N.am      1 NON        -0.3007
    136 N         -42.0460  -15.8540   16.2170 N.am      1 NON        -0.2639
    137 CA        -41.7520  -14.6980   15.3680 C.3       1 NON         0.1282
    138 C         -40.6690  -14.9540   14.3040 C.2       1 NON         0.2037
    139 O         -40.7510  -14.4360   13.1900 O.2       1 NON        -0.3944
    140 CB        -41.4060  -13.4740   16.2210 C.3       1 NON        -0.0244
    141 N         -39.6800  -15.7740   14.6310 N.am      1 NON        -0.2621
    142 CA        -38.5440  -15.9920   13.7410 C.3       1 NON         0.1389
    143 C         -38.1620  -17.4590   13.5240 C.2       1 NON         0.2040
    144 O         -37.2960  -17.7510   12.7070 O.2       1 NON        -0.3943
    145 CB        -37.3210  -15.2230   14.2640 C.3       1 NON         0.0163
    146 CG        -37.5400  -13.7200   14.3510 C.ar      1 NON        -0.0493
    147 CD1       -37.4150  -12.9040   13.2150 C.ar      1 NON        -0.0685
    148 CD2       -37.8760  -13.1120   15.5590 C.ar      1 NON        -0.0685
    149 CE1       -37.6270  -11.5130   13.2890 C.ar      1 NON        -0.0398
    150 CE2       -38.0870  -11.7300   15.6420 C.ar      1 NON        -0.0398
    151 CZ        -37.9580  -10.9370   14.5080 C.ar      1 NON         0.0805
    152 OH        -38.1630   -9.5780   14.5920 O.3       1 NON        -0.3376
    153 O         -41.3350  -19.7760   12.4180 O.2       1 NON        -0.3972
    154 C         -40.2620  -20.3310   12.6000 C.2       1 NON         0.1759
    155 CA        -39.7550  -20.5830   13.9910 C.3       1 NON         0.0616
    156 CB        -38.4690  -19.7890   14.1380 C.3       1 NON         0.0667
    157 N         -38.7860  -18.3740   14.2600 N.am      1 NON        -0.2779
    158 CG        -37.7420  -20.3020   15.3820 C.3       1 NON         0.0010
    159 CD        -36.3580  -19.7090   15.4790 C.ar      1 NON        -0.0514
    160 CE2       -35.2520  -20.4230   15.0160 C.ar      1 NON        -0.0687
    161 CF2       -33.9750  -19.8720   15.1110 C.ar      1 NON        -0.0398
    162 CZ        -33.8170  -18.6030   15.6690 C.ar      1 NON         0.0805
    163 OH        -32.5800  -18.0390   15.7670 O.3       1 NON        -0.3376
    164 CF1       -34.9210  -17.9030   16.1360 C.ar      1 NON        -0.0398
    165 CE1       -36.1930  -18.4540   16.0440 C.ar      1 NON        -0.0687
    166 N         -39.4720  -20.7430   11.6110 N.am      1 NON        -0.3008
    167 H         -50.7402  -14.0442   35.4176 H         1 NON         0.2015
    168 H         -50.2119  -15.5536   34.9492 H         1 NON         0.2015
    169 H         -51.0778  -15.3752   36.3617 H         1 NON         0.2015
    170 H         -49.4403  -14.0988   37.3169 H         1 NON         0.1101
    171 H         -49.4165  -16.7441   37.1322 H         1 NON         0.0378
    172 H         -48.5598  -15.5803   39.0764 H         1 NON         0.0269
    173 H         -47.0557  -15.1287   38.1716 H         1 NON         0.0269
    174 H         -46.7257  -16.0112   35.9349 H         1 NON         0.0236
    175 H         -47.2204  -17.6400   36.4577 H         1 NON         0.0236
    176 H         -48.0517  -16.8515   35.0945 H         1 NON         0.0236
    177 H         -47.9214  -17.8958   38.9503 H         1 NON         0.0230
    178 H         -46.4436  -17.4521   38.0613 H         1 NON         0.0230
    179 H         -46.6623  -16.9203   39.7466 H         1 NON         0.0230
    180 H         -46.7603  -13.8897   37.4093 H         1 NON         0.1859
    181 H         -46.8650  -12.4647   34.7280 H         1 NON         0.0595
    182 H         -46.0258  -10.3874   36.0028 H         1 NON         0.0373
    183 H         -46.6873  -11.2661   37.4790 H         1 NON         0.0373
    184 H         -48.7944  -11.9127   38.6532 H         1 NON         0.0540
    185 H         -51.0867  -11.8398   39.5776 H         1 NON         0.0510
    186 H         -52.8845  -10.6167   38.4048 H         1 NON         0.0530
    187 H         -52.4457   -9.4216   36.2877 H         1 NON         0.0541
    188 H         -50.3358   -8.8869   34.4598 H         1 NON         0.2216
    189 H         -47.8122   -9.4525   34.2552 H         1 NON         0.0795
    190 H         -44.6007  -12.8510   36.6743 H         1 NON         0.0526
    191 H         -44.5350  -11.7433   35.1943 H         1 NON         0.0526
    192 H         -44.7578  -15.1059   36.3436 H         1 NON         0.1883
    193 H         -42.7675  -15.8188   34.4643 H         1 NON         0.0803
    194 H         -44.6928  -17.5419   36.0531 H         1 NON         0.0345
    195 H         -42.9005  -16.0555   37.1244 H         1 NON         0.0267
    196 H         -41.7147  -17.2312   36.3918 H         1 NON         0.0267
    197 H         -43.9934  -18.7867   34.0772 H         1 NON         0.0235
    198 H         -42.2887  -18.4132   34.4312 H         1 NON         0.0235
    199 H         -43.2257  -19.4380   35.5461 H         1 NON         0.0235
    200 H         -43.9063  -17.8813   38.3731 H         1 NON         0.0230
    201 H         -42.7483  -19.0294   37.6576 H         1 NON         0.0230
    202 H         -42.1697  -17.7403   38.7414 H         1 NON         0.0230
    203 H         -46.2955  -16.2610   34.2701 H         1 NON         0.1883
    204 H         -46.0994  -17.9886   31.9835 H         1 NON         0.0797
    205 H         -48.0488  -18.0360   33.4696 H         1 NON         0.0277
    206 H         -48.4492  -16.3585   33.0259 H         1 NON         0.0277
    207 H         -48.5587  -17.6522   31.8071 H         1 NON         0.0277
    208 H         -46.5921  -14.5085   32.3355 H         1 NON         0.1883
    209 H         -47.0857  -14.1839   29.4487 H         1 NON         0.0801
    210 H         -47.3286  -11.8682   29.9157 H         1 NON         0.0337
    211 H         -46.6149  -12.0834   31.5579 H         1 NON         0.0337
    212 H         -48.4729  -13.2688   32.3211 H         1 NON         0.0504
    213 H         -49.1139  -13.4861   30.6347 H         1 NON         0.0504
    214 H         -51.3709  -10.9331   31.3922 H         1 NON         0.1814
    215 H         -51.1265  -12.6568   31.0916 H         1 NON         0.1814
    216 H         -44.2883  -14.2628   31.6081 H         1 NON         0.1856
    217 H         -43.1215  -12.7103   29.3266 H         1 NON         0.0582
    218 H         -41.1962  -12.4053   31.2673 H         1 NON         0.0307
    219 H         -42.8263  -12.2576   32.1563 H         1 NON         0.0307
    220 H         -41.8519  -10.1519   31.6286 H         1 NON         0.0431
    221 H         -43.4000  -10.4956   30.6846 H         1 NON         0.0431
    222 H         -41.7534  -14.7809   31.1085 H         1 NON         0.0525
    223 H         -40.9112  -13.8187   29.7974 H         1 NON         0.0525
    224 H         -43.0572  -16.4873   30.5715 H         1 NON         0.1883
    225 H         -41.9747  -18.0139   28.5059 H         1 NON         0.0800
    226 H         -43.9296  -19.5602   28.8788 H         1 NON         0.0315
    227 H         -44.5307  -18.2918   30.0788 H         1 NON         0.0315
    228 H         -42.4432  -18.6579   31.3416 H         1 NON         0.0298
    229 H         -44.5583  -19.7211   31.9477 H         1 NON         0.0232
    230 H         -44.1888  -21.0845   30.8634 H         1 NON         0.0232
    231 H         -43.1771  -20.7890   32.2987 H         1 NON         0.0232
    232 H         -42.0823  -20.9809   29.4371 H         1 NON         0.0232
    233 H         -41.0575  -19.5280   29.5380 H         1 NON         0.0232
    234 H         -41.1258  -20.6662   30.9058 H         1 NON         0.0232
    235 H         -44.9008  -15.9781   28.4449 H         1 NON         0.1883
    236 H         -45.6792  -17.3295   25.9805 H         1 NON         0.0800
    237 H         -46.9091  -14.8153   27.1391 H         1 NON         0.0313
    238 H         -47.3736  -16.5007   27.5952 H         1 NON         0.0313
    239 H         -48.5194  -16.8302   25.6942 H         1 NON         0.0301
    240 H         -47.3763  -15.8538   24.7129 H         1 NON         0.0301
    241 H         -49.5932  -14.8453   24.8339 H         1 NON         0.0689
    242 H         -48.3176  -13.8211   25.6508 H         1 NON         0.0689
    243 H         -50.0276  -15.5603   27.3074 H         1 NON         0.2642
    244 H         -49.1741  -12.3187   26.1577 H         1 NON         0.2615
    245 H         -50.0584  -11.5105   27.4562 H         1 NON         0.2615
    246 H         -51.1441  -14.4870   28.9650 H         1 NON         0.2615
    247 H         -51.1581  -12.7213   29.0234 H         1 NON         0.2615
    248 H         -44.5059  -14.0864   26.7990 H         1 NON         0.1883
    249 H         -44.7267  -13.1982   24.0045 H         1 NON         0.0800
    250 H         -43.4558  -12.0216   26.4874 H         1 NON         0.0313
    251 H         -45.1720  -11.7188   25.8608 H         1 NON         0.0313
    252 H         -44.3866  -10.4236   24.1417 H         1 NON         0.0301
    253 H         -42.6927  -10.9527   24.3928 H         1 NON         0.0301
    254 H         -43.2048   -9.9050   26.8364 H         1 NON         0.0689
    255 H         -44.3011   -8.9000   25.8552 H         1 NON         0.0689
    256 H         -42.4250   -8.1152   24.5809 H         1 NON         0.2642
    257 H         -41.5392  -10.0711   27.3739 H         1 NON         0.2615
    258 H         -39.8638   -9.5107   27.3582 H         1 NON         0.2615
    259 H         -40.2825   -7.4264   24.5942 H         1 NON         0.2615
    260 H         -39.1650   -8.0427   25.8160 H         1 NON         0.2615
    261 H         -39.1232  -16.1148   25.1490 H         1 NON         0.0525
    262 H         -40.5961  -16.3198   26.1093 H         1 NON         0.0525
    263 H         -40.1735  -14.3266   23.9836 H         1 NON         0.0584
    264 H         -42.2831  -14.4100   26.1859 H         1 NON         0.1856
    265 H         -40.6089  -12.8358   26.2484 H         1 NON         0.0322
    266 H         -40.0482  -14.2691   27.9249 H         1 NON         0.0233
    267 H         -38.4974  -14.7032   27.1651 H         1 NON         0.0233
    268 H         -38.7494  -13.0576   27.7971 H         1 NON         0.0233
    269 H         -38.4938  -13.2207   24.2226 H         1 NON         0.0266
    270 H         -37.7674  -12.7107   25.7215 H         1 NON         0.0266
    271 H         -40.1654  -11.3882   24.3867 H         1 NON         0.0230
    272 H         -39.4228  -10.8669   25.9190 H         1 NON         0.0230
    273 H         -38.5014  -10.7542   24.3994 H         1 NON         0.0230
    274 H         -42.3415  -17.3653   25.2194 H         1 NON         0.1880
    275 H         -43.6292  -18.3875   23.6643 H         1 NON         0.0763
    276 H         -41.9862  -18.9709   22.9969 H         1 NON         0.0763
    277 H         -43.6382  -15.7887   22.8687 H         1 NON         0.1884
    278 H         -44.4956  -16.3211   20.1687 H         1 NON         0.0819
    279 H         -44.9684  -13.7769   20.1943 H         1 NON         0.0478
    280 H         -44.5090  -13.8916   21.9447 H         1 NON         0.0478
    281 H         -41.6070  -15.0739   21.5340 H         1 NON         0.1883
    282 H         -40.7882  -13.5857   19.1404 H         1 NON         0.0801
    283 H         -39.3958  -14.4445   21.6746 H         1 NON         0.0330
    284 H         -39.9544  -12.7681   21.1670 H         1 NON         0.0330
    285 H         -38.2392  -12.9797   19.3378 H         1 NON         0.0433
    286 H         -37.5650  -14.3554   20.3114 H         1 NON         0.0433
    287 H         -39.9167  -16.5838   20.8369 H         1 NON         0.1858
    288 H         -38.3653  -17.5615   18.4484 H         1 NON         0.0604
    289 H         -38.5927  -18.4505   21.3305 H         1 NON         0.0450
    290 H         -37.1886  -17.5665   20.5310 H         1 NON         0.0450
    291 H         -35.7407  -18.7470   18.9724 H         1 NON         0.0557
    292 H         -34.6684  -20.9232   18.4714 H         1 NON         0.0599
    293 H         -35.6039  -23.0264   19.3925 H         1 NON         0.0559
    294 H         -37.6759  -22.9534   20.7565 H         1 NON         0.0599
    295 H         -38.7478  -20.7844   21.2584 H         1 NON         0.0557
    296 H         -40.7570  -18.7620   19.8267 H         1 NON         0.0527
    297 H         -39.5329  -19.7688   18.9368 H         1 NON         0.0527
    298 H         -42.4530  -18.3252   18.7566 H         1 NON         0.1884
    299 H         -42.7696  -18.9708   16.0768 H         1 NON         0.0826
    300 H         -44.5184  -16.9025   17.4675 H         1 NON         0.0551
    301 H         -44.4965  -18.6285   18.0204 H         1 NON         0.0551
    302 H         -46.8377  -17.4833   14.9672 H         1 NON         0.1814
    303 H         -45.9888  -16.3623   16.0367 H         1 NON         0.1814
    304 H         -41.8297  -15.8137   17.2130 H         1 NON         0.1883
    305 H         -42.6665  -14.5014   14.8084 H         1 NON         0.0797
    306 H         -42.2504  -13.2322   16.8665 H         1 NON         0.0277
    307 H         -40.5310  -13.6944   16.8325 H         1 NON         0.0277
    308 H         -41.1913  -12.6273   15.5690 H         1 NON         0.0277
    309 H         -39.7137  -16.2638   15.5251 H         1 NON         0.1885
    310 H         -38.8655  -15.6211   12.7678 H         1 NON         0.0821
    311 H         -36.5028  -15.3946   13.5646 H         1 NON         0.0453
    312 H         -37.1147  -15.5826   15.2721 H         1 NON         0.0453
    313 H         -37.1492  -13.3548   12.2588 H         1 NON         0.0530
    314 H         -37.9765  -13.7233   16.4558 H         1 NON         0.0530
    315 H         -37.5319  -10.8944   12.3966 H         1 NON         0.0525
    316 H         -38.3526  -11.2760   16.5967 H         1 NON         0.0525
    317 H         -39.0584   -9.4086   14.8940 H         1 NON         0.2458
    318 H         -39.5754  -21.6460   14.1520 H         1 NON         0.0527
    319 H         -40.4897  -20.2729   14.7340 H         1 NON         0.0527
    320 H         -37.8269  -19.9133   13.2660 H         1 NON         0.0601
    321 H         -39.5016  -18.0779   14.9238 H         1 NON         0.1858
    322 H         -37.6550  -21.3865   15.3151 H         1 NON         0.0429
    323 H         -38.3107  -20.0115   16.2653 H         1 NON         0.0429
    324 H         -35.3868  -21.4127   14.5796 H         1 NON         0.0530
    325 H         -33.1082  -20.4273   14.7527 H         1 NON         0.0525
    326 H         -32.1990  -17.9516   14.8902 H         1 NON         0.2458
    327 H         -34.7891  -16.9152   16.5775 H         1 NON         0.0525
    328 H         -37.0570  -17.9022   16.4143 H         1 NON         0.0530
    329 H         -39.7529  -20.6005   10.6408 H         1 NON         0.1814
    330 H         -38.5858  -21.2012   11.8233 H         1 NON         0.1814
@<TRIPOS>BOND
     1    2    1 1  
     2    3    2 1  
     3    2    5 1  
     4    3    4 2  
     5    9    3 am 
     6    5    6 1  
     7    5    7 1  
     8    6    8 1  
     9   10    9 1  
    10   10   11 1  
    11   21   10 1  
    12   11   12 1  
    13   12   13 1  
    14   12   20 2  
    15   13   14 ar 
    16   13   18 ar 
    17   14   15 ar 
    18   15   16 ar 
    19   17   16 ar 
    20   18   17 ar 
    21   19   18 1  
    22   20   19 1  
    23   22   21 1  
    24   22   23 2  
    25   24   22 am 
    26   25   24 1  
    27   26   25 1  
    28   25   28 1  
    29   26   27 2  
    30   32   26 am 
    31   28   29 1  
    32   28   30 1  
    33   29   31 1  
    34   33   32 1  
    35   34   33 1  
    36   33   36 1  
    37   34   35 2  
    38   37   34 am 
    39   38   37 1  
    40   39   38 1  
    41   38   41 1  
    42   39   40 2  
    43   46   39 am 
    44   41   42 1  
    45   42   43 1  
    46   43   44 2  
    47   43   45 am 
    48   47   46 1  
    49   47   48 1  
    50   53   47 1  
    51   48   49 1  
    52   49   50 1  
    53   50   51 ar 
    54   50   52 ar 
    55   54   53 1  
    56   54   55 2  
    57   56   54 am 
    58   57   56 1  
    59   58   57 1  
    60   57   60 1  
    61   58   59 2  
    62   64   58 am 
    63   60   61 1  
    64   61   62 1  
    65   61   63 1  
    66   65   64 1  
    67   66   65 1  
    68   65   68 1  
    69   66   67 2  
    70   75   66 am 
    71   68   69 1  
    72   69   70 1  
    73   70   71 1  
    74   71   72 ar 
    75   72   73 ar 
    76   72   74 ar 
    77   76   75 1  
    78   77   76 1  
    79   76   79 1  
    80   77   78 2  
    81   90   77 am 
    82   79   80 1  
    83   80   81 1  
    84   81   82 1  
    85   82   83 ar 
    86   83   84 ar 
    87   83   85 ar 
    88   86   87 2  
    89   86   88 1  
    90   95   86 am 
    91   88   89 1  
    92   89   90 1  
    93   89   91 1  
    94   91   92 1  
    95   91   93 1  
    96   93   94 1  
    97   96   95 1  
    98   97   96 1  
    99   97   98 2  
   100   99   97 am 
   101  100   99 1  
   102  101  100 1  
   103  100  103 1  
   104  101  102 2  
   105  107  101 am 
   106  103  104 1  
   107  104  105 ar 
   108  104  106 ar 
   109  108  107 1  
   110  109  108 1  
   111  108  111 1  
   112  109  110 2  
   113  116  109 am 
   114  111  112 1  
   115  112  113 1  
   116  113  114 ar 
   117  113  115 ar 
   118  117  116 1  
   119  117  118 1  
   120  125  117 1  
   121  118  119 1  
   122  119  120 ar 
   123  119  124 ar 
   124  120  121 ar 
   125  121  122 ar 
   126  123  122 ar 
   127  124  123 ar 
   128  126  125 1  
   129  126  127 2  
   130  128  126 am 
   131  129  128 1  
   132  130  129 1  
   133  129  132 1  
   134  130  131 2  
   135  136  130 am 
   136  132  133 1  
   137  133  134 2  
   138  133  135 am 
   139  137  136 1  
   140  138  137 1  
   141  137  140 1  
   142  138  139 2  
   143  141  138 am 
   144  142  141 1  
   145  143  142 1  
   146  142  145 1  
   147  143  144 2  
   148  157  143 am 
   149  145  146 1  
   150  146  147 ar 
   151  146  148 ar 
   152  147  149 ar 
   153  148  150 ar 
   154  149  151 ar 
   155  150  151 ar 
   156  151  152 1  
   157  154  153 2  
   158  155  154 1  
   159  154  166 am 
   160  156  155 1  
   161  156  157 1  
   162  156  158 1  
   163  158  159 1  
   164  159  160 ar 
   165  159  165 ar 
   166  160  161 ar 
   167  161  162 ar 
   168  162  163 1  
   169  162  164 ar 
   170  164  165 ar 
   171    1  167 1  
   172    1  168 1  
   173    1  169 1  
   174    2  170 1  
   175    5  171 1  
   176    6  172 1  
   177    6  173 1  
   178    7  174 1  
   179    7  175 1  
   180    7  176 1  
   181    8  177 1  
   182    8  178 1  
   183    8  179 1  
   184    9  180 1  
   185   10  181 1  
   186   11  182 1  
   187   11  183 1  
   188   14  184 1  
   189   15  185 1  
   190   16  186 1  
   191   17  187 1  
   192   19  188 1  
   193   20  189 1  
   194   21  190 1  
   195   21  191 1  
   196   24  192 1  
   197   25  193 1  
   198   28  194 1  
   199   29  195 1  
   200   29  196 1  
   201   30  197 1  
   202   30  198 1  
   203   30  199 1  
   204   31  200 1  
   205   31  201 1  
   206   31  202 1  
   207   32  203 1  
   208   33  204 1  
   209   36  205 1  
   210   36  206 1  
   211   36  207 1  
   212   37  208 1  
   213   38  209 1  
   214   41  210 1  
   215   41  211 1  
   216   42  212 1  
   217   42  213 1  
   218   45  214 1  
   219   45  215 1  
   220   46  216 1  
   221   47  217 1  
   222   48  218 1  
   223   48  219 1  
   224   49  220 1  
   225   49  221 1  
   226   53  222 1  
   227   53  223 1  
   228   56  224 1  
   229   57  225 1  
   230   60  226 1  
   231   60  227 1  
   232   61  228 1  
   233   62  229 1  
   234   62  230 1  
   235   62  231 1  
   236   63  232 1  
   237   63  233 1  
   238   63  234 1  
   239   64  235 1  
   240   65  236 1  
   241   68  237 1  
   242   68  238 1  
   243   69  239 1  
   244   69  240 1  
   245   70  241 1  
   246   70  242 1  
   247   71  243 1  
   248   73  244 1  
   249   73  245 1  
   250   74  246 1  
   251   74  247 1  
   252   75  248 1  
   253   76  249 1  
   254   79  250 1  
   255   79  251 1  
   256   80  252 1  
   257   80  253 1  
   258   81  254 1  
   259   81  255 1  
   260   82  256 1  
   261   84  257 1  
   262   84  258 1  
   263   85  259 1  
   264   85  260 1  
   265   88  261 1  
   266   88  262 1  
   267   89  263 1  
   268   90  264 1  
   269   91  265 1  
   270   92  266 1  
   271   92  267 1  
   272   92  268 1  
   273   93  269 1  
   274   93  270 1  
   275   94  271 1  
   276   94  272 1  
   277   94  273 1  
   278   95  274 1  
   279   96  275 1  
   280   96  276 1  
   281   99  277 1  
   282  100  278 1  
   283  103  279 1  
   284  103  280 1  
   285  107  281 1  
   286  108  282 1  
   287  111  283 1  
   288  111  284 1  
   289  112  285 1  
   290  112  286 1  
   291  116  287 1  
   292  117  288 1  
   293  118  289 1  
   294  118  290 1  
   295  120  291 1  
   296  121  292 1  
   297  122  293 1  
   298  123  294 1  
   299  124  295 1  
   300  125  296 1  
   301  125  297 1  
   302  128  298 1  
   303  129  299 1  
   304  132  300 1  
   305  132  301 1  
   306  135  302 1  
   307  135  303 1  
   308  136  304 1  
   309  137  305 1  
   310  140  306 1  
   311  140  307 1  
   312  140  308 1  
   313  141  309 1  
   314  142  310 1  
   315  145  311 1  
   316  145  312 1  
   317  147  313 1  
   318  148  314 1  
   319  149  315 1  
   320  150  316 1  
   321  152  317 1  
   322  155  318 1  
   323  155  319 1  
   324  156  320 1  
   325  157  321 1  
   326  158  322 1  
   327  158  323 1  
   328  160  324 1  
   329  161  325 1  
   330  163  326 1  
   331  164  327 1  
   332  165  328 1  
   333  166  329 1  
   334  166  330 1  
@<TRIPOS>SUBSTRUCTURE
     1 NON         1

