4a1w_ligand
  -I-interpret- 

330334  0  0  0  0  0  0  0  0999 V2000
  -50.3880  -14.9430   35.7470 N   0  3  0  0  0
  -49.1430  -14.7360   36.4840 C   0  0  0  0  0
  -48.0440  -13.9600   35.7260 C   0  0  0  0  0
  -48.1170  -13.7420   34.5090 O   0  0  0  0  0
  -48.5590  -16.0820   37.0120 C   0  0  0  0  0
  -47.8280  -15.8820   38.3270 C   0  0  0  0  0
  -47.5710  -16.6880   36.0590 C   0  0  0  0  0
  -47.1700  -17.1200   38.8030 C   0  0  0  0  0
  -47.0420  -13.5360   36.4950 N   0  0  0  0  0
  -46.4430  -12.4550   35.7330 C   0  0  0  0  0
  -46.7450  -11.1020   36.4030 C   0  0  0  0  0
  -48.1120  -10.5400   36.1250 C   0  0  0  0  0
  -49.2960  -10.7000   36.9260 C   0  0  0  0  0
  -49.5790  -11.3670   38.1290 C   0  0  0  0  0
  -50.8640  -11.3250   38.6430 C   0  0  0  0  0
  -51.8820  -10.6290   37.9770 C   0  0  0  0  0
  -51.6490   -9.9620   36.7990 C   0  0  0  0  0
  -50.3390  -10.0030   36.2760 C   0  0  0  0  0
  -49.8180   -9.4470   35.1370 N   0  0  0  0  0
  -48.4810   -9.7680   35.0560 C   0  0  0  0  0
  -44.9340  -12.6460   35.6570 C   0  0  0  0  0
  -44.4510  -13.8050   34.8110 C   0  0  0  0  0
  -44.1160  -13.6360   33.6400 O   0  0  0  0  0
  -44.3830  -14.9910   35.4020 N   0  0  0  0  0
  -43.7780  -16.1360   34.7220 C   0  0  0  0  0
  -44.4690  -16.5050   33.4130 C   0  0  0  0  0
  -43.8050  -16.7000   32.3960 O   0  0  0  0  0
  -43.7020  -17.3530   35.6400 C   0  0  0  0  0
  -42.7210  -17.0740   36.7800 C   0  0  0  0  0
  -43.2720  -18.5850   34.8690 C   0  0  0  0  0
  -42.8990  -17.9970   37.9730 C   0  0  0  0  0
  -45.7970  -16.5630   33.4330 N   0  0  0  0  0
  -46.5590  -17.0480   32.2870 C   0  0  0  0  0
  -46.4890  -16.1140   31.0940 C   0  0  0  0  0
  -46.4060  -16.5680   29.9470 O   0  0  0  0  0
  -48.0070  -17.2910   32.6750 C   0  0  0  0  0
  -46.5410  -14.8120   31.3630 N   0  0  0  0  0
  -46.5270  -13.8040   30.3040 C   0  0  0  0  0
  -45.1080  -13.5420   29.8250 C   0  0  0  0  0
  -44.8940  -13.1560   28.6780 O   0  0  0  0  0
  -47.2190  -12.5350   30.7710 C   0  0  0  0  0
  -48.6020  -12.8250   31.3340 C   0  0  0  0  0
  -49.4440  -11.5830   31.4940 C   0  0  0  0  0
  -48.9290  -10.4910   31.7630 O   0  0  0  0  0
  -50.7470  -11.7360   31.3120 N   0  0  0  0  0
  -44.1530  -13.7670   30.7270 N   0  0  0  0  0
  -42.8760  -13.1980   30.2700 C   0  0  0  0  0
  -42.2600  -12.1710   31.2290 C   0  0  0  0  0
  -42.3430  -10.7150   30.8350 C   0  0  0  0  0
  -41.6370  -10.3410   29.5410 C   0  0  0  0  0
  -40.3760  -10.2800   29.4590 O   0  0  0  0  0
  -42.3800  -10.0700   28.5790 O   0  0  0  0  0
  -41.8320  -14.2930   30.1370 C   0  0  0  0  0
  -42.1830  -15.3770   29.1160 C   0  0  0  0  0
  -41.9340  -15.2000   27.9220 O   0  0  0  0  0
  -42.7560  -16.4800   29.5970 N   0  0  0  0  0
  -42.9720  -17.6790   28.7910 C   0  0  0  0  0
  -43.7590  -17.4140   27.5380 C   0  0  0  0  0
  -43.4680  -18.0100   26.5150 O   0  0  0  0  0
  -43.6830  -18.7710   29.5890 C   0  0  0  0  0
  -42.8630  -19.4260   30.6920 C   0  0  0  0  0
  -43.7590  -20.3170   31.5070 C   0  0  0  0  0
  -41.6990  -20.2060   30.1010 C   0  0  0  0  0
  -44.7440  -16.5230   27.5970 N   0  0  0  0  0
  -45.5980  -16.3380   26.4260 C   0  0  0  0  0
  -44.9960  -15.4220   25.3610 C   0  0  0  0  0
  -44.9340  -15.7600   24.1810 O   0  0  0  0  0
  -46.9890  -15.8510   26.8090 C   0  0  0  0  0
  -47.9490  -15.9030   25.6390 C   0  0  0  0  0
  -48.9140  -14.7330   25.6790 C   0  0  0  0  0
  -49.7330  -14.6780   26.8890 N   0  0  0  0  0
  -50.1190  -13.5460   27.4800 C   0  0  0  0  0
  -49.7560  -12.3680   26.9940 N   0  0  0  0  0
  -50.8640  -13.5880   28.5730 N   0  0  0  0  0
  -44.5390  -14.2630   25.7950 N   0  0  0  0  0
  -44.0840  -13.2370   24.8840 C   0  0  0  0  0
  -42.6680  -13.5370   24.4000 C   0  0  0  0  0
  -42.3020  -13.2480   23.2590 O   0  0  0  0  0
  -44.1230  -11.9080   25.6330 C   0  0  0  0  0
  -43.6360  -10.7060   24.8800 C   0  0  0  0  0
  -43.4090   -9.5260   25.8350 C   0  0  0  0  0
  -42.2740   -8.7360   25.3760 N   0  0  0  0  0
  -41.0600   -8.7600   25.9100 C   0  0  0  0  0
  -40.8020   -9.5020   26.9580 N   0  0  0  0  0
  -40.0970   -8.0210   25.4020 N   0  0  0  0  0
  -40.8520  -16.7000   24.0040 C   0  0  0  0  0
  -40.3520  -16.6710   22.8810 O   0  0  0  0  0
  -40.2010  -15.9530   25.1620 C   0  0  0  0  0
  -40.5060  -14.4600   25.0130 C   0  0  0  0  0
  -41.8890  -14.1490   25.2820 N   0  0  0  0  0
  -39.7740  -13.4640   25.9380 C   0  0  0  0  0
  -39.2270  -13.9060   27.3070 C   0  0  0  0  0
  -38.7080  -12.7280   25.1710 C   0  0  0  0  0
  -39.2360  -11.3380   24.9540 C   0  0  0  0  0
  -41.9640  -17.3800   24.2720 N   0  0  0  0  0
  -42.6540  -18.1450   23.2420 C   0  0  0  0  0
  -42.9480  -17.4470   21.9080 C   0  0  0  0  0
  -42.6750  -17.9990   20.8310 O   0  0  0  0  0
  -43.5140  -16.2450   21.9650 N   0  0  0  0  0
  -43.9590  -15.5720   20.7510 C   0  0  0  0  0
  -42.8080  -15.0740   19.9030 C   0  0  0  0  0
  -42.9540  -14.8900   18.7000 O   0  0  0  0  0
  -44.9050  -14.4160   21.0750 C   0  0  0  0  0
  -46.3070  -14.8880   21.4120 C   0  0  0  0  0
  -46.6260  -16.0680   21.1500 O   0  0  0  0  0
  -47.0880  -14.0730   21.9370 O   0  0  0  0  0
  -41.6640  -14.8660   20.5370 N   0  0  0  0  0
  -40.4850  -14.3500   19.8560 C   0  0  0  0  0
  -39.7940  -15.4880   19.1360 C   0  0  0  0  0
  -39.4470  -15.3750   17.9540 O   0  0  0  0  0
  -39.5200  -13.7220   20.8680 C   0  0  0  0  0
  -38.1260  -13.4210   20.3280 C   0  0  0  0  0
  -37.3600  -12.4320   21.1950 C   0  0  0  0  0
  -37.6630  -11.2220   21.1260 O   0  0  0  0  0
  -36.4480  -12.8580   21.9430 O   0  0  0  0  0
  -39.5950  -16.5810   19.8690 N   0  0  0  0  0
  -38.9390  -17.7720   19.3510 C   0  0  0  0  0
  -37.9900  -18.2990   20.4350 C   0  0  0  0  0
  -37.3300  -19.6250   20.1280 C   0  0  0  0  0
  -36.1730  -19.6690   19.3610 C   0  0  0  0  0
  -35.5660  -20.8920   19.0890 C   0  0  0  0  0
  -36.0930  -22.0740   19.5970 C   0  0  0  0  0
  -37.2460  -22.0310   20.3660 C   0  0  0  0  0
  -37.8520  -20.8130   20.6380 C   0  0  0  0  0
  -40.0160  -18.7960   19.0280 C   0  0  0  0  0
  -40.7310  -18.5110   17.7220 C   0  0  0  0  0
  -40.1300  -18.4670   16.6720 O   0  0  0  0  0
  -42.0400  -18.3140   17.8240 N   0  0  0  0  0
  -42.9240  -18.0830   16.6900 C   0  0  0  0  0
  -42.5900  -16.9540   15.7100 C   0  0  0  0  0
  -42.8250  -17.0870   14.5030 O   0  0  0  0  0
  -44.3600  -17.9430   17.1840 C   0  0  0  0  0
  -45.3760  -18.2970   16.1190 C   0  0  0  0  0
  -45.4980  -19.4540   15.7150 O   0  0  0  0  0
  -46.1240  -17.3060   15.6740 N   0  0  0  0  0
  -42.0460  -15.8540   16.2170 N   0  0  0  0  0
  -41.7520  -14.6980   15.3680 C   0  0  0  0  0
  -40.6690  -14.9540   14.3040 C   0  0  0  0  0
  -40.7510  -14.4360   13.1900 O   0  0  0  0  0
  -41.4060  -13.4740   16.2210 C   0  0  0  0  0
  -39.6800  -15.7740   14.6310 N   0  0  0  0  0
  -38.5440  -15.9920   13.7410 C   0  0  0  0  0
  -38.1620  -17.4590   13.5240 C   0  0  0  0  0
  -37.2960  -17.7510   12.7070 O   0  0  0  0  0
  -37.3210  -15.2230   14.2640 C   0  0  0  0  0
  -37.5400  -13.7200   14.3510 C   0  0  0  0  0
  -37.4150  -12.9040   13.2150 C   0  0  0  0  0
  -37.8760  -13.1120   15.5590 C   0  0  0  0  0
  -37.6270  -11.5130   13.2890 C   0  0  0  0  0
  -38.0870  -11.7300   15.6420 C   0  0  0  0  0
  -37.9580  -10.9370   14.5080 C   0  0  0  0  0
  -38.1630   -9.5780   14.5920 O   0  0  0  0  0
  -41.3350  -19.7760   12.4180 O   0  0  0  0  0
  -40.2620  -20.3310   12.6000 C   0  0  0  0  0
  -39.7550  -20.5830   13.9910 C   0  0  0  0  0
  -38.4690  -19.7890   14.1380 C   0  0  0  0  0
  -38.7860  -18.3740   14.2600 N   0  0  0  0  0
  -37.7420  -20.3020   15.3820 C   0  0  0  0  0
  -36.3580  -19.7090   15.4790 C   0  0  0  0  0
  -35.2520  -20.4230   15.0160 C   0  0  0  0  0
  -33.9750  -19.8720   15.1110 C   0  0  0  0  0
  -33.8170  -18.6030   15.6690 C   0  0  0  0  0
  -32.5800  -18.0390   15.7670 O   0  0  0  0  0
  -34.9210  -17.9030   16.1360 C   0  0  0  0  0
  -36.1930  -18.4540   16.0440 C   0  0  0  0  0
  -39.4720  -20.7430   11.6110 N   0  0  0  0  0
  -50.7402  -14.0442   35.4176 H   0  0  0  0  0
  -50.2119  -15.5536   34.9492 H   0  0  0  0  0
  -51.0778  -15.3752   36.3617 H   0  0  0  0  0
  -49.4403  -14.0988   37.3169 H   0  0  0  0  0
  -49.4165  -16.7441   37.1322 H   0  0  0  0  0
  -48.5598  -15.5803   39.0764 H   0  0  0  0  0
  -47.0557  -15.1287   38.1716 H   0  0  0  0  0
  -46.7257  -16.0112   35.9349 H   0  0  0  0  0
  -47.2204  -17.6400   36.4577 H   0  0  0  0  0
  -48.0517  -16.8515   35.0945 H   0  0  0  0  0
  -47.9214  -17.8958   38.9503 H   0  0  0  0  0
  -46.4436  -17.4521   38.0613 H   0  0  0  0  0
  -46.6623  -16.9203   39.7466 H   0  0  0  0  0
  -46.7603  -13.8897   37.4093 H   0  0  0  0  0
  -46.8650  -12.4647   34.7280 H   0  0  0  0  0
  -46.0258  -10.3874   36.0028 H   0  0  0  0  0
  -46.6873  -11.2661   37.4790 H   0  0  0  0  0
  -48.7944  -11.9127   38.6532 H   0  0  0  0  0
  -51.0867  -11.8398   39.5776 H   0  0  0  0  0
  -52.8845  -10.6167   38.4048 H   0  0  0  0  0
  -52.4457   -9.4216   36.2877 H   0  0  0  0  0
  -47.8122   -9.4525   34.2552 H   0  0  0  0  0
  -44.6007  -12.8510   36.6743 H   0  0  0  0  0
  -44.5350  -11.7433   35.1943 H   0  0  0  0  0
  -44.7578  -15.1059   36.3436 H   0  0  0  0  0
  -42.7675  -15.8188   34.4643 H   0  0  0  0  0
  -44.6928  -17.5419   36.0531 H   0  0  0  0  0
  -42.9005  -16.0555   37.1244 H   0  0  0  0  0
  -41.7147  -17.2312   36.3918 H   0  0  0  0  0
  -43.9934  -18.7867   34.0772 H   0  0  0  0  0
  -42.2887  -18.4132   34.4312 H   0  0  0  0  0
  -43.2257  -19.4380   35.5461 H   0  0  0  0  0
  -43.9063  -17.8813   38.3731 H   0  0  0  0  0
  -42.7483  -19.0294   37.6576 H   0  0  0  0  0
  -42.1697  -17.7403   38.7414 H   0  0  0  0  0
  -46.2955  -16.2610   34.2701 H   0  0  0  0  0
  -46.0994  -17.9886   31.9835 H   0  0  0  0  0
  -48.0488  -18.0360   33.4696 H   0  0  0  0  0
  -48.4492  -16.3585   33.0259 H   0  0  0  0  0
  -48.5587  -17.6522   31.8071 H   0  0  0  0  0
  -46.5921  -14.5085   32.3355 H   0  0  0  0  0
  -47.0857  -14.1839   29.4487 H   0  0  0  0  0
  -47.3286  -11.8682   29.9157 H   0  0  0  0  0
  -46.6149  -12.0834   31.5579 H   0  0  0  0  0
  -48.4729  -13.2688   32.3211 H   0  0  0  0  0
  -49.1139  -13.4861   30.6347 H   0  0  0  0  0
  -51.3709  -10.9331   31.3922 H   0  0  0  0  0
  -51.1265  -12.6568   31.0916 H   0  0  0  0  0
  -44.2883  -14.2628   31.6081 H   0  0  0  0  0
  -43.1215  -12.7103   29.3266 H   0  0  0  0  0
  -41.1962  -12.4053   31.2673 H   0  0  0  0  0
  -42.8263  -12.2576   32.1563 H   0  0  0  0  0
  -41.8519  -10.1519   31.6286 H   0  0  0  0  0
  -43.4000  -10.4956   30.6846 H   0  0  0  0  0
  -39.9893  -10.5253   30.3028 H   0  0  0  0  0
  -41.7534  -14.7809   31.1085 H   0  0  0  0  0
  -40.9112  -13.8187   29.7974 H   0  0  0  0  0
  -43.0572  -16.4873   30.5715 H   0  0  0  0  0
  -41.9747  -18.0139   28.5059 H   0  0  0  0  0
  -43.9296  -19.5602   28.8788 H   0  0  0  0  0
  -44.5307  -18.2918   30.0788 H   0  0  0  0  0
  -42.4432  -18.6579   31.3416 H   0  0  0  0  0
  -44.5583  -19.7211   31.9477 H   0  0  0  0  0
  -44.1888  -21.0845   30.8634 H   0  0  0  0  0
  -43.1771  -20.7890   32.2987 H   0  0  0  0  0
  -42.0823  -20.9809   29.4371 H   0  0  0  0  0
  -41.0575  -19.5280   29.5380 H   0  0  0  0  0
  -41.1258  -20.6662   30.9058 H   0  0  0  0  0
  -44.9008  -15.9781   28.4449 H   0  0  0  0  0
  -45.6792  -17.3295   25.9805 H   0  0  0  0  0
  -46.9091  -14.8153   27.1391 H   0  0  0  0  0
  -47.3736  -16.5007   27.5952 H   0  0  0  0  0
  -48.5194  -16.8302   25.6942 H   0  0  0  0  0
  -47.3763  -15.8538   24.7129 H   0  0  0  0  0
  -49.5932  -14.8453   24.8339 H   0  0  0  0  0
  -48.3176  -13.8211   25.6508 H   0  0  0  0  0
  -50.0276  -15.5603   27.3074 H   0  0  0  0  0
  -50.0507  -11.5107   27.4615 H   0  0  0  0  0
  -49.1819  -12.3185   26.1524 H   0  0  0  0  0
  -51.1441  -14.4870   28.9650 H   0  0  0  0  0
  -44.5059  -14.0864   26.7990 H   0  0  0  0  0
  -44.7267  -13.1982   24.0045 H   0  0  0  0  0
  -43.4558  -12.0216   26.4874 H   0  0  0  0  0
  -45.1720  -11.7188   25.8608 H   0  0  0  0  0
  -44.3866  -10.4236   24.1417 H   0  0  0  0  0
  -42.6927  -10.9527   24.3928 H   0  0  0  0  0
  -43.2048   -9.9050   26.8364 H   0  0  0  0  0
  -44.3011   -8.9000   25.8552 H   0  0  0  0  0
  -42.4250   -8.1152   24.5809 H   0  0  0  0  0
  -41.5392  -10.0711   27.3739 H   0  0  0  0  0
  -39.1686   -8.0325   25.8242 H   0  0  0  0  0
  -40.2790   -7.4367   24.5860 H   0  0  0  0  0
  -39.1232  -16.1148   25.1490 H   0  0  0  0  0
  -40.5961  -16.3198   26.1093 H   0  0  0  0  0
  -40.1735  -14.3266   23.9836 H   0  0  0  0  0
  -42.2831  -14.4100   26.1859 H   0  0  0  0  0
  -40.6089  -12.8358   26.2484 H   0  0  0  0  0
  -40.0482  -14.2691   27.9249 H   0  0  0  0  0
  -38.4974  -14.7032   27.1651 H   0  0  0  0  0
  -38.7494  -13.0576   27.7971 H   0  0  0  0  0
  -38.4938  -13.2207   24.2226 H   0  0  0  0  0
  -37.7674  -12.7107   25.7215 H   0  0  0  0  0
  -40.1654  -11.3882   24.3867 H   0  0  0  0  0
  -39.4228  -10.8669   25.9190 H   0  0  0  0  0
  -38.5014  -10.7542   24.3994 H   0  0  0  0  0
  -42.3415  -17.3653   25.2194 H   0  0  0  0  0
  -43.6292  -18.3875   23.6643 H   0  0  0  0  0
  -41.9862  -18.9709   22.9969 H   0  0  0  0  0
  -43.6382  -15.7887   22.8687 H   0  0  0  0  0
  -44.4956  -16.3211   20.1687 H   0  0  0  0  0
  -44.9684  -13.7769   20.1943 H   0  0  0  0  0
  -44.5090  -13.8916   21.9447 H   0  0  0  0  0
  -45.8785  -16.5193   20.7510 H   0  0  0  0  0
  -41.6070  -15.0739   21.5340 H   0  0  0  0  0
  -40.7882  -13.5857   19.1404 H   0  0  0  0  0
  -39.3958  -14.4445   21.6746 H   0  0  0  0  0
  -39.9544  -12.7681   21.1670 H   0  0  0  0  0
  -38.2392  -12.9797   19.3378 H   0  0  0  0  0
  -37.5650  -14.3554   20.3114 H   0  0  0  0  0
  -36.3762  -13.8105   21.8475 H   0  0  0  0  0
  -39.9167  -16.5838   20.8369 H   0  0  0  0  0
  -38.3653  -17.5615   18.4484 H   0  0  0  0  0
  -38.5927  -18.4505   21.3305 H   0  0  0  0  0
  -37.1886  -17.5665   20.5310 H   0  0  0  0  0
  -35.7407  -18.7470   18.9724 H   0  0  0  0  0
  -34.6684  -20.9232   18.4714 H   0  0  0  0  0
  -35.6039  -23.0264   19.3925 H   0  0  0  0  0
  -37.6759  -22.9534   20.7565 H   0  0  0  0  0
  -38.7478  -20.7844   21.2584 H   0  0  0  0  0
  -40.7570  -18.7620   19.8267 H   0  0  0  0  0
  -39.5329  -19.7688   18.9368 H   0  0  0  0  0
  -42.4530  -18.3252   18.7566 H   0  0  0  0  0
  -42.7696  -18.9708   16.0768 H   0  0  0  0  0
  -44.5184  -16.9025   17.4675 H   0  0  0  0  0
  -44.4965  -18.6285   18.0204 H   0  0  0  0  0
  -46.8377  -17.4833   14.9672 H   0  0  0  0  0
  -45.9888  -16.3623   16.0367 H   0  0  0  0  0
  -41.8297  -15.8137   17.2130 H   0  0  0  0  0
  -42.6665  -14.5014   14.8084 H   0  0  0  0  0
  -42.2504  -13.2322   16.8665 H   0  0  0  0  0
  -40.5310  -13.6944   16.8325 H   0  0  0  0  0
  -41.1913  -12.6273   15.5690 H   0  0  0  0  0
  -39.7137  -16.2638   15.5251 H   0  0  0  0  0
  -38.8655  -15.6211   12.7678 H   0  0  0  0  0
  -36.5028  -15.3946   13.5646 H   0  0  0  0  0
  -37.1147  -15.5826   15.2721 H   0  0  0  0  0
  -37.1492  -13.3548   12.2588 H   0  0  0  0  0
  -37.9765  -13.7233   16.4558 H   0  0  0  0  0
  -37.5319  -10.8944   12.3966 H   0  0  0  0  0
  -38.3526  -11.2760   16.5967 H   0  0  0  0  0
  -38.3820   -9.3439   15.4969 H   0  0  0  0  0
  -39.5754  -21.6460   14.1520 H   0  0  0  0  0
  -40.4897  -20.2729   14.7340 H   0  0  0  0  0
  -37.8269  -19.9133   13.2660 H   0  0  0  0  0
  -39.5016  -18.0779   14.9238 H   0  0  0  0  0
  -37.6550  -21.3865   15.3151 H   0  0  0  0  0
  -38.3107  -20.0115   16.2653 H   0  0  0  0  0
  -35.3868  -21.4127   14.5796 H   0  0  0  0  0
  -33.1082  -20.4273   14.7527 H   0  0  0  0  0
  -32.6561  -17.1719   16.1719 H   0  0  0  0  0
  -34.7891  -16.9152   16.5775 H   0  0  0  0  0
  -37.0570  -17.9022   16.4143 H   0  0  0  0  0
  -39.7529  -20.6005   10.6408 H   0  0  0  0  0
  -38.5858  -21.2012   11.8233 H   0  0  0  0  0
  2  1  1  0  0  0
  3  2  1  0  0  0
  2  5  1  0  0  0
  3  4  2  0  0  0
  9  3  1  0  0  0
  5  6  1  0  0  0
  5  7  1  0  0  0
  6  8  1  0  0  0
 10  9  1  0  0  0
 10 11  1  0  0  0
 21 10  1  0  0  0
 11 12  1  0  0  0
 12 13  4  0  0  0
 12 20  4  0  0  0
 13 14  4  0  0  0
 13 18  4  0  0  0
 14 15  4  0  0  0
 15 16  4  0  0  0
 17 16  4  0  0  0
 18 17  4  0  0  0
 19 18  4  0  0  0
 20 19  4  0  0  0
 22 21  1  0  0  0
 22 23  2  0  0  0
 24 22  1  0  0  0
 25 24  1  0  0  0
 26 25  1  0  0  0
 25 28  1  0  0  0
 26 27  2  0  0  0
 32 26  1  0  0  0
 28 29  1  0  0  0
 28 30  1  0  0  0
 29 31  1  0  0  0
 33 32  1  0  0  0
 34 33  1  0  0  0
 33 36  1  0  0  0
 34 35  2  0  0  0
 37 34  1  0  0  0
 38 37  1  0  0  0
 39 38  1  0  0  0
 38 41  1  0  0  0
 39 40  2  0  0  0
 46 39  1  0  0  0
 41 42  1  0  0  0
 42 43  1  0  0  0
 43 44  2  0  0  0
 43 45  1  0  0  0
 47 46  1  0  0  0
 47 48  1  0  0  0
 53 47  1  0  0  0
 48 49  1  0  0  0
 49 50  1  0  0  0
 50 51  1  0  0  0
 50 52  2  0  0  0
 54 53  1  0  0  0
 54 55  2  0  0  0
 56 54  1  0  0  0
 57 56  1  0  0  0
 58 57  1  0  0  0
 57 60  1  0  0  0
 58 59  2  0  0  0
 64 58  1  0  0  0
 60 61  1  0  0  0
 61 62  1  0  0  0
 61 63  1  0  0  0
 65 64  1  0  0  0
 66 65  1  0  0  0
 65 68  1  0  0  0
 66 67  2  0  0  0
 75 66  1  0  0  0
 68 69  1  0  0  0
 69 70  1  0  0  0
 70 71  1  0  0  0
 71 72  1  0  0  0
 72 73  1  0  0  0
 72 74  2  0  0  0
 76 75  1  0  0  0
 77 76  1  0  0  0
 76 79  1  0  0  0
 77 78  2  0  0  0
 90 77  1  0  0  0
 79 80  1  0  0  0
 80 81  1  0  0  0
 81 82  1  0  0  0
 82 83  1  0  0  0
 83 84  2  0  0  0
 83 85  1  0  0  0
 86 87  2  0  0  0
 86 88  1  0  0  0
 95 86  1  0  0  0
 88 89  1  0  0  0
 89 90  1  0  0  0
 89 91  1  0  0  0
 91 92  1  0  0  0
 91 93  1  0  0  0
 93 94  1  0  0  0
 96 95  1  0  0  0
 97 96  1  0  0  0
 97 98  2  0  0  0
 99 97  1  0  0  0
100 99  1  0  0  0
101100  1  0  0  0
100103  1  0  0  0
101102  2  0  0  0
107101  1  0  0  0
103104  1  0  0  0
104105  1  0  0  0
104106  2  0  0  0
108107  1  0  0  0
109108  1  0  0  0
108111  1  0  0  0
109110  2  0  0  0
116109  1  0  0  0
111112  1  0  0  0
112113  1  0  0  0
113114  2  0  0  0
113115  1  0  0  0
117116  1  0  0  0
117118  1  0  0  0
125117  1  0  0  0
118119  1  0  0  0
119120  4  0  0  0
119124  4  0  0  0
120121  4  0  0  0
121122  4  0  0  0
123122  4  0  0  0
124123  4  0  0  0
126125  1  0  0  0
126127  2  0  0  0
128126  1  0  0  0
129128  1  0  0  0
130129  1  0  0  0
129132  1  0  0  0
130131  2  0  0  0
136130  1  0  0  0
132133  1  0  0  0
133134  2  0  0  0
133135  1  0  0  0
137136  1  0  0  0
138137  1  0  0  0
137140  1  0  0  0
138139  2  0  0  0
141138  1  0  0  0
142141  1  0  0  0
143142  1  0  0  0
142145  1  0  0  0
143144  2  0  0  0
157143  1  0  0  0
145146  1  0  0  0
146147  4  0  0  0
146148  4  0  0  0
147149  4  0  0  0
148150  4  0  0  0
149151  4  0  0  0
150151  4  0  0  0
151152  1  0  0  0
154153  2  0  0  0
155154  1  0  0  0
154166  1  0  0  0
156155  1  0  0  0
156157  1  0  0  0
156158  1  0  0  0
158159  1  0  0  0
159160  4  0  0  0
159165  4  0  0  0
160161  4  0  0  0
161162  4  0  0  0
162163  1  0  0  0
162164  4  0  0  0
164165  4  0  0  0
  1167  1  0  0  0
  1168  1  0  0  0
  1169  1  0  0  0
  2170  1  0  0  0
  5171  1  0  0  0
  6172  1  0  0  0
  6173  1  0  0  0
  7174  1  0  0  0
  7175  1  0  0  0
  7176  1  0  0  0
  8177  1  0  0  0
  8178  1  0  0  0
  8179  1  0  0  0
  9180  1  0  0  0
 10181  1  0  0  0
 11182  1  0  0  0
 11183  1  0  0  0
 14184  1  0  0  0
 15185  1  0  0  0
 16186  1  0  0  0
 17187  1  0  0  0
 20188  1  0  0  0
 21189  1  0  0  0
 21190  1  0  0  0
 24191  1  0  0  0
 25192  1  0  0  0
 28193  1  0  0  0
 29194  1  0  0  0
 29195  1  0  0  0
 30196  1  0  0  0
 30197  1  0  0  0
 30198  1  0  0  0
 31199  1  0  0  0
 31200  1  0  0  0
 31201  1  0  0  0
 32202  1  0  0  0
 33203  1  0  0  0
 36204  1  0  0  0
 36205  1  0  0  0
 36206  1  0  0  0
 37207  1  0  0  0
 38208  1  0  0  0
 41209  1  0  0  0
 41210  1  0  0  0
 42211  1  0  0  0
 42212  1  0  0  0
 45213  1  0  0  0
 45214  1  0  0  0
 46215  1  0  0  0
 47216  1  0  0  0
 48217  1  0  0  0
 48218  1  0  0  0
 49219  1  0  0  0
 49220  1  0  0  0
 51221  1  0  0  0
 53222  1  0  0  0
 53223  1  0  0  0
 56224  1  0  0  0
 57225  1  0  0  0
 60226  1  0  0  0
 60227  1  0  0  0
 61228  1  0  0  0
 62229  1  0  0  0
 62230  1  0  0  0
 62231  1  0  0  0
 63232  1  0  0  0
 63233  1  0  0  0
 63234  1  0  0  0
 64235  1  0  0  0
 65236  1  0  0  0
 68237  1  0  0  0
 68238  1  0  0  0
 69239  1  0  0  0
 69240  1  0  0  0
 70241  1  0  0  0
 70242  1  0  0  0
 71243  1  0  0  0
 73244  1  0  0  0
 73245  1  0  0  0
 74246  1  0  0  0
 75247  1  0  0  0
 76248  1  0  0  0
 79249  1  0  0  0
 79250  1  0  0  0
 80251  1  0  0  0
 80252  1  0  0  0
 81253  1  0  0  0
 81254  1  0  0  0
 82255  1  0  0  0
 84256  1  0  0  0
 85257  1  0  0  0
 85258  1  0  0  0
 88259  1  0  0  0
 88260  1  0  0  0
 89261  1  0  0  0
 90262  1  0  0  0
 91263  1  0  0  0
 92264  1  0  0  0
 92265  1  0  0  0
 92266  1  0  0  0
 93267  1  0  0  0
 93268  1  0  0  0
 94269  1  0  0  0
 94270  1  0  0  0
 94271  1  0  0  0
 95272  1  0  0  0
 96273  1  0  0  0
 96274  1  0  0  0
 99275  1  0  0  0
100276  1  0  0  0
103277  1  0  0  0
103278  1  0  0  0
105279  1  0  0  0
107280  1  0  0  0
108281  1  0  0  0
111282  1  0  0  0
111283  1  0  0  0
112284  1  0  0  0
112285  1  0  0  0
115286  1  0  0  0
116287  1  0  0  0
117288  1  0  0  0
118289  1  0  0  0
118290  1  0  0  0
120291  1  0  0  0
121292  1  0  0  0
122293  1  0  0  0
123294  1  0  0  0
124295  1  0  0  0
125296  1  0  0  0
125297  1  0  0  0
128298  1  0  0  0
129299  1  0  0  0
132300  1  0  0  0
132301  1  0  0  0
135302  1  0  0  0
135303  1  0  0  0
136304  1  0  0  0
137305  1  0  0  0
140306  1  0  0  0
140307  1  0  0  0
140308  1  0  0  0
141309  1  0  0  0
142310  1  0  0  0
145311  1  0  0  0
145312  1  0  0  0
147313  1  0  0  0
148314  1  0  0  0
149315  1  0  0  0
150316  1  0  0  0
152317  1  0  0  0
155318  1  0  0  0
155319  1  0  0  0
156320  1  0  0  0
157321  1  0  0  0
158322  1  0  0  0
158323  1  0  0  0
160324  1  0  0  0
161325  1  0  0  0
163326  1  0  0  0
164327  1  0  0  0
165328  1  0  0  0
166329  1  0  0  0
166330  1  0  0  0
M  END
$$$$
