4nbl_ligand
  -I-interpret- 

 35 37  0  0  0  0  0  0  0  0999 V2000
   30.6880   21.4290   -5.8250 C   0  0  0  0  0
   28.9290   26.6970   -6.7270 C   0  0  0  0  0
   31.0720   20.7940   -4.6610 C   0  0  0  0  0
   29.1410   24.3370   -6.3500 C   0  0  0  0  0
   29.4560   24.1620   -7.6320 N   0  0  0  0  0
   29.5180   25.1700   -8.4820 C   0  0  0  0  0
   29.2560   26.4630   -8.0540 C   0  0  0  0  0
   28.8580   25.6130   -5.8470 C   0  0  0  0  0
   29.0720   23.2580   -5.4850 N   0  0  0  0  0
   29.2700   21.8920   -5.9710 C   0  0  0  0  0
   32.3680   20.3470   -4.5320 C   0  0  0  0  0
   33.2750   20.5420   -5.5580 C   0  0  0  0  0
   32.9030   21.1750   -6.7370 C   0  0  0  0  0
   31.5920   21.6240   -6.8660 C   0  0  0  0  0
   31.1910   22.2550   -8.0060 O   0  0  0  0  0
   34.5300   20.0910   -5.4050 F   0  0  0  0  0
   28.5230   25.8040   -4.4130 C   0  0  0  0  0
   28.1850   24.7560   -3.6660 N   0  0  0  0  0
   27.8810   24.9040   -2.3820 C   0  0  0  0  0
   27.9180   26.1660   -1.8130 C   0  0  0  0  0
   28.2720   27.2420   -2.6190 C   0  0  0  0  0
   28.5650   27.0330   -3.8980 N   0  0  0  0  0
   28.7305   27.7096   -6.3757 H   0  0  0  0  0
   30.3563   20.6479   -3.8519 H   0  0  0  0  0
   29.7762   24.9854   -9.5248 H   0  0  0  0  0
   29.3070   27.2929   -8.7588 H   0  0  0  0  0
   28.8806   23.4174   -4.4959 H   0  0  0  0  0
   28.6381   21.2301   -5.3788 H   0  0  0  0  0
   29.0182   21.8731   -7.0313 H   0  0  0  0  0
   32.6798   19.8385   -3.6197 H   0  0  0  0  0
   33.6222   21.3170   -7.5437 H   0  0  0  0  0
   31.9289   22.3076   -8.6178 H   0  0  0  0  0
   27.6043   24.0384   -1.7801 H   0  0  0  0  0
   27.6758   26.3119   -0.7603 H   0  0  0  0  0
   28.3089   28.2496   -2.2048 H   0  0  0  0  0
  1  3  4  0  0  0
 10  1  1  0  0  0
  1 14  4  0  0  0
  2  7  4  0  0  0
  8  2  4  0  0  0
  3 11  4  0  0  0
  4  5  4  0  0  0
  4  8  4  0  0  0
  9  4  1  0  0  0
  5  6  4  0  0  0
  6  7  4  0  0  0
  8 17  1  0  0  0
  9 10  1  0  0  0
 11 12  4  0  0  0
 12 13  4  0  0  0
 12 16  1  0  0  0
 13 14  4  0  0  0
 14 15  1  0  0  0
 17 18  4  0  0  0
 17 22  4  0  0  0
 18 19  4  0  0  0
 19 20  4  0  0  0
 20 21  4  0  0  0
 21 22  4  0  0  0
  2 23  1  0  0  0
  3 24  1  0  0  0
  6 25  1  0  0  0
  7 26  1  0  0  0
  9 27  1  0  0  0
 10 28  1  0  0  0
 10 29  1  0  0  0
 11 30  1  0  0  0
 13 31  1  0  0  0
 15 32  1  0  0  0
 19 33  1  0  0  0
 20 34  1  0  0  0
 21 35  1  0  0  0
M  END
$$$$
