2dxs_ligand
  -I-interpret- 

 63 67  0  0  0  0  0  0  0  0999 V2000
  -18.2950   -5.9650    2.1880 C   0  0  0  0  0
  -17.1200   -5.1140    1.6440 C   0  0  0  0  0
  -16.1110   -4.8420    2.7030 N   0  0  0  0  0
  -15.2500   -5.7360    3.3080 C   0  0  0  0  0
  -14.3830   -5.1880    4.3870 C   0  0  0  0  0
  -13.4140   -6.0480    4.9890 C   0  0  0  0  0
  -12.5740   -5.5720    6.0210 C   0  0  0  0  0
  -12.6680   -4.2500    6.4780 C   0  0  0  0  0
  -13.6410   -3.3680    5.8810 C   0  0  0  0  0
  -13.5230   -2.1290    6.5120 N   0  0  0  0  0
  -12.5230   -2.2060    7.4750 C   0  0  0  0  0
  -12.1770   -0.9930    8.3190 C   0  0  0  0  0
  -12.0050    0.2560    7.6500 C   0  0  0  0  0
  -11.6830    1.4300    8.3750 C   0  0  0  0  0
  -11.5300    1.3760    9.7800 C   0  0  0  0  0
  -11.7020    0.1400   10.4510 C   0  0  0  0  0
  -12.0230   -1.0320    9.7280 C   0  0  0  0  0
  -12.1550    0.3400    6.2580 O   0  0  0  0  0
  -13.5150    0.3300    5.7880 C   0  0  0  0  0
  -14.3530   -0.9200    6.1910 C   0  0  0  0  0
  -11.9480   -3.4990    7.5060 C   0  0  0  0  0
  -10.8130   -4.0070    8.4250 C   0  0  0  0  0
   -9.5310   -4.4170    7.6450 C   0  0  0  0  0
   -8.4400   -4.9250    8.6190 C   0  0  0  0  0
   -8.9490   -6.0890    9.4890 C   0  0  0  0  0
  -10.2090   -5.6800   10.2710 C   0  0  0  0  0
  -11.3320   -5.1560    9.3450 C   0  0  0  0  0
  -14.4780   -3.8350    4.8540 C   0  0  0  0  0
  -15.2060   -6.9230    2.9850 O   0  0  0  0  0
  -16.4560   -5.7790    0.3780 C   0  0  0  0  0
  -16.6000   -7.1300    0.3430 O   0  0  0  0  0
  -15.8580   -5.1730   -0.4650 O   0  0  0  0  0
  -17.6670   -3.7310    1.2430 C   0  0  0  0  0
  -19.0561   -6.0677    1.4146 H   0  0  0  0  0
  -17.9272   -6.9513    2.4708 H   0  0  0  0  0
  -18.7254   -5.4725    3.0600 H   0  0  0  0  0
  -16.0474   -3.8751    3.0216 H   0  0  0  0  0
  -13.3218   -7.0797    4.6496 H   0  0  0  0  0
  -11.8414   -6.2434    6.4688 H   0  0  0  0  0
  -11.5530    2.3759    7.8493 H   0  0  0  0  0
  -11.2821    2.2768   10.3414 H   0  0  0  0  0
  -11.5859    0.0922   11.5337 H   0  0  0  0  0
  -12.1534   -1.9749   10.2591 H   0  0  0  0  0
  -13.4677    0.3347    4.6990 H   0  0  0  0  0
  -14.0062    1.1922    6.2390 H   0  0  0  0  0
  -14.9108   -0.6607    7.0909 H   0  0  0  0  0
  -14.9842   -1.1760    5.3400 H   0  0  0  0  0
  -10.5109   -3.1709    9.0557 H   0  0  0  0  0
   -9.1497   -3.5473    7.1099 H   0  0  0  0  0
   -9.7821   -5.2164    6.9478 H   0  0  0  0  0
   -8.1577   -4.1030    9.2768 H   0  0  0  0  0
   -7.5939   -5.2807    8.0310 H   0  0  0  0  0
   -8.1690   -6.3626   10.1995 H   0  0  0  0  0
   -9.1965   -6.9292    8.8403 H   0  0  0  0  0
   -9.9353   -4.8783   10.9569 H   0  0  0  0  0
  -10.5842   -6.5611   10.7916 H   0  0  0  0  0
  -11.6765   -5.9770    8.7162 H   0  0  0  0  0
  -12.1412   -4.7682    9.9638 H   0  0  0  0  0
  -15.2085   -3.1611    4.4065 H   0  0  0  0  0
  -17.1086   -7.4163    1.1052 H   0  0  0  0  0
  -16.8481   -3.1084    0.8827 H   0  0  0  0  0
  -18.4091   -3.8502    0.4536 H   0  0  0  0  0
  -18.1295   -3.2593    2.1100 H   0  0  0  0  0
  1  2  1  0  0  0
  2  3  1  0  0  0
  2 30  1  0  0  0
  2 33  1  0  0  0
  3  4  1  0  0  0
  4  5  1  0  0  0
  4 29  2  0  0  0
  5  6  4  0  0  0
  5 28  4  0  0  0
  6  7  4  0  0  0
  7  8  4  0  0  0
  8  9  4  0  0  0
  8 21  4  0  0  0
  9 10  4  0  0  0
  9 28  4  0  0  0
 10 11  4  0  0  0
 10 20  1  0  0  0
 11 12  1  0  0  0
 11 21  4  0  0  0
 12 13  4  0  0  0
 12 17  4  0  0  0
 13 14  4  0  0  0
 13 18  1  0  0  0
 14 15  4  0  0  0
 15 16  4  0  0  0
 16 17  4  0  0  0
 18 19  1  0  0  0
 19 20  1  0  0  0
 21 22  1  0  0  0
 22 23  1  0  0  0
 22 27  1  0  0  0
 23 24  1  0  0  0
 24 25  1  0  0  0
 25 26  1  0  0  0
 26 27  1  0  0  0
 30 31  1  0  0  0
 30 32  2  0  0  0
  1 34  1  0  0  0
  1 35  1  0  0  0
  1 36  1  0  0  0
  3 37  1  0  0  0
  6 38  1  0  0  0
  7 39  1  0  0  0
 14 40  1  0  0  0
 15 41  1  0  0  0
 16 42  1  0  0  0
 17 43  1  0  0  0
 19 44  1  0  0  0
 19 45  1  0  0  0
 20 46  1  0  0  0
 20 47  1  0  0  0
 22 48  1  0  0  0
 23 49  1  0  0  0
 23 50  1  0  0  0
 24 51  1  0  0  0
 24 52  1  0  0  0
 25 53  1  0  0  0
 25 54  1  0  0  0
 26 55  1  0  0  0
 26 56  1  0  0  0
 27 57  1  0  0  0
 27 58  1  0  0  0
 28 59  1  0  0  0
 31 60  1  0  0  0
 33 61  1  0  0  0
 33 62  1  0  0  0
 33 63  1  0  0  0
M  END
$$$$
