5xpl_ligand
  -I-interpret- 

 89 92  0  0  0  0  0  0  0  0999 V2000
    6.1780   -2.8160   13.2830 O   0  0  0  0  0
    7.1790   -2.9820   14.0090 C   0  0  0  0  0
    7.6990   -4.3870   14.2640 C   0  0  0  0  0
    7.0480   -5.4660   13.6570 C   0  0  0  0  0
    7.5220   -6.7740   13.8270 C   0  0  0  0  0
    8.6390   -7.0050   14.6260 C   0  0  0  0  0
    9.0710   -8.2810   14.7700 O   0  0  0  0  0
    9.2980   -5.9410   15.2500 C   0  0  0  0  0
    8.8310   -4.6390   15.0670 C   0  0  0  0  0
    7.9360   -1.8050   14.6290 C   0  0  0  0  0
    7.7640   -0.5230   13.8460 C   0  0  0  0  0
    8.4630    0.6610   14.5640 C   0  0  0  0  0
    7.8410    0.9430   15.9460 C   0  0  0  0  0
    8.7890    0.5010   17.0450 C   0  0  0  0  0
    7.9880   -0.2710   18.0600 C   0  0  0  0  0
    7.3600    0.5700   19.1480 C   0  0  0  0  0
    8.4470    1.9100   13.7060 C   0  0  0  0  0
    7.0090    2.4430   13.5130 C   0  0  0  0  0
    9.4730    2.9610   14.1800 C   0  0  0  0  0
    9.4510    4.2810   13.4470 C   0  0  0  0  0
    9.3330    4.1170   11.9080 C   0  0  0  0  0
    8.4510    5.3150   13.9660 C   0  0  0  0  0
    8.7340    6.7200   13.3770 C   0  0  0  0  0
   10.1990    7.2570   13.4940 C   0  0  0  0  0
   10.9390    2.4800   14.1690 C   0  0  0  0  0
   11.8210    3.6410   13.7500 C   0  0  0  0  0
   10.8290    4.8030   13.8220 C   0  0  0  0  0
   11.1400    6.1130   13.1200 C   0  0  0  0  0
   12.1810    6.1960   12.2450 C   0  0  0  0  0
   12.4600    7.3790   11.4520 C   0  0  0  0  0
   13.0180    7.3680   10.2260 C   0  0  0  0  0
   13.4510    6.0790    9.5450 C   0  0  0  0  0
   14.7040    6.2570    8.6700 C   0  0  0  0  0
   14.8230    5.1320    7.7850 O   0  0  0  0  0
   13.1220    8.7030    9.4950 C   0  0  0  0  0
   14.4550    8.8430    8.7620 C   0  0  0  0  0
   15.5950    8.9210    9.6730 O   0  0  0  0  0
   14.6740    7.5880    7.9210 C   0  0  0  0  0
   14.8010    7.6660    6.6120 C   0  0  0  0  0
    6.1633   -5.2878   13.0457 H   0  0  0  0  0
    7.0186   -7.6068   13.3360 H   0  0  0  0  0
    9.8420   -8.2940   15.3419 H   0  0  0  0  0
   10.1710   -6.1277   15.8754 H   0  0  0  0  0
    9.3461   -3.8083   15.5494 H   0  0  0  0  0
    8.9970   -2.0546   14.6335 H   0  0  0  0  0
    7.5380   -1.6414   15.6305 H   0  0  0  0  0
    6.6997   -0.3033   13.7619 H   0  0  0  0  0
    8.2131   -0.6505   12.8611 H   0  0  0  0  0
    9.5009    0.3683   14.7231 H   0  0  0  0  0
    6.9059    0.3903   16.0367 H   0  0  0  0  0
    7.6552    2.0127   16.0429 H   0  0  0  0  0
    9.2576    1.3673   17.5119 H   0  0  0  0  0
    9.5812   -0.1241   16.6330 H   0  0  0  0  0
    8.6779   -0.9577   18.5505 H   0  0  0  0  0
    7.1711   -0.7494   17.5197 H   0  0  0  0  0
    8.1421    1.0937   19.6977 H   0  0  0  0  0
    6.6818    1.2955   18.6988 H   0  0  0  0  0
    6.8049   -0.0749   19.8292 H   0  0  0  0  0
    8.7876    1.6407   12.7062 H   0  0  0  0  0
    6.4024    1.6798   13.0255 H   0  0  0  0  0
    6.5790    2.6847   14.4850 H   0  0  0  0  0
    7.0352    3.3390   12.8929 H   0  0  0  0  0
    9.1268    3.1126   15.2024 H   0  0  0  0  0
   10.1847    3.5460   11.5384 H   0  0  0  0  0
    8.4094    3.5894   11.6699 H   0  0  0  0  0
    9.3223    5.1008   11.4388 H   0  0  0  0  0
    8.5412    5.3698   15.0509 H   0  0  0  0  0
    7.4490    5.0089   13.6654 H   0  0  0  0  0
    8.1165    7.4125   13.9490 H   0  0  0  0  0
    8.5300    6.6417   12.3091 H   0  0  0  0  0
   10.3994    7.5983   14.5096 H   0  0  0  0  0
   10.3478    8.1060   12.8267 H   0  0  0  0  0
   11.0547    1.6523   13.4692 H   0  0  0  0  0
   11.2253    2.1337   15.1621 H   0  0  0  0  0
   12.2806    3.5140   12.7698 H   0  0  0  0  0
   12.7020    3.7741   14.3778 H   0  0  0  0  0
   10.9015    5.1324   14.8585 H   0  0  0  0  0
   12.8362    5.3318   12.1352 H   0  0  0  0  0
   12.1990    8.3470   11.8796 H   0  0  0  0  0
   12.6362    5.7538    8.8981 H   0  0  0  0  0
   13.6885    5.3542   10.3237 H   0  0  0  0  0
   15.5899    6.2896    9.3042 H   0  0  0  0  0
   15.6038    5.2387    7.2368 H   0  0  0  0  0
   13.0486    9.5041   10.2305 H   0  0  0  0  0
   12.3186    8.7559    8.7602 H   0  0  0  0  0
   14.4007    9.7592    8.1739 H   0  0  0  0  0
   16.4044    9.0077    9.1642 H   0  0  0  0  0
   14.9334    6.7589    6.0223 H   0  0  0  0  0
   14.7737    8.6376    6.1187 H   0  0  0  0  0
  1  2  2  0  0  0
  2  3  1  0  0  0
  2 10  1  0  0  0
  3  4  4  0  0  0
  3  9  4  0  0  0
  4  5  4  0  0  0
  5  6  4  0  0  0
  6  7  1  0  0  0
  6  8  4  0  0  0
  8  9  4  0  0  0
 10 11  1  0  0  0
 11 12  1  0  0  0
 12 13  1  0  0  0
 12 17  1  0  0  0
 13 14  1  0  0  0
 14 15  1  0  0  0
 15 16  1  0  0  0
 17 18  1  0  0  0
 17 19  1  0  0  0
 19 20  1  0  0  0
 19 25  1  0  0  0
 20 21  1  0  0  0
 20 22  1  0  0  0
 20 27  1  0  0  0
 22 23  1  0  0  0
 23 24  1  0  0  0
 24 28  1  0  0  0
 25 26  1  0  0  0
 26 27  1  0  0  0
 27 28  1  0  0  0
 28 29  2  0  0  0
 29 30  1  0  0  0
 30 31  2  0  0  0
 31 32  1  0  0  0
 31 35  1  0  0  0
 32 33  1  0  0  0
 33 34  1  0  0  0
 33 38  1  0  0  0
 35 36  1  0  0  0
 36 37  1  0  0  0
 36 38  1  0  0  0
 38 39  2  0  0  0
  4 40  1  0  0  0
  5 41  1  0  0  0
  7 42  1  0  0  0
  8 43  1  0  0  0
  9 44  1  0  0  0
 10 45  1  0  0  0
 10 46  1  0  0  0
 11 47  1  0  0  0
 11 48  1  0  0  0
 12 49  1  0  0  0
 13 50  1  0  0  0
 13 51  1  0  0  0
 14 52  1  0  0  0
 14 53  1  0  0  0
 15 54  1  0  0  0
 15 55  1  0  0  0
 16 56  1  0  0  0
 16 57  1  0  0  0
 16 58  1  0  0  0
 17 59  1  0  0  0
 18 60  1  0  0  0
 18 61  1  0  0  0
 18 62  1  0  0  0
 19 63  1  0  0  0
 21 64  1  0  0  0
 21 65  1  0  0  0
 21 66  1  0  0  0
 22 67  1  0  0  0
 22 68  1  0  0  0
 23 69  1  0  0  0
 23 70  1  0  0  0
 24 71  1  0  0  0
 24 72  1  0  0  0
 25 73  1  0  0  0
 25 74  1  0  0  0
 26 75  1  0  0  0
 26 76  1  0  0  0
 27 77  1  0  0  0
 29 78  1  0  0  0
 30 79  1  0  0  0
 32 80  1  0  0  0
 32 81  1  0  0  0
 33 82  1  0  0  0
 34 83  1  0  0  0
 35 84  1  0  0  0
 35 85  1  0  0  0
 36 86  1  0  0  0
 37 87  1  0  0  0
 39 88  1  0  0  0
 39 89  1  0  0  0
M  END
$$$$
