5j5r_ligand
  -I-interpret- 

 52 55  0  0  0  0  0  0  0  0999 V2000
  132.0840   13.4000    4.9410 C   0  0  0  0  0
  131.2910   15.6740    5.5270 N   0  0  0  0  0
  132.7130   15.9700    5.6440 C   0  0  0  0  0
  130.4500   19.1070    4.2110 C   0  0  0  0  0
  130.6030   20.1910    3.3120 C   0  0  0  0  0
  128.2080   18.7040    3.3450 C   0  0  0  0  0
  126.7680   16.9130    4.1820 C   0  0  0  0  0
  132.9390   12.4860    2.4940 O   0  0  0  0  0
  133.3830   13.5320    2.8350 C   0  0  0  0  0
  134.3770   14.3220    1.9270 C   0  0  0  0  0
  135.8130   14.0080    2.3550 C   0  0  0  0  0
  136.8190   14.7320    1.4580 C   0  0  0  0  0
  136.6060   14.3730    0.0170 C   0  0  0  0  0
  135.1830   14.5810   -0.4510 C   0  0  0  0  0
  134.1540   13.9220    0.4860 C   0  0  0  0  0
  132.9970   14.0940    4.0850 N   0  0  0  0  0
  131.0070   14.2660    5.5720 C   0  0  0  0  0
  133.4960   15.3510    4.5070 C   0  0  0  0  0
  130.2140   16.6940    6.3080 S   0  0  0  0  0
  130.9590   17.7820    6.9130 O   0  0  0  0  0
  129.5720   16.0090    7.4320 O   0  0  0  0  0
  128.9810   17.2260    5.1330 C   0  0  0  0  0
  129.2010   18.3350    4.2370 C   0  0  0  0  0
  129.6100   20.5420    2.4440 N   0  0  0  0  0
  128.4120   19.8190    2.4280 C   0  0  0  0  0
  126.9730   17.9780    3.3120 C   0  0  0  0  0
  127.7770   16.5370    5.0940 C   0  0  0  0  0
  132.6736   12.9866    5.7593 H   0  0  0  0  0
  131.5717   12.6635    4.3220 H   0  0  0  0  0
  133.0784   15.5562    6.5839 H   0  0  0  0  0
  132.8472   17.0512    5.6108 H   0  0  0  0  0
  131.2637   18.8445    4.8871 H   0  0  0  0  0
  131.5344   20.7573    3.3135 H   0  0  0  0  0
  125.8250   16.3668    4.1595 H   0  0  0  0  0
  134.2081   15.3941    2.0278 H   0  0  0  0  0
  135.9774   12.9337    2.2712 H   0  0  0  0  0
  135.9543   14.3429    3.3826 H   0  0  0  0  0
  137.8263   14.4335    1.7486 H   0  0  0  0  0
  136.6832   15.8071    1.5753 H   0  0  0  0  0
  136.8367   13.3136   -0.0948 H   0  0  0  0  0
  137.2462   15.0217   -0.5809 H   0  0  0  0  0
  135.0822   14.1253   -1.4360 H   0  0  0  0  0
  134.9866   15.6531   -0.4665 H   0  0  0  0  0
  133.1579   14.2491    0.1880 H   0  0  0  0  0
  134.2610   12.8400    0.4084 H   0  0  0  0  0
  130.9375   13.9828    6.6223 H   0  0  0  0  0
  130.0883   14.1025    5.0086 H   0  0  0  0  0
  134.5143   15.1932    4.8624 H   0  0  0  0  0
  133.4257   16.0299    3.6572 H   0  0  0  0  0
  127.6253   20.0915    1.7245 H   0  0  0  0  0
  126.1937   18.2609    2.6043 H   0  0  0  0  0
  127.6097   15.7002    5.7721 H   0  0  0  0  0
  1 16  1  0  0  0
 17  1  1  0  0  0
  2  3  1  0  0  0
  2 17  1  0  0  0
 19  2  1  0  0  0
  3 18  1  0  0  0
  4  5  4  0  0  0
 23  4  4  0  0  0
  5 24  4  0  0  0
 23  6  4  0  0  0
  6 25  4  0  0  0
  6 26  4  0  0  0
 26  7  4  0  0  0
  7 27  4  0  0  0
  9  8  2  0  0  0
  9 10  1  0  0  0
 16  9  1  0  0  0
 10 11  1  0  0  0
 10 15  1  0  0  0
 11 12  1  0  0  0
 12 13  1  0  0  0
 14 13  1  0  0  0
 15 14  1  0  0  0
 18 16  1  0  0  0
 19 20  2  0  0  0
 19 21  2  0  0  0
 22 19  1  0  0  0
 22 23  4  0  0  0
 22 27  4  0  0  0
 24 25  4  0  0  0
  1 28  1  0  0  0
  1 29  1  0  0  0
  3 30  1  0  0  0
  3 31  1  0  0  0
  4 32  1  0  0  0
  5 33  1  0  0  0
  7 34  1  0  0  0
 10 35  1  0  0  0
 11 36  1  0  0  0
 11 37  1  0  0  0
 12 38  1  0  0  0
 12 39  1  0  0  0
 13 40  1  0  0  0
 13 41  1  0  0  0
 14 42  1  0  0  0
 14 43  1  0  0  0
 15 44  1  0  0  0
 15 45  1  0  0  0
 17 46  1  0  0  0
 17 47  1  0  0  0
 18 48  1  0  0  0
 18 49  1  0  0  0
 25 50  1  0  0  0
 26 51  1  0  0  0
 27 52  1  0  0  0
M  END
$$$$
