2ath_ligand
  -I-interpret- 

 57 60  0  0  0  0  0  0  0  0999 V2000
   19.9500    4.7520   34.7340 C   0  0  0  0  0
   19.5250    5.1610   36.1450 C   0  0  0  0  0
   19.2060    3.9110   36.9630 C   0  0  0  0  0
   18.8240    4.2420   38.4090 C   0  0  0  0  0
   19.7340    4.8190   39.2830 C   0  0  0  0  0
   21.0140    5.2580   39.0810 O   0  0  0  0  0
   21.4900    5.7870   40.2970 N   0  0  0  0  0
   20.5160    5.6660   41.1970 C   0  0  0  0  0
   20.6280    6.2230   42.6220 C   0  0  0  0  0
   19.8670    7.3010   42.7830 F   0  0  0  0  0
   20.2740    5.3290   43.5380 F   0  0  0  0  0
   21.8910    6.5720   42.8310 F   0  0  0  0  0
   19.4120    5.0610   40.6150 C   0  0  0  0  0
   18.1500    4.7190   41.0940 C   0  0  0  0  0
   17.2290    4.1420   40.2290 C   0  0  0  0  0
   17.5610    3.9050   38.8960 C   0  0  0  0  0
   16.7140    3.2810   38.0320 O   0  0  0  0  0
   15.3060    3.4540   38.2640 C   0  0  0  0  0
   14.7290    3.9750   36.9490 C   0  0  0  0  0
   15.5860    5.1860   36.5800 C   0  0  0  0  0
   14.9770    5.9190   35.5100 O   0  0  0  0  0
   15.7240    7.0070   35.1860 C   0  0  0  0  0
   15.4160    8.2440   35.7500 C   0  0  0  0  0
   16.7160    6.8900   34.2170 C   0  0  0  0  0
   17.4090    8.0220   33.7950 C   0  0  0  0  0
   17.0930    9.2610   34.3440 C   0  0  0  0  0
   16.1000    9.3720   35.3180 C   0  0  0  0  0
   15.9850   10.6670   35.6070 C   0  0  0  0  0
   16.8470   11.3610   34.8680 C   0  0  0  0  0
   17.5220   10.4950   34.1120 N   0  0  0  0  0
   18.6800   10.8360   33.2710 C   0  0  0  0  0
   18.2610   10.8490   31.7970 C   0  0  0  0  0
   19.1670   10.6640   30.9570 O   0  0  0  0  0
   17.0520   11.0390   31.5420 O   0  0  0  0  0
   20.8355    4.1190   34.7918 H   0  0  0  0  0
   19.1390    4.2018   34.2568 H   0  0  0  0  0
   20.1773    5.6447   34.1513 H   0  0  0  0  0
   18.6395    5.7941   36.0886 H   0  0  0  0  0
   20.3352    5.7113   36.6234 H   0  0  0  0  0
   20.0980    3.2850   36.9844 H   0  0  0  0  0
   18.3582    3.4095   36.4963 H   0  0  0  0  0
   17.8878    4.9020   42.1360 H   0  0  0  0  0
   16.2385    3.8723   40.5955 H   0  0  0  0  0
   15.1213    4.1505   39.0818 H   0  0  0  0  0
   14.8347    2.5169   38.5604 H   0  0  0  0  0
   13.6782    4.2454   37.0526 H   0  0  0  0  0
   14.7571    3.2129   36.1702 H   0  0  0  0  0
   16.5697    4.8417   36.2607 H   0  0  0  0  0
   15.6766    5.8361   37.4502 H   0  0  0  0  0
   14.6485    8.3244   36.5198 H   0  0  0  0  0
   16.9500    5.9150   33.7895 H   0  0  0  0  0
   18.1920    7.9382   33.0413 H   0  0  0  0  0
   15.2934   11.0917   36.3346 H   0  0  0  0  0
   16.9777   12.4431   34.8789 H   0  0  0  0  0
   19.4644   10.0934   33.4174 H   0  0  0  0  0
   19.0516   11.8220   33.5500 H   0  0  0  0  0
   16.5672   11.1533   32.3626 H   0  0  0  0  0
  1  2  1  0  0  0
  2  3  1  0  0  0
  3  4  1  0  0  0
  4  5  4  0  0  0
  4 16  4  0  0  0
  5  6  4  0  0  0
  5 13  4  0  0  0
  6  7  4  0  0  0
  7  8  4  0  0  0
  8  9  1  0  0  0
  8 13  4  0  0  0
  9 10  1  0  0  0
  9 11  1  0  0  0
  9 12  1  0  0  0
 13 14  4  0  0  0
 14 15  4  0  0  0
 15 16  4  0  0  0
 16 17  1  0  0  0
 17 18  1  0  0  0
 18 19  1  0  0  0
 19 20  1  0  0  0
 20 21  1  0  0  0
 21 22  1  0  0  0
 22 23  4  0  0  0
 22 24  4  0  0  0
 23 27  4  0  0  0
 24 25  4  0  0  0
 25 26  4  0  0  0
 26 27  4  0  0  0
 26 30  4  0  0  0
 27 28  4  0  0  0
 28 29  4  0  0  0
 29 30  4  0  0  0
 30 31  1  0  0  0
 31 32  1  0  0  0
 32 33  2  0  0  0
 32 34  1  0  0  0
  1 35  1  0  0  0
  1 36  1  0  0  0
  1 37  1  0  0  0
  2 38  1  0  0  0
  2 39  1  0  0  0
  3 40  1  0  0  0
  3 41  1  0  0  0
 14 42  1  0  0  0
 15 43  1  0  0  0
 18 44  1  0  0  0
 18 45  1  0  0  0
 19 46  1  0  0  0
 19 47  1  0  0  0
 20 48  1  0  0  0
 20 49  1  0  0  0
 23 50  1  0  0  0
 24 51  1  0  0  0
 25 52  1  0  0  0
 28 53  1  0  0  0
 29 54  1  0  0  0
 31 55  1  0  0  0
 31 56  1  0  0  0
 34 57  1  0  0  0
M  END
$$$$
