2ilp_ligand
  -I-interpret- 

 21 21  0  0  0  0  0  0  0  0999 V2000
   -5.1480   -6.0740   21.4580 O   0  0  0  0  0
   -4.3600   -6.6480   22.1930 C   0  0  0  0  0
   -3.8010   -6.0090   23.2180 N   0  0  0  0  0
   -4.0290   -4.6500   23.4070 O   0  0  0  0  0
   -3.9550   -8.0410   21.9050 C   0  0  0  0  0
   -4.3270   -8.6090   20.7460 C   0  0  0  0  0
   -3.9600   -9.9950   20.3370 C   0  0  0  0  0
   -3.1550  -10.8420   21.1130 C   0  0  0  0  0
   -2.8550  -12.1340   20.6600 C   0  0  0  0  0
   -3.3530  -12.5970   19.4440 C   0  0  0  0  0
   -3.0330  -13.9980   18.9730 Cl  0  0  0  0  0
   -4.1470  -11.7480   18.6720 C   0  0  0  0  0
   -4.4530  -10.4600   19.1140 C   0  0  0  0  0
   -3.2025   -6.5184   23.8681 H   0  0  0  0  0
   -3.5539   -4.3523   24.1862 H   0  0  0  0  0
   -3.3603   -8.6014   22.6264 H   0  0  0  0  0
   -4.9359   -8.0191   20.0609 H   0  0  0  0  0
   -2.7625  -10.4952   22.0689 H   0  0  0  0  0
   -2.2245  -12.7843   21.2663 H   0  0  0  0  0
   -4.5325  -12.0946   17.7132 H   0  0  0  0  0
   -5.0805   -9.8123   18.5017 H   0  0  0  0  0
  1  2  2  0  0  0
  2  3  1  0  0  0
  2  5  1  0  0  0
  3  4  1  0  0  0
  5  6  2  0  0  0
  6  7  1  0  0  0
  7  8  4  0  0  0
  7 13  4  0  0  0
  8  9  4  0  0  0
  9 10  4  0  0  0
 10 11  1  0  0  0
 10 12  4  0  0  0
 12 13  4  0  0  0
  3 14  1  0  0  0
  4 15  1  0  0  0
  5 16  1  0  0  0
  6 17  1  0  0  0
  8 18  1  0  0  0
  9 19  1  0  0  0
 12 20  1  0  0  0
 13 21  1  0  0  0
M  END
$$$$
