1h6h_ligand
  -I-interpret- 

 67 67  0  0  0  0  0  0  0  0999 V2000
   10.9490   20.3160    5.6510 C   0  0  0  0  0
   11.8630   19.2320    5.0310 C   0  0  0  0  0
   11.9670   18.0000    6.0020 C   0  0  0  0  0
   10.5280   17.4240    6.3000 C   0  0  0  0  0
    9.6500   18.5310    6.9530 C   0  0  0  0  0
    9.5400   19.7450    5.9740 C   0  0  0  0  0
   10.8220   21.3850    4.7020 O   0  0  0  0  0
   11.3240   18.8240    3.7830 O   0  0  0  0  0
   12.8210   17.0480    5.3580 O   0  0  0  0  0
   10.6080   16.3110    7.2060 O   0  0  0  0  0
    8.3450   18.0280    7.1970 O   0  0  0  0  0
    8.7370   20.7580    6.5800 O   0  0  0  0  0
   11.7070   22.6980    4.6800 P   0  0  0  0  0
   11.7850   23.2070    3.1700 O   0  0  0  0  0
   13.1300   22.4370    5.2810 O   0  0  0  0  0
   10.9450   23.7970    5.5800 O   0  0  0  0  0
   13.8080   16.0370    6.1510 P   0  0  0  0  0
   12.9260   15.0260    6.9970 O   0  0  0  0  0
   14.6980   16.9070    7.1270 O   0  0  0  0  0
   14.6690   15.2550    5.0630 O   0  0  0  0  0
    9.8960   24.5900    5.0580 C   0  0  0  0  0
   10.5070   25.9650    4.8440 C   0  0  0  0  0
   10.3390   26.8560    6.1000 C   0  0  0  0  0
    9.1200   28.8350    6.7970 C   0  0  0  0  0
    8.9280   30.3190    6.4550 C   0  0  0  0  0
    9.1290   31.3280    7.6060 C   0  0  0  0  0
    9.1150   32.7900    7.1320 C   0  0  0  0  0
   10.8730   26.6200    2.4930 C   0  0  0  0  0
   10.3650   27.6260    1.4670 C   0  0  0  0  0
   10.9480   29.0420    1.6070 C   0  0  0  0  0
    9.9960   29.9850    2.3420 C   0  0  0  0  0
   10.0380   26.5760    3.6160 O   0  0  0  0  0
    9.8700   28.1910    5.8160 O   0  0  0  0  0
    8.8100   28.3660    7.9060 O   0  0  0  0  0
   12.0210   26.1790    2.4290 O   0  0  0  0  0
   11.3904   20.6685    6.5832 H   0  0  0  0  0
   12.8615   19.6413    4.8775 H   0  0  0  0  0
   12.3874   18.2713    6.9704 H   0  0  0  0  0
   10.0874   17.0942    5.3592 H   0  0  0  0  0
   10.1074   18.8417    7.8924 H   0  0  0  0  0
    9.0819   19.4129    5.0424 H   0  0  0  0  0
   11.2647   19.5828    3.1979 H   0  0  0  0  0
   11.1475   15.6198    6.8151 H   0  0  0  0  0
    8.3983   17.2810    7.7977 H   0  0  0  0  0
    8.6652   21.5071    5.9839 H   0  0  0  0  0
   10.8968   23.3555    2.8373 H   0  0  0  0  0
   12.3867   14.4990    6.4028 H   0  0  0  0  0
   14.0830   14.7450    4.4990 H   0  0  0  0  0
    9.0443   24.6290    5.7371 H   0  0  0  0  0
    9.5013   24.1758    4.1302 H   0  0  0  0  0
   11.5821   25.8465    4.7093 H   0  0  0  0  0
   11.3215   26.9506    6.5624 H   0  0  0  0  0
    9.5925   26.3801    6.7359 H   0  0  0  0  0
    7.8888   30.4230    6.1429 H   0  0  0  0  0
    9.6889   30.5564    5.7115 H   0  0  0  0  0
   10.1041   31.1329    8.0523 H   0  0  0  0  0
    8.3057   31.1987    8.3086 H   0  0  0  0  0
    9.9179   32.9446    6.4112 H   0  0  0  0  0
    8.1561   33.0092    6.6623 H   0  0  0  0  0
    9.2611   33.4494    7.9875 H   0  0  0  0  0
    9.2884   27.7115    1.6145 H   0  0  0  0  0
   10.6650   27.2563    0.4865 H   0  0  0  0  0
   11.1169   29.4408    0.6067 H   0  0  0  0  0
   11.8713   28.9744    2.1823 H   0  0  0  0  0
    9.0588   30.0559    1.7900 H   0  0  0  0  0
    9.8018   29.5965    3.3417 H   0  0  0  0  0
   10.4508   30.9728    2.4166 H   0  0  0  0  0
  1  7  1  0  0  0
  1  6  1  0  0  0
  1  2  1  0  0  0
  2  8  1  0  0  0
  2  3  1  0  0  0
  3  9  1  0  0  0
  3  4  1  0  0  0
  4 10  1  0  0  0
  4  5  1  0  0  0
  5 11  1  0  0  0
  5  6  1  0  0  0
  6 12  1  0  0  0
  9 17  1  0  0  0
 17 20  1  0  0  0
 17 19  2  0  0  0
 17 18  1  0  0  0
  7 13  1  0  0  0
 13 16  1  0  0  0
 13 15  2  0  0  0
 13 14  1  0  0  0
 16 21  1  0  0  0
 21 22  1  0  0  0
 22 32  1  0  0  0
 22 23  1  0  0  0
 23 33  1  0  0  0
 33 24  1  0  0  0
 24 34  2  0  0  0
 24 25  1  0  0  0
 25 26  1  0  0  0
 26 27  1  0  0  0
 32 28  1  0  0  0
 28 35  2  0  0  0
 28 29  1  0  0  0
 29 30  1  0  0  0
 30 31  1  0  0  0
  1 36  1  0  0  0
  2 37  1  0  0  0
  3 38  1  0  0  0
  4 39  1  0  0  0
  5 40  1  0  0  0
  6 41  1  0  0  0
  8 42  1  0  0  0
 10 43  1  0  0  0
 11 44  1  0  0  0
 12 45  1  0  0  0
 14 46  1  0  0  0
 18 47  1  0  0  0
 20 48  1  0  0  0
 21 49  1  0  0  0
 21 50  1  0  0  0
 22 51  1  0  0  0
 23 52  1  0  0  0
 23 53  1  0  0  0
 25 54  1  0  0  0
 25 55  1  0  0  0
 26 56  1  0  0  0
 26 57  1  0  0  0
 27 58  1  0  0  0
 27 59  1  0  0  0
 27 60  1  0  0  0
 29 61  1  0  0  0
 29 62  1  0  0  0
 30 63  1  0  0  0
 30 64  1  0  0  0
 31 65  1  0  0  0
 31 66  1  0  0  0
 31 67  1  0  0  0
M  END
$$$$
