### 
### Created by X-TOOL on Mon Sep 10 21:13:05 2018
### 

@<TRIPOS>MOLECULE
2y57_ligand
   50    53     1     0     0
SMALL
GAST_HUCK


@<TRIPOS>ATOM
      1 O2        -31.1780  -86.6850   27.1200 O.2       1 V37        -0.3568
      2 C1        -31.7510  -86.3820   28.1610 C.2       1 V37         0.2635
      3 C2        -33.0910  -85.7000   28.1430 C.ar      1 V37         0.0620
      4 C7        -33.6460  -85.2500   29.3340 C.ar      1 V37        -0.0406
      5 C6        -34.8750  -84.5960   29.3190 C.ar      1 V37        -0.0559
      6 C5        -35.5670  -84.4100   28.1210 C.ar      1 V37        -0.0573
      7 C4        -35.0200  -84.8680   26.9250 C.ar      1 V37        -0.0559
      8 C3        -33.7750  -85.5010   26.9420 C.ar      1 V37        -0.0406
      9 O1        -31.1370  -86.6810   29.4410 O.3       1 V37        -0.2743
     10 C8        -29.7880  -87.1200   29.3840 C.3       1 V37         0.0834
     11 C12       -29.0780  -86.5150   30.6060 C.3       1 V37        -0.0382
     12 C11       -29.2000  -87.3670   31.8680 C.3       1 V37        -0.0971
     13 C13       -30.6750  -87.6060   32.2060 C.3       1 V37        -0.0705
     14 C14       -31.0690  -88.8540   31.4190 C.3       1 V37        -0.0705
     15 C10       -29.7940  -89.3030   30.7150 C.3       1 V37        -0.0971
     16 C9        -29.7750  -88.6570   29.3300 C.3       1 V37        -0.0382
     17 N         -28.6900  -88.6930   31.5020 N.4       1 V37         0.4086
     18 C15       -28.4290  -89.4490   32.7310 C.3       1 V37        -0.1020
     19 C16       -27.6640  -90.7230   32.3980 C.3       1 V37        -0.0378
     20 C17       -27.2330  -91.3060   33.7220 C.ar      1 V37        -0.0450
     21 C22       -27.9330  -92.3910   34.2590 C.ar      1 V37        -0.0604
     22 C21       -27.5630  -92.9160   35.4980 C.ar      1 V37        -0.0686
     23 C20       -26.4890  -92.3660   36.1920 C.ar      1 V37        -0.0687
     24 C19       -25.8020  -91.2810   35.6530 C.ar      1 V37        -0.0686
     25 C18       -26.1720  -90.7350   34.4250 C.ar      1 V37        -0.0604
     26 H         -33.1216  -85.4082   30.2764 H         1 V37         0.0672
     27 H         -35.3009  -84.2257   30.2515 H         1 V37         0.0630
     28 H         -36.5340  -83.9070   28.1217 H         1 V37         0.0654
     29 H         -35.5574  -84.7340   25.9862 H         1 V37         0.0630
     30 H         -33.3322  -85.8437   26.0068 H         1 V37         0.0672
     31 H         -29.2536  -86.7897   28.4932 H         1 V37         0.0646
     32 H         -29.5476  -85.5536   30.8141 H         1 V37         0.0276
     33 H         -28.0179  -86.4395   30.3639 H         1 V37         0.0276
     34 H         -28.6822  -86.8813   32.6951 H         1 V37         0.0054
     35 H         -31.2930  -86.7493   31.9372 H         1 V37         0.0248
     36 H         -30.8252  -87.7419   33.2770 H         1 V37         0.0248
     37 H         -31.8681  -88.6448   30.7079 H         1 V37         0.0248
     38 H         -31.4629  -89.6329   32.0719 H         1 V37         0.0248
     39 H         -29.7156  -90.3871   30.6332 H         1 V37         0.0054
     40 H         -28.8549  -88.9642   28.8328 H         1 V37         0.0276
     41 H         -30.6723  -88.9784   28.8012 H         1 V37         0.0276
     42 H         -29.3765  -89.7096   33.2027 H         1 V37         0.0039
     43 H         -27.8351  -88.8385   33.4112 H         1 V37         0.0039
     44 H         -26.8053  -90.5132   31.7602 H         1 V37         0.0406
     45 H         -28.2863  -91.4237   31.8414 H         1 V37         0.0406
     46 H         -28.7677  -92.8267   33.7098 H         1 V37         0.0557
     47 H         -28.1142  -93.7555   35.9216 H         1 V37         0.0599
     48 H         -26.1870  -92.7826   37.1529 H         1 V37         0.0559
     49 H         -24.9622  -90.8522   36.1998 H         1 V37         0.0599
     50 H         -25.6399  -89.8743   34.0199 H         1 V37         0.0557
@<TRIPOS>BOND
     1    1    2 2  
     2    2    3 1  
     3    2    9 1  
     4    3    4 ar 
     5    3    8 ar 
     6    4    5 ar 
     7    5    6 ar 
     8    6    7 ar 
     9    7    8 ar 
    10    9   10 1  
    11   10   11 1  
    12   10   16 1  
    13   11   12 1  
    14   12   13 1  
    15   12   17 1  
    16   13   14 1  
    17   14   15 1  
    18   15   16 1  
    19   15   17 1  
    20   17   18 1  
    21   18   19 1  
    22   19   20 1  
    23   20   21 ar 
    24   20   25 ar 
    25   21   22 ar 
    26   22   23 ar 
    27   23   24 ar 
    28   24   25 ar 
    29    4   26 1  
    30    5   27 1  
    31    6   28 1  
    32    7   29 1  
    33    8   30 1  
    34   10   31 1  
    35   11   32 1  
    36   11   33 1  
    37   12   34 1  
    38   13   35 1  
    39   13   36 1  
    40   14   37 1  
    41   14   38 1  
    42   15   39 1  
    43   16   40 1  
    44   16   41 1  
    45   18   42 1  
    46   18   43 1  
    47   19   44 1  
    48   19   45 1  
    49   21   46 1  
    50   22   47 1  
    51   23   48 1  
    52   24   49 1  
    53   25   50 1  
@<TRIPOS>SUBSTRUCTURE
     1 V37         1

