2y57_ligand
  -I-interpret- 

 51 54  0  0  0  0  0  0  0  0999 V2000
  -31.1780  -86.6850   27.1200 O   0  0  0  0  0
  -31.7510  -86.3820   28.1610 C   0  0  0  0  0
  -33.0910  -85.7000   28.1430 C   0  0  0  0  0
  -33.6460  -85.2500   29.3340 C   0  0  0  0  0
  -34.8750  -84.5960   29.3190 C   0  0  0  0  0
  -35.5670  -84.4100   28.1210 C   0  0  0  0  0
  -35.0200  -84.8680   26.9250 C   0  0  0  0  0
  -33.7750  -85.5010   26.9420 C   0  0  0  0  0
  -31.1370  -86.6810   29.4410 O   0  0  0  0  0
  -29.7880  -87.1200   29.3840 C   0  0  0  0  0
  -29.0780  -86.5150   30.6060 C   0  0  0  0  0
  -29.2000  -87.3670   31.8680 C   0  0  0  0  0
  -30.6750  -87.6060   32.2060 C   0  0  0  0  0
  -31.0690  -88.8540   31.4190 C   0  0  0  0  0
  -29.7940  -89.3030   30.7150 C   0  0  0  0  0
  -29.7750  -88.6570   29.3300 C   0  0  0  0  0
  -28.6900  -88.6930   31.5020 N   0  3  0  0  0
  -28.4290  -89.4490   32.7310 C   0  0  0  0  0
  -27.6640  -90.7230   32.3980 C   0  0  0  0  0
  -27.2330  -91.3060   33.7220 C   0  0  0  0  0
  -27.9330  -92.3910   34.2590 C   0  0  0  0  0
  -27.5630  -92.9160   35.4980 C   0  0  0  0  0
  -26.4890  -92.3660   36.1920 C   0  0  0  0  0
  -25.8020  -91.2810   35.6530 C   0  0  0  0  0
  -26.1720  -90.7350   34.4250 C   0  0  0  0  0
  -33.1216  -85.4082   30.2764 H   0  0  0  0  0
  -35.3009  -84.2257   30.2515 H   0  0  0  0  0
  -36.5340  -83.9070   28.1217 H   0  0  0  0  0
  -35.5574  -84.7340   25.9862 H   0  0  0  0  0
  -33.3322  -85.8437   26.0068 H   0  0  0  0  0
  -29.2536  -86.7897   28.4932 H   0  0  0  0  0
  -29.5476  -85.5536   30.8141 H   0  0  0  0  0
  -28.0179  -86.4395   30.3639 H   0  0  0  0  0
  -28.6822  -86.8813   32.6951 H   0  0  0  0  0
  -31.2930  -86.7493   31.9372 H   0  0  0  0  0
  -30.8252  -87.7419   33.2770 H   0  0  0  0  0
  -31.8681  -88.6448   30.7079 H   0  0  0  0  0
  -31.4629  -89.6329   32.0719 H   0  0  0  0  0
  -29.7156  -90.3871   30.6332 H   0  0  0  0  0
  -28.8549  -88.9642   28.8328 H   0  0  0  0  0
  -30.6723  -88.9784   28.8012 H   0  0  0  0  0
  -27.8202  -88.6720   30.9697 H   0  0  0  0  0
  -29.3765  -89.7096   33.2027 H   0  0  0  0  0
  -27.8351  -88.8385   33.4112 H   0  0  0  0  0
  -26.8053  -90.5132   31.7602 H   0  0  0  0  0
  -28.2863  -91.4237   31.8414 H   0  0  0  0  0
  -28.7677  -92.8267   33.7098 H   0  0  0  0  0
  -28.1142  -93.7555   35.9216 H   0  0  0  0  0
  -26.1870  -92.7826   37.1529 H   0  0  0  0  0
  -24.9622  -90.8522   36.1998 H   0  0  0  0  0
  -25.6399  -89.8743   34.0199 H   0  0  0  0  0
  1  2  2  0  0  0
  2  3  1  0  0  0
  2  9  1  0  0  0
  3  4  4  0  0  0
  3  8  4  0  0  0
  4  5  4  0  0  0
  5  6  4  0  0  0
  6  7  4  0  0  0
  7  8  4  0  0  0
  9 10  1  0  0  0
 10 11  1  0  0  0
 10 16  1  0  0  0
 11 12  1  0  0  0
 12 13  1  0  0  0
 12 17  1  0  0  0
 13 14  1  0  0  0
 14 15  1  0  0  0
 15 16  1  0  0  0
 15 17  1  0  0  0
 17 18  1  0  0  0
 18 19  1  0  0  0
 19 20  1  0  0  0
 20 21  4  0  0  0
 20 25  4  0  0  0
 21 22  4  0  0  0
 22 23  4  0  0  0
 23 24  4  0  0  0
 24 25  4  0  0  0
  4 26  1  0  0  0
  5 27  1  0  0  0
  6 28  1  0  0  0
  7 29  1  0  0  0
  8 30  1  0  0  0
 10 31  1  0  0  0
 11 32  1  0  0  0
 11 33  1  0  0  0
 12 34  1  0  0  0
 13 35  1  0  0  0
 13 36  1  0  0  0
 14 37  1  0  0  0
 14 38  1  0  0  0
 15 39  1  0  0  0
 16 40  1  0  0  0
 16 41  1  0  0  0
 17 42  1  0  0  0
 18 43  1  0  0  0
 18 44  1  0  0  0
 19 45  1  0  0  0
 19 46  1  0  0  0
 21 47  1  0  0  0
 22 48  1  0  0  0
 23 49  1  0  0  0
 24 50  1  0  0  0
 25 51  1  0  0  0
M  END
$$$$
