2p8h_ligand
  -I-interpret- 

 87 90  0  0  0  0  0  0  0  0999 V2000
   32.1850   44.2740    6.0810 C   0  0  0  0  0
   32.6060   45.3040    5.1170 C   0  0  0  0  0
   32.5730   46.7340    5.3770 C   0  0  0  0  0
   32.1190   47.1660    6.6770 C   0  0  0  0  0
   31.7640   46.1370    7.6220 C   0  0  0  0  0
   31.7730   44.7050    7.3840 C   0  0  0  0  0
   33.1310   44.9540    3.7740 C   0  0  0  0  0
   32.2070   44.1910    2.9440 N   0  0  0  0  0
   31.4220   44.6770    1.9210 C   0  0  0  0  0
   30.4450   43.7270    1.3410 C   0  0  0  0  0
   30.7740   42.3320    1.2320 C   0  0  0  0  0
   29.8000   41.3750    0.8380 C   0  0  0  0  0
   28.4720   41.8070    0.4710 C   0  0  0  0  0
   28.1050   43.2000    0.4850 C   0  0  0  0  0
   29.1160   44.1440    0.9340 C   0  0  0  0  0
   26.8040   43.5560    0.0790 N   0  0  0  0  0
   25.9420   44.7830    0.7850 S   0  0  0  0  0
   26.2710   46.3560    0.0070 C   0  0  0  0  0
   26.2440   43.0030   -1.1970 C   0  0  0  0  0
   30.1350   39.9540    0.7600 C   0  0  0  0  0
   31.5470   45.8410    1.5330 O   0  0  0  0  0
   26.4540   44.9280    2.1180 O   0  0  0  0  0
   24.5390   44.4870    0.6790 O   0  0  0  0  0
   29.9030   39.2940   -0.2560 O   0  0  0  0  0
   34.4420   44.1630    3.9240 C   0  0  0  0  0
   30.7160   39.4100    1.8720 N   0  0  0  0  0
   31.4290   38.1100    1.8020 C   0  0  0  0  0
   32.8820   38.3470    2.2210 C   0  0  0  0  0
   33.6450   39.4470    1.4640 C   0  0  0  0  0
   33.5320   39.6790    0.0090 C   0  0  0  0  0
   34.3120   40.7450   -0.5790 C   0  0  0  0  0
   35.1670   41.5550    0.2780 C   0  0  0  0  0
   35.3140   41.3190    1.7080 C   0  0  0  0  0
   34.5170   40.2560    2.3030 C   0  0  0  0  0
   30.7540   37.0830    2.7550 C   0  0  0  0  0
   31.4260   35.9300    2.8070 O   0  0  0  0  0
   31.3920   46.5360    8.8460 F   0  0  0  0  0
   27.5610   35.3400    2.2870 C   0  0  0  0  0
   28.6070   35.8620    3.1670 N   0  3  0  0  0
   29.2840   36.8200    2.2840 C   0  0  0  0  0
   29.2600   36.1190    0.9280 C   0  0  0  0  0
   28.2100   35.2960    0.9620 N   0  0  0  0  0
   29.9930   36.2280   -0.0510 O   0  0  0  0  0
   27.7380   34.4090   -0.1020 C   0  0  0  0  0
   26.3340   36.2840    2.2470 C   0  0  0  0  0
   27.1540   33.9620    2.7910 C   0  0  0  0  0
   32.1866   43.2177    5.8122 H   0  0  0  0  0
   32.8799   47.4535    4.6179 H   0  0  0  0  0
   32.0477   48.2231    6.9329 H   0  0  0  0  0
   31.4813   43.9940    8.1569 H   0  0  0  0  0
   33.2914   45.9025    3.2615 H   0  0  0  0  0
   32.1338   43.1929    3.1411 H   0  0  0  0  0
   31.7886   42.0023    1.4555 H   0  0  0  0  0
   27.7314   41.0632    0.1771 H   0  0  0  0  0
   28.8661   45.2045    0.9660 H   0  0  0  0  0
   25.7587   47.1458    0.5564 H   0  0  0  0  0
   27.3444   46.5452    0.0126 H   0  0  0  0  0
   25.9100   46.3339   -1.0213 H   0  0  0  0  0
   25.2471   42.6032   -1.0116 H   0  0  0  0  0
   26.1857   43.7974   -1.9411 H   0  0  0  0  0
   26.8935   42.2078   -1.5628 H   0  0  0  0  0
   34.2333   43.2020    4.3941 H   0  0  0  0  0
   34.8810   43.9997    2.9398 H   0  0  0  0  0
   35.1373   44.7288    4.5440 H   0  0  0  0  0
   30.6586   39.9046    2.7622 H   0  0  0  0  0
   31.3912   37.7084    0.7894 H   0  0  0  0  0
   33.4109   37.4166    2.0144 H   0  0  0  0  0
   32.8471   38.6666    3.2625 H   0  0  0  0  0
   32.8768   39.0618   -0.6057 H   0  0  0  0  0
   34.2608   40.9400   -1.6502 H   0  0  0  0  0
   35.7235   42.3771   -0.1722 H   0  0  0  0  0
   35.9968   41.9173    2.3113 H   0  0  0  0  0
   34.5731   40.0662    3.3749 H   0  0  0  0  0
   30.7558   37.5085    3.7585 H   0  0  0  0  0
   30.9777   35.3263    3.4038 H   0  0  0  0  0
   29.2261   35.1406    3.5368 H   0  0  0  0  0
   28.2468   36.2817    4.0240 H   0  0  0  0  0
   28.8048   37.7989    2.2695 H   0  0  0  0  0
   27.7996   33.3743    0.2352 H   0  0  0  0  0
   26.7035   34.6526   -0.3441 H   0  0  0  0  0
   28.3605   34.5418   -0.9868 H   0  0  0  0  0
   25.9230   36.3863    3.2514 H   0  0  0  0  0
   26.6417   37.2622    1.8775 H   0  0  0  0  0
   25.5767   35.8655    1.5840 H   0  0  0  0  0
   28.0202   33.3005    2.7756 H   0  0  0  0  0
   26.7775   34.0460    3.8104 H   0  0  0  0  0
   26.3740   33.5566    2.1465 H   0  0  0  0  0
  2  1  4  0  0  0
  1  6  4  0  0  0
  2  3  4  0  0  0
  7  2  1  0  0  0
  3  4  4  0  0  0
  4  5  4  0  0  0
  6  5  4  0  0  0
  5 37  1  0  0  0
  8  7  1  0  0  0
  7 25  1  0  0  0
  9  8  1  0  0  0
 10  9  1  0  0  0
  9 21  2  0  0  0
 11 10  4  0  0  0
 10 15  4  0  0  0
 12 11  4  0  0  0
 12 13  4  0  0  0
 20 12  1  0  0  0
 13 14  4  0  0  0
 14 15  4  0  0  0
 14 16  1  0  0  0
 16 17  1  0  0  0
 16 19  1  0  0  0
 17 18  1  0  0  0
 17 22  2  0  0  0
 17 23  2  0  0  0
 20 24  2  0  0  0
 26 20  1  0  0  0
 27 26  1  0  0  0
 27 28  1  0  0  0
 35 27  1  0  0  0
 28 29  1  0  0  0
 29 30  4  0  0  0
 29 34  4  0  0  0
 30 31  4  0  0  0
 31 32  4  0  0  0
 33 32  4  0  0  0
 34 33  4  0  0  0
 35 36  1  0  0  0
 40 35  1  0  0  0
 39 38  1  0  0  0
 38 42  1  0  0  0
 38 45  1  0  0  0
 38 46  1  0  0  0
 39 40  1  0  0  0
 40 41  1  0  0  0
 41 42  1  0  0  0
 41 43  2  0  0  0
 42 44  1  0  0  0
  1 47  1  0  0  0
  3 48  1  0  0  0
  4 49  1  0  0  0
  6 50  1  0  0  0
  7 51  1  0  0  0
  8 52  1  0  0  0
 11 53  1  0  0  0
 13 54  1  0  0  0
 15 55  1  0  0  0
 18 56  1  0  0  0
 18 57  1  0  0  0
 18 58  1  0  0  0
 19 59  1  0  0  0
 19 60  1  0  0  0
 19 61  1  0  0  0
 25 62  1  0  0  0
 25 63  1  0  0  0
 25 64  1  0  0  0
 26 65  1  0  0  0
 27 66  1  0  0  0
 28 67  1  0  0  0
 28 68  1  0  0  0
 30 69  1  0  0  0
 31 70  1  0  0  0
 32 71  1  0  0  0
 33 72  1  0  0  0
 34 73  1  0  0  0
 35 74  1  0  0  0
 36 75  1  0  0  0
 39 76  1  0  0  0
 39 77  1  0  0  0
 40 78  1  0  0  0
 44 79  1  0  0  0
 44 80  1  0  0  0
 44 81  1  0  0  0
 45 82  1  0  0  0
 45 83  1  0  0  0
 45 84  1  0  0  0
 46 85  1  0  0  0
 46 86  1  0  0  0
 46 87  1  0  0  0
M  END
$$$$
