1g5f_ligand
  -I-interpret- 

  8  7  0  0  0  0  0  0  0  0999 V2000
    8.9790   25.4740   26.7370 Cl  0  0  0  0  0
    7.4410   24.9740   26.0280 C   0  0  0  0  0
    7.3380   25.5240   24.5950 C   0  0  0  0  0
    7.1130   24.1880   23.4610 Cl  0  0  0  0  0
    6.6190   25.3641   26.6282 H   0  0  0  0  0
    7.3866   23.8856   26.0055 H   0  0  0  0  0
    8.2543   26.0594   24.3462 H   0  0  0  0  0
    6.4876   26.2025   24.5281 H   0  0  0  0  0
  1  2  1  0  0  0
  2  3  1  0  0  0
  3  4  1  0  0  0
  2  5  1  0  0  0
  2  6  1  0  0  0
  3  7  1  0  0  0
  3  8  1  0  0  0
M  END
$$$$
