2xel_ligand
  -I-interpret- 

 20 21  0  0  0  0  0  0  0  0999 V2000
   30.3450   46.9300   28.1360 Cl  0  0  0  0  0
   28.6460   47.2330   28.2970 C   0  0  0  0  0
   27.8740   47.4030   29.4650 C   0  0  0  0  0
   28.4540   47.3500   31.1110 Cl  0  0  0  0  0
   26.5170   47.6280   29.0610 C   0  0  0  0  0
   25.2250   47.8860   30.2070 Cl  0  0  0  0  0
   26.4680   47.5920   27.6130 C   0  0  0  0  0
   25.3880   47.7410   26.5220 C   0  0  0  0  0
   25.8580   47.4990   25.1430 C   0  0  0  0  0
   24.9640   47.5920   24.0090 C   0  0  0  0  0
   25.5390   47.3050   22.4020 Cl  0  0  0  0  0
   23.9490   48.0930   26.7210 C   0  0  0  0  0
   23.0830   48.1720   25.5410 C   0  0  0  0  0
   27.7920   47.3510   27.2450 N   0  0  0  0  0
   21.4120   48.5640   25.6940 Cl  0  0  0  0  0
   23.5810   47.9270   24.2130 C   0  0  0  0  0
   23.4190   48.3350   27.9500 O   0  0  0  0  0
   26.9044   47.2440   24.9753 H   0  0  0  0  0
   22.9072   47.9957   23.3590 H   0  0  0  0  0
   22.4859   48.5419   27.8598 H   0  0  0  0  0
  1  2  1  0  0  0
  2  3  4  0  0  0
  2 14  4  0  0  0
  3  4  1  0  0  0
  3  5  4  0  0  0
  5  6  1  0  0  0
  5  7  4  0  0  0
  7  8  1  0  0  0
  7 14  4  0  0  0
  8  9  4  0  0  0
  8 12  4  0  0  0
  9 10  4  0  0  0
 10 11  1  0  0  0
 10 16  4  0  0  0
 12 13  4  0  0  0
 12 17  1  0  0  0
 13 15  1  0  0  0
 13 16  4  0  0  0
  9 18  1  0  0  0
 16 19  1  0  0  0
 17 20  1  0  0  0
M  END
$$$$
