6rz6_ligand
  -I-interpret- 

 71 74  0  0  0  0  0  0  0  0999 V2000
  -18.7560   18.8300  -19.5880 C   0  0  0  0  0
  -25.4500   13.5890  -19.8510 C   0  0  0  0  0
  -17.8020   17.8950  -18.8610 C   0  0  0  0  0
  -16.6110   18.6270  -18.2660 C   0  0  0  0  0
  -23.0140   16.7430  -17.7810 C   0  0  0  0  0
  -15.7760   19.3370  -19.3120 C   0  0  0  0  0
  -20.9500   17.7060  -19.3780 C   0  0  0  0  0
  -21.1070   18.1480  -18.0600 C   0  0  0  0  0
  -22.1360   17.6750  -17.2820 C   0  0  0  0  0
  -22.8640   16.2620  -19.0700 C   0  0  0  0  0
  -24.8010   14.6620  -19.0360 C   0  0  0  0  0
  -19.9080   18.1250  -20.1720 N   0  0  0  0  0
  -23.7480   15.2930  -19.6140 N   0  0  0  0  0
  -19.8270   17.7580  -21.5870 C   0  0  0  0  0
  -21.1490   17.1690  -22.0750 C   0  0  0  0  0
  -24.9770   13.1730  -21.0930 C   0  0  0  0  0
  -25.6160   12.1700  -21.7980 C   0  0  0  0  0
  -26.7590   11.5810  -21.2700 C   0  0  0  0  0
  -26.8650    9.9360  -23.0370 C   0  0  0  0  0
  -27.8000    8.8400  -23.4890 C   0  0  0  0  0
  -20.9680   16.4220  -23.3860 C   0  0  0  0  0
  -28.1260    7.8080  -22.4110 C   0  0  0  0  0
  -29.1090    6.7440  -22.8860 C   0  0  0  0  0
  -29.4930    5.8330  -21.7520 C   0  0  0  0  0
  -28.7830    4.6690  -21.4530 C   0  0  0  0  0
  -29.2010    3.8740  -20.4080 C   0  0  0  0  0
  -30.3010    4.1590  -19.6540 C   0  0  0  0  0
  -31.0110    5.3050  -19.9380 C   0  0  0  0  0
  -30.6170    6.1170  -20.9820 C   0  0  0  0  0
  -27.2380   11.9870  -20.0350 C   0  0  0  0  0
  -26.5880   12.9820  -19.3370 C   0  0  0  0  0
  -21.8300   16.7440  -19.8700 C   0  0  0  0  0
  -28.5090    2.7420  -20.1060 F   0  0  0  0  0
  -20.6160   17.0300  -24.3720 O   0  0  0  0  0
  -21.1690   15.2260  -23.4240 O   0  0  0  0  0
  -15.6960   20.5790  -19.2640 O   0  0  0  0  0
  -15.2270   18.6410  -20.1880 O   0  0  0  0  0
  -25.2160   14.9130  -17.9080 O   0  0  0  0  0
  -27.4520   10.5810  -21.9000 O   0  0  0  0  0
  -21.7220   16.2590  -21.1440 O   0  0  0  0  0
  -31.5740    7.5430  -21.2930 Cl  0  0  0  0  0
  -18.2058   19.3029  -20.4015 H   0  0  0  0  0
  -19.1366   19.5494  -18.8630 H   0  0  0  0  0
  -17.4252   17.1707  -19.5832 H   0  0  0  0  0
  -18.3495   17.4240  -18.0446 H   0  0  0  0  0
  -15.9758   17.8887  -17.7766 H   0  0  0  0  0
  -16.9924   19.3797  -17.5760 H   0  0  0  0  0
  -23.8324   16.3809  -17.1587 H   0  0  0  0  0
  -20.4069   18.8740  -17.6467 H   0  0  0  0  0
  -22.2567   18.0413  -16.2625 H   0  0  0  0  0
  -23.5642   15.0327  -20.5829 H   0  0  0  0  0
  -19.0437   17.0101  -21.7104 H   0  0  0  0  0
  -19.6065   18.6530  -22.1688 H   0  0  0  0  0
  -21.8149   18.0225  -22.2025 H   0  0  0  0  0
  -24.0900   13.6451  -21.5155 H   0  0  0  0  0
  -25.2259   11.8431  -22.7619 H   0  0  0  0  0
  -26.7138   10.6562  -23.8411 H   0  0  0  0  0
  -25.8947    9.5163  -22.7715 H   0  0  0  0  0
  -27.3034    8.3094  -24.3014 H   0  0  0  0  0
  -28.7389    9.3158  -23.7721 H   0  0  0  0  0
  -28.5843    8.3346  -21.5738 H   0  0  0  0  0
  -27.1975    7.3058  -22.1393 H   0  0  0  0  0
  -28.6368    6.1520  -23.6700 H   0  0  0  0  0
  -30.0059    7.2353  -23.2633 H   0  0  0  0  0
  -27.9073    4.3919  -22.0399 H   0  0  0  0  0
  -30.6110    3.4961  -18.8462 H   0  0  0  0  0
  -31.8824    5.5699  -19.3392 H   0  0  0  0  0
  -28.1288   11.5196  -19.6154 H   0  0  0  0  0
  -26.9731   13.2970  -18.3671 H   0  0  0  0  0
  -21.4388   14.9202  -22.5549 H   0  0  0  0  0
  -15.4231   17.7148  -20.0287 H   0  0  0  0  0
  1  3  1  0  0  0
 12  1  1  0  0  0
  2 11  1  0  0  0
 16  2  4  0  0  0
  2 31  4  0  0  0
  3  4  1  0  0  0
  4  6  1  0  0  0
  5  9  4  0  0  0
 10  5  4  0  0  0
  6 36  2  0  0  0
  6 37  1  0  0  0
  7  8  4  0  0  0
  7 12  1  0  0  0
 32  7  4  0  0  0
  9  8  4  0  0  0
 13 10  1  0  0  0
 10 32  4  0  0  0
 11 13  1  0  0  0
 11 38  2  0  0  0
 12 14  1  0  0  0
 14 15  1  0  0  0
 15 21  1  0  0  0
 15 40  1  0  0  0
 17 16  4  0  0  0
 18 17  4  0  0  0
 18 30  4  0  0  0
 39 18  1  0  0  0
 19 20  1  0  0  0
 19 39  1  0  0  0
 20 22  1  0  0  0
 21 34  2  0  0  0
 21 35  1  0  0  0
 22 23  1  0  0  0
 23 24  1  0  0  0
 24 25  4  0  0  0
 24 29  4  0  0  0
 25 26  4  0  0  0
 26 27  4  0  0  0
 26 33  1  0  0  0
 27 28  4  0  0  0
 28 29  4  0  0  0
 29 41  1  0  0  0
 30 31  4  0  0  0
 32 40  1  0  0  0
  1 42  1  0  0  0
  1 43  1  0  0  0
  3 44  1  0  0  0
  3 45  1  0  0  0
  4 46  1  0  0  0
  4 47  1  0  0  0
  5 48  1  0  0  0
  8 49  1  0  0  0
  9 50  1  0  0  0
 13 51  1  0  0  0
 14 52  1  0  0  0
 14 53  1  0  0  0
 15 54  1  0  0  0
 16 55  1  0  0  0
 17 56  1  0  0  0
 19 57  1  0  0  0
 19 58  1  0  0  0
 20 59  1  0  0  0
 20 60  1  0  0  0
 22 61  1  0  0  0
 22 62  1  0  0  0
 23 63  1  0  0  0
 23 64  1  0  0  0
 25 65  1  0  0  0
 27 66  1  0  0  0
 28 67  1  0  0  0
 30 68  1  0  0  0
 31 69  1  0  0  0
 35 70  1  0  0  0
 37 71  1  0  0  0
M  END
$$$$
