4jj8_ligand
  -I-interpret- 

 99 99  0  0  0  0  0  0  0  0999 V2000
   29.7240   26.5520   -6.6640 C   0  0  0  0  0
   30.6370   25.7910   -6.9380 O   0  0  0  0  0
   28.6860   26.1520   -5.6410 C   0  0  0  0  0
   29.5180   27.6250   -7.4210 N   0  0  0  0  0
   29.9260   29.0280   -7.1450 C   0  0  0  0  0
   30.4780   29.1920   -5.7490 C   0  0  0  0  0
   31.6790   29.1200   -5.5500 O   0  0  0  0  0
   28.7320   29.9600   -7.3120 C   0  0  0  0  0
   29.2320   31.3860   -7.3690 C   0  0  0  0  0
   29.9780   31.8180   -8.4600 C   0  0  0  0  0
   30.4270   33.0790   -8.5210 N   0  0  0  0  0
   30.1710   33.9540   -7.5400 C   0  0  0  0  0
   29.4290   33.5750   -6.4270 C   0  0  0  0  0
   28.9500   32.2740   -6.3390 C   0  0  0  0  0
   29.5970   29.3640   -4.7620 N   0  0  0  0  0
   29.9860   29.6960   -3.3910 C   0  0  0  0  0
   30.7860   28.6060   -2.6710 C   0  0  0  0  0
   31.0590   28.7270   -1.4750 O   0  0  0  0  0
   28.7360   30.0220   -2.5700 C   0  0  0  0  0
   27.8080   30.9890   -3.2810 C   0  0  0  0  0
   26.9850   30.5300   -4.1010 O   0  0  0  0  0
   27.9000   32.2060   -3.0180 O   0  0  0  0  0
   35.4770   26.5380   -1.9160 O   0  0  0  0  0
   34.6890   26.0270   -2.7420 C   0  0  0  0  0
   33.6430   26.9040   -3.3910 C   0  0  0  0  0
   32.2770   26.6720   -2.7500 C   0  0  0  0  0
   31.3020   27.5740   -3.3350 N   0  0  0  0  0
   31.8330   25.2310   -2.9800 C   0  0  0  0  0
   30.4690   24.9530   -2.3590 C   0  0  0  0  0
   30.0690   23.4970   -2.5670 C   0  0  0  0  0
   30.4420   25.3190   -0.8790 C   0  0  0  0  0
   34.9850   24.8450   -3.2780 N   0  0  0  0  0
   36.2050   24.2930   -2.7230 C   0  0  0  0  0
   37.2190   24.0940   -3.8240 C   0  0  0  0  0
   37.0410   24.5790   -4.9300 O   0  0  0  0  0
   35.9180   22.9600   -2.0410 C   0  0  0  0  0
   34.5770   22.3960   -2.4950 C   0  0  0  0  0
   34.4800   20.9000   -2.2280 C   0  0  0  0  0
   35.0790   20.1020   -3.3800 C   0  0  0  0  0
   33.0360   20.4890   -1.9760 C   0  0  0  0  0
   38.3010   23.3880   -3.5040 N   0  0  0  0  0
   39.3700   23.1480   -4.4560 C   0  0  0  0  0
   39.6410   21.6720   -4.5180 C   0  0  0  0  0
   40.6040   21.2610   -5.1450 O   0  0  0  0  0
   40.6230   23.8930   -4.0030 C   0  0  0  0  0
   40.4950   25.3710   -4.2960 C   0  0  0  0  0
   39.6260   25.7530   -5.1080 O   0  0  0  0  0
   41.2710   26.1640   -3.7190 O   0  0  0  0  0
   38.7060   20.7340   -3.8120 C   0  0  0  0  0
   28.1819   25.2443   -5.9726 H   0  0  0  0  0
   29.1732   25.9694   -4.6832 H   0  0  0  0  0
   27.9569   26.9549   -5.5320 H   0  0  0  0  0
   29.0199   27.4669   -8.2970 H   0  0  0  0  0
   30.7106   29.2811   -7.8580 H   0  0  0  0  0
   28.0496   29.8409   -6.4704 H   0  0  0  0  0
   28.1999   29.7178   -8.2320 H   0  0  0  0  0
   30.1993   31.1254   -9.2720 H   0  0  0  0  0
   30.5483   34.9739   -7.6149 H   0  0  0  0  0
   29.2251   34.2916   -5.6314 H   0  0  0  0  0
   28.3634   31.9558   -5.4771 H   0  0  0  0  0
   28.6046   29.2590   -4.9732 H   0  0  0  0  0
   30.6503   30.5562   -3.4734 H   0  0  0  0  0
   29.0580   30.4887   -1.6391 H   0  0  0  0  0
   28.1906   29.0927   -2.4055 H   0  0  0  0  0
   27.0831   29.5764   -4.1514 H   0  0  0  0  0
   33.5829   26.6576   -4.4511 H   0  0  0  0  0
   33.9241   27.9485   -3.2566 H   0  0  0  0  0
   32.3519   26.8604   -1.6790 H   0  0  0  0  0
   30.9994   27.4103   -4.2952 H   0  0  0  0  0
   32.5629   24.5691   -2.5140 H   0  0  0  0  0
   31.7612   25.0620   -4.0544 H   0  0  0  0  0
   29.7396   25.5852   -2.8653 H   0  0  0  0  0
   30.0206   23.2838   -3.6349 H   0  0  0  0  0
   30.8089   22.8478   -2.0987 H   0  0  0  0  0
   29.0924   23.3218   -2.1156 H   0  0  0  0  0
   31.1897   24.7309   -0.3469 H   0  0  0  0  0
   30.6635   26.3801   -0.7643 H   0  0  0  0  0
   29.4536   25.1068   -0.4715 H   0  0  0  0  0
   34.4218   24.3838   -3.9924 H   0  0  0  0  0
   36.6034   24.9882   -1.9840 H   0  0  0  0  0
   35.8858   23.1171   -0.9629 H   0  0  0  0  0
   36.7041   22.2533   -2.3068 H   0  0  0  0  0
   34.4787   22.5618   -3.5678 H   0  0  0  0  0
   33.7856   22.8976   -1.9380 H   0  0  0  0  0
   35.0568   20.6785   -1.3300 H   0  0  0  0  0
   34.5382   20.3304   -4.2984 H   0  0  0  0  0
   36.1288   20.3700   -3.4988 H   0  0  0  0  0
   34.9968   19.0368   -3.1638 H   0  0  0  0  0
   32.6524   21.0271   -1.1092 H   0  0  0  0  0
   32.4328   20.7304   -2.8512 H   0  0  0  0  0
   32.9925   19.4162   -1.7878 H   0  0  0  0  0
   38.3813   23.0044   -2.5623 H   0  0  0  0  0
   39.0827   23.5053   -5.4449 H   0  0  0  0  0
   41.4842   23.4983   -4.5421 H   0  0  0  0  0
   40.7488   23.7543   -2.9292 H   0  0  0  0  0
   41.8577   25.6716   -3.1402 H   0  0  0  0  0
   38.2590   20.0542   -4.5374 H   0  0  0  0  0
   39.2607   20.1610   -3.0690 H   0  0  0  0  0
   37.9216   21.3079   -3.3187 H   0  0  0  0  0
  1  2  2  0  0  0
  1  3  1  0  0  0
  4  1  1  0  0  0
  5  4  1  0  0  0
  6  5  1  0  0  0
  5  8  1  0  0  0
  6  7  2  0  0  0
 15  6  1  0  0  0
  8  9  1  0  0  0
  9 10  4  0  0  0
  9 14  4  0  0  0
 10 11  4  0  0  0
 11 12  4  0  0  0
 13 12  4  0  0  0
 14 13  4  0  0  0
 16 15  1  0  0  0
 17 16  1  0  0  0
 16 19  1  0  0  0
 17 18  2  0  0  0
 27 17  1  0  0  0
 19 20  1  0  0  0
 20 21  1  0  0  0
 20 22  2  0  0  0
 24 23  2  0  0  0
 25 24  1  0  0  0
 24 32  1  0  0  0
 26 25  1  0  0  0
 26 27  1  0  0  0
 26 28  1  0  0  0
 28 29  1  0  0  0
 29 30  1  0  0  0
 29 31  1  0  0  0
 32 33  1  0  0  0
 33 34  1  0  0  0
 33 36  1  0  0  0
 34 35  2  0  0  0
 34 41  1  0  0  0
 36 37  1  0  0  0
 37 38  1  0  0  0
 38 39  1  0  0  0
 38 40  1  0  0  0
 41 42  1  0  0  0
 42 43  1  0  0  0
 42 45  1  0  0  0
 43 44  2  0  0  0
 43 49  1  0  0  0
 45 46  1  0  0  0
 46 47  2  0  0  0
 46 48  1  0  0  0
  3 50  1  0  0  0
  3 51  1  0  0  0
  3 52  1  0  0  0
  4 53  1  0  0  0
  5 54  1  0  0  0
  8 55  1  0  0  0
  8 56  1  0  0  0
 10 57  1  0  0  0
 12 58  1  0  0  0
 13 59  1  0  0  0
 14 60  1  0  0  0
 15 61  1  0  0  0
 16 62  1  0  0  0
 19 63  1  0  0  0
 19 64  1  0  0  0
 21 65  1  0  0  0
 25 66  1  0  0  0
 25 67  1  0  0  0
 26 68  1  0  0  0
 27 69  1  0  0  0
 28 70  1  0  0  0
 28 71  1  0  0  0
 29 72  1  0  0  0
 30 73  1  0  0  0
 30 74  1  0  0  0
 30 75  1  0  0  0
 31 76  1  0  0  0
 31 77  1  0  0  0
 31 78  1  0  0  0
 32 79  1  0  0  0
 33 80  1  0  0  0
 36 81  1  0  0  0
 36 82  1  0  0  0
 37 83  1  0  0  0
 37 84  1  0  0  0
 38 85  1  0  0  0
 39 86  1  0  0  0
 39 87  1  0  0  0
 39 88  1  0  0  0
 40 89  1  0  0  0
 40 90  1  0  0  0
 40 91  1  0  0  0
 41 92  1  0  0  0
 42 93  1  0  0  0
 45 94  1  0  0  0
 45 95  1  0  0  0
 48 96  1  0  0  0
 49 97  1  0  0  0
 49 98  1  0  0  0
 49 99  1  0  0  0
M  END
$$$$
