### 
### Created by X-TOOL on Mon Sep 10 21:13:14 2018
### 

@<TRIPOS>MOLECULE
4jj8_ligand
   97    97     1     0     0
SMALL
GAST_HUCK


@<TRIPOS>ATOM
      1 C          29.7240   26.5520   -6.6640 C.2       1 ACE         0.1753
      2 O          30.6370   25.7910   -6.9380 O.2       1 ACE        -0.3972
      3 CH3        28.6860   26.1520   -5.6410 C.3       1 ACE         0.0258
      4 N          29.5180   27.6250   -7.4210 N.am      1 1MH        -0.2639
      5 CA         29.9260   29.0280   -7.1450 C.3       1 1MH         0.1415
      6 C          30.4780   29.1920   -5.7490 C.2       1 1MH         0.2062
      7 O          31.6790   29.1200   -5.5500 O.2       1 1MH        -0.3942
      8 CB         28.7320   29.9600   -7.3120 C.3       1 1MH         0.0277
      9 C6         29.2320   31.3860   -7.3690 C.ar      1 1MH        -0.0106
     10 C7         29.9780   31.8180   -8.4600 C.ar      1 1MH         0.0127
     11 N8         30.4270   33.0790   -8.5210 N.ar      1 1MH        -0.3044
     12 C9         30.1710   33.9540   -7.5400 C.ar      1 1MH         0.0042
     13 C10        29.4290   33.5750   -6.4270 C.ar      1 1MH        -0.0404
     14 C11        28.9500   32.2740   -6.3390 C.ar      1 1MH        -0.0402
     15 N          29.5970   29.3640   -4.7620 N.am      1 ASP        -0.2620
     16 CA         29.9860   29.6960   -3.3910 C.3       1 ASP         0.1422
     17 C          30.7860   28.6060   -2.6710 C.2       1 ASP         0.2037
     18 O          31.0590   28.7270   -1.4750 O.2       1 ASP        -0.3944
     19 CB         28.7360   30.0220   -2.5700 C.3       1 ASP         0.0406
     20 CG         27.8080   30.9890   -3.2810 C.2       1 ASP         0.0393
     21 OD1        26.9850   30.5300   -4.1010 O.co2     1 ASP        -0.5688
     22 OD2        27.9000   32.2060   -3.0180 O.co2     1 ASP        -0.5688
     23 O          35.4770   26.5380   -1.9160 O.2       1 B3L        -0.3968
     24 C          34.6890   26.0270   -2.7420 C.2       1 B3L         0.1804
     25 CA         33.6430   26.9040   -3.3910 C.3       1 B3L         0.0603
     26 CB         32.2770   26.6720   -2.7500 C.3       1 B3L         0.0590
     27 N          31.3020   27.5740   -3.3350 N.am      1 B3L        -0.2796
     28 CG         31.8330   25.2310   -2.9800 C.3       1 B3L        -0.0254
     29 CD         30.4690   24.9530   -2.3590 C.3       1 B3L        -0.0445
     30 CE2        30.0690   23.4970   -2.5670 C.3       1 B3L        -0.0626
     31 CE1        30.4420   25.3190   -0.8790 C.3       1 B3L        -0.0626
     32 N          34.9850   24.8450   -3.2780 N.am      1 HLX        -0.2656
     33 CA         36.2050   24.2930   -2.7230 C.3       1 HLX         0.1309
     34 C          37.2190   24.0940   -3.8240 C.2       1 HLX         0.2040
     35 O          37.0410   24.5790   -4.9300 O.2       1 HLX        -0.3944
     36 CB         35.9180   22.9600   -2.0410 C.3       1 HLX        -0.0122
     37 CG         34.5770   22.3960   -2.4950 C.3       1 HLX        -0.0465
     38 C7         34.4800   20.9000   -2.2280 C.3       1 HLX        -0.0465
     39 C8         35.0790   20.1020   -3.3800 C.3       1 HLX        -0.0627
     40 C9         33.0360   20.4890   -1.9760 C.3       1 HLX        -0.0627
     41 N          38.3010   23.3880   -3.5040 N.am      1 1U8        -0.2633
     42 CA         39.3700   23.1480   -4.4560 C.3       1 1U8         0.1259
     43 C          39.6410   21.6720   -4.5180 C.2       1 1U8         0.1289
     44 O          40.6040   21.2610   -5.1450 O.2       1 1U8        -0.3893
     45 CB         40.6230   23.8930   -4.0030 C.3       1 1U8         0.0395
     46 CG         40.4950   25.3710   -4.2960 C.2       1 1U8         0.0393
     47 OD1        39.6260   25.7530   -5.1080 O.co2     1 1U8        -0.5688
     48 OD2        41.2710   26.1640   -3.7190 O.co2     1 1U8        -0.5688
     49 C9         38.7060   20.7340   -3.8120 C.3       1 1U8         0.0119
     50 H1         27.9496   26.9615   -5.5301 H         1 ACE         0.0467
     51 H2         29.1764   25.9674   -4.6738 H         1 ACE         0.0467
     52 H3         28.1764   25.2360   -5.9745 H         1 ACE         0.0467
     53 H4         29.0297   27.4700   -8.2798 H         1 1MH         0.1884
     54 H5         30.7060   29.3112   -7.8670 H         1 1MH         0.0825
     55 H6         28.0483   29.8417   -6.4585 H         1 1MH         0.0489
     56 H7         28.2006   29.7169   -8.2439 H         1 1MH         0.0489
     57 H8         30.1981   31.1292   -9.2676 H         1 1MH         0.0765
     58 H9         30.5462   34.9683   -7.6145 H         1 1MH         0.0767
     59 H10        29.2263   34.2876   -5.6357 H         1 1MH         0.0693
     60 H11        28.3666   31.9576   -5.4819 H         1 1MH         0.0678
     61 H12        28.6241   29.2611   -4.9691 H         1 ASP         0.1884
     62 H13        30.6185   30.5948   -3.4369 H         1 ASP         0.0819
     63 H14        29.0483   30.4706   -1.6154 H         1 ASP         0.0478
     64 H15        28.1891   29.0878   -2.3746 H         1 ASP         0.0478
     65 H16        33.5849   26.6649   -4.4631 H         1 B3L         0.0525
     66 H17        33.9270   27.9593   -3.2655 H         1 B3L         0.0525
     67 H18        32.3471   26.8627   -1.6689 H         1 B3L         0.0581
     68 H19        31.0054   27.4135   -4.2764 H         1 B3L         0.1856
     69 H20        32.5738   24.5540   -2.5297 H         1 B3L         0.0291
     70 H21        31.7760   25.0444   -4.0626 H         1 B3L         0.0291
     71 H22        29.7299   25.5841   -2.8742 H         1 B3L         0.0296
     72 H23        29.0835   23.3189   -2.1119 H         1 B3L         0.0232
     73 H24        30.8149   22.8408   -2.0948 H         1 B3L         0.0232
     74 H25        30.0198   23.2806   -3.6444 H         1 B3L         0.0232
     75 H26        30.7339   26.3725   -0.7565 H         1 B3L         0.0232
     76 H27        31.1463   24.6771   -0.3296 H         1 B3L         0.0232
     77 H28        29.4263   25.1716   -0.4833 H         1 B3L         0.0232
     78 H29        34.4328   24.3928   -3.9784 H         1 HLX         0.1883
     79 H30        36.6116   24.9955   -1.9806 H         1 HLX         0.0800
     80 H31        35.8956   23.1100   -0.9515 H         1 HLX         0.0312
     81 H32        36.7145   22.2456   -2.2965 H         1 HLX         0.0312
     82 H33        34.4614   22.5744   -3.5743 H         1 HLX         0.0270
     83 H34        33.7708   22.9090   -1.9501 H         1 HLX         0.0270
     84 H35        35.0611   20.6772   -1.3210 H         1 HLX         0.0296
     85 H36        34.9967   19.0268   -3.1630 H         1 HLX         0.0232
     86 H37        36.1386   20.3715   -3.5009 H         1 HLX         0.0232
     87 H38        34.5341   20.3316   -4.3075 H         1 HLX         0.0232
     88 H39        32.6274   21.0781   -1.1417 H         1 HLX         0.0232
     89 H40        32.9981   19.4193   -1.7226 H         1 HLX         0.0232
     90 H41        32.4391   20.6727   -2.8815 H         1 HLX         0.0232
     91 H42        38.3797   23.0120   -2.5807 H         1 1U8         0.1885
     92 H43        39.0690   23.5087   -5.4506 H         1 1U8         0.0810
     93 H44        41.4961   23.4921   -4.5386 H         1 1U8         0.0479
     94 H45        40.7586   23.7489   -2.9210 H         1 1U8         0.0479
     95 H46        39.0470   19.6983   -3.9570 H         1 1U8         0.0459
     96 H47        37.6925   20.8474   -4.2241 H         1 1U8         0.0459
     97 H48        38.6933   20.9687   -2.7374 H         1 1U8         0.0459
@<TRIPOS>BOND
     1    1    2 2  
     2    1    3 1  
     3    4    1 am 
     4    5    4 1  
     5    6    5 1  
     6    5    8 1  
     7    6    7 2  
     8   15    6 am 
     9    8    9 1  
    10    9   10 ar 
    11    9   14 ar 
    12   10   11 ar 
    13   11   12 ar 
    14   13   12 ar 
    15   14   13 ar 
    16   16   15 1  
    17   17   16 1  
    18   16   19 1  
    19   17   18 2  
    20   27   17 am 
    21   19   20 1  
    22   20   21 ar 
    23   20   22 ar 
    24   24   23 2  
    25   25   24 1  
    26   24   32 am 
    27   26   25 1  
    28   26   27 1  
    29   26   28 1  
    30   28   29 1  
    31   29   30 1  
    32   29   31 1  
    33   32   33 1  
    34   33   34 1  
    35   33   36 1  
    36   34   35 2  
    37   34   41 am 
    38   36   37 1  
    39   37   38 1  
    40   38   39 1  
    41   38   40 1  
    42   41   42 1  
    43   42   43 1  
    44   42   45 1  
    45   43   44 2  
    46   43   49 1  
    47   45   46 1  
    48   46   47 ar 
    49   46   48 ar 
    50    3   50 1  
    51    3   51 1  
    52    3   52 1  
    53    4   53 1  
    54    5   54 1  
    55    8   55 1  
    56    8   56 1  
    57   10   57 1  
    58   12   58 1  
    59   13   59 1  
    60   14   60 1  
    61   15   61 1  
    62   16   62 1  
    63   19   63 1  
    64   19   64 1  
    65   25   65 1  
    66   25   66 1  
    67   26   67 1  
    68   27   68 1  
    69   28   69 1  
    70   28   70 1  
    71   29   71 1  
    72   30   72 1  
    73   30   73 1  
    74   30   74 1  
    75   31   75 1  
    76   31   76 1  
    77   31   77 1  
    78   32   78 1  
    79   33   79 1  
    80   36   80 1  
    81   36   81 1  
    82   37   82 1  
    83   37   83 1  
    84   38   84 1  
    85   39   85 1  
    86   39   86 1  
    87   39   87 1  
    88   40   88 1  
    89   40   89 1  
    90   40   90 1  
    91   41   91 1  
    92   42   92 1  
    93   45   93 1  
    94   45   94 1  
    95   49   95 1  
    96   49   96 1  
    97   49   97 1  
@<TRIPOS>SUBSTRUCTURE
     1 ACE         1

