4i60_ligand
  -I-interpret- 

 43 53  0  0  0  0  0  0  0  0999 V2000
   40.5500   30.5530    9.4110 N   0  0  0  0  0
   41.9570   30.5290    6.2870 S   0  0  0  0  0
   42.5280   29.0490    7.0250 C   0  0  0  0  0
   42.4530   29.5050    9.4400 N   0  0  0  0  0
   41.7310   30.4590    9.9850 C   0  0  0  0  0
   42.1290   31.2110   10.8620 O   0  0  0  0  0
   41.7620   28.8680    8.3230 C   0  0  0  0  0
   40.4270   29.6660    8.2740 C   0  0  0  0  0
   40.3590   30.4810    7.0160 C   0  0  0  0  0
   44.0540   29.1490    7.2520 C   0  0  0  0  0
   44.8030   27.9270    6.6890 C   0  0  0  0  0
   45.0160   28.0200    5.1690 C   0  0  0  0  0
   46.3470   27.3550    4.7280 C   0  0  0  0  0
   46.1420   25.8600    4.4220 C   0  0  0  0  0
   45.6760   25.1460    5.2710 O   0  0  0  0  0
   47.2490   23.5890    1.7090 C   0  0  0  0  0
   46.8770   24.6720    1.0040 C   0  0  0  0  0
   46.4770   25.6520    1.7140 C   0  0  0  0  0
   46.7790   25.2400    3.1140 C   0  0  0  0  0
   47.2360   23.9580    2.9810 C   0  0  0  0  0
   43.5880   23.5630    3.2930 C   0  0  0  0  0
   43.8820   22.4940    2.5620 C   0  0  0  0  0
   43.8740   22.7400    1.2920 C   0  0  0  0  0
   43.4190   24.0570    1.1970 C   0  0  0  0  0
   43.2260   24.4480    2.4030 C   0  0  0  0  0
   45.2530   24.0100    2.1650 Rh  0  0  0  0  0
   39.8091   31.1773    9.7299 H   0  0  0  0  0
   42.3568   28.1808    6.3886 H   0  0  0  0  0
   43.3851   29.2413    9.7596 H   0  0  0  0  0
   41.6411   27.7917    8.4453 H   0  0  0  0  0
   39.5412   29.0312    8.2950 H   0  0  0  0  0
   39.6492   30.0311    6.3218 H   0  0  0  0  0
   40.0281   31.4932    7.2486 H   0  0  0  0  0
   44.2363   29.1953    8.3257 H   0  0  0  0  0
   44.4174   30.0382    6.7369 H   0  0  0  0  0
   44.2026   27.0402    6.8920 H   0  0  0  0  0
   45.7826   27.8829    7.1650 H   0  0  0  0  0
   45.0534   29.0739    4.8935 H   0  0  0  0  0
   44.1947   27.4991    4.6768 H   0  0  0  0  0
   47.0705   27.4502    5.5376 H   0  0  0  0  0
   46.7034   27.8511    3.8252 H   0  0  0  0  0
   46.5151   26.6875    1.3757 H   0  0  0  0  0
   42.4130   25.1409    2.6199 H   0  0  0  0  0
  1  5  1  0  0  0
  8  1  1  0  0  0
  3  2  1  0  0  0
  2  9  1  0  0  0
  3  7  1  0  0  0
 10  3  1  0  0  0
  4  5  1  0  0  0
  7  4  1  0  0  0
  5  6  2  0  0  0
  7  8  1  0  0  0
  8  9  1  0  0  0
 11 10  1  0  0  0
 12 11  1  0  0  0
 13 12  1  0  0  0
 14 13  1  0  0  0
 14 15  2  0  0  0
 19 14  1  0  0  0
 17 16  2  0  0  0
 20 16  1  0  0  0
 18 17  1  0  0  0
 18 19  1  0  0  0
 20 19  2  0  0  0
 21 22  2  0  0  0
 21 25  1  0  0  0
 22 23  1  0  0  0
 24 23  2  0  0  0
 25 24  1  0  0  0
 26 16  1  0  0  0
 26 17  1  0  0  0
 26 18  1  0  0  0
 26 20  1  0  0  0
 26 21  1  0  0  0
 26 22  1  0  0  0
 26 23  1  0  0  0
 26 24  1  0  0  0
 26 25  1  0  0  0
  1 27  1  0  0  0
  3 28  1  0  0  0
  4 29  1  0  0  0
  7 30  1  0  0  0
  8 31  1  0  0  0
  9 32  1  0  0  0
  9 33  1  0  0  0
 10 34  1  0  0  0
 10 35  1  0  0  0
 11 36  1  0  0  0
 11 37  1  0  0  0
 12 38  1  0  0  0
 12 39  1  0  0  0
 13 40  1  0  0  0
 13 41  1  0  0  0
 18 42  1  0  0  0
 25 43  1  0  0  0
M  END
$$$$
