2bks_ligand
  -I-interpret- 

 87 91  0  0  0  0  0  0  0  0999 V2000
  127.1510   17.5480   44.8250 C   0  0  0  0  0
  127.4520   18.9130   45.0260 O   0  0  0  0  0
  127.6720   19.2280   46.3770 C   0  0  0  0  0
  128.9870   19.0930   46.9720 C   0  0  0  0  0
  130.1470   18.5940   46.1010 C   0  0  0  0  0
  131.4120   18.4850   46.7310 O   0  0  0  0  0
  126.5680   19.6890   47.1560 C   0  0  0  0  0
  126.7510   20.0240   48.5460 C   0  0  0  0  0
  128.0420   19.8940   49.1390 C   0  0  0  0  0
  129.1470   19.4320   48.3590 C   0  0  0  0  0
  128.2660   17.0310   37.4140 C   0  0  0  0  0
  127.7750   16.9150   35.9610 C   0  0  0  0  0
  128.7820   16.4540   35.0250 N   0  3  0  0  0
  130.2270   16.6830   35.1560 C   0  0  0  0  0
  130.7300   17.1130   36.5590 C   0  0  0  0  0
  129.7930   17.2660   37.6010 N   0  0  0  0  0
  131.9330   17.2970   36.6850 O   0  0  0  0  0
  127.3630   18.1500   38.0070 C   0  0  0  0  0
  127.2200   17.9100   39.3960 O   0  0  0  0  0
  130.5030   19.0240   39.2390 C   0  0  0  0  0
  130.2890   17.6450   38.8640 C   0  0  0  0  0
  130.5940   16.6010   39.8370 C   0  0  0  0  0
  131.0860   16.9670   41.1360 C   0  0  0  0  0
  131.2850   18.3730   41.4870 C   0  0  0  0  0
  130.9890   19.3770   40.5230 C   0  0  0  0  0
  131.7330   18.8030   42.7460 O   0  0  0  0  0
  132.8430   18.1990   43.3620 C   0  0  0  0  0
  133.0530   18.8620   44.7420 C   0  0  0  0  0
  132.5130   17.9960   45.9110 C   0  0  0  0  0
  121.3260   16.2240   38.9270 C   0  0  0  0  0
  127.0410   19.6520   41.1010 C   0  0  0  0  0
  126.2160   20.5810   41.8120 C   0  0  0  0  0
  124.7950   20.6860   41.5290 C   0  0  0  0  0
  124.1770   19.8430   40.5120 C   0  0  0  0  0
  125.0460   18.9210   39.8190 C   0  0  0  0  0
  126.4410   18.8150   40.0920 C   0  0  0  0  0
  123.9930   21.6960   42.3280 C   0  0  0  0  0
  122.4680   21.7900   42.0100 C   0  0  0  0  0
  121.8560   20.8660   40.9150 C   0  0  0  0  0
  122.7590   19.9140   40.2000 N   0  0  0  0  0
  122.1450   19.0260   39.1470 C   0  0  0  0  0
  121.8940   17.5600   39.5340 C   0  0  0  0  0
  120.3860   14.9840   39.1130 O   0  0  0  0  0
  127.9821   16.9380   45.1790 H   0  0  0  0  0
  126.2482   17.2909   45.3790 H   0  0  0  0  0
  126.9912   17.3651   43.7624 H   0  0  0  0  0
  130.2679   19.3326   45.3086 H   0  0  0  0  0
  129.8775   17.5846   45.7901 H   0  0  0  0  0
  125.5837   19.7880   46.6983 H   0  0  0  0  0
  125.9076   20.3747   49.1408 H   0  0  0  0  0
  128.1860   20.1476   50.1893 H   0  0  0  0  0
  130.1279   19.3352   48.8244 H   0  0  0  0  0
  128.1689   16.0828   37.9427 H   0  0  0  0  0
  127.4755   17.9137   35.6433 H   0  0  0  0  0
  126.9696   16.1806   35.9526 H   0  0  0  0  0
  128.5544   16.9843   34.1840 H   0  0  0  0  0
  128.7145   15.4404   35.1167 H   0  0  0  0  0
  130.4663   17.5058   34.4823 H   0  0  0  0  0
  130.7065   15.7280   34.9411 H   0  0  0  0  0
  126.3870   18.1418   37.5218 H   0  0  0  0  0
  127.8162   19.1270   37.8392 H   0  0  0  0  0
  130.2856   19.8115   38.5174 H   0  0  0  0  0
  130.4496   15.5516   39.5800 H   0  0  0  0  0
  131.3130   16.1904   41.8664 H   0  0  0  0  0
  131.1373   20.4272   40.7742 H   0  0  0  0  0
  133.7313   18.3319   42.7445 H   0  0  0  0  0
  132.6672   17.1302   43.4837 H   0  0  0  0  0
  132.5086   19.8063   44.7459 H   0  0  0  0  0
  134.1248   18.9936   44.8904 H   0  0  0  0  0
  132.1176   17.1022   45.4283 H   0  0  0  0  0
  133.3526   17.9157   46.6014 H   0  0  0  0  0
  122.2449   15.6598   39.0865 H   0  0  0  0  0
  120.6675   16.7252   38.2176 H   0  0  0  0  0
  128.1064   19.5785   41.3191 H   0  0  0  0  0
  126.6602   21.2185   42.5764 H   0  0  0  0  0
  124.6156   18.2768   39.0523 H   0  0  0  0  0
  124.4113   22.6724   42.0835 H   0  0  0  0  0
  124.0636   21.3796   43.3687 H   0  0  0  0  0
  122.3259   22.8017   41.6301 H   0  0  0  0  0
  121.9732   21.4904   42.9338 H   0  0  0  0  0
  121.4873   21.5428   40.1442 H   0  0  0  0  0
  121.1378   20.2372   41.4413 H   0  0  0  0  0
  122.8602   18.9994   38.3249 H   0  0  0  0  0
  121.1640   19.4505   38.9335 H   0  0  0  0  0
  122.9402   17.2546   39.5497 H   0  0  0  0  0
  121.0632   17.7511   40.2132 H   0  0  0  0  0
  120.4375   14.4251   38.3342 H   0  0  0  0  0
  2  1  1  0  0  0
  3  2  1  0  0  0
  4  3  4  0  0  0
  3  7  4  0  0  0
  5  4  1  0  0  0
  4 10  4  0  0  0
  6  5  1  0  0  0
 29  6  1  0  0  0
  7  8  4  0  0  0
  9  8  4  0  0  0
 10  9  4  0  0  0
 11 12  1  0  0  0
 11 16  1  0  0  0
 18 11  1  0  0  0
 12 13  1  0  0  0
 13 14  1  0  0  0
 15 14  1  0  0  0
 16 15  1  0  0  0
 15 17  2  0  0  0
 16 21  1  0  0  0
 19 18  1  0  0  0
 36 19  1  0  0  0
 21 20  4  0  0  0
 20 25  4  0  0  0
 21 22  4  0  0  0
 22 23  4  0  0  0
 23 24  4  0  0  0
 25 24  4  0  0  0
 24 26  1  0  0  0
 26 27  1  0  0  0
 27 28  1  0  0  0
 28 29  1  0  0  0
 42 30  1  0  0  0
 30 43  1  0  0  0
 32 31  4  0  0  0
 36 31  4  0  0  0
 33 32  4  0  0  0
 34 33  4  0  0  0
 33 37  1  0  0  0
 34 35  4  0  0  0
 40 34  1  0  0  0
 35 36  4  0  0  0
 38 37  1  0  0  0
 39 38  1  0  0  0
 40 39  1  0  0  0
 41 40  1  0  0  0
 41 42  1  0  0  0
  1 44  1  0  0  0
  1 45  1  0  0  0
  1 46  1  0  0  0
  5 47  1  0  0  0
  5 48  1  0  0  0
  7 49  1  0  0  0
  8 50  1  0  0  0
  9 51  1  0  0  0
 10 52  1  0  0  0
 11 53  1  0  0  0
 12 54  1  0  0  0
 12 55  1  0  0  0
 13 56  1  0  0  0
 13 57  1  0  0  0
 14 58  1  0  0  0
 14 59  1  0  0  0
 18 60  1  0  0  0
 18 61  1  0  0  0
 20 62  1  0  0  0
 22 63  1  0  0  0
 23 64  1  0  0  0
 25 65  1  0  0  0
 27 66  1  0  0  0
 27 67  1  0  0  0
 28 68  1  0  0  0
 28 69  1  0  0  0
 29 70  1  0  0  0
 29 71  1  0  0  0
 30 72  1  0  0  0
 30 73  1  0  0  0
 31 74  1  0  0  0
 32 75  1  0  0  0
 35 76  1  0  0  0
 37 77  1  0  0  0
 37 78  1  0  0  0
 38 79  1  0  0  0
 38 80  1  0  0  0
 39 81  1  0  0  0
 39 82  1  0  0  0
 41 83  1  0  0  0
 41 84  1  0  0  0
 42 85  1  0  0  0
 42 86  1  0  0  0
 43 87  1  0  0  0
M  END
$$$$
