4igt_ligand
  -I-interpret- 

 34 33  0  0  0  0  0  0  0  0999 V2000
   19.4510   12.1410   23.4220 O   0  0  0  0  0
   19.2510   14.7980   22.3760 C   0  0  0  0  0
   21.7950   14.6570   22.9630 C   0  0  0  0  0
   23.0790   12.6440   27.2090 O   0  0  0  0  0
   23.5090   14.7970   26.8430 O   0  0  0  0  0
   23.0980   15.3050   22.4470 C   0  0  0  0  0
   19.2310   13.5570   21.4800 C   0  0  0  0  0
   22.8430   13.4700   24.9730 C   0  0  0  0  0
   21.7580   14.4420   24.4960 C   0  0  0  0  0
   20.6060   15.5020   22.4410 C   0  0  0  0  0
   22.4560   12.0460   24.7350 N   0  3  0  0  0
   23.1690   13.6650   26.4650 C   0  0  0  0  0
   23.4150   15.0410   21.2530 O   0  0  0  0  0
   23.7750   16.0290   23.2140 O   0  0  0  0  0
   19.3910   13.5510   20.2480 O   0  0  0  0  0
   19.0090   12.3500   22.0940 N   0  0  0  0  0
   19.1660   11.1180   21.3330 C   0  0  0  0  0
   19.2186   11.2518   23.6992 H   0  0  0  0  0
   19.0109   14.4687   23.3869 H   0  0  0  0  0
   18.5390   15.5089   21.9567 H   0  0  0  0  0
   21.7304   13.6419   22.5712 H   0  0  0  0  0
   22.7982   11.8908   26.6842 H   0  0  0  0  0
   23.7327   13.6961   24.3854 H   0  0  0  0  0
   20.7873   14.0191   24.7550 H   0  0  0  0  0
   21.9311   15.4047   24.9769 H   0  0  0  0  0
   20.4866   16.3252   23.1454 H   0  0  0  0  0
   20.8552   15.7754   21.4157 H   0  0  0  0  0
   23.2013   11.4327   25.0648 H   0  0  0  0  0
   21.5951   11.8397   25.2417 H   0  0  0  0  0
   22.3084   11.8973   23.7367 H   0  0  0  0  0
   22.7479   14.4702   20.8647 H   0  0  0  0  0
   18.4745   11.1223   20.4904 H   0  0  0  0  0
   20.1894   11.0480   20.9644 H   0  0  0  0  0
   18.9511   10.2650   21.9767 H   0  0  0  0  0
 16  1  1  0  0  0
  2  7  1  0  0  0
 10  2  1  0  0  0
  3  6  1  0  0  0
  9  3  1  0  0  0
  3 10  1  0  0  0
 12  4  1  0  0  0
 12  5  2  0  0  0
  6 13  1  0  0  0
  6 14  2  0  0  0
  7 15  2  0  0  0
  7 16  1  0  0  0
  8  9  1  0  0  0
  8 11  1  0  0  0
  8 12  1  0  0  0
 16 17  1  0  0  0
  1 18  1  0  0  0
  2 19  1  0  0  0
  2 20  1  0  0  0
  3 21  1  0  0  0
  4 22  1  0  0  0
  8 23  1  0  0  0
  9 24  1  0  0  0
  9 25  1  0  0  0
 10 26  1  0  0  0
 10 27  1  0  0  0
 11 28  1  0  0  0
 11 29  1  0  0  0
 11 30  1  0  0  0
 13 31  1  0  0  0
 17 32  1  0  0  0
 17 33  1  0  0  0
 17 34  1  0  0  0
M  END
$$$$
