6c5h_ligand
  -I-interpret- 

140144  0  0  0  0  0  0  0  0999 V2000
   12.7450   17.7370   40.5310 C   0  0  0  0  0
   14.2100   17.5760   40.0680 C   0  0  0  0  0
   14.7320   18.8980   39.4760 C   0  0  0  0  0
   13.7870   19.4070   38.3710 C   0  0  0  0  0
   12.4070   19.6180   39.0180 C   0  0  0  0  0
   11.4420   20.3660   38.0790 C   0  0  0  0  0
   15.0920   17.1320   41.1710 N   0  3  0  0  0
   12.7480   18.5760   41.7270 O   0  0  0  0  0
   16.0480   18.6650   38.9650 O   0  0  0  0  0
   14.2950   20.6270   37.8070 O   0  0  0  0  0
   10.1270   20.4720   38.6800 O   0  0  0  0  0
   11.9320   18.2910   39.4430 O   0  0  0  0  0
   12.1140   19.5570   43.9670 O   0  0  0  0  0
   11.4550   18.7690   42.7170 P   0  0  0  0  0
   10.5110   19.7000   42.0540 O   0  0  0  0  0
   10.9990   17.4130   43.1490 O   0  0  0  0  0
    8.8420   18.5610   40.4790 N   0  3  0  0  0
    4.2130   17.7000   36.4620 P   0  0  0  0  0
    8.2380   19.8180   34.3100 O   0  0  0  0  0
    6.2080   17.6790   39.6570 O   0  0  0  0  0
    9.2180   19.4520   38.1940 C   0  0  0  0  0
    5.7850   17.5410   36.8680 O   0  0  0  0  0
    8.1840   19.0770   39.2690 C   0  0  0  0  0
    8.5340   19.9380   37.0140 O   0  0  0  0  0
    7.2390   18.0260   38.6880 C   0  0  0  0  0
    4.1040   18.0800   35.0280 O   0  0  0  0  0
    6.6020   18.5580   37.4140 C   0  0  0  0  0
    3.5980   18.9410   37.2540 O   0  0  0  0  0
    7.7150   18.8930   36.4410 C   0  0  0  0  0
    3.6580   16.4100   36.8720 O   0  0  0  0  0
    7.1430   19.4710   35.1710 C   0  0  0  0  0
    6.7610   20.4820   32.4610 C   0  0  0  0  0
    6.0300   21.4000   32.1010 O   0  0  0  0  0
    6.5710   19.2870   32.1760 O   0  0  0  0  0
    7.9710   20.8310   33.3300 C   0  0  0  0  0
    9.2280   20.9610   32.4370 C   0  0  0  0  0
   10.3890   21.5340   33.2620 C   0  0  0  0  0
   11.5680   21.7310   32.4240 O   0  0  0  0  0
   10.0010   22.8310   33.9070 C   0  0  0  0  0
    9.7000   23.8510   32.9030 O   0  0  0  0  0
    8.7660   22.5460   34.7670 C   0  0  0  0  0
    7.6960   22.0520   33.9570 O   0  0  0  0  0
    8.2360   23.8020   35.4450 C   0  0  0  0  0
    9.2600   24.4980   36.1060 O   0  0  0  0  0
    7.2710   23.3650   36.5200 C   0  0  0  0  0
    6.4360   24.5090   36.5510 O   0  0  0  0  0
   13.0940   21.1330   34.3060 C   0  0  0  0  0
   13.3300   22.3130   34.6320 O   0  0  0  0  0
   13.1480   20.1420   35.0730 O   0  0  0  0  0
   12.7190   20.9010   32.8090 C   0  0  0  0  0
   13.9270   21.2580   31.9520 C   0  0  0  0  0
   13.6750   20.8560   30.4820 C   0  0  0  0  0
   14.8000   21.2080   29.6650 O   0  0  0  0  0
   13.3490   19.3790   30.3780 C   0  0  0  0  0
   14.4760   18.5900   30.7820 O   0  0  0  0  0
   12.1060   19.1130   31.2950 C   0  0  0  0  0
   12.4160   19.5230   32.6080 O   0  0  0  0  0
   11.6550   17.6430   31.4340 C   0  0  0  0  0
   12.5120   16.9030   32.3250 O   0  0  0  0  0
   11.6340   16.9260   30.0880 C   0  0  0  0  0
   10.8390   15.7400   30.1770 O   0  0  0  0  0
   11.0930   15.2690   27.8190 C   0  0  0  0  0
   12.1250   15.1100   27.1150 O   0  0  0  0  0
   10.0540   15.8690   27.4740 O   0  0  0  0  0
   11.1200   14.7040   29.2470 C   0  0  0  0  0
   10.0730   13.6570   29.3450 C   0  0  0  0  0
   10.1820   12.9950   30.7460 C   0  0  0  0  0
    9.2680   11.9080   30.7670 O   0  0  0  0  0
   11.5730   12.4370   30.9970 C   0  0  0  0  0
   11.8420   11.4200   30.0040 O   0  0  0  0  0
   12.5530   13.5810   30.8840 C   0  0  0  0  0
   12.4420   14.1400   29.5530 O   0  0  0  0  0
   14.0200   13.1540   31.1190 C   0  0  0  0  0
   14.1660   12.4820   32.3680 O   0  0  0  0  0
   14.9450   14.3770   31.0970 C   0  0  0  0  0
   14.6070   15.1640   32.2640 O   0  0  0  0  0
   12.2961   16.7763   40.7835 H   0  0  0  0  0
   14.2257   16.8038   39.2989 H   0  0  0  0  0
   14.7685   19.6689   40.2457 H   0  0  0  0  0
   13.7102   18.6887   37.5547 H   0  0  0  0  0
   12.4685   20.2686   39.8904 H   0  0  0  0  0
   11.3596   19.8132   37.1432 H   0  0  0  0  0
   11.8302   21.3684   37.8984 H   0  0  0  0  0
   14.7381   16.2563   41.5562 H   0  0  0  0  0
   16.0367   16.9903   40.8133 H   0  0  0  0  0
   15.1067   17.8445   41.9008 H   0  0  0  0  0
   16.6139   18.3494   39.6734 H   0  0  0  0  0
   15.1545   20.4622   37.4124 H   0  0  0  0  0
   12.7326   18.9781   44.4185 H   0  0  0  0  0
   11.7313   16.9454   43.5573 H   0  0  0  0  0
    8.1344   18.3209   41.1733 H   0  0  0  0  0
    9.3833   17.7296   40.2419 H   0  0  0  0  0
    9.4630   19.2759   40.8580 H   0  0  0  0  0
    5.6232   17.0188   39.2778 H   0  0  0  0  0
    9.7976   18.5620   37.9487 H   0  0  0  0  0
    7.6230   19.9664   39.5560 H   0  0  0  0  0
    7.8102   17.1274   38.4548 H   0  0  0  0  0
    4.5044   18.9424   34.8953 H   0  0  0  0  0
    6.0002   19.4448   37.6128 H   0  0  0  0  0
    4.0025   19.7526   36.9389 H   0  0  0  0  0
    8.2783   17.9819   36.2392 H   0  0  0  0  0
    6.4962   18.7419   34.6830 H   0  0  0  0  0
    6.5450   20.3544   35.3948 H   0  0  0  0  0
    7.2672   18.7520   32.5642 H   0  0  0  0  0
    9.0122   21.6288   31.6030 H   0  0  0  0  0
    9.5049   19.9779   32.0562 H   0  0  0  0  0
   10.6273   20.8140   34.0449 H   0  0  0  0  0
   10.8219   23.2162   34.5119 H   0  0  0  0  0
    9.4553   24.6686   33.3425 H   0  0  0  0  0
    9.0832   21.8180   35.5136 H   0  0  0  0  0
    7.7844   24.4393   34.6847 H   0  0  0  0  0
    8.8952   25.2825   36.5222 H   0  0  0  0  0
    7.7324   23.1081   37.4735 H   0  0  0  0  0
    6.7551   22.4261   36.3190 H   0  0  0  0  0
    5.7474   24.3835   37.2080 H   0  0  0  0  0
   12.9236   19.3473   34.5834 H   0  0  0  0  0
   14.7998   20.7216   32.3242 H   0  0  0  0  0
   14.0963   22.3335   32.0040 H   0  0  0  0  0
   12.8112   21.4085   30.1124 H   0  0  0  0  0
   14.6268   20.9516   28.7562 H   0  0  0  0  0
   13.1203   19.0995   29.3496 H   0  0  0  0  0
   14.2550   17.6585   30.7110 H   0  0  0  0  0
   11.3006   19.6624   30.8076 H   0  0  0  0  0
   10.6455   17.6795   31.8434 H   0  0  0  0  0
   12.2017   15.9966   32.3863 H   0  0  0  0  0
   12.6526   16.6547   29.8106 H   0  0  0  0  0
   11.2061   17.5886   29.3357 H   0  0  0  0  0
   12.7785   14.6148   27.6143 H   0  0  0  0  0
   10.2149   12.9097   28.5643 H   0  0  0  0  0
    9.0856   14.0998   29.2146 H   0  0  0  0  0
    9.9686   13.7425   31.5101 H   0  0  0  0  0
    9.3087   11.4736   31.6221 H   0  0  0  0  0
   11.6591   11.9870   31.9860 H   0  0  0  0  0
   12.7187   11.0568   30.1490 H   0  0  0  0  0
   12.3028   14.3056   31.6589 H   0  0  0  0  0
   14.2958   12.4716   30.3151 H   0  0  0  0  0
   15.0841   12.2285   32.4883 H   0  0  0  0  0
   14.8094   14.9543   30.1824 H   0  0  0  0  0
   15.9925   14.0763   31.1172 H   0  0  0  0  0
   15.1636   15.9456   32.2937 H   0  0  0  0  0
  1  2  1  0  0  0
  1  8  1  0  0  0
 12  1  1  0  0  0
  3  2  1  0  0  0
  2  7  1  0  0  0
  4  3  1  0  0  0
  3  9  1  0  0  0
  5  4  1  0  0  0
  4 10  1  0  0  0
  6  5  1  0  0  0
  5 12  1  0  0  0
 11  6  1  0  0  0
  8 14  1  0  0  0
 21 11  1  0  0  0
 14 13  1  0  0  0
 14 15  2  0  0  0
 14 16  1  0  0  0
 23 17  1  0  0  0
 22 18  1  0  0  0
 18 26  1  0  0  0
 18 28  1  0  0  0
 18 30  2  0  0  0
 19 31  1  0  0  0
 35 19  1  0  0  0
 25 20  1  0  0  0
 21 23  1  0  0  0
 24 21  1  0  0  0
 27 22  1  0  0  0
 25 23  1  0  0  0
 29 24  1  0  0  0
 27 25  1  0  0  0
 29 27  1  0  0  0
 31 29  1  0  0  0
 32 33  2  0  0  0
 32 34  1  0  0  0
 35 32  1  0  0  0
 36 35  1  0  0  0
 35 42  1  0  0  0
 37 36  1  0  0  0
 38 37  1  0  0  0
 37 39  1  0  0  0
 50 38  1  0  0  0
 39 40  1  0  0  0
 39 41  1  0  0  0
 41 42  1  0  0  0
 41 43  1  0  0  0
 43 44  1  0  0  0
 43 45  1  0  0  0
 45 46  1  0  0  0
 47 48  2  0  0  0
 47 49  1  0  0  0
 50 47  1  0  0  0
 50 51  1  0  0  0
 57 50  1  0  0  0
 52 51  1  0  0  0
 52 53  1  0  0  0
 54 52  1  0  0  0
 54 55  1  0  0  0
 56 54  1  0  0  0
 56 57  1  0  0  0
 58 56  1  0  0  0
 58 59  1  0  0  0
 60 58  1  0  0  0
 61 60  1  0  0  0
 65 61  1  0  0  0
 62 63  1  0  0  0
 62 64  2  0  0  0
 62 65  1  0  0  0
 65 66  1  0  0  0
 65 72  1  0  0  0
 66 67  1  0  0  0
 67 68  1  0  0  0
 67 69  1  0  0  0
 69 70  1  0  0  0
 69 71  1  0  0  0
 71 72  1  0  0  0
 71 73  1  0  0  0
 73 74  1  0  0  0
 73 75  1  0  0  0
 75 76  1  0  0  0
  1 77  1  0  0  0
  2 78  1  0  0  0
  3 79  1  0  0  0
  4 80  1  0  0  0
  5 81  1  0  0  0
  6 82  1  0  0  0
  6 83  1  0  0  0
  7 84  1  0  0  0
  7 85  1  0  0  0
  7 86  1  0  0  0
  9 87  1  0  0  0
 10 88  1  0  0  0
 13 89  1  0  0  0
 16 90  1  0  0  0
 17 91  1  0  0  0
 17 92  1  0  0  0
 17 93  1  0  0  0
 20 94  1  0  0  0
 21 95  1  0  0  0
 23 96  1  0  0  0
 25 97  1  0  0  0
 26 98  1  0  0  0
 27 99  1  0  0  0
 28100  1  0  0  0
 29101  1  0  0  0
 31102  1  0  0  0
 31103  1  0  0  0
 34104  1  0  0  0
 36105  1  0  0  0
 36106  1  0  0  0
 37107  1  0  0  0
 39108  1  0  0  0
 40109  1  0  0  0
 41110  1  0  0  0
 43111  1  0  0  0
 44112  1  0  0  0
 45113  1  0  0  0
 45114  1  0  0  0
 46115  1  0  0  0
 49116  1  0  0  0
 51117  1  0  0  0
 51118  1  0  0  0
 52119  1  0  0  0
 53120  1  0  0  0
 54121  1  0  0  0
 55122  1  0  0  0
 56123  1  0  0  0
 58124  1  0  0  0
 59125  1  0  0  0
 60126  1  0  0  0
 60127  1  0  0  0
 63128  1  0  0  0
 66129  1  0  0  0
 66130  1  0  0  0
 67131  1  0  0  0
 68132  1  0  0  0
 69133  1  0  0  0
 70134  1  0  0  0
 71135  1  0  0  0
 73136  1  0  0  0
 74137  1  0  0  0
 75138  1  0  0  0
 75139  1  0  0  0
 76140  1  0  0  0
M  END
$$$$
