### 
### Created by X-TOOL on Mon Aug  2 16:12:44 2021
### 

@<TRIPOS>MOLECULE
6c5h_ligand
  133   137     1     0     0
SMALL
GAST_HUCK


@<TRIPOS>ATOM
      1 C1B        12.7450   17.7370   40.5310 C.3       1 GP1         0.2337
      2 C2B        14.2100   17.5760   40.0680 C.3       1 GP1         0.0611
      3 C3B        14.7320   18.8980   39.4760 C.3       1 GP1         0.1307
      4 C4B        13.7870   19.4070   38.3710 C.3       1 GP1         0.1148
      5 C5B        12.4070   19.6180   39.0180 C.3       1 GP1         0.1139
      6 C6B        11.4420   20.3660   38.0790 C.3       1 GP1         0.0797
      7 N2B        15.0920   17.1320   41.1710 N.4       1 GP1         0.2265
      8 O1B        12.7480   18.5760   41.7270 O.3       1 GP1        -0.2394
      9 O3B        16.0480   18.6650   38.9650 O.3       1 GP1        -0.3833
     10 O4B        14.2950   20.6270   37.8070 O.3       1 GP1        -0.3864
     11 O5B        10.1270   20.4720   38.6800 O.3       1 GP1        -0.3437
     12 O6B        11.9320   18.2910   39.4430 O.3       1 GP1        -0.3348
     13 O7B        12.1140   19.5570   43.9670 O.co2     1 GP1        -0.5536
     14 P4B        11.4550   18.7690   42.7170 P.3       1 GP1         0.2048
     15 O8B        10.5110   19.7000   42.0540 O.co2     1 GP1        -0.5536
     16 O9B        10.9990   17.4130   43.1490 O.co2     1 GP1        -0.5536
     17 N1          8.8420   18.5610   40.4790 N.4       1 GP1         0.2263
     18 P1          4.2130   17.7000   36.4620 P.3       1 GP1         0.2013
     19 O6          8.2380   19.8180   34.3100 O.3       1 GP1        -0.3441
     20 O3          6.2080   17.6790   39.6570 O.3       1 GP1        -0.3830
     21 C1          9.2180   19.4520   38.1940 C.3       1 GP1         0.2055
     22 O4          5.7850   17.5410   36.8680 O.3       1 GP1        -0.2674
     23 C2          8.1840   19.0770   39.2690 C.3       1 GP1         0.0571
     24 O5          8.5340   19.9380   37.0140 O.3       1 GP1        -0.3378
     25 C3          7.2390   18.0260   38.6880 C.3       1 GP1         0.1351
     26 O9          4.1040   18.0800   35.0280 O.co2     1 GP1        -0.5537
     27 C4          6.6020   18.5580   37.4140 C.3       1 GP1         0.1486
     28 O7          3.5980   18.9410   37.2540 O.co2     1 GP1        -0.5537
     29 C5          7.7150   18.8930   36.4410 C.3       1 GP1         0.1181
     30 O8          3.6580   16.4100   36.8720 O.co2     1 GP1        -0.5537
     31 C6          7.1430   19.4710   35.1710 C.3       1 GP1         0.0790
     32 C1          6.7610   20.4820   32.4610 C.2       1 GP1         0.1041
     33 O1A         6.0300   21.4000   32.1010 O.co2     1 GP1        -0.5426
     34 O1B         6.5710   19.2870   32.1760 O.co2     1 GP1        -0.5426
     35 C2          7.9710   20.8310   33.3300 C.3       1 GP1         0.2205
     36 C3          9.2280   20.9610   32.4370 C.3       1 GP1         0.0358
     37 C4         10.3890   21.5340   33.2620 C.3       1 GP1         0.0937
     38 O4         11.5680   21.7310   32.4240 O.3       1 GP1        -0.3407
     39 C5         10.0010   22.8310   33.9070 C.3       1 GP1         0.1098
     40 O5          9.7000   23.8510   32.9030 O.3       1 GP1        -0.3866
     41 C6          8.7660   22.5460   34.7670 C.3       1 GP1         0.1170
     42 O6          7.6960   22.0520   33.9570 O.3       1 GP1        -0.3381
     43 C7          8.2360   23.8020   35.4450 C.3       1 GP1         0.1067
     44 O7          9.2600   24.4980   36.1060 O.3       1 GP1        -0.3869
     45 C8          7.2710   23.3650   36.5200 C.3       1 GP1         0.0727
     46 O8          6.4360   24.5090   36.5510 O.3       1 GP1        -0.3924
     47 C1         13.0940   21.1330   34.3060 C.2       1 GP1         0.1041
     48 O1A        13.3300   22.3130   34.6320 O.co2     1 GP1        -0.5426
     49 O1B        13.1480   20.1420   35.0730 O.co2     1 GP1        -0.5426
     50 C2         12.7190   20.9010   32.8090 C.3       1 GP1         0.2207
     51 C3         13.9270   21.2580   31.9520 C.3       1 GP1         0.0356
     52 C4         13.6750   20.8560   30.4820 C.3       1 GP1         0.0880
     53 O4         14.8000   21.2080   29.6650 O.3       1 GP1        -0.3891
     54 C5         13.3490   19.3790   30.3780 C.3       1 GP1         0.1096
     55 O5         14.4760   18.5900   30.7820 O.3       1 GP1        -0.3866
     56 C6         12.1060   19.1130   31.2950 C.3       1 GP1         0.1170
     57 O6         12.4160   19.5230   32.6080 O.3       1 GP1        -0.3381
     58 C7         11.6550   17.6430   31.4340 C.3       1 GP1         0.1069
     59 O7         12.5120   16.9030   32.3250 O.3       1 GP1        -0.3869
     60 C8         11.6340   16.9260   30.0880 C.3       1 GP1         0.0783
     61 O8         10.8390   15.7400   30.1770 O.3       1 GP1        -0.3441
     62 C1         11.0930   15.2690   27.8190 C.2       1 GP1         0.1041
     63 O1A        12.1250   15.1100   27.1150 O.co2     1 GP1        -0.5426
     64 O1B        10.0540   15.8690   27.4740 O.co2     1 GP1        -0.5426
     65 C2         11.1200   14.7040   29.2470 C.3       1 GP1         0.2205
     66 C3         10.0730   13.6570   29.3450 C.3       1 GP1         0.0356
     67 C4         10.1820   12.9950   30.7460 C.3       1 GP1         0.0880
     68 O4          9.2680   11.9080   30.7670 O.3       1 GP1        -0.3891
     69 C5         11.5730   12.4370   30.9970 C.3       1 GP1         0.1096
     70 O5         11.8420   11.4200   30.0040 O.3       1 GP1        -0.3866
     71 C6         12.5530   13.5810   30.8840 C.3       1 GP1         0.1170
     72 O6         12.4420   14.1400   29.5530 O.3       1 GP1        -0.3381
     73 C7         14.0200   13.1540   31.1190 C.3       1 GP1         0.1067
     74 O7         14.1660   12.4820   32.3680 O.3       1 GP1        -0.3869
     75 C8         14.9450   14.3770   31.0970 C.3       1 GP1         0.0727
     76 O8         14.6070   15.1640   32.2640 O.3       1 GP1        -0.3924
     77 H1         12.3377   16.7499   40.7951 H         1 GP1         0.1023
     78 H2         14.2357   16.8087   39.2803 H         1 GP1         0.0931
     79 H3         14.7832   19.6563   40.2712 H         1 GP1         0.0679
     80 H4         13.7071   18.6530   37.5741 H         1 GP1         0.0648
     81 H5         12.5319   20.2403   39.9164 H         1 GP1         0.0647
     82 H6         11.3625   19.8164   37.1295 H         1 GP1         0.0587
     83 H7         11.8342   21.3755   37.8867 H         1 GP1         0.0587
     84 H8         14.7432   16.2666   41.5525 H         1 GP1         0.2000
     85 H9         15.1073   17.8354   41.8929 H         1 GP1         0.2000
     86 H10        16.0259   16.9916   40.8187 H         1 GP1         0.2000
     87 H11        16.3988   19.4756   38.6153 H         1 GP1         0.2102
     88 H12        13.6945   20.9408   37.1411 H         1 GP1         0.2100
     89 H13         9.4613   19.2642   40.8505 H         1 GP1         0.2000
     90 H14         9.3717   17.7353   40.2473 H         1 GP1         0.2000
     91 H15         8.1440   18.3299   41.1685 H         1 GP1         0.2000
     92 H16         5.7087   18.4562   39.8784 H         1 GP1         0.2102
     93 H17         9.7981   18.5552   37.9310 H         1 GP1         0.0970
     94 H18         7.6056   19.9731   39.5381 H         1 GP1         0.0927
     95 H19         7.8173   17.1219   38.4470 H         1 GP1         0.0682
     96 H20         6.0008   19.4539   37.6283 H         1 GP1         0.0704
     97 H21         8.3131   17.9953   36.2256 H         1 GP1         0.0650
     98 H22         6.5014   18.7261   34.6776 H         1 GP1         0.0586
     99 H23         6.5511   20.3687   35.4028 H         1 GP1         0.0586
    100 H24         9.0105   21.6340   31.5945 H         1 GP1         0.0336
    101 H25         9.5074   19.9694   32.0515 H         1 GP1         0.0336
    102 H26        10.6393   20.8125   34.0537 H         1 GP1         0.0623
    103 H27        10.8239   23.1884   34.5435 H         1 GP1         0.0646
    104 H28         8.9800   23.5551   32.3586 H         1 GP1         0.2100
    105 H29         9.0326   21.8003   35.5305 H         1 GP1         0.0649
    106 H30         7.7433   24.4521   34.7070 H         1 GP1         0.0643
    107 H31         8.8990   25.2743   36.5178 H         1 GP1         0.2100
    108 H32         7.7755   23.1971   37.4830 H         1 GP1         0.0584
    109 H33         6.7175   22.4588   36.2331 H         1 GP1         0.0584
    110 H34         6.9547   25.2723   36.7762 H         1 GP1         0.2095
    111 H35        14.8109   20.7226   32.3288 H         1 GP1         0.0336
    112 H36        14.1040   22.3423   32.0070 H         1 GP1         0.0336
    113 H37        12.8035   21.4201   30.1184 H         1 GP1         0.0621
    114 H38        14.9407   22.1465   29.7091 H         1 GP1         0.2099
    115 H39        13.0959   19.1287   29.3372 H         1 GP1         0.0646
    116 H40        14.6990   18.7960   31.6822 H         1 GP1         0.2100
    117 H41        11.2644   19.7023   30.9020 H         1 GP1         0.0649
    118 H42        10.6355   17.6410   31.8471 H         1 GP1         0.0643
    119 H43        12.4937   17.3041   33.1860 H         1 GP1         0.2100
    120 H44        12.6615   16.6551   29.8036 H         1 GP1         0.0586
    121 H45        11.2067   17.5944   29.3260 H         1 GP1         0.0586
    122 H46        10.2281   12.9002   28.5620 H         1 GP1         0.0336
    123 H47         9.0787   14.1115   29.2238 H         1 GP1         0.0336
    124 H48         9.9302   13.7284   31.5262 H         1 GP1         0.0621
    125 H49         8.3879   12.2328   30.6172 H         1 GP1         0.2099
    126 H50        11.6315   11.9955   32.0028 H         1 GP1         0.0646
    127 H51        11.1952   10.7281   30.0777 H         1 GP1         0.2100
    128 H52        12.2877   14.3461   31.6285 H         1 GP1         0.0649
    129 H53        14.3171   12.4684   30.3117 H         1 GP1         0.0643
    130 H54        13.6185   11.7056   32.3745 H         1 GP1         0.2100
    131 H55        14.7791   14.9634   30.1813 H         1 GP1         0.0584
    132 H56        15.9971   14.0595   31.1436 H         1 GP1         0.0584
    133 H57        13.6949   15.4251   32.2152 H         1 GP1         0.2095
@<TRIPOS>BOND
     1    1    2 1  
     2    1    8 1  
     3   12    1 1  
     4    3    2 1  
     5    2    7 1  
     6    4    3 1  
     7    3    9 1  
     8    5    4 1  
     9    4   10 1  
    10    6    5 1  
    11    5   12 1  
    12   11    6 1  
    13    8   14 1  
    14   21   11 1  
    15   14   13 ar 
    16   14   15 ar 
    17   14   16 ar 
    18   23   17 1  
    19   22   18 1  
    20   18   26 ar 
    21   18   28 ar 
    22   18   30 ar 
    23   19   31 1  
    24   35   19 1  
    25   25   20 1  
    26   21   23 1  
    27   24   21 1  
    28   27   22 1  
    29   25   23 1  
    30   29   24 1  
    31   27   25 1  
    32   29   27 1  
    33   31   29 1  
    34   32   33 ar 
    35   32   34 ar 
    36   35   32 1  
    37   36   35 1  
    38   35   42 1  
    39   37   36 1  
    40   38   37 1  
    41   37   39 1  
    42   50   38 1  
    43   39   40 1  
    44   39   41 1  
    45   41   42 1  
    46   41   43 1  
    47   43   44 1  
    48   43   45 1  
    49   45   46 1  
    50   47   48 ar 
    51   47   49 ar 
    52   50   47 1  
    53   50   51 1  
    54   57   50 1  
    55   52   51 1  
    56   52   53 1  
    57   54   52 1  
    58   54   55 1  
    59   56   54 1  
    60   56   57 1  
    61   58   56 1  
    62   58   59 1  
    63   60   58 1  
    64   61   60 1  
    65   65   61 1  
    66   62   63 ar 
    67   62   64 ar 
    68   62   65 1  
    69   65   66 1  
    70   65   72 1  
    71   66   67 1  
    72   67   68 1  
    73   67   69 1  
    74   69   70 1  
    75   69   71 1  
    76   71   72 1  
    77   71   73 1  
    78   73   74 1  
    79   73   75 1  
    80   75   76 1  
    81    1   77 1  
    82    2   78 1  
    83    3   79 1  
    84    4   80 1  
    85    5   81 1  
    86    6   82 1  
    87    6   83 1  
    88    7   84 1  
    89    7   85 1  
    90    7   86 1  
    91    9   87 1  
    92   10   88 1  
    93   17   89 1  
    94   17   90 1  
    95   17   91 1  
    96   20   92 1  
    97   21   93 1  
    98   23   94 1  
    99   25   95 1  
   100   27   96 1  
   101   29   97 1  
   102   31   98 1  
   103   31   99 1  
   104   36  100 1  
   105   36  101 1  
   106   37  102 1  
   107   39  103 1  
   108   40  104 1  
   109   41  105 1  
   110   43  106 1  
   111   44  107 1  
   112   45  108 1  
   113   45  109 1  
   114   46  110 1  
   115   51  111 1  
   116   51  112 1  
   117   52  113 1  
   118   53  114 1  
   119   54  115 1  
   120   55  116 1  
   121   56  117 1  
   122   58  118 1  
   123   59  119 1  
   124   60  120 1  
   125   60  121 1  
   126   66  122 1  
   127   66  123 1  
   128   67  124 1  
   129   68  125 1  
   130   69  126 1  
   131   70  127 1  
   132   71  128 1  
   133   73  129 1  
   134   74  130 1  
   135   75  131 1  
   136   75  132 1  
   137   76  133 1  
@<TRIPOS>SUBSTRUCTURE
     1 GP1         1

