3cyx_ligand
  -I-interpret- 

100104  0  0  0  0  0  0  0  0999 V2000
   20.9630   27.6310   18.5850 O   0  0  0  0  0
   21.4180   26.4730   18.5010 C   0  0  0  0  0
   23.1320   24.7840   18.9890 N   0  0  0  0  0
   22.5260   25.9480   19.3240 C   0  0  0  0  0
   22.9570   26.7130   20.4290 C   0  0  0  0  0
   23.9510   26.1280   21.2240 C   0  0  0  0  0
   24.5890   24.9500   20.8630 C   0  0  0  0  0
   25.5900   24.3820   21.6240 C   0  0  0  0  0
   26.2480   23.2290   21.2520 C   0  0  0  0  0
   25.7750   22.5710   20.1460 C   0  0  0  0  0
   24.7930   23.0780   19.3660 C   0  0  0  0  0
   24.1450   24.2650   19.7300 C   0  0  0  0  0
   20.9560   25.5530   17.6310 N   0  0  0  0  0
   19.8020   25.7440   16.8090 C   0  0  0  0  0
   18.8200   24.6190   17.1240 C   0  0  0  0  0
   18.9680   23.5450   16.4970 O   0  0  0  0  0
   20.1110   25.7770   15.3330 C   0  0  0  0  0
   21.0210   26.9070   15.1040 C   0  0  0  0  0
   22.2410   26.9030   14.8890 O   0  0  0  0  0
   20.4990   28.0680   15.1630 N   0  0  0  0  0
   15.5150   24.4490   18.0900 C   0  0  0  0  0
   15.1850   25.5650   18.9070 O   0  0  0  0  0
   16.8980   23.9020   18.4630 C   0  0  0  0  0
   17.9100   24.8890   18.0560 N   0  0  0  0  0
   17.0750   23.6610   19.9590 C   0  0  0  0  0
   18.4960   23.4010   20.3840 C   0  0  0  0  0
   19.0840   22.1730   20.1610 C   0  0  0  0  0
   19.2320   24.3800   20.9910 C   0  0  0  0  0
   20.3550   21.9220   20.5830 C   0  0  0  0  0
   20.5240   24.1400   21.3810 C   0  0  0  0  0
   21.0740   22.9090   21.2000 C   0  0  0  0  0
   14.4060   22.6030   16.9510 N   0  3  0  0  0
   14.4250   23.4090   18.1430 C   0  0  0  0  0
   13.8020   21.2430   17.1590 C   0  0  0  0  0
   14.5820   20.4490   18.2200 C   0  0  0  0  0
   15.8020   20.4480   18.2530 O   0  0  0  0  0
   13.8270   20.4800   15.8790 C   0  0  0  0  0
   13.1450   21.1720   14.7360 C   0  0  0  0  0
   13.2330   20.4170   13.4160 C   0  0  0  0  0
   14.6010   20.4550   12.7730 C   0  0  0  0  0
   15.0750   21.8700   12.5940 C   0  0  0  0  0
   15.1100   22.5070   13.9760 C   0  0  0  0  0
   13.7730   22.5690   14.6270 C   0  0  0  0  0
   13.7110   23.3070   15.9020 C   0  0  0  0  0
   13.8090   19.7990   19.1250 N   0  0  0  0  0
   14.3160   18.9050   20.1500 C   0  0  0  0  0
   13.1530   18.3990   20.9750 C   0  0  0  0  0
   15.2240   19.6820   21.0690 C   0  0  0  0  0
   15.0080   17.7520   19.4800 C   0  0  0  0  0
   22.5427   27.6967   20.6498 H   0  0  0  0  0
   24.2327   26.6147   22.1577 H   0  0  0  0  0
   25.8726   24.8655   22.5591 H   0  0  0  0  0
   27.1059   22.8571   21.8121 H   0  0  0  0  0
   26.2059   21.6042   19.8858 H   0  0  0  0  0
   24.5050   22.5608   18.4508 H   0  0  0  0  0
   21.4591   24.6690   17.5546 H   0  0  0  0  0
   19.3774   26.7219   17.0361 H   0  0  0  0  0
   19.1964   25.8973   14.7523 H   0  0  0  0  0
   20.5736   24.8420   15.0170 H   0  0  0  0  0
   21.0812   28.8960   15.0368 H   0  0  0  0  0
   19.4990   28.1693   15.3364 H   0  0  0  0  0
   15.5798   24.7682   17.0498 H   0  0  0  0  0
   14.3177   25.8949   18.6610 H   0  0  0  0  0
   17.0060   22.9435   17.9553 H   0  0  0  0  0
   17.9141   25.8067   18.5012 H   0  0  0  0  0
   16.4984   22.7706   20.2097 H   0  0  0  0  0
   16.7495   24.5674   20.4695 H   0  0  0  0  0
   18.5253   21.3946   19.6412 H   0  0  0  0  0
   18.7877   25.3598   21.1664 H   0  0  0  0  0
   20.7976   20.9378   20.4295 H   0  0  0  0  0
   21.1117   24.9368   21.8369 H   0  0  0  0  0
   22.0879   22.7089   21.5467 H   0  0  0  0  0
   15.3774   22.4432   16.6841 H   0  0  0  0  0
   13.4655   23.9188   18.2302 H   0  0  0  0  0
   14.6107   22.7577   18.9970 H   0  0  0  0  0
   12.7756   21.3795   17.4996 H   0  0  0  0  0
   13.2946   19.5448   16.0521 H   0  0  0  0  0
   14.8733   20.3544   15.6003 H   0  0  0  0  0
   12.0756   21.2267   14.9399 H   0  0  0  0  0
   12.5384   20.8942   12.7247 H   0  0  0  0  0
   13.0044   19.3722   13.6263 H   0  0  0  0  0
   14.5395   19.9810   11.7934 H   0  0  0  0  0
   15.3049   19.9302   13.4189 H   0  0  0  0  0
   14.4051   22.4200   11.9331 H   0  0  0  0  0
   16.0636   21.8900   12.1354 H   0  0  0  0  0
   15.4683   23.5298   13.8593 H   0  0  0  0  0
   15.7559   21.8950   14.6056 H   0  0  0  0  0
   13.1691   23.1778   13.9542 H   0  0  0  0  0
   14.1856   24.2784   15.7634 H   0  0  0  0  0
   12.6652   23.4133   16.1902 H   0  0  0  0  0
   12.8010   19.9488   19.0824 H   0  0  0  0  0
   12.6441   19.2436   21.4396 H   0  0  0  0  0
   12.4566   17.8641   20.3292 H   0  0  0  0  0
   13.5234   17.7261   21.7484 H   0  0  0  0  0
   16.0539   20.0939   20.4947 H   0  0  0  0  0
   14.6624   20.4936   21.5316 H   0  0  0  0  0
   15.6099   19.0183   21.8427 H   0  0  0  0  0
   14.2979   17.2237   18.8438 H   0  0  0  0  0
   15.8320   18.1274   18.8732 H   0  0  0  0  0
   15.3944   17.0713   20.2386 H   0  0  0  0  0
  2  1  2  0  0  0
  2  4  1  0  0  0
 13  2  1  0  0  0
  4  3  4  0  0  0
  3 12  4  0  0  0
  4  5  4  0  0  0
  5  6  4  0  0  0
  6  7  4  0  0  0
  7  8  4  0  0  0
 12  7  4  0  0  0
  8  9  4  0  0  0
 10  9  4  0  0  0
 11 10  4  0  0  0
 12 11  4  0  0  0
 14 13  1  0  0  0
 15 14  1  0  0  0
 14 17  1  0  0  0
 15 16  2  0  0  0
 24 15  1  0  0  0
 17 18  1  0  0  0
 18 19  2  0  0  0
 18 20  1  0  0  0
 21 22  1  0  0  0
 23 21  1  0  0  0
 21 33  1  0  0  0
 23 24  1  0  0  0
 23 25  1  0  0  0
 25 26  1  0  0  0
 26 27  4  0  0  0
 26 28  4  0  0  0
 27 29  4  0  0  0
 28 30  4  0  0  0
 29 31  4  0  0  0
 30 31  4  0  0  0
 33 32  1  0  0  0
 32 34  1  0  0  0
 32 44  1  0  0  0
 34 35  1  0  0  0
 34 37  1  0  0  0
 35 36  2  0  0  0
 35 45  1  0  0  0
 37 38  1  0  0  0
 38 39  1  0  0  0
 38 43  1  0  0  0
 39 40  1  0  0  0
 40 41  1  0  0  0
 41 42  1  0  0  0
 42 43  1  0  0  0
 43 44  1  0  0  0
 45 46  1  0  0  0
 46 47  1  0  0  0
 46 48  1  0  0  0
 46 49  1  0  0  0
  5 50  1  0  0  0
  6 51  1  0  0  0
  8 52  1  0  0  0
  9 53  1  0  0  0
 10 54  1  0  0  0
 11 55  1  0  0  0
 13 56  1  0  0  0
 14 57  1  0  0  0
 17 58  1  0  0  0
 17 59  1  0  0  0
 20 60  1  0  0  0
 20 61  1  0  0  0
 21 62  1  0  0  0
 22 63  1  0  0  0
 23 64  1  0  0  0
 24 65  1  0  0  0
 25 66  1  0  0  0
 25 67  1  0  0  0
 27 68  1  0  0  0
 28 69  1  0  0  0
 29 70  1  0  0  0
 30 71  1  0  0  0
 31 72  1  0  0  0
 32 73  1  0  0  0
 33 74  1  0  0  0
 33 75  1  0  0  0
 34 76  1  0  0  0
 37 77  1  0  0  0
 37 78  1  0  0  0
 38 79  1  0  0  0
 39 80  1  0  0  0
 39 81  1  0  0  0
 40 82  1  0  0  0
 40 83  1  0  0  0
 41 84  1  0  0  0
 41 85  1  0  0  0
 42 86  1  0  0  0
 42 87  1  0  0  0
 43 88  1  0  0  0
 44 89  1  0  0  0
 44 90  1  0  0  0
 45 91  1  0  0  0
 47 92  1  0  0  0
 47 93  1  0  0  0
 47 94  1  0  0  0
 48 95  1  0  0  0
 48 96  1  0  0  0
 48 97  1  0  0  0
 49 98  1  0  0  0
 49 99  1  0  0  0
 49100  1  0  0  0
M  END
$$$$
