3vd7_ligand
  -I-interpret- 

 24 25  0  0  0  0  0  0  0  0999 V2000
   53.7990  -11.7540   27.8990 C   0  0  0  0  0
   54.3390  -10.4040   27.5970 C   0  0  0  0  0
   53.3890   -9.2610   28.0160 C   0  0  0  0  0
   51.9060   -9.6500   28.1790 C   0  0  0  0  0
   51.6580  -10.9400   28.9850 C   0  0  0  0  0
   50.2060  -11.4160   28.8780 C   0  0  0  0  0
   54.3490  -12.9680   27.6340 N   0  0  0  0  0
   55.5800  -10.2690   28.2920 O   0  0  0  0  0
   53.4930   -8.1820   27.0650 O   0  0  0  0  0
   51.3400   -9.7820   26.8690 O   0  0  0  0  0
   52.6340  -11.9600   28.5020 N   0  0  0  0  0
   49.4000  -10.6610   29.7900 O   0  0  0  0  0
   52.3660  -13.3300   28.6620 N   0  0  0  0  0
   53.4790  -13.9790   28.0980 N   0  0  0  0  0
   54.4629  -10.3204   26.5173 H   0  0  0  0  0
   53.7203   -8.9662   29.0117 H   0  0  0  0  0
   51.4315   -8.8590   28.7597 H   0  0  0  0  0
   51.8122  -10.7574   30.0485 H   0  0  0  0  0
   50.1472  -12.4758   29.1258 H   0  0  0  0  0
   49.8450  -11.2695   27.8600 H   0  0  0  0  0
   56.1704  -10.9797   28.0313 H   0  0  0  0  0
   54.4153   -7.9367   26.9606 H   0  0  0  0  0
   51.4970   -8.9764   26.3711 H   0  0  0  0  0
   48.4881  -10.9546   29.7279 H   0  0  0  0  0
  1  2  1  0  0  0
  1  7  4  0  0  0
  1 11  4  0  0  0
  2  3  1  0  0  0
  2  8  1  0  0  0
  3  4  1  0  0  0
  3  9  1  0  0  0
  4  5  1  0  0  0
  4 10  1  0  0  0
  5  6  1  0  0  0
  5 11  1  0  0  0
  6 12  1  0  0  0
  7 14  4  0  0  0
 11 13  4  0  0  0
 13 14  4  0  0  0
  2 15  1  0  0  0
  3 16  1  0  0  0
  4 17  1  0  0  0
  5 18  1  0  0  0
  6 19  1  0  0  0
  6 20  1  0  0  0
  8 21  1  0  0  0
  9 22  1  0  0  0
 10 23  1  0  0  0
 12 24  1  0  0  0
M  END
$$$$
