2wkz_ligand
  -I-interpret- 

 99103  0  0  0  0  0  0  0  0999 V2000
   14.7130   17.6030    3.9000 C   0  0  0  0  0
   18.7520   16.9940   11.8960 C   0  0  0  0  0
   18.3210   18.1090   11.2180 N   0  0  0  0  0
   17.0300   18.1690   10.6140 C   0  0  0  0  0
   16.1860   17.0200   10.7330 C   0  0  0  0  0
   16.6560   15.8870   11.4360 C   0  0  0  0  0
   17.9530   15.8910   12.0170 C   0  0  0  0  0
   11.8820   24.0040    4.1690 C   0  0  0  0  0
   13.0830   23.0990    4.5970 C   0  0  0  0  0
   14.0080   23.7170    5.6820 C   0  0  0  0  0
   12.3990   25.3120    3.7940 O   0  0  0  0  0
   11.1600   23.3930    2.9010 C   0  0  0  0  0
    9.6810   23.8320    2.6610 C   0  0  0  0  0
    9.3860   25.1380    2.1440 C   0  0  0  0  0
    8.0410   25.5450    1.9310 C   0  0  0  0  0
    6.9710   24.6570    2.2300 C   0  0  0  0  0
    7.2510   23.3570    2.7430 C   0  0  0  0  0
    8.5950   22.9430    2.9570 C   0  0  0  0  0
   10.8180   24.1580    5.2730 C   0  0  0  0  0
   10.1970   25.3620    5.3820 N   0  0  0  0  0
    9.1240   25.5850    6.3640 C   0  0  0  0  0
    7.9670   26.5460    5.9260 C   0  0  0  0  0
    8.4030   27.6380    5.0650 O   0  0  0  0  0
    7.3680   27.1510    7.2180 C   0  0  0  0  0
    8.5540   27.0890    8.1720 C   0  0  0  0  0
    8.7170   27.7890    9.3950 C   0  0  0  0  0
    9.9150   27.5820   10.1360 C   0  0  0  0  0
   10.9250   26.6890    9.6550 C   0  0  0  0  0
   10.7530   25.9910    8.4270 C   0  0  0  0  0
    9.5520   26.2040    7.6890 C   0  0  0  0  0
   10.5210   23.2110    5.9890 O   0  0  0  0  0
   14.6840   22.6790    6.5010 N   0  3  0  0  0
   15.4030   23.0680    7.7440 C   0  0  0  0  0
   15.8340   21.8000    8.4990 C   0  0  0  0  0
   14.8510   20.9840    9.1250 C   0  0  0  0  0
   15.2360   19.8010    9.8140 C   0  0  0  0  0
   16.6120   19.4160    9.8900 C   0  0  0  0  0
   17.5940   20.2460    9.2650 C   0  0  0  0  0
   17.2070   21.4270    8.5700 C   0  0  0  0  0
   15.6220   21.8140    5.6460 N   0  0  0  0  0
   15.2840   20.5340    5.3210 C   0  0  0  0  0
   16.2440   19.6780    4.4860 C   0  0  0  0  0
   16.9110   18.8600    5.4930 N   0  0  0  0  0
   18.2200   19.0000    5.7600 C   0  0  0  0  0
   18.6090   18.1290    6.7220 O   0  0  0  0  0
   20.0000   18.1780    7.0990 C   0  0  0  0  0
   18.9580   19.8110    5.2010 O   0  0  0  0  0
   15.5910   18.7780    3.3490 C   0  0  0  0  0
   14.7040   19.6450    2.4070 C   0  0  0  0  0
   16.7430   18.1360    2.5050 C   0  0  0  0  0
   14.2120   20.0550    5.7120 O   0  0  0  0  0
   15.3291   16.9494    4.5175 H   0  0  0  0  0
   13.8987   18.0098    4.4996 H   0  0  0  0  0
   14.3026   17.0353    3.0649 H   0  0  0  0  0
   19.7457   16.9888   12.3440 H   0  0  0  0  0
   15.1916   17.0181   10.2866 H   0  0  0  0  0
   16.0208   15.0065   11.5328 H   0  0  0  0  0
   18.3106   15.0153   12.5587 H   0  0  0  0  0
   13.6956   22.9441    3.7088 H   0  0  0  0  0
   12.6589   22.1895    5.0225 H   0  0  0  0  0
   13.3930   24.3249    6.3455 H   0  0  0  0  0
   14.7757   24.3045    5.1784 H   0  0  0  0  0
   11.6709   25.8786    3.5286 H   0  0  0  0  0
   11.1324   22.3150    3.0601 H   0  0  0  0  0
   11.7226   23.7435    2.0357 H   0  0  0  0  0
   10.2009   25.8240    1.9126 H   0  0  0  0  0
    7.8292   26.5393    1.5379 H   0  0  0  0  0
    5.9396   24.9698    2.0673 H   0  0  0  0  0
    6.4310   22.6765    2.9725 H   0  0  0  0  0
    8.8004   21.9463    3.3475 H   0  0  0  0  0
   10.4807   26.1272    4.7702 H   0  0  0  0  0
    8.7998   24.5484    6.4564 H   0  0  0  0  0
    7.2489   25.9645    5.3478 H   0  0  0  0  0
    7.6477   28.1846    4.8360 H   0  0  0  0  0
    6.4916   26.6144    7.5814 H   0  0  0  0  0
    6.9738   28.1581    7.0821 H   0  0  0  0  0
    7.9452   28.4677    9.7580 H   0  0  0  0  0
   10.0645   28.1086   11.0786 H   0  0  0  0  0
   11.8357   26.5421   10.2357 H   0  0  0  0  0
   11.5208   25.3101    8.0596 H   0  0  0  0  0
   13.8697   22.1725    6.8486 H   0  0  0  0  0
   14.7438   23.6629    8.3761 H   0  0  0  0  0
   16.2835   23.6571    7.4873 H   0  0  0  0  0
   13.7994   21.2665    9.0764 H   0  0  0  0  0
   14.4753   19.1814   10.2889 H   0  0  0  0  0
   18.6476   19.9725    9.3210 H   0  0  0  0  0
   17.9639   22.0478    8.0907 H   0  0  0  0  0
   16.5068   22.2013    5.3181 H   0  0  0  0  0
   16.8992   20.3208    3.8981 H   0  0  0  0  0
   16.3701   18.1646    6.0070 H   0  0  0  0  0
   20.6190   17.9621    6.2282 H   0  0  0  0  0
   20.2376   19.1720    7.4778 H   0  0  0  0  0
   20.1911   17.4368    7.8750 H   0  0  0  0  0
   13.9095   20.1136    2.9878 H   0  0  0  0  0
   15.3174   20.4156    1.9401 H   0  0  0  0  0
   14.2666   19.0104    1.6362 H   0  0  0  0  0
   17.3463   18.9253    2.0564 H   0  0  0  0  0
   17.3686   17.5229    3.1537 H   0  0  0  0  0
   16.3132   17.5145    1.7194 H   0  0  0  0  0
 48  1  1  0  0  0
  3  2  4  0  0  0
  2  7  4  0  0  0
  4  3  4  0  0  0
  4  5  4  0  0  0
 37  4  1  0  0  0
  5  6  4  0  0  0
  6  7  4  0  0  0
  9  8  1  0  0  0
  8 11  1  0  0  0
  8 12  1  0  0  0
  8 19  1  0  0  0
 10  9  1  0  0  0
 32 10  1  0  0  0
 12 13  1  0  0  0
 13 14  4  0  0  0
 13 18  4  0  0  0
 14 15  4  0  0  0
 15 16  4  0  0  0
 17 16  4  0  0  0
 18 17  4  0  0  0
 19 20  1  0  0  0
 19 31  2  0  0  0
 20 21  1  0  0  0
 21 22  1  0  0  0
 21 30  1  0  0  0
 22 23  1  0  0  0
 22 24  1  0  0  0
 25 24  1  0  0  0
 25 26  4  0  0  0
 30 25  4  0  0  0
 26 27  4  0  0  0
 28 27  4  0  0  0
 29 28  4  0  0  0
 30 29  4  0  0  0
 32 33  1  0  0  0
 40 32  1  0  0  0
 33 34  1  0  0  0
 34 35  4  0  0  0
 34 39  4  0  0  0
 35 36  4  0  0  0
 36 37  4  0  0  0
 38 37  4  0  0  0
 39 38  4  0  0  0
 41 40  1  0  0  0
 42 41  1  0  0  0
 41 51  2  0  0  0
 42 43  1  0  0  0
 42 48  1  0  0  0
 43 44  1  0  0  0
 44 45  1  0  0  0
 44 47  2  0  0  0
 45 46  1  0  0  0
 48 49  1  0  0  0
 48 50  1  0  0  0
  1 52  1  0  0  0
  1 53  1  0  0  0
  1 54  1  0  0  0
  2 55  1  0  0  0
  5 56  1  0  0  0
  6 57  1  0  0  0
  7 58  1  0  0  0
  9 59  1  0  0  0
  9 60  1  0  0  0
 10 61  1  0  0  0
 10 62  1  0  0  0
 11 63  1  0  0  0
 12 64  1  0  0  0
 12 65  1  0  0  0
 14 66  1  0  0  0
 15 67  1  0  0  0
 16 68  1  0  0  0
 17 69  1  0  0  0
 18 70  1  0  0  0
 20 71  1  0  0  0
 21 72  1  0  0  0
 22 73  1  0  0  0
 23 74  1  0  0  0
 24 75  1  0  0  0
 24 76  1  0  0  0
 26 77  1  0  0  0
 27 78  1  0  0  0
 28 79  1  0  0  0
 29 80  1  0  0  0
 32 81  1  0  0  0
 33 82  1  0  0  0
 33 83  1  0  0  0
 35 84  1  0  0  0
 36 85  1  0  0  0
 38 86  1  0  0  0
 39 87  1  0  0  0
 40 88  1  0  0  0
 42 89  1  0  0  0
 43 90  1  0  0  0
 46 91  1  0  0  0
 46 92  1  0  0  0
 46 93  1  0  0  0
 49 94  1  0  0  0
 49 95  1  0  0  0
 49 96  1  0  0  0
 50 97  1  0  0  0
 50 98  1  0  0  0
 50 99  1  0  0  0
M  END
$$$$
