6q60_ligand
  -I-interpret- 

 24 24  0  0  0  0  0  0  0  0999 V2000
   41.5730   34.6110  -23.4070 N   0  0  0  0  0
   40.3790   33.4500  -24.9620 N   0  0  0  0  0
   42.0370   34.8480  -24.6210 C   0  0  0  0  0
   39.7800   33.1650  -22.6230 C   0  0  0  0  0
   41.2840   35.4450  -29.3180 C   0  0  0  0  0
   40.7770   35.2960  -27.8570 C   0  0  0  0  0
   41.4710   34.1260  -27.1240 C   0  0  0  0  0
   41.3120   34.1350  -25.5980 C   0  0  0  0  0
   40.5780   33.7710  -23.6710 N   0  0  0  0  0
   39.2980   35.1670  -27.8010 N   0  3  0  0  0
   42.4630   35.4920  -29.5990 O   0  0  0  0  0
   40.3360   35.5620  -30.2440 O   0  0  0  0  0
   43.0870   35.6620  -24.8430 O   0  0  0  0  0
   41.8924   34.9748  -22.5092 H   0  0  0  0  0
   38.7285   33.4012  -22.7862 H   0  0  0  0  0
   39.9181   32.0840  -22.6420 H   0  0  0  0  0
   40.0956   33.5559  -21.6557 H   0  0  0  0  0
   41.0466   36.2125  -27.3322 H   0  0  0  0  0
   42.5377   34.2123  -27.3307 H   0  0  0  0  0
   41.0068   33.2080  -27.4843 H   0  0  0  0  0
   38.8706   35.9521  -28.2923 H   0  0  0  0  0
   39.0171   34.2928  -28.2452 H   0  0  0  0  0
   38.9945   35.1678  -26.8272 H   0  0  0  0  0
   39.4735   35.4992  -29.8271 H   0  0  0  0  0
  3  1  1  0  0  0
  1  9  1  0  0  0
  8  2  2  0  0  0
  2  9  1  0  0  0
  8  3  1  0  0  0
  3 13  2  0  0  0
  9  4  1  0  0  0
  6  5  1  0  0  0
  5 11  2  0  0  0
  5 12  1  0  0  0
  7  6  1  0  0  0
  6 10  1  0  0  0
  7  8  1  0  0  0
  1 14  1  0  0  0
  4 15  1  0  0  0
  4 16  1  0  0  0
  4 17  1  0  0  0
  6 18  1  0  0  0
  7 19  1  0  0  0
  7 20  1  0  0  0
 10 21  1  0  0  0
 10 22  1  0  0  0
 10 23  1  0  0  0
 12 24  1  0  0  0
M  END
$$$$
