5l96_ligand
  -I-interpret- 

 31 31  0  0  0  0  0  0  0  0999 V2000
  -25.1800   -7.3310    0.7380 C   0  0  0  0  0
  -27.5280   -7.9530    0.5160 C   0  0  0  0  0
  -30.2450  -11.2980    0.5760 C   0  0  0  0  0
  -31.1200   -7.7860   -0.6880 C   0  0  0  0  0
  -28.0540  -10.3940    0.4810 N   0  0  0  0  0
  -27.1160   -9.3030    0.5610 C   0  0  0  0  0
  -29.3720  -10.1700    0.1000 C   0  0  0  0  0
  -29.4600  -10.0680   -1.4390 C   0  0  0  0  0
  -30.8850   -9.0450   -1.8710 S   0  0  0  0  0
  -30.7240   -8.4790   -3.2270 O   0  0  0  0  0
  -32.1110   -9.8900   -2.0240 O   0  0  0  0  0
  -25.7290   -9.5640    0.6980 C   0  0  0  0  0
  -25.2540  -11.0070    0.7630 C   0  0  0  0  0
  -24.8340   -8.6030    0.7860 N   0  0  0  0  0
  -26.5320   -6.9490    0.6050 C   0  0  0  0  0
  -24.4094   -6.5628    0.8021 H   0  0  0  0  0
  -28.5813   -7.6910    0.4157 H   0  0  0  0  0
  -31.2768  -11.1064    0.2815 H   0  0  0  0  0
  -29.9056  -12.2322    0.1285 H   0  0  0  0  0
  -30.1832  -11.3703    1.6618 H   0  0  0  0  0
  -30.2552   -7.1225   -0.6887 H   0  0  0  0  0
  -32.0159   -7.2175   -0.9374 H   0  0  0  0  0
  -31.2353   -8.2337    0.2991 H   0  0  0  0  0
  -27.7477  -11.3405    0.7063 H   0  0  0  0  0
  -29.7148   -9.2371    0.5476 H   0  0  0  0  0
  -29.5739  -11.0626   -1.8701 H   0  0  0  0  0
  -28.5485   -9.6186   -1.8331 H   0  0  0  0  0
  -25.7120  -11.5007    1.6201 H   0  0  0  0  0
  -25.5414  -11.5244   -0.1523 H   0  0  0  0  0
  -24.1692  -11.0267    0.8677 H   0  0  0  0  0
  -26.8067   -5.8947    0.5712 H   0  0  0  0  0
  1 14  4  0  0  0
 15  1  4  0  0  0
  6  2  4  0  0  0
  2 15  4  0  0  0
  7  3  1  0  0  0
  9  4  1  0  0  0
  5  6  1  0  0  0
  7  5  1  0  0  0
  6 12  4  0  0  0
  8  7  1  0  0  0
  8  9  1  0  0  0
  9 10  2  0  0  0
  9 11  2  0  0  0
 12 13  1  0  0  0
 12 14  4  0  0  0
  1 16  1  0  0  0
  2 17  1  0  0  0
  3 18  1  0  0  0
  3 19  1  0  0  0
  3 20  1  0  0  0
  4 21  1  0  0  0
  4 22  1  0  0  0
  4 23  1  0  0  0
  5 24  1  0  0  0
  7 25  1  0  0  0
  8 26  1  0  0  0
  8 27  1  0  0  0
 13 28  1  0  0  0
 13 29  1  0  0  0
 13 30  1  0  0  0
 15 31  1  0  0  0
M  END
$$$$
