6ma4_ligand
  -I-interpret- 

 72 75  0  0  0  0  0  0  0  0999 V2000
    1.7420  -44.9370   13.4060 C   0  0  0  0  0
    2.1320  -44.1080   16.1650 N   0  0  0  0  0
    0.9450  -44.7950   16.8600 C   0  0  0  0  0
   -0.1300  -43.7680   19.0530 C   0  0  0  0  0
   -1.9590  -42.0780   18.7240 C   0  0  0  0  0
   -3.7380  -40.3440   15.4840 C   0  0  0  0  0
   -3.3580  -39.2930   14.3620 C   0  0  0  0  0
   -0.0820  -43.5860   20.4460 C   0  0  0  0  0
    1.9720  -44.9010   20.6380 C   0  0  0  0  0
    0.7620  -46.3760   16.4370 C   0  0  0  0  0
   -0.1710  -49.5680    9.2610 O   0  0  0  0  0
   -0.0670  -48.5810   10.0060 C   0  0  0  0  0
    1.1520  -48.3810   10.7190 N   0  0  0  0  0
   -1.1620  -47.5980   10.1910 C   0  0  0  0  0
   -0.9830  -46.5170   11.0410 C   0  0  0  0  0
    0.2980  -46.2970   11.7920 C   0  0  0  0  0
    1.3450  -47.2430   11.6120 C   0  0  0  0  0
    2.5880  -47.0260   12.3390 C   0  0  0  0  0
    2.7630  -45.9180   13.2100 C   0  0  0  0  0
    1.9580  -43.4090   14.6260 S   0  0  0  0  0
    0.9120  -44.5500   18.4090 C   0  0  0  0  0
   -1.1510  -43.2240   18.2740 O   0  0  0  0  0
   -3.1000  -41.6270   17.7000 C   0  0  0  0  0
   -2.6250  -40.6880   16.5080 C   0  0  0  0  0
   -3.8200  -39.4250   13.1810 O   0  0  0  0  0
   -2.5940  -38.3310   14.6700 O   0  0  0  0  0
    0.9470  -44.1430   21.2360 C   0  0  0  0  0
    1.9380  -45.0940   19.2340 C   0  0  0  0  0
   -0.4750  -47.0290   16.2900 N   0  0  0  0  0
   -0.5450  -48.4800   15.8950 C   0  0  0  0  0
   -0.4540  -49.5490   17.0660 C   0  0  0  0  0
   -0.3750  -49.0850   18.2440 O   0  0  0  0  0
   -0.4610  -50.7800   16.7950 O   0  0  0  0  0
   -1.8000  -46.3170   16.4920 C   0  0  0  0  0
   -2.5940  -45.8520   15.2160 C   0  0  0  0  0
   -2.9060  -44.6050   14.7150 C   0  0  0  0  0
   -3.6880  -44.5960   13.4440 C   0  0  0  0  0
   -3.9730  -45.8460   12.9680 C   0  0  0  0  0
   -3.2960  -47.0150   14.0760 S   0  0  0  0  0
    1.8610  -46.9380   16.2690 O   0  0  0  0  0
    3.0970  -42.6610   14.2190 O   0  0  0  0  0
    0.7730  -42.6310   14.5380 O   0  0  0  0  0
    0.5410  -45.1760   12.6930 C   0  0  0  0  0
    3.0368  -44.0713   16.6344 H   0  0  0  0  0
    0.0553  -44.2986   16.4726 H   0  0  0  0  0
   -1.2792  -41.2333   18.8357 H   0  0  0  0  0
   -2.4586  -42.3821   19.6438 H   0  0  0  0  0
   -3.9697  -41.2733   14.9637 H   0  0  0  0  0
   -4.5500  -39.8963   16.0570 H   0  0  0  0  0
   -0.8616  -42.9979   20.9302 H   0  0  0  0  0
    2.7729  -45.3294   21.2406 H   0  0  0  0  0
    1.9106  -49.0526   10.6014 H   0  0  0  0  0
   -2.1054  -47.7249    9.6600 H   0  0  0  0  0
   -1.7982  -45.8046   11.1678 H   0  0  0  0  0
    3.4070  -47.7338   12.2111 H   0  0  0  0  0
    3.7061  -45.8123   13.7462 H   0  0  0  0  0
   -3.8228  -41.0508   18.2776 H   0  0  0  0  0
   -3.4810  -42.5393   17.2411 H   0  0  0  0  0
   -2.2958  -39.7484   16.9516 H   0  0  0  0  0
   -1.8464  -41.2257   15.9669 H   0  0  0  0  0
   -4.3751  -40.2072   13.1413 H   0  0  0  0  0
    0.9480  -43.9854   22.3146 H   0  0  0  0  0
    2.7283  -45.6820   18.7672 H   0  0  0  0  0
    0.3228  -48.6585   15.2600 H   0  0  0  0  0
   -1.5259  -48.6184   15.4403 H   0  0  0  0  0
   -0.3869  -48.1257   18.2103 H   0  0  0  0  0
   -1.5557  -45.4006   17.0291 H   0  0  0  0  0
   -2.4458  -47.0443   16.9840 H   0  0  0  0  0
   -2.6010  -43.6858   15.2152 H   0  0  0  0  0
   -4.0021  -43.6804   12.9428 H   0  0  0  0  0
   -4.5259  -46.0733   12.0566 H   0  0  0  0  0
   -0.2705  -44.4612   12.8295 H   0  0  0  0  0
  1 19  4  0  0  0
 20  1  1  0  0  0
  1 43  4  0  0  0
  3  2  1  0  0  0
  2 20  1  0  0  0
  3 10  1  0  0  0
 21  3  1  0  0  0
  4  8  4  0  0  0
  4 21  4  0  0  0
 22  4  1  0  0  0
  5 22  1  0  0  0
 23  5  1  0  0  0
  6  7  1  0  0  0
 24  6  1  0  0  0
  7 25  1  0  0  0
  7 26  2  0  0  0
  8 27  4  0  0  0
 27  9  4  0  0  0
 28  9  4  0  0  0
 10 29  1  0  0  0
 10 40  2  0  0  0
 12 11  2  0  0  0
 13 12  1  0  0  0
 14 12  1  0  0  0
 17 13  1  0  0  0
 15 14  2  0  0  0
 16 15  1  0  0  0
 16 17  4  0  0  0
 43 16  4  0  0  0
 18 17  4  0  0  0
 19 18  4  0  0  0
 20 41  2  0  0  0
 20 42  2  0  0  0
 21 28  4  0  0  0
 23 24  1  0  0  0
 29 30  1  0  0  0
 29 34  1  0  0  0
 30 31  1  0  0  0
 31 32  1  0  0  0
 31 33  2  0  0  0
 34 35  1  0  0  0
 35 36  4  0  0  0
 35 39  4  0  0  0
 36 37  4  0  0  0
 37 38  4  0  0  0
 38 39  4  0  0  0
  2 44  1  0  0  0
  3 45  1  0  0  0
  5 46  1  0  0  0
  5 47  1  0  0  0
  6 48  1  0  0  0
  6 49  1  0  0  0
  8 50  1  0  0  0
  9 51  1  0  0  0
 13 52  1  0  0  0
 14 53  1  0  0  0
 15 54  1  0  0  0
 18 55  1  0  0  0
 19 56  1  0  0  0
 23 57  1  0  0  0
 23 58  1  0  0  0
 24 59  1  0  0  0
 24 60  1  0  0  0
 25 61  1  0  0  0
 27 62  1  0  0  0
 28 63  1  0  0  0
 30 64  1  0  0  0
 30 65  1  0  0  0
 32 66  1  0  0  0
 34 67  1  0  0  0
 34 68  1  0  0  0
 36 69  1  0  0  0
 37 70  1  0  0  0
 38 71  1  0  0  0
 43 72  1  0  0  0
M  END
$$$$
