3vyd_ligand
  -I-interpret- 

 70 72  0  0  0  0  0  0  0  0999 V2000
  173.4250  199.5370   92.5130 C   0  0  0  0  0
  172.9670  198.3170   92.0460 C   0  0  0  0  0
  174.3350  199.6000   93.5500 C   0  0  0  0  0
  173.4130  197.1340   92.6030 C   0  0  0  0  0
  174.7820  198.4350   94.1190 C   0  0  0  0  0
  174.3210  197.2340   93.6410 C   0  0  0  0  0
  175.2650  198.3740   96.4510 C   0  0  0  0  0
  178.9890  201.4900  101.8850 C   0  0  0  0  0
  175.7000  199.4700   97.3210 C   0  0  0  0  0
  178.1270  201.0980   99.6590 C   0  0  0  0  0
  178.9580  203.3530  100.3970 C   0  0  0  0  0
  178.0350  203.1630   98.2450 C   0  0  0  0  0
  176.8210  199.3340   94.8850 C   0  0  0  0  0
  179.1560  201.8600  100.4720 C   0  0  0  0  0
  178.1960  201.6490   98.2470 C   0  0  0  0  0
  177.7330  199.1800   96.0530 C   0  0  0  0  0
  178.9210  200.0020   95.6500 C   0  0  0  0  0
  178.1190  197.7400   96.3090 C   0  0  0  0  0
  182.4440  198.6520  104.1840 C   0  0  0  0  0
  182.7910  201.1520  104.0170 C   0  0  0  0  0
  177.1290  201.1010   97.3410 C   0  0  0  0  0
  180.4700  200.1870  104.2150 C   0  0  0  0  0
  180.0950  201.6250  104.0350 C   0  0  0  0  0
  181.9370  200.0310  104.5930 C   0  0  0  0  0
  179.1210  203.7670   99.0110 N   0  3  0  0  0
  175.6990  198.4930   95.1510 N   0  0  0  0  0
  177.1310  199.6510   97.2980 N   0  3  0  0  0
  180.1060  201.8080  102.6110 N   0  0  0  0  0
  174.5790  197.5140   96.9500 O   0  0  0  0  0
  177.9730  200.9680  102.3030 O   0  0  0  0  0
  174.9130  195.8230   94.3650 Cl  0  0  0  0  0
  173.0633  200.4586   92.0570 H   0  0  0  0  0
  172.2459  198.2894   91.2291 H   0  0  0  0  0
  174.6935  200.5637   93.9117 H   0  0  0  0  0
  173.0652  196.1665   92.2409 H   0  0  0  0  0
  175.4057  199.2287   98.3424 H   0  0  0  0  0
  175.2367  200.3898   96.9641 H   0  0  0  0  0
  177.1286  201.2242  100.0779 H   0  0  0  0  0
  178.3363  200.0283   99.6702 H   0  0  0  0  0
  179.6897  203.8591  101.0268 H   0  0  0  0  0
  177.9612  203.6161  100.7509 H   0  0  0  0  0
  177.0793  203.4280   98.6972 H   0  0  0  0  0
  178.0645  203.5309   97.2194 H   0  0  0  0  0
  177.3163  199.0507   93.9563 H   0  0  0  0  0
  176.5153  200.3723   94.7560 H   0  0  0  0  0
  180.1386  201.6088  100.0726 H   0  0  0  0  0
  179.1749  201.3458   97.8757 H   0  0  0  0  0
  179.3428  199.6012   94.7283 H   0  0  0  0  0
  178.6095  201.0342   95.4898 H   0  0  0  0  0
  179.6710  199.9659   96.4401 H   0  0  0  0  0
  177.2213  197.1543   96.5070 H   0  0  0  0  0
  178.6290  197.3406   95.4324 H   0  0  0  0  0
  178.7838  197.6912   97.1714 H   0  0  0  0  0
  182.4267  198.5675  103.0974 H   0  0  0  0  0
  183.4644  198.5201  104.5437 H   0  0  0  0  0
  181.8020  197.8864  104.6196 H   0  0  0  0  0
  183.8152  201.0473  104.3749 H   0  0  0  0  0
  182.7775  201.0948  102.9286 H   0  0  0  0  0
  182.3896  202.1137  104.3366 H   0  0  0  0  0
  177.3211  201.4685   96.3330 H   0  0  0  0  0
  176.1617  201.4256   97.7244 H   0  0  0  0  0
  180.3010  199.6672  103.2719 H   0  0  0  0  0
  179.8621  199.7714  105.0186 H   0  0  0  0  0
  180.7830  202.2995  104.5447 H   0  0  0  0  0
  179.1256  201.8586  104.4753 H   0  0  0  0  0
  182.0217  200.1103  105.6768 H   0  0  0  0  0
  180.0253  203.4624   98.6507 H   0  0  0  0  0
  179.0897  204.7837   98.9353 H   0  0  0  0  0
  177.6524  199.1561   98.0216 H   0  0  0  0  0
  180.9373  202.1712  102.1447 H   0  0  0  0  0
  1  2  4  0  0  0
  3  1  4  0  0  0
  4  2  4  0  0  0
  5  3  4  0  0  0
  6  4  4  0  0  0
  5  6  4  0  0  0
 26  5  1  0  0  0
  6 31  1  0  0  0
  9  7  1  0  0  0
  7 26  1  0  0  0
  7 29  2  0  0  0
  8 14  1  0  0  0
 28  8  1  0  0  0
  8 30  2  0  0  0
 27  9  1  0  0  0
 14 10  1  0  0  0
 10 15  1  0  0  0
 14 11  1  0  0  0
 11 25  1  0  0  0
 15 12  1  0  0  0
 25 12  1  0  0  0
 16 13  1  0  0  0
 13 26  1  0  0  0
 15 21  1  0  0  0
 16 17  1  0  0  0
 16 18  1  0  0  0
 27 16  1  0  0  0
 24 19  1  0  0  0
 24 20  1  0  0  0
 21 27  1  0  0  0
 23 22  1  0  0  0
 22 24  1  0  0  0
 23 28  1  0  0  0
  1 32  1  0  0  0
  2 33  1  0  0  0
  3 34  1  0  0  0
  4 35  1  0  0  0
  9 36  1  0  0  0
  9 37  1  0  0  0
 10 38  1  0  0  0
 10 39  1  0  0  0
 11 40  1  0  0  0
 11 41  1  0  0  0
 12 42  1  0  0  0
 12 43  1  0  0  0
 13 44  1  0  0  0
 13 45  1  0  0  0
 14 46  1  0  0  0
 15 47  1  0  0  0
 17 48  1  0  0  0
 17 49  1  0  0  0
 17 50  1  0  0  0
 18 51  1  0  0  0
 18 52  1  0  0  0
 18 53  1  0  0  0
 19 54  1  0  0  0
 19 55  1  0  0  0
 19 56  1  0  0  0
 20 57  1  0  0  0
 20 58  1  0  0  0
 20 59  1  0  0  0
 21 60  1  0  0  0
 21 61  1  0  0  0
 22 62  1  0  0  0
 22 63  1  0  0  0
 23 64  1  0  0  0
 23 65  1  0  0  0
 24 66  1  0  0  0
 25 67  1  0  0  0
 25 68  1  0  0  0
 27 69  1  0  0  0
 28 70  1  0  0  0
M  END
$$$$
