### 
### Created by X-TOOL on Mon Sep 10 21:13:11 2018
### 

@<TRIPOS>MOLECULE
3vyd_ligand
   69    71     1     0     0
SMALL
GAST_HUCK


@<TRIPOS>ATOM
      1 C1        173.4250  199.5370   92.5130 C.ar      1 VYD        -0.0753
      2 C2        172.9670  198.3170   92.0460 C.ar      1 VYD        -0.0766
      3 C3        174.3350  199.6000   93.5500 C.ar      1 VYD        -0.0404
      4 C4        173.4130  197.1340   92.6030 C.ar      1 VYD        -0.0616
      5 C5        174.7820  198.4350   94.1190 C.ar      1 VYD         0.0830
      6 C6        174.3210  197.2340   93.6410 C.ar      1 VYD         0.0596
      7 C7        175.2650  198.3740   96.4510 C.2       1 VYD         0.1859
      8 C8        178.9890  201.4900  101.8850 C.2       1 VYD         0.1842
      9 C9        175.7000  199.4700   97.3210 C.3       1 VYD        -0.0107
     10 C10       178.1270  201.0980   99.6590 C.3       1 VYD        -0.0225
     11 C11       178.9580  203.3530  100.3970 C.3       1 VYD        -0.0138
     12 C12       178.0350  203.1630   98.2450 C.3       1 VYD        -0.0324
     13 C13       176.8210  199.3340   94.8850 C.3       1 VYD         0.0426
     14 C14       179.1560  201.8600  100.4720 C.3       1 VYD         0.0887
     15 C15       178.1960  201.6490   98.2470 C.3       1 VYD        -0.0165
     16 C16       177.7330  199.1800   96.0530 C.3       1 VYD        -0.0641
     17 C17       178.9210  200.0020   95.6500 C.3       1 VYD        -0.0762
     18 C18       178.1190  197.7400   96.3090 C.3       1 VYD        -0.0762
     19 C19       182.4440  198.6520  104.1840 C.3       1 VYD        -0.0626
     20 C20       182.7910  201.1520  104.0170 C.3       1 VYD        -0.0626
     21 C21       177.1290  201.1010   97.3410 C.3       1 VYD        -0.1010
     22 C22       180.4700  200.1870  104.2150 C.3       1 VYD        -0.0304
     23 C23       180.0950  201.6250  104.0350 C.3       1 VYD         0.0311
     24 C24       181.9370  200.0310  104.5930 C.3       1 VYD        -0.0449
     25 N25       179.1210  203.7670   99.0110 N.4       1 VYD         0.2290
     26 N26       175.6990  198.4930   95.1510 N.am      1 VYD        -0.2222
     27 N27       177.1310  199.6510   97.2980 N.4       1 VYD         0.4200
     28 N28       180.1060  201.8080  102.6110 N.am      1 VYD        -0.2866
     29 O29       174.5790  197.5140   96.9500 O.2       1 VYD        -0.3868
     30 O30       177.9730  200.9680  102.3030 O.2       1 VYD        -0.3966
     31 CL        174.9130  195.8230   94.3650 Cl        1 VYD        -0.0830
     32 H         173.0633  200.4586   92.0570 H         1 VYD         0.0579
     33 H         172.2459  198.2894   91.2291 H         1 VYD         0.0488
     34 H         174.6935  200.5637   93.9117 H         1 VYD         0.0502
     35 H         173.0652  196.1665   92.2409 H         1 VYD         0.0583
     36 H         175.4057  199.2287   98.3424 H         1 VYD         0.0263
     37 H         175.2367  200.3898   96.9641 H         1 VYD         0.0263
     38 H         177.1286  201.2242  100.0779 H         1 VYD         0.0298
     39 H         178.3363  200.0283   99.6702 H         1 VYD         0.0298
     40 H         179.6897  203.8591  101.0268 H         1 VYD         0.0842
     41 H         177.9612  203.6161  100.7509 H         1 VYD         0.0842
     42 H         177.0793  203.4280   98.6972 H         1 VYD         0.0816
     43 H         178.0645  203.5309   97.2194 H         1 VYD         0.0816
     44 H         177.3163  199.0507   93.9563 H         1 VYD         0.0571
     45 H         176.5153  200.3723   94.7560 H         1 VYD         0.0571
     46 H         180.1386  201.6088  100.0726 H         1 VYD         0.0591
     47 H         179.1749  201.3458   97.8757 H         1 VYD         0.0334
     48 H         179.3428  199.6012   94.7283 H         1 VYD         0.0216
     49 H         178.6095  201.0342   95.4898 H         1 VYD         0.0216
     50 H         179.6710  199.9659   96.4401 H         1 VYD         0.0216
     51 H         177.2213  197.1543   96.5070 H         1 VYD         0.0216
     52 H         178.6290  197.3406   95.4324 H         1 VYD         0.0216
     53 H         178.7838  197.6912   97.1714 H         1 VYD         0.0216
     54 H         182.4267  198.5675  103.0974 H         1 VYD         0.0232
     55 H         183.4644  198.5201  104.5437 H         1 VYD         0.0232
     56 H         181.8020  197.8864  104.6196 H         1 VYD         0.0232
     57 H         183.8152  201.0473  104.3749 H         1 VYD         0.0232
     58 H         182.7775  201.0948  102.9286 H         1 VYD         0.0232
     59 H         182.3896  202.1137  104.3366 H         1 VYD         0.0232
     60 H         177.3211  201.4685   96.3330 H         1 VYD         0.0025
     61 H         176.1617  201.4256   97.7244 H         1 VYD         0.0025
     62 H         180.3010  199.6672  103.2719 H         1 VYD         0.0287
     63 H         179.8621  199.7714  105.0186 H         1 VYD         0.0287
     64 H         180.7830  202.2995  104.5447 H         1 VYD         0.0520
     65 H         179.1256  201.8586  104.4753 H         1 VYD         0.0520
     66 H         182.0217  200.1103  105.6768 H         1 VYD         0.0296
     67 H         180.0253  203.4624   98.6507 H         1 VYD         0.2015
     68 H         179.0897  204.7837   98.9353 H         1 VYD         0.2015
     69 H         180.9373  202.1712  102.1447 H         1 VYD         0.1851
@<TRIPOS>BOND
     1    1    2 ar 
     2    3    1 ar 
     3    4    2 ar 
     4    5    3 ar 
     5    6    4 ar 
     6    5    6 ar 
     7   26    5 1  
     8    6   31 1  
     9    9    7 1  
    10    7   26 am 
    11    7   29 2  
    12    8   14 1  
    13   28    8 am 
    14    8   30 2  
    15   27    9 1  
    16   14   10 1  
    17   10   15 1  
    18   14   11 1  
    19   11   25 1  
    20   15   12 1  
    21   25   12 1  
    22   16   13 1  
    23   13   26 1  
    24   15   21 1  
    25   16   17 1  
    26   16   18 1  
    27   27   16 1  
    28   24   19 1  
    29   24   20 1  
    30   21   27 1  
    31   23   22 1  
    32   22   24 1  
    33   23   28 1  
    34    1   32 1  
    35    2   33 1  
    36    3   34 1  
    37    4   35 1  
    38    9   36 1  
    39    9   37 1  
    40   10   38 1  
    41   10   39 1  
    42   11   40 1  
    43   11   41 1  
    44   12   42 1  
    45   12   43 1  
    46   13   44 1  
    47   13   45 1  
    48   14   46 1  
    49   15   47 1  
    50   17   48 1  
    51   17   49 1  
    52   17   50 1  
    53   18   51 1  
    54   18   52 1  
    55   18   53 1  
    56   19   54 1  
    57   19   55 1  
    58   19   56 1  
    59   20   57 1  
    60   20   58 1  
    61   20   59 1  
    62   21   60 1  
    63   21   61 1  
    64   22   62 1  
    65   22   63 1  
    66   23   64 1  
    67   23   65 1  
    68   24   66 1  
    69   25   67 1  
    70   25   68 1  
    71   28   69 1  
@<TRIPOS>SUBSTRUCTURE
     1 VYD         1

