4zhm_ligand
  -I-interpret- 

137140  0  0  0  0  0  0  0  0999 V2000
    9.8510  -25.0650  -27.5740 N   0  3  0  0  0
    8.7720  -26.0860  -27.4020 C   0  0  0  0  0
    9.1490  -27.4010  -28.0820 C   0  0  0  0  0
    9.3420  -27.4310  -29.2990 O   0  0  0  0  0
    7.4580  -25.5680  -27.9830 C   0  0  0  0  0
    6.5740  -24.4300  -26.8910 S   0  0  0  0  0
    9.2520  -28.4960  -27.3010 N   0  0  0  0  0
    9.4910  -29.8000  -27.9200 C   0  0  0  0  0
    8.3840  -30.1650  -28.8980 C   0  0  0  0  0
    7.2240  -29.8180  -28.6730 O   0  0  0  0  0
    9.5070  -30.7670  -26.7310 C   0  0  0  0  0
    9.8720  -29.9240  -25.5660 C   0  0  0  0  0
    9.2860  -28.5710  -25.8300 C   0  0  0  0  0
    8.7420  -30.8510  -29.9790 N   0  0  0  0  0
    7.7830  -31.1590  -31.0360 C   0  0  0  0  0
    6.5750  -31.9550  -30.5220 C   0  0  0  0  0
    5.4940  -31.8710  -31.1000 O   0  0  0  0  0
    8.4680  -31.8960  -32.1800 C   0  0  0  0  0
    6.7640  -32.7120  -29.4400 N   0  0  0  0  0
    5.6980  -33.5320  -28.8590 C   0  0  0  0  0
    5.1890  -32.9720  -27.5270 C   0  0  0  0  0
    4.6590  -33.7000  -26.6770 O   0  0  0  0  0
    6.1810  -34.9820  -28.7340 C   0  0  0  0  0
    6.7120  -35.5500  -30.0470 C   0  0  0  0  0
    6.2970  -35.0340  -31.2850 C   0  0  0  0  0
    7.6120  -36.6120  -30.0610 C   0  0  0  0  0
    6.7780  -35.5390  -32.4800 C   0  0  0  0  0
    8.0840  -37.1310  -31.2630 C   0  0  0  0  0
    7.6710  -36.5820  -32.4640 C   0  0  0  0  0
    8.1360  -37.0750  -33.6610 O   0  0  0  0  0
    5.3260  -31.6600  -27.3630 N   0  0  0  0  0
    4.6740  -30.9780  -26.2710 C   0  0  0  0  0
    3.1680  -31.2230  -26.3800 C   0  0  0  0  0
    2.5660  -31.1180  -27.4450 O   0  0  0  0  0
    4.9610  -29.4810  -26.3070 C   0  0  0  0  0
    4.3950  -28.8200  -25.1850 O   0  0  0  0  0
    2.6290  -31.3260  -25.2700 N   0  0  0  0  0
    1.2420  -31.2440  -24.8250 C   0  0  0  0  0
    1.0090  -29.9430  -24.0910 C   0  0  0  0  0
   -0.0620  -29.7420  -23.6070 O   0  0  0  0  0
    0.8150  -32.3860  -23.9180 C   0  0  0  0  0
    1.8400  -28.7480  -23.8110 N   0  0  0  0  0
    1.5440  -27.4650  -23.1820 C   0  0  0  0  0
    0.6150  -26.6370  -24.0630 C   0  0  0  0  0
    0.8300  -26.5220  -25.2860 O   0  0  0  0  0
    2.8650  -26.7560  -22.9360 C   0  0  0  0  0
    2.7650  -25.4770  -22.1690 C   0  0  0  0  0
    1.8830  -25.3390  -21.0950 C   0  0  0  0  0
    3.5810  -24.4050  -22.4890 C   0  0  0  0  0
    1.8110  -24.1570  -20.3880 C   0  0  0  0  0
    3.5150  -23.2250  -21.7900 C   0  0  0  0  0
    2.6290  -23.1030  -20.7450 C   0  0  0  0  0
    2.5810  -21.9170  -20.0580 O   0  0  0  0  0
   -0.4240  -26.0770  -23.4380 N   0  0  0  0  0
   -1.3220  -25.1000  -24.0870 C   0  0  0  0  0
   -0.5140  -24.0400  -24.8430 C   0  0  0  0  0
   -0.8620  -23.6550  -25.9640 O   0  0  0  0  0
   -2.2010  -24.3330  -23.0590 C   0  0  0  0  0
   -3.0770  -25.2700  -22.2350 C   0  0  0  0  0
   -3.0950  -23.3010  -23.7490 C   0  0  0  0  0
   -4.1500  -25.9590  -23.0260 C   0  0  0  0  0
    0.5670  -23.5770  -24.2220 N   0  0  0  0  0
    1.3780  -22.5040  -24.7820 C   0  0  0  0  0
    2.3320  -22.8700  -25.9080 C   0  0  0  0  0
    3.1360  -22.0300  -26.3020 O   0  0  0  0  0
    2.2750  -24.1090  -26.4100 N   0  0  0  0  0
    3.1440  -24.5480  -27.5080 C   0  0  0  0  0
    2.3610  -24.7450  -28.8040 C   0  0  0  0  0
    1.2080  -25.1740  -28.7800 O   0  0  0  0  0
    3.8800  -25.8430  -27.1410 C   0  0  0  0  0
    5.2280  -25.6370  -25.9530 S   0  0  0  0  0
    2.8720  -24.4780  -29.8910 O   0  0  0  0  0
   10.7220  -25.4232  -27.1822 H   0  0  0  0  0
    9.9782  -24.8705  -28.5672 H   0  0  0  0  0
    9.5862  -24.2073  -27.0895 H   0  0  0  0  0
    8.6495  -26.2689  -26.3345 H   0  0  0  0  0
    6.8119  -26.4309  -28.1443 H   0  0  0  0  0
    7.6993  -25.0215  -28.8947 H   0  0  0  0  0
   10.4124  -29.8214  -28.5019 H   0  0  0  0  0
   10.2136  -31.5834  -26.8799 H   0  0  0  0  0
    8.5436  -31.2576  -26.5924 H   0  0  0  0  0
   10.9538  -29.8672  -25.4454 H   0  0  0  0  0
    9.4848  -30.3460  -24.6386 H   0  0  0  0  0
    8.3006  -28.4462  -25.3811 H   0  0  0  0  0
    9.8701  -27.7667  -25.3827 H   0  0  0  0  0
    9.7068  -31.1688  -30.0719 H   0  0  0  0  0
    7.3990  -30.2083  -31.4059 H   0  0  0  0  0
    9.2601  -31.2701  -32.5911 H   0  0  0  0  0
    8.8954  -32.8266  -31.8067 H   0  0  0  0  0
    7.7369  -32.1167  -32.9578 H   0  0  0  0  0
    7.6847  -32.7202  -29.0010 H   0  0  0  0  0
    4.8389  -33.5074  -29.5295 H   0  0  0  0  0
    5.3292  -35.5903  -28.4299 H   0  0  0  0  0
    6.9969  -34.9987  -28.0114 H   0  0  0  0  0
    5.5779  -34.2151  -31.3052 H   0  0  0  0  0
    7.9512  -37.0424  -29.1188 H   0  0  0  0  0
    6.4503  -35.1118  -33.4277 H   0  0  0  0  0
    8.7794  -37.9704  -31.2583 H   0  0  0  0  0
    8.7475  -37.7957  -33.4930 H   0  0  0  0  0
    5.8996  -31.1282  -28.0177 H   0  0  0  0  0
    5.0561  -31.3652  -25.3265 H   0  0  0  0  0
    4.5208  -29.0650  -27.2132 H   0  0  0  0  0
    6.0409  -29.3342  -26.2878 H   0  0  0  0  0
    4.5916  -27.8817  -25.2351 H   0  0  0  0  0
    3.2888  -31.5044  -24.5129 H   0  0  0  0  0
    0.6405  -31.3056  -25.7319 H   0  0  0  0  0
    0.9278  -33.3314  -24.4487 H   0  0  0  0  0
    1.4401  -32.3923  -23.0250 H   0  0  0  0  0
   -0.2281  -32.2506  -23.6320 H   0  0  0  0  0
    2.8083  -28.8406  -24.1181 H   0  0  0  0  0
    1.0258  -27.6110  -22.2342 H   0  0  0  0  0
    3.2728  -26.5038  -23.9149 H   0  0  0  0  0
    3.4778  -27.4322  -22.3400 H   0  0  0  0  0
    1.2439  -26.1754  -20.8121 H   0  0  0  0  0
    4.2896  -24.4997  -23.3118 H   0  0  0  0  0
    1.1150  -24.0556  -19.5553 H   0  0  0  0  0
    4.1608  -22.3900  -22.0616 H   0  0  0  0  0
    3.2120  -21.3020  -20.4391 H   0  0  0  0  0
   -0.6057  -26.3357  -22.4682 H   0  0  0  0  0
   -1.9535  -25.6803  -24.7597 H   0  0  0  0  0
   -1.5060  -23.8258  -22.3898 H   0  0  0  0  0
   -3.5736  -24.6641  -21.4772 H   0  0  0  0  0
   -2.4272  -26.0454  -21.8291 H   0  0  0  0  0
   -2.4729  -22.5799  -24.2792 H   0  0  0  0  0
   -3.7515  -23.8065  -24.4572 H   0  0  0  0  0
   -3.6953  -22.7839  -23.0005 H   0  0  0  0  0
   -4.8077  -25.2124  -23.4710 H   0  0  0  0  0
   -3.6917  -26.5570  -23.8137 H   0  0  0  0  0
   -4.7273  -26.6063  -22.3659 H   0  0  0  0  0
    0.8364  -23.9853  -23.3269 H   0  0  0  0  0
    2.0064  -22.1503  -23.9646 H   0  0  0  0  0
    0.6724  -21.7926  -25.2111 H   0  0  0  0  0
    1.6054  -24.7702  -26.0165 H   0  0  0  0  0
    3.8770  -23.7578  -27.6706 H   0  0  0  0  0
    0.9468  -25.3357  -27.8705 H   0  0  0  0  0
    4.3233  -26.2268  -28.0598 H   0  0  0  0  0
    3.1472  -26.5035  -26.6774 H   0  0  0  0  0
  1  2  1  0  0  0
  2  3  1  0  0  0
  2  5  1  0  0  0
  3  4  2  0  0  0
  3  7  1  0  0  0
  5  6  1  0  0  0
  6 71  1  0  0  0
  7  8  1  0  0  0
  7 13  1  0  0  0
  8  9  1  0  0  0
  8 11  1  0  0  0
  9 10  2  0  0  0
  9 14  1  0  0  0
 11 12  1  0  0  0
 12 13  1  0  0  0
 14 15  1  0  0  0
 15 16  1  0  0  0
 15 18  1  0  0  0
 16 17  2  0  0  0
 16 19  1  0  0  0
 19 20  1  0  0  0
 20 21  1  0  0  0
 20 23  1  0  0  0
 21 22  2  0  0  0
 21 31  1  0  0  0
 23 24  1  0  0  0
 24 25  4  0  0  0
 24 26  4  0  0  0
 25 27  4  0  0  0
 26 28  4  0  0  0
 27 29  4  0  0  0
 28 29  4  0  0  0
 29 30  1  0  0  0
 31 32  1  0  0  0
 32 33  1  0  0  0
 32 35  1  0  0  0
 33 34  2  0  0  0
 33 37  1  0  0  0
 35 36  1  0  0  0
 37 38  1  0  0  0
 38 39  1  0  0  0
 38 41  1  0  0  0
 39 40  2  0  0  0
 39 42  1  0  0  0
 42 43  1  0  0  0
 43 44  1  0  0  0
 43 46  1  0  0  0
 44 45  2  0  0  0
 44 54  1  0  0  0
 46 47  1  0  0  0
 47 48  4  0  0  0
 47 49  4  0  0  0
 48 50  4  0  0  0
 49 51  4  0  0  0
 50 52  4  0  0  0
 51 52  4  0  0  0
 52 53  1  0  0  0
 54 55  1  0  0  0
 55 56  1  0  0  0
 55 58  1  0  0  0
 56 57  2  0  0  0
 56 62  1  0  0  0
 58 59  1  0  0  0
 58 60  1  0  0  0
 59 61  1  0  0  0
 62 63  1  0  0  0
 63 64  1  0  0  0
 64 65  2  0  0  0
 64 66  1  0  0  0
 66 67  1  0  0  0
 67 68  1  0  0  0
 67 70  1  0  0  0
 68 69  1  0  0  0
 68 72  2  0  0  0
 70 71  1  0  0  0
  1 73  1  0  0  0
  1 74  1  0  0  0
  1 75  1  0  0  0
  2 76  1  0  0  0
  5 77  1  0  0  0
  5 78  1  0  0  0
  8 79  1  0  0  0
 11 80  1  0  0  0
 11 81  1  0  0  0
 12 82  1  0  0  0
 12 83  1  0  0  0
 13 84  1  0  0  0
 13 85  1  0  0  0
 14 86  1  0  0  0
 15 87  1  0  0  0
 18 88  1  0  0  0
 18 89  1  0  0  0
 18 90  1  0  0  0
 19 91  1  0  0  0
 20 92  1  0  0  0
 23 93  1  0  0  0
 23 94  1  0  0  0
 25 95  1  0  0  0
 26 96  1  0  0  0
 27 97  1  0  0  0
 28 98  1  0  0  0
 30 99  1  0  0  0
 31100  1  0  0  0
 32101  1  0  0  0
 35102  1  0  0  0
 35103  1  0  0  0
 36104  1  0  0  0
 37105  1  0  0  0
 38106  1  0  0  0
 41107  1  0  0  0
 41108  1  0  0  0
 41109  1  0  0  0
 42110  1  0  0  0
 43111  1  0  0  0
 46112  1  0  0  0
 46113  1  0  0  0
 48114  1  0  0  0
 49115  1  0  0  0
 50116  1  0  0  0
 51117  1  0  0  0
 53118  1  0  0  0
 54119  1  0  0  0
 55120  1  0  0  0
 58121  1  0  0  0
 59122  1  0  0  0
 59123  1  0  0  0
 60124  1  0  0  0
 60125  1  0  0  0
 60126  1  0  0  0
 61127  1  0  0  0
 61128  1  0  0  0
 61129  1  0  0  0
 62130  1  0  0  0
 63131  1  0  0  0
 63132  1  0  0  0
 66133  1  0  0  0
 67134  1  0  0  0
 69135  1  0  0  0
 70136  1  0  0  0
 70137  1  0  0  0
M  END
$$$$
