6r12_ligand
  -I-interpret- 

 29 30  0  0  0  0  0  0  0  0999 V2000
   22.4150   13.9930   26.1650 C   0  0  0  0  0
   24.4480   15.5090   28.2260 C   0  0  0  0  0
   24.3100   15.9920   29.6530 C   0  0  0  0  0
   21.1590   18.0880   29.9730 C   0  0  0  0  0
   23.3800   17.1770   29.7510 C   0  0  0  0  0
   23.8720   18.4730   29.7110 C   0  0  0  0  0
   23.0160   19.5590   29.8010 C   0  0  0  0  0
   21.6630   19.3640   29.9320 C   0  0  0  0  0
   22.0120   16.9980   29.8830 C   0  0  0  0  0
   21.9430   12.8230   25.6400 N   0  0  0  0  0
   23.9890   14.2780   27.9950 N   0  0  0  0  0
   23.8230   13.7540   26.6670 C   0  0  0  0  0
   22.8210   11.7730   25.7750 C   0  0  0  0  0
   23.9790   12.2300   26.6170 C   0  0  0  0  0
   22.6550   10.6720   25.2790 O   0  0  0  0  0
   21.8060   15.0450   26.2190 O   0  0  0  0  0
   24.9470   16.1980   27.3350 O   0  0  0  0  0
   25.2939   16.2959   30.0104 H   0  0  0  0  0
   23.8982   15.1805   30.2530 H   0  0  0  0  0
   20.0854   17.9308   30.0766 H   0  0  0  0  0
   24.9443   18.6393   29.6076 H   0  0  0  0  0
   23.4180   20.5716   29.7677 H   0  0  0  0  0
   20.9916   20.2197   30.0032 H   0  0  0  0  0
   21.6016   15.9888   29.9165 H   0  0  0  0  0
   21.0304   12.7369   25.1926 H   0  0  0  0  0
   23.7469   13.6868   28.7901 H   0  0  0  0  0
   24.5834   14.2573   26.0699 H   0  0  0  0  0
   23.9700   11.7811   27.6102 H   0  0  0  0  0
   24.9388   11.9266   26.1989 H   0  0  0  0  0
  1 10  1  0  0  0
 12  1  1  0  0  0
  1 16  2  0  0  0
  2  3  1  0  0  0
 11  2  1  0  0  0
  2 17  2  0  0  0
  3  5  1  0  0  0
  4  8  4  0  0  0
  9  4  4  0  0  0
  5  6  4  0  0  0
  5  9  4  0  0  0
  6  7  4  0  0  0
  7  8  4  0  0  0
 10 13  1  0  0  0
 12 11  1  0  0  0
 12 14  1  0  0  0
 13 14  1  0  0  0
 13 15  2  0  0  0
  3 18  1  0  0  0
  3 19  1  0  0  0
  4 20  1  0  0  0
  6 21  1  0  0  0
  7 22  1  0  0  0
  8 23  1  0  0  0
  9 24  1  0  0  0
 10 25  1  0  0  0
 11 26  1  0  0  0
 12 27  1  0  0  0
 14 28  1  0  0  0
 14 29  1  0  0  0
M  END
$$$$
