5aa8_ligand
  -I-interpret- 

 49 52  0  0  0  0  0  0  0  0999 V2000
   26.4950   48.5220    7.4840 C   0  0  0  0  0
   34.3740   46.6750    8.9770 C   0  0  0  0  0
   34.8070   46.5120   10.3110 C   0  0  0  0  0
   29.8220   45.5360    8.6340 C   0  0  0  0  0
   33.4780   44.4400   10.4970 C   0  0  0  0  0
   27.7130   46.1740    9.5020 C   0  0  0  0  0
   27.9230   48.6120    7.3750 C   0  0  0  0  0
   28.8030   46.5080    8.6690 C   0  0  0  0  0
   28.9480   47.7710    7.8670 C   0  0  0  0  0
   33.4800   45.7220    8.3820 C   0  0  0  0  0
   33.0090   44.5680    9.1390 C   0  0  0  0  0
   29.8000   44.3170    9.3610 C   0  0  0  0  0
   34.3600   45.4050   11.0570 C   0  0  0  0  0
   30.1680   48.4440    7.4050 C   0  0  0  0  0
   28.6570   44.0850   10.1670 C   0  0  0  0  0
   33.0720   45.9830    6.9580 C   0  0  0  0  0
   31.6380   48.0980    7.5790 C   0  0  0  0  0
   32.0370   43.4980    8.5590 C   0  0  0  0  0
   32.6890   42.1040    8.5270 C   0  0  0  0  0
   27.9540   50.7680    6.0230 C   0  0  0  0  0
   31.8840   47.2560    5.1890 C   0  0  0  0  0
   25.3450   48.4680    7.5900 N   0  0  0  0  0
   27.6270   45.0020   10.2320 N   0  0  0  0  0
   29.8950   49.5570    6.7150 N   0  0  0  0  0
   28.5640   49.6400    6.7070 N   0  0  0  0  0
   32.2160   47.0900    6.6160 N   0  0  0  0  0
   28.5530   42.9020   10.9290 N   0  0  0  0  0
   33.5320   45.1760    6.1410 O   0  0  0  0  0
   30.8010   43.3480    9.3520 O   0  0  0  0  0
   34.7720   45.2630   12.3200 F   0  0  0  0  0
   34.7205   47.5293    8.3955 H   0  0  0  0  0
   35.4834   47.2390   10.7605 H   0  0  0  0  0
   30.6891   45.7340    8.0038 H   0  0  0  0  0
   33.1525   43.5934   11.1014 H   0  0  0  0  0
   26.8885   46.8833    9.5744 H   0  0  0  0  0
   31.7260   47.6515    8.5695 H   0  0  0  0  0
   32.1865   49.0244    7.4088 H   0  0  0  0  0
   31.8001   43.8587    7.5581 H   0  0  0  0  0
   33.5814   42.1360    7.9020 H   0  0  0  0  0
   32.9636   41.8094    9.5399 H   0  0  0  0  0
   31.9821   41.3830    8.1166 H   0  0  0  0  0
   27.3076   50.4014    5.2256 H   0  0  0  0  0
   27.3639   51.3464    6.7338 H   0  0  0  0  0
   28.7347   51.3992    5.5984 H   0  0  0  0  0
   32.8011   47.4037    4.6187 H   0  0  0  0  0
   31.3713   46.3635    4.8303 H   0  0  0  0  0
   31.2350   48.1232    5.0668 H   0  0  0  0  0
   29.3018   42.2100   10.9012 H   0  0  0  0  0
   27.7290   42.7388   11.5076 H   0  0  0  0  0
  7  1  1  0  0  0
  1 22  3  0  0  0
  2  3  4  0  0  0
 10  2  4  0  0  0
  3 13  4  0  0  0
  8  4  4  0  0  0
  4 12  4  0  0  0
 11  5  4  0  0  0
  5 13  4  0  0  0
  8  6  4  0  0  0
  6 23  4  0  0  0
  9  7  4  0  0  0
  7 25  4  0  0  0
  9  8  1  0  0  0
 14  9  4  0  0  0
 10 11  4  0  0  0
 16 10  1  0  0  0
 11 18  1  0  0  0
 12 15  4  0  0  0
 12 29  1  0  0  0
 13 30  1  0  0  0
 17 14  1  0  0  0
 14 24  4  0  0  0
 23 15  4  0  0  0
 15 27  1  0  0  0
 26 16  1  0  0  0
 16 28  2  0  0  0
 17 26  1  0  0  0
 18 19  1  0  0  0
 18 29  1  0  0  0
 25 20  1  0  0  0
 26 21  1  0  0  0
 24 25  4  0  0  0
  2 31  1  0  0  0
  3 32  1  0  0  0
  4 33  1  0  0  0
  5 34  1  0  0  0
  6 35  1  0  0  0
 17 36  1  0  0  0
 17 37  1  0  0  0
 18 38  1  0  0  0
 19 39  1  0  0  0
 19 40  1  0  0  0
 19 41  1  0  0  0
 20 42  1  0  0  0
 20 43  1  0  0  0
 20 44  1  0  0  0
 21 45  1  0  0  0
 21 46  1  0  0  0
 21 47  1  0  0  0
 27 48  1  0  0  0
 27 49  1  0  0  0
M  END
$$$$
