6rfn_ligand
  -I-interpret- 

 64 67  0  0  0  0  0  0  0  0999 V2000
   22.7600   19.1020   -5.9000 C   0  0  0  0  0
   28.0290   13.2030   -2.1360 C   0  0  0  0  0
   28.2030   12.6530   -0.8420 C   0  0  0  0  0
   29.5540   12.8720    1.1150 C   0  0  0  0  0
   27.8820   11.3130   -0.6100 C   0  0  0  0  0
   27.3860   10.5180   -1.6290 C   0  0  0  0  0
   27.1970   11.0430   -2.9050 C   0  0  0  0  0
   27.5130   12.3870   -3.1490 C   0  0  0  0  0
   26.6510   10.2400   -4.0410 C   0  0  0  0  0
   24.6240   10.9260   -6.8870 C   0  0  0  0  0
   25.3450   11.9410   -7.7710 C   0  0  0  0  0
   24.0500   17.1170   -5.3490 C   0  0  0  0  0
   23.5330   11.5440   -6.0100 C   0  0  0  0  0
   25.9240    8.8530   -6.3320 C   0  0  0  0  0
   26.9470    8.1810   -5.4440 C   0  0  0  0  0
   26.9770    6.6450   -5.5420 C   0  0  0  0  0
   25.8640    6.0070   -4.7850 C   0  0  0  0  0
   25.2190    6.6070   -3.8060 C   0  0  0  0  0
   25.4170    8.0380   -3.4160 C   0  0  0  0  0
   26.6880    8.6920   -4.0030 C   0  0  0  0  0
   25.2120   17.7350   -4.8610 C   0  0  0  0  0
   24.0340   15.7480   -5.5820 C   0  0  0  0  0
   25.1750   15.0080   -5.3350 C   0  0  0  0  0
   26.3250   15.6020   -4.8380 C   0  0  0  0  0
   26.3550   16.9710   -4.5900 C   0  0  0  0  0
   28.5260   17.0800   -3.2230 C   0  0  0  0  0
   28.5360   15.6830   -2.9060 C   0  0  0  0  0
   28.3400   14.5850   -2.4230 C   0  0  0  0  0
   27.5840   17.5420   -4.1340 N   0  0  0  0  0
   26.2020   10.9110   -5.0500 N   0  0  0  0  0
   25.6240   10.1910   -6.0590 N   0  0  0  0  0
   22.8350   17.6990   -5.6300 O   0  0  0  0  0
   29.3010   17.8140   -2.6130 O   0  0  0  0  0
   28.7300   13.4780    0.1170 O   0  0  0  0  0
   25.3410    8.2510   -7.2180 O   0  0  0  0  0
   23.1256   19.6570   -5.0361 H   0  0  0  0  0
   23.3731   19.3365   -6.7701 H   0  0  0  0  0
   21.7243   19.3776   -6.0988 H   0  0  0  0  0
   28.9751   12.1245    1.6575 H   0  0  0  0  0
   30.4094   12.3944    0.6372 H   0  0  0  0  0
   29.9038   13.6364    1.8088 H   0  0  0  0  0
   28.0237   10.8891    0.3841 H   0  0  0  0  0
   27.1418    9.4743   -1.4313 H   0  0  0  0  0
   27.3542   12.8030   -4.1439 H   0  0  0  0  0
   24.1064   10.2318   -7.5490 H   0  0  0  0  0
   24.6247   12.4192   -8.4347 H   0  0  0  0  0
   25.8193   12.6954   -7.1433 H   0  0  0  0  0
   26.1039   11.4303   -8.3638 H   0  0  0  0  0
   23.9770   12.2918   -5.3529 H   0  0  0  0  0
   22.7824   12.0156   -6.6443 H   0  0  0  0  0
   23.0651   10.7633   -5.4102 H   0  0  0  0  0
   27.9471    8.4527   -5.7818 H   0  0  0  0  0
   27.9181    6.2978   -5.1155 H   0  0  0  0  0
   26.8716    6.3715   -6.5919 H   0  0  0  0  0
   25.5687    4.9930   -5.0548 H   0  0  0  0  0
   24.4924    6.0221   -3.2421 H   0  0  0  0  0
   25.5179    8.0619   -2.3309 H   0  0  0  0  0
   24.5638    8.5951   -3.8029 H   0  0  0  0  0
   27.4904    8.4007   -3.3252 H   0  0  0  0  0
   25.2253   18.8118   -4.6924 H   0  0  0  0  0
   23.1322   15.2627   -5.9553 H   0  0  0  0  0
   25.1706   13.9365   -5.5349 H   0  0  0  0  0
   27.2084   14.9947   -4.6409 H   0  0  0  0  0
   27.8083   18.4459   -4.5499 H   0  0  0  0  0
 32  1  1  0  0  0
  2  3  4  0  0  0
  2  8  4  0  0  0
 28  2  1  0  0  0
  3  5  4  0  0  0
  3 34  1  0  0  0
 34  4  1  0  0  0
  5  6  4  0  0  0
  7  6  4  0  0  0
  8  7  4  0  0  0
  7  9  1  0  0  0
  9 20  1  0  0  0
  9 30  2  0  0  0
 10 11  1  0  0  0
 10 13  1  0  0  0
 31 10  1  0  0  0
 21 12  4  0  0  0
 12 22  4  0  0  0
 12 32  1  0  0  0
 15 14  1  0  0  0
 14 31  1  0  0  0
 14 35  2  0  0  0
 15 16  1  0  0  0
 20 15  1  0  0  0
 16 17  1  0  0  0
 18 17  2  0  0  0
 19 18  1  0  0  0
 20 19  1  0  0  0
 25 21  4  0  0  0
 23 22  4  0  0  0
 24 23  4  0  0  0
 25 24  4  0  0  0
 29 25  1  0  0  0
 27 26  1  0  0  0
 26 29  1  0  0  0
 26 33  2  0  0  0
 27 28  3  0  0  0
 30 31  1  0  0  0
  1 36  1  0  0  0
  1 37  1  0  0  0
  1 38  1  0  0  0
  4 39  1  0  0  0
  4 40  1  0  0  0
  4 41  1  0  0  0
  5 42  1  0  0  0
  6 43  1  0  0  0
  8 44  1  0  0  0
 10 45  1  0  0  0
 11 46  1  0  0  0
 11 47  1  0  0  0
 11 48  1  0  0  0
 13 49  1  0  0  0
 13 50  1  0  0  0
 13 51  1  0  0  0
 15 52  1  0  0  0
 16 53  1  0  0  0
 16 54  1  0  0  0
 17 55  1  0  0  0
 18 56  1  0  0  0
 19 57  1  0  0  0
 19 58  1  0  0  0
 20 59  1  0  0  0
 21 60  1  0  0  0
 22 61  1  0  0  0
 23 62  1  0  0  0
 24 63  1  0  0  0
 29 64  1  0  0  0
M  END
$$$$
