5dpx_ligand
  -I-interpret- 

 21 22  0  0  0  0  0  0  0  0999 V2000
   11.9500   32.0510   33.2380 S   0  0  0  0  0
   12.8070   30.9100   32.1210 C   0  0  0  0  0
   13.9140   31.2470   31.3430 N   0  0  0  0  0
   14.2840   30.1500   30.6390 C   0  0  0  0  0
   13.4150   29.1080   30.9680 N   0  0  0  0  0
   12.5100   29.5870   31.8870 N   0  0  0  0  0
   15.4540   30.1110   29.6650 C   0  0  0  0  0
   15.2350   30.3710   28.3930 C   0  0  0  0  0
   16.3930   30.3530   27.4000 C   0  0  0  0  0
   17.6100   30.0780   27.8180 C   0  0  0  0  0
   17.8670   29.7820   29.2930 C   0  0  0  0  0
   16.8700   29.8000   30.1520 C   0  0  0  0  0
   17.1560   29.4950   31.6220 C   0  0  0  0  0
   10.9404   31.4171   33.8277 H   0  0  0  0  0
   14.2261   30.5992   28.0494 H   0  0  0  0  0
   16.2127   30.5675   26.3466 H   0  0  0  0  0
   18.4373   30.0615   27.1085 H   0  0  0  0  0
   18.8768   29.5556   29.6352 H   0  0  0  0  0
   16.8627   30.3489   32.2327 H   0  0  0  0  0
   16.5874   28.6164   31.9267 H   0  0  0  0  0
   18.2211   29.3029   31.7513 H   0  0  0  0  0
  1  2  1  0  0  0
  2  3  4  0  0  0
  2  6  4  0  0  0
  3  4  4  0  0  0
  4  5  4  0  0  0
  4  7  1  0  0  0
  5  6  4  0  0  0
  7  8  4  0  0  0
  7 12  4  0  0  0
  8  9  4  0  0  0
  9 10  4  0  0  0
 10 11  4  0  0  0
 11 12  4  0  0  0
 12 13  1  0  0  0
  1 14  1  0  0  0
  8 15  1  0  0  0
  9 16  1  0  0  0
 10 17  1  0  0  0
 11 18  1  0  0  0
 13 19  1  0  0  0
 13 20  1  0  0  0
 13 21  1  0  0  0
M  END
$$$$
