1gx4_ligand
  -I-interpret- 

 39 40  0  0  0  0  0  0  0  0999 V2000
    2.8570   13.5450   43.7050 N   0  0  0  0  0
    2.9410   14.5360   42.7230 C   0  0  0  0  0
    2.4770   15.8120   43.0410 N   0  0  0  0  0
    1.8830   16.2000   44.2890 C   0  0  0  0  0
    2.0190   15.2490   45.3610 C   0  0  0  0  0
    2.3710   13.8480   45.0020 C   0  0  0  0  0
    3.2310   14.2380   41.5600 O   0  0  0  0  0
    1.7330   17.4050   44.4810 O   0  0  0  0  0
    3.1820   12.1310   43.3030 C   0  0  0  0  0
    4.6980   11.9230   43.0580 C   0  0  0  0  0
    4.9520   10.8600   42.1330 O   0  0  0  0  0
    5.1570   11.6640   44.4980 C   0  0  0  0  0
    4.0610   10.6960   44.9940 C   0  0  0  0  0
    2.8450   11.2210   44.3740 O   0  0  0  0  0
    6.4590   11.0330   44.4440 O   0  0  0  0  0
    3.8480   10.5980   46.5360 C   0  0  0  0  0
    4.0820   11.8770   47.1480 O   0  0  0  0  0
    5.4200   12.2320   47.9170 P   0  0  0  0  0
    6.5310   11.5280   47.2230 O   0  0  0  0  0
    5.4870   13.7400   48.0450 O   0  0  0  0  0
    5.2070   11.5720   49.3800 O   0  0  0  0  0
    6.4120   11.2700   50.4490 P   0  0  0  0  0
    7.2260   10.0640   49.8780 O   0  0  0  0  0
    5.6820   10.8650   51.6920 O   0  0  0  0  0
    7.2660   12.5080   50.5190 O   0  0  0  0  0
    2.5675   16.5323   42.3245 H   0  0  0  0  0
    1.8694   15.5445   46.3995 H   0  0  0  0  0
    2.2548   13.0527   45.7383 H   0  0  0  0  0
    2.6145   11.9430   42.3916 H   0  0  0  0  0
    5.2292   12.7461   42.5801 H   0  0  0  0  0
    5.8992   10.7644   42.0094 H   0  0  0  0  0
    5.2645   12.5388   45.1392 H   0  0  0  0  0
    4.3457    9.6786   44.7257 H   0  0  0  0  0
    6.7672   10.8609   45.3367 H   0  0  0  0  0
    4.5469    9.8703   46.9485 H   0  0  0  0  0
    2.8228   10.2871   46.7369 H   0  0  0  0  0
    4.7094   14.0553   48.5113 H   0  0  0  0  0
    7.6877   10.3390   49.0825 H   0  0  0  0  0
    7.6778   12.6600   49.6652 H   0  0  0  0  0
  1  2  1  0  0  0
  1  6  1  0  0  0
  1  9  1  0  0  0
  2  3  1  0  0  0
  2  7  2  0  0  0
  3  4  1  0  0  0
  4  5  1  0  0  0
  4  8  2  0  0  0
  5  6  2  0  0  0
  9 10  1  0  0  0
  9 14  1  0  0  0
 10 11  1  0  0  0
 10 12  1  0  0  0
 12 13  1  0  0  0
 12 15  1  0  0  0
 13 14  1  0  0  0
 13 16  1  0  0  0
 16 17  1  0  0  0
 17 18  1  0  0  0
 18 19  2  0  0  0
 18 20  1  0  0  0
 18 21  1  0  0  0
 21 22  1  0  0  0
 22 23  1  0  0  0
 22 24  2  0  0  0
 22 25  1  0  0  0
  3 26  1  0  0  0
  5 27  1  0  0  0
  6 28  1  0  0  0
  9 29  1  0  0  0
 10 30  1  0  0  0
 11 31  1  0  0  0
 12 32  1  0  0  0
 13 33  1  0  0  0
 15 34  1  0  0  0
 16 35  1  0  0  0
 16 36  1  0  0  0
 20 37  1  0  0  0
 23 38  1  0  0  0
 25 39  1  0  0  0
M  END
$$$$
