### 
### Created by X-TOOL on Mon Sep 10 21:12:49 2018
### 

@<TRIPOS>MOLECULE
1gx4_ligand
   36    37     1     0     0
SMALL
GAST_HUCK


@<TRIPOS>ATOM
      1 N1          2.8570   13.5450   43.7050 N.am      1 UDP        -0.1592
      2 C2          2.9410   14.5360   42.7230 C.2       1 UDP         0.3328
      3 N3          2.4770   15.8120   43.0410 N.am      1 UDP        -0.1865
      4 C4          1.8830   16.2000   44.2890 C.2       1 UDP         0.1822
      5 C5          2.0190   15.2490   45.3610 C.2       1 UDP         0.0062
      6 C6          2.3710   13.8480   45.0020 C.2       1 UDP         0.0591
      7 O2          3.2310   14.2380   41.5600 O.2       1 UDP        -0.3815
      8 O4          1.7330   17.4050   44.4810 O.2       1 UDP        -0.4124
      9 C1          3.1820   12.1310   43.3030 C.3       1 UDP         0.2059
     10 C2          4.6980   11.9230   43.0580 C.3       1 UDP         0.1387
     11 O2          4.9520   10.8600   42.1330 O.3       1 UDP        -0.3836
     12 C3          5.1570   11.6640   44.4980 C.3       1 UDP         0.1149
     13 C4          4.0610   10.6960   44.9940 C.3       1 UDP         0.1189
     14 O4          2.8450   11.2210   44.3740 O.3       1 UDP        -0.3363
     15 O3          6.4590   11.0330   44.4440 O.3       1 UDP        -0.3864
     16 C5          3.8480   10.5980   46.5360 C.3       1 UDP         0.1132
     17 O5          4.0820   11.8770   47.1480 O.3       1 UDP        -0.2436
     18 PA          5.4200   12.2320   47.9170 P.3       1 UDP         0.3276
     19 O1A         6.5310   11.5280   47.2230 O.co2     1 UDP        -0.5556
     20 O2A         5.4870   13.7400   48.0450 O.co2     1 UDP        -0.5556
     21 O3A         5.2070   11.5720   49.3800 O.3       1 UDP        -0.1548
     22 PB          6.4120   11.2700   50.4490 P.3       1 UDP         0.2069
     23 O1B         7.2260   10.0640   49.8780 O.co2     1 UDP        -0.5891
     24 O2B         5.6820   10.8650   51.6920 O.co2     1 UDP        -0.5891
     25 O3B         7.2660   12.5080   50.5190 O.co2     1 UDP        -0.5891
     26 H1          2.5658   16.5182   42.3386 H         1 UDP         0.2259
     27 H2          1.8696   15.5443   46.3985 H         1 UDP         0.0258
     28 H3          2.2549   13.0535   45.7376 H         1 UDP         0.1178
     29 H4          2.6169   11.8789   42.3936 H         1 UDP         0.0997
     30 H5          5.1658   12.8373   42.6641 H         1 UDP         0.0676
     31 H6          4.5416   11.0615   41.3003 H         1 UDP         0.2101
     32 H7          5.1975   12.5816   45.1033 H         1 UDP         0.0648
     33 H8          4.2808    9.6854   44.6195 H         1 UDP         0.0651
     34 H9          6.7003   10.7326   45.3124 H         1 UDP         0.2100
     35 H10         4.5490    9.8607   46.9542 H         1 UDP         0.0648
     36 H11         2.8153   10.2797   46.7414 H         1 UDP         0.0648
@<TRIPOS>BOND
     1    1    2 am 
     2    1    6 am 
     3    1    9 1  
     4    2    3 am 
     5    2    7 2  
     6    3    4 am 
     7    4    5 1  
     8    4    8 2  
     9    5    6 2  
    10    9   10 1  
    11    9   14 1  
    12   10   11 1  
    13   10   12 1  
    14   12   13 1  
    15   12   15 1  
    16   13   14 1  
    17   13   16 1  
    18   16   17 1  
    19   17   18 1  
    20   18   19 ar 
    21   18   20 ar 
    22   18   21 1  
    23   21   22 1  
    24   22   23 ar 
    25   22   24 ar 
    26   22   25 ar 
    27    3   26 1  
    28    5   27 1  
    29    6   28 1  
    30    9   29 1  
    31   10   30 1  
    32   11   31 1  
    33   12   32 1  
    34   13   33 1  
    35   15   34 1  
    36   16   35 1  
    37   16   36 1  
@<TRIPOS>SUBSTRUCTURE
     1 UDP         1

