4l4z_ligand
  -I-interpret- 

 25 24  0  0  0  0  0  0  0  0999 V2000
  -38.0160   24.1180   -4.5320 O   0  0  0  0  0
  -38.4060   22.5440   -4.4800 P   0  0  0  0  0
  -39.8730   22.4050   -4.9130 O   0  0  0  0  0
  -38.1770   21.9480   -3.0900 O   0  0  0  0  0
  -37.6320   21.6220   -5.3790 O   0  0  0  0  0
  -36.2310   21.7950   -5.5210 C   0  0  0  0  0
  -35.5330   20.5700   -4.9730 C   0  0  0  0  0
  -35.7450   20.7050   -3.5760 O   0  0  0  0  0
  -34.0660   20.6450   -5.4240 C   0  0  0  0  0
  -33.7300   20.2080   -6.7230 O   0  0  0  0  0
  -33.1240   21.3790   -4.7420 O   0  0  0  0  0
  -33.5470   19.3190   -4.7300 C   0  0  0  0  0
  -33.6160   18.1830   -5.2400 O   0  0  0  0  0
  -32.8170   19.4580   -3.3600 C   0  0  0  0  0
  -38.1723   24.4562   -5.4168 H   0  0  0  0  0
  -39.9852   22.7869   -5.7866 H   0  0  0  0  0
  -35.9098   22.6805   -4.9726 H   0  0  0  0  0
  -35.9788   21.9251   -6.5734 H   0  0  0  0  0
  -35.8847   19.5945   -5.3089 H   0  0  0  0  0
  -36.6847   20.6458   -3.3889 H   0  0  0  0  0
  -34.4634   19.7101   -7.0916 H   0  0  0  0  0
  -33.4684   21.6153   -3.8776 H   0  0  0  0  0
  -33.3219   18.8412   -2.6165 H   0  0  0  0  0
  -31.7832   19.1289   -3.4656 H   0  0  0  0  0
  -32.8372   20.5007   -3.0432 H   0  0  0  0  0
  1  2  1  0  0  0
  2  3  1  0  0  0
  2  4  2  0  0  0
  2  5  1  0  0  0
  5  6  1  0  0  0
  6  7  1  0  0  0
  7  8  1  0  0  0
  7  9  1  0  0  0
  9 10  1  0  0  0
  9 11  1  0  0  0
  9 12  1  0  0  0
 12 13  2  0  0  0
 12 14  1  0  0  0
  1 15  1  0  0  0
  3 16  1  0  0  0
  6 17  1  0  0  0
  6 18  1  0  0  0
  7 19  1  0  0  0
  8 20  1  0  0  0
 10 21  1  0  0  0
 11 22  1  0  0  0
 14 23  1  0  0  0
 14 24  1  0  0  0
 14 25  1  0  0  0
M  END
$$$$
