5i86_ligand
  -I-interpret- 

 42 44  0  0  0  0  0  0  0  0999 V2000
  -53.1300    4.2930  -10.2470 C   0  0  0  0  0
  -53.9900    5.3700  -10.3950 C   0  0  0  0  0
  -55.3510    5.1160  -10.5570 C   0  0  0  0  0
  -55.8230    3.8040  -10.4910 C   0  0  0  0  0
  -57.1910    3.6060  -10.7990 N   0  0  0  0  0
  -58.0390    2.7540  -10.1340 C   0  0  0  0  0
  -59.1920    2.5980  -10.5870 O   0  0  0  0  0
  -57.5610    2.1250   -8.9440 C   0  0  0  0  0
  -56.5670    0.9950   -9.2430 C   0  0  0  0  0
  -57.2930   -0.2130   -9.7890 C   0  0  0  0  0
  -55.4510    1.4350  -10.1570 N   0  0  0  0  0
  -54.9680    2.7420  -10.2600 C   0  0  0  0  0
  -53.5740    2.9770  -10.1790 C   0  0  0  0  0
  -52.6210    1.9510  -10.1630 C   0  0  0  0  0
  -52.8950    0.7980   -9.8350 O   0  0  0  0  0
  -51.4240    2.2680  -10.7100 N   0  0  0  0  0
  -50.3630    1.2600  -10.8840 C   0  0  0  0  0
  -50.4860    0.4310  -12.0290 C   0  0  0  0  0
  -49.6460   -0.6730  -12.1050 C   0  0  0  0  0
  -49.6380   -1.5150  -13.2110 C   0  0  0  0  0
  -50.5950   -1.3420  -14.1950 C   0  0  0  0  0
  -51.4270   -0.2320  -14.1490 C   0  0  0  0  0
  -51.4020    0.6300  -13.0510 C   0  0  0  0  0
  -52.0593    4.4860  -10.1811 H   0  0  0  0  0
  -53.6108    6.3919  -10.3849 H   0  0  0  0  0
  -56.0438    5.9385  -10.7345 H   0  0  0  0  0
  -57.5780    4.1392  -11.5777 H   0  0  0  0  0
  -58.4156    1.6948   -8.4217 H   0  0  0  0  0
  -57.0478    2.8779   -8.3458 H   0  0  0  0  0
  -56.0939    0.7159   -8.3015 H   0  0  0  0  0
  -58.0184   -0.5621   -9.0542 H   0  0  0  0  0
  -57.8090    0.0601  -10.7095 H   0  0  0  0  0
  -56.5733   -1.0051   -9.9957 H   0  0  0  0  0
  -55.0156    0.7242  -10.7448 H   0  0  0  0  0
  -51.2522    3.2279  -11.0090 H   0  0  0  0  0
  -50.4175    0.6009  -10.0176 H   0  0  0  0  0
  -49.4293    1.8105  -10.9995 H   0  0  0  0  0
  -48.9739   -0.8850  -11.2735 H   0  0  0  0  0
  -48.8880   -2.3008  -13.3018 H   0  0  0  0  0
  -50.6947   -2.0709  -14.9992 H   0  0  0  0  0
  -52.1061   -0.0314  -14.9777 H   0  0  0  0  0
  -52.1044    1.4617  -12.9969 H   0  0  0  0  0
  1  2  4  0  0  0
  1 13  4  0  0  0
  2  3  4  0  0  0
  3  4  4  0  0  0
  4  5  1  0  0  0
  4 12  4  0  0  0
  5  6  1  0  0  0
  6  7  2  0  0  0
  6  8  1  0  0  0
  8  9  1  0  0  0
  9 10  1  0  0  0
  9 11  1  0  0  0
 11 12  1  0  0  0
 12 13  4  0  0  0
 13 14  1  0  0  0
 14 15  2  0  0  0
 14 16  1  0  0  0
 16 17  1  0  0  0
 17 18  1  0  0  0
 18 19  4  0  0  0
 18 23  4  0  0  0
 19 20  4  0  0  0
 20 21  4  0  0  0
 21 22  4  0  0  0
 22 23  4  0  0  0
  1 24  1  0  0  0
  2 25  1  0  0  0
  3 26  1  0  0  0
  5 27  1  0  0  0
  8 28  1  0  0  0
  8 29  1  0  0  0
  9 30  1  0  0  0
 10 31  1  0  0  0
 10 32  1  0  0  0
 10 33  1  0  0  0
 11 34  1  0  0  0
 16 35  1  0  0  0
 17 36  1  0  0  0
 17 37  1  0  0  0
 19 38  1  0  0  0
 20 39  1  0  0  0
 21 40  1  0  0  0
 22 41  1  0  0  0
 23 42  1  0  0  0
M  END
$$$$
