### 
### Created by X-TOOL on Mon Aug  2 16:10:11 2021
### 

@<TRIPOS>MOLECULE
6hv5_ligand
   84    85     1     0     0
SMALL
GAST_HUCK


@<TRIPOS>ATOM
      1 C6         58.2610 -134.2400   34.0120 C.3       1 GQH         0.3131
      2 C7         59.5690 -134.8120   34.5470 C.2       1 GQH         0.2449
      3 C10        61.2110 -134.4550   37.0040 C.2       1 GQH         0.2039
      4 C13        62.7720 -135.7620   39.9660 C.2       1 GQH         0.2018
      5 C15        63.7450 -135.3270   42.1600 C.3       1 GQH         0.0542
      6 C17        64.2710 -132.9320   42.3620 C.ar      1 GQH        -0.0325
      7 C20        65.2930 -130.6020   41.1130 C.ar      1 GQH         0.0061
      8 C21        65.8290 -129.5060   40.4380 C.2       1 GQH         0.0101
      9 C24        65.0510 -132.9990   41.1900 C.ar      1 GQH        -0.0508
     10 C26        61.9930 -136.6780   43.3720 C.3       1 GQH         0.0677
     11 C28        61.5590 -139.4900   42.3360 C.3       1 GQH         0.0544
     12 C18        64.0210 -131.6620   42.8990 C.ar      1 GQH        -0.0508
     13 C19        64.5230 -130.5060   42.2840 C.ar      1 GQH        -0.0481
     14 N22        65.7260 -128.2730   40.9390 N.2       1 GQH        -0.3549
     15 C23        65.5460 -131.8550   40.5800 C.ar      1 GQH        -0.0481
     16 C16        63.7500 -134.0340   43.0410 C.3       1 GQH         0.0079
     17 C25        63.4650 -136.6410   42.9270 C.3       1 GQH        -0.0084
     18 S27        61.3020 -138.3330   43.6700 S.o2      1 GQH        -0.0337
     19 O29        59.8090 -138.1570   43.9130 O.2       1 GQH        -0.1746
     20 O30        61.9170 -138.9300   44.9260 O.2       1 GQH        -0.1746
     21 N14        62.7150 -135.1550   41.1430 N.am      1 GQH        -0.2798
     22 O31        63.7020 -136.4610   39.5590 O.2       1 GQH        -0.3945
     23 C12        61.5370 -135.4990   39.1330 C.3       1 GQH         0.1281
     24 C32        60.5690 -136.6820   39.2330 C.3       1 GQH        -0.0244
     25 N11        61.9140 -135.3020   37.7430 N.am      1 GQH        -0.2640
     26 O39        60.2390 -133.8000   37.4070 O.2       1 GQH        -0.3944
     27 C9         61.6940 -134.3420   35.5760 C.3       1 GQH         0.1313
     28 C40        62.8390 -133.3370   35.5910 C.3       1 GQH        -0.0101
     29 C41        63.3840 -133.1130   34.1840 C.3       1 GQH        -0.0425
     30 C42        64.5290 -132.0830   34.2620 C.3       1 GQH        -0.0625
     31 C43        63.8590 -134.4280   33.5220 C.3       1 GQH        -0.0625
     32 N8         60.4980 -133.9030   34.8710 N.am      1 GQH        -0.2609
     33 O44        59.7090 -136.0270   34.7150 O.2       1 GQH        -0.3906
     34 N51        57.8930 -134.9080   32.7580 N.2       1 GQH         0.1934
     35 N52        58.5740 -134.6330   31.8060 N.1       1 GQH         0.1323
     36 N53        59.2180 -134.3780   30.8860 N.1       1 GQH         0.2336
     37 C54        57.2190 -134.4940   35.1310 C.3       1 GQH         0.0575
     38 C55        55.9140 -134.0120   34.8860 C.ar      1 GQH        -0.0354
     39 C60        54.8340 -134.6600   35.5180 C.ar      1 GQH        -0.0600
     40 C59        53.5060 -134.2290   35.3230 C.ar      1 GQH        -0.0686
     41 C58        53.2340 -133.1330   34.4920 C.ar      1 GQH        -0.0687
     42 C57        54.2980 -132.4770   33.8620 C.ar      1 GQH        -0.0686
     43 C56        55.6230 -132.9050   34.0600 C.ar      1 GQH        -0.0600
     44 H1         58.3611 -133.1601   33.8281 H         1 GQH         0.1271
     45 H2         64.7287 -135.4183   41.6764 H         1 GQH         0.0581
     46 H3         66.3392 -129.6581   39.4880 H         1 GQH         0.1084
     47 H4         65.2695 -133.9674   40.7546 H         1 GQH         0.0581
     48 H5         61.3905 -136.1962   42.5879 H         1 GQH         0.0500
     49 H6         61.9074 -136.1028   44.3057 H         1 GQH         0.0500
     50 H7         61.1113 -140.4594   42.6001 H         1 GQH         0.0464
     51 H8         62.6380 -139.6189   42.1651 H         1 GQH         0.0464
     52 H9         61.0861 -139.1050   41.4205 H         1 GQH         0.0464
     53 H10        63.4306 -131.5718   43.8036 H         1 GQH         0.0581
     54 H11        64.3157 -129.5330   42.7146 H         1 GQH         0.0677
     55 H12        66.1190 -127.4912   40.4386 H         1 GQH         0.1192
     56 H13        66.1375 -131.9431   39.6759 H         1 GQH         0.0677
     57 H14        64.3612 -134.2187   43.9367 H         1 GQH         0.0467
     58 H15        62.7167 -133.8074   43.3424 H         1 GQH         0.0467
     59 H16        64.1159 -136.6936   43.8121 H         1 GQH         0.0305
     60 H17        63.6699 -137.4989   42.2697 H         1 GQH         0.0305
     61 H18        61.9376 -134.5577   41.3403 H         1 GQH         0.1857
     62 H19        61.0385 -134.5920   39.5056 H         1 GQH         0.0797
     63 H20        59.6764 -136.4779   38.6234 H         1 GQH         0.0277
     64 H21        60.2715 -136.8247   40.2823 H         1 GQH         0.0277
     65 H22        61.0639 -137.5929   38.8650 H         1 GQH         0.0277
     66 H23        62.6898 -135.7965   37.3511 H         1 GQH         0.1883
     67 H24        62.0468 -135.3039   35.1756 H         1 GQH         0.0800
     68 H25        63.6459 -133.7197   36.2332 H         1 GQH         0.0315
     69 H26        62.4735 -132.3803   35.9923 H         1 GQH         0.0315
     70 H27        62.5782 -132.6952   33.5627 H         1 GQH         0.0298
     71 H28        64.9348 -131.9089   33.2545 H         1 GQH         0.0232
     72 H29        65.3249 -132.4683   34.9162 H         1 GQH         0.0232
     73 H30        64.1441 -131.1371   34.6708 H         1 GQH         0.0232
     74 H31        63.0223 -135.1409   33.4809 H         1 GQH         0.0232
     75 H32        64.6801 -134.8602   34.1127 H         1 GQH         0.0232
     76 H33        64.2123 -134.2181   32.5017 H         1 GQH         0.0232
     77 H34        60.3724 -132.9399   34.6329 H         1 GQH         0.1884
     78 H35        57.5879 -134.0134   36.0491 H         1 GQH         0.0506
     79 H36        57.1520 -135.5807   35.2874 H         1 GQH         0.0506
     80 H37        55.0281 -135.5064   36.1668 H         1 GQH         0.0557
     81 H38        52.6921 -134.7469   35.8174 H         1 GQH         0.0599
     82 H39        52.2143 -132.7984   34.3396 H         1 GQH         0.0559
     83 H40        54.0987 -131.6305   33.2149 H         1 GQH         0.0599
     84 H41        56.4332 -132.3766   33.5707 H         1 GQH         0.0557
@<TRIPOS>BOND
     1    2    1 1  
     2    1   34 1  
     3    1   37 1  
     4   32    2 am 
     5    2   33 2  
     6    3   25 am 
     7    3   26 2  
     8   27    3 1  
     9    4   21 am 
    10    4   22 2  
    11   23    4 1  
    12    5   16 1  
    13    5   17 1  
    14   21    5 1  
    15    6    9 ar 
    16    6   12 ar 
    17   16    6 1  
    18    7    8 1  
    19   13    7 ar 
    20   15    7 ar 
    21    8   14 2  
    22    9   15 ar 
    23   17   10 1  
    24   10   18 1  
    25   18   11 1  
    26   12   13 ar 
    27   18   19 2  
    28   18   20 2  
    29   23   24 1  
    30   25   23 1  
    31   27   28 1  
    32   27   32 1  
    33   28   29 1  
    34   29   30 1  
    35   29   31 1  
    36   34   35 2  
    37   35   36 3  
    38   37   38 1  
    39   38   39 ar 
    40   38   43 ar 
    41   39   40 ar 
    42   40   41 ar 
    43   41   42 ar 
    44   42   43 ar 
    45    1   44 1  
    46    5   45 1  
    47    8   46 1  
    48    9   47 1  
    49   10   48 1  
    50   10   49 1  
    51   11   50 1  
    52   11   51 1  
    53   11   52 1  
    54   12   53 1  
    55   13   54 1  
    56   14   55 1  
    57   15   56 1  
    58   16   57 1  
    59   16   58 1  
    60   17   59 1  
    61   17   60 1  
    62   21   61 1  
    63   23   62 1  
    64   24   63 1  
    65   24   64 1  
    66   24   65 1  
    67   25   66 1  
    68   27   67 1  
    69   28   68 1  
    70   28   69 1  
    71   29   70 1  
    72   30   71 1  
    73   30   72 1  
    74   30   73 1  
    75   31   74 1  
    76   31   75 1  
    77   31   76 1  
    78   32   77 1  
    79   37   78 1  
    80   37   79 1  
    81   39   80 1  
    82   40   81 1  
    83   41   82 1  
    84   42   83 1  
    85   43   84 1  
@<TRIPOS>SUBSTRUCTURE
     1 GQH         1

