6hv5_ligand
  -I-interpret- 

 84 85  0  0  0  0  0  0  0  0999 V2000
   58.2610 -134.2400   34.0120 C   0  0  0  0  0
   59.5690 -134.8120   34.5470 C   0  0  0  0  0
   61.2110 -134.4550   37.0040 C   0  0  0  0  0
   62.7720 -135.7620   39.9660 C   0  0  0  0  0
   63.7450 -135.3270   42.1600 C   0  0  0  0  0
   64.2710 -132.9320   42.3620 C   0  0  0  0  0
   65.2930 -130.6020   41.1130 C   0  0  0  0  0
   65.8290 -129.5060   40.4380 C   0  0  0  0  0
   65.0510 -132.9990   41.1900 C   0  0  0  0  0
   61.9930 -136.6780   43.3720 C   0  0  0  0  0
   61.5590 -139.4900   42.3360 C   0  0  0  0  0
   64.0210 -131.6620   42.8990 C   0  0  0  0  0
   64.5230 -130.5060   42.2840 C   0  0  0  0  0
   65.7260 -128.2730   40.9390 N   0  0  0  0  0
   65.5460 -131.8550   40.5800 C   0  0  0  0  0
   63.7500 -134.0340   43.0410 C   0  0  0  0  0
   63.4650 -136.6410   42.9270 C   0  0  0  0  0
   61.3020 -138.3330   43.6700 S   0  0  0  0  0
   59.8090 -138.1570   43.9130 O   0  0  0  0  0
   61.9170 -138.9300   44.9260 O   0  0  0  0  0
   62.7150 -135.1550   41.1430 N   0  0  0  0  0
   63.7020 -136.4610   39.5590 O   0  0  0  0  0
   61.5370 -135.4990   39.1330 C   0  0  0  0  0
   60.5690 -136.6820   39.2330 C   0  0  0  0  0
   61.9140 -135.3020   37.7430 N   0  0  0  0  0
   60.2390 -133.8000   37.4070 O   0  0  0  0  0
   61.6940 -134.3420   35.5760 C   0  0  0  0  0
   62.8390 -133.3370   35.5910 C   0  0  0  0  0
   63.3840 -133.1130   34.1840 C   0  0  0  0  0
   64.5290 -132.0830   34.2620 C   0  0  0  0  0
   63.8590 -134.4280   33.5220 C   0  0  0  0  0
   60.4980 -133.9030   34.8710 N   0  0  0  0  0
   59.7090 -136.0270   34.7150 O   0  0  0  0  0
   57.8930 -134.9080   32.7580 N   0  0  0  0  0
   58.5740 -134.6330   31.8060 N   0  0  0  0  0
   59.2180 -134.3780   30.8860 N   0  0  0  0  0
   57.2190 -134.4940   35.1310 C   0  0  0  0  0
   55.9140 -134.0120   34.8860 C   0  0  0  0  0
   54.8340 -134.6600   35.5180 C   0  0  0  0  0
   53.5060 -134.2290   35.3230 C   0  0  0  0  0
   53.2340 -133.1330   34.4920 C   0  0  0  0  0
   54.2980 -132.4770   33.8620 C   0  0  0  0  0
   55.6230 -132.9050   34.0600 C   0  0  0  0  0
   58.3305 -133.1776   33.7785 H   0  0  0  0  0
   64.7491 -135.4349   41.7499 H   0  0  0  0  0
   66.3397 -129.6583   39.4871 H   0  0  0  0  0
   65.2707 -133.9727   40.7522 H   0  0  0  0  0
   61.4131 -136.2430   42.5580 H   0  0  0  0  0
   61.9441 -136.1470   44.3226 H   0  0  0  0  0
   61.1187 -140.4513   42.6006 H   0  0  0  0  0
   61.0864 -139.1094   41.4305 H   0  0  0  0  0
   62.6284 -139.6135   42.1648 H   0  0  0  0  0
   63.4273 -131.5713   43.8086 H   0  0  0  0  0
   64.3146 -129.5276   42.7170 H   0  0  0  0  0
   65.2497 -128.1220   41.8282 H   0  0  0  0  0
   66.1408 -131.9436   39.6709 H   0  0  0  0  0
   64.3771 -134.2213   43.9126 H   0  0  0  0  0
   62.7194 -133.8067   43.3135 H   0  0  0  0  0
   64.1092 -136.6913   43.8048 H   0  0  0  0  0
   63.6666 -137.4903   42.2743 H   0  0  0  0  0
   61.9221 -134.5458   41.3443 H   0  0  0  0  0
   61.0458 -134.6018   39.5096 H   0  0  0  0  0
   59.6791 -136.4728   38.6393 H   0  0  0  0  0
   61.0560 -137.5812   38.8557 H   0  0  0  0  0
   60.2855 -136.8308   40.2749 H   0  0  0  0  0
   62.7053 -135.8064   37.3433 H   0  0  0  0  0
   62.0883 -135.2396   35.0997 H   0  0  0  0  0
   63.6397 -133.7268   36.2194 H   0  0  0  0  0
   62.4680 -132.3882   35.9787 H   0  0  0  0  0
   62.5817 -132.7317   33.5523 H   0  0  0  0  0
   64.1464 -131.1463   34.6672 H   0  0  0  0  0
   65.3169 -132.4660   34.9105 H   0  0  0  0  0
   64.9302 -131.9113   33.2632 H   0  0  0  0  0
   64.6515 -134.8712   34.1250 H   0  0  0  0  0
   63.0213 -135.1221   33.4536 H   0  0  0  0  0
   64.2377 -134.2140   32.5226 H   0  0  0  0  0
   60.3699 -132.9207   34.6281 H   0  0  0  0  0
   57.5805 -133.9623   36.0112 H   0  0  0  0  0
   57.1317 -135.5763   35.2268 H   0  0  0  0  0
   55.0292 -135.5111   36.1704 H   0  0  0  0  0
   52.6876 -134.7498   35.8201 H   0  0  0  0  0
   52.2086 -132.7966   34.3387 H   0  0  0  0  0
   54.0976 -131.6258   33.2113 H   0  0  0  0  0
   56.4377 -132.3737   33.5680 H   0  0  0  0  0
  2  1  1  0  0  0
  1 34  1  0  0  0
  1 37  1  0  0  0
 32  2  1  0  0  0
  2 33  2  0  0  0
  3 25  1  0  0  0
  3 26  2  0  0  0
 27  3  1  0  0  0
  4 21  1  0  0  0
  4 22  2  0  0  0
 23  4  1  0  0  0
  5 16  1  0  0  0
  5 17  1  0  0  0
 21  5  1  0  0  0
  6  9  4  0  0  0
  6 12  4  0  0  0
 16  6  1  0  0  0
  7  8  1  0  0  0
 13  7  4  0  0  0
 15  7  4  0  0  0
  8 14  2  0  0  0
  9 15  4  0  0  0
 17 10  1  0  0  0
 10 18  1  0  0  0
 18 11  1  0  0  0
 12 13  4  0  0  0
 18 19  2  0  0  0
 18 20  2  0  0  0
 23 24  1  0  0  0
 25 23  1  0  0  0
 27 28  1  0  0  0
 27 32  1  0  0  0
 28 29  1  0  0  0
 29 30  1  0  0  0
 29 31  1  0  0  0
 34 35  2  0  0  0
 35 36  3  0  0  0
 37 38  1  0  0  0
 38 39  4  0  0  0
 38 43  4  0  0  0
 39 40  4  0  0  0
 40 41  4  0  0  0
 41 42  4  0  0  0
 42 43  4  0  0  0
  1 44  1  0  0  0
  5 45  1  0  0  0
  8 46  1  0  0  0
  9 47  1  0  0  0
 10 48  1  0  0  0
 10 49  1  0  0  0
 11 50  1  0  0  0
 11 51  1  0  0  0
 11 52  1  0  0  0
 12 53  1  0  0  0
 13 54  1  0  0  0
 14 55  1  0  0  0
 15 56  1  0  0  0
 16 57  1  0  0  0
 16 58  1  0  0  0
 17 59  1  0  0  0
 17 60  1  0  0  0
 21 61  1  0  0  0
 23 62  1  0  0  0
 24 63  1  0  0  0
 24 64  1  0  0  0
 24 65  1  0  0  0
 25 66  1  0  0  0
 27 67  1  0  0  0
 28 68  1  0  0  0
 28 69  1  0  0  0
 29 70  1  0  0  0
 30 71  1  0  0  0
 30 72  1  0  0  0
 30 73  1  0  0  0
 31 74  1  0  0  0
 31 75  1  0  0  0
 31 76  1  0  0  0
 32 77  1  0  0  0
 37 78  1  0  0  0
 37 79  1  0  0  0
 39 80  1  0  0  0
 40 81  1  0  0  0
 41 82  1  0  0  0
 42 83  1  0  0  0
 43 84  1  0  0  0
M  END
$$$$
