4qgf_ligand
  -I-interpret- 

 68 71  0  0  0  0  0  0  0  0999 V2000
   13.0440    5.4610    5.5860 C   0  0  0  0  0
   12.0980    4.4950    4.8960 C   0  0  0  0  0
   11.9080    3.1910    5.6720 C   0  0  0  0  0
   13.1720    2.4930    6.1250 C   0  0  0  0  0
   13.1430    2.1290    7.4590 C   0  0  0  0  0
   14.1970    1.4660    8.0420 C   0  0  0  0  0
   15.3230    1.1840    7.2940 C   0  0  0  0  0
   15.3700    1.5550    5.9590 C   0  0  0  0  0
   14.3120    2.2240    5.3630 C   0  0  0  0  0
   14.3890    2.5930    4.0030 O   0  0  0  0  0
   15.4380    3.5420    3.7400 C   0  0  0  0  0
   16.5310    1.3120    5.2580 O   0  0  0  0  0
   16.5840    0.3220    4.2920 C   0  0  0  0  0
   15.7640   -0.7930    4.2920 C   0  0  0  0  0
   15.9070   -1.7410    3.2970 C   0  0  0  0  0
   16.8670   -1.5830    2.3230 C   0  0  0  0  0
   17.6870   -0.4720    2.3480 C   0  0  0  0  0
   17.5630    0.4870    3.3360 C   0  0  0  0  0
   18.8830   -0.2610    1.1330 Cl  0  0  0  0  0
   16.4430    0.4850    7.9570 C   0  0  0  0  0
   16.8330   -0.6070    7.4630 O   0  0  0  0  0
   16.8990    1.0210    8.9980 O   0  0  0  0  0
   10.9460    2.3150    4.9090 N   0  3  0  0  0
   10.2060    1.3490    5.8010 C   0  0  0  0  0
    9.0640    0.7360    5.0100 C   0  0  0  0  0
    9.5960    0.0350    3.7610 C   0  0  0  0  0
   10.4740    0.9560    2.9020 C   0  0  0  0  0
   11.5450    1.6190    3.7330 C   0  0  0  0  0
   11.0500    0.2860    1.7440 N   0  0  0  0  0
   11.6110   -0.9790    1.8660 C   0  0  0  0  0
   12.0500   -1.7150    0.8270 C   0  0  0  0  0
   11.9110   -1.1260   -0.5290 C   0  0  0  0  0
   12.2640   -1.7380   -1.5360 O   0  0  0  0  0
   11.3350    0.1250   -0.5640 N   0  0  0  0  0
   10.9230    0.8950    0.5150 C   0  0  0  0  0
   10.4830    2.0340    0.3650 O   0  0  0  0  0
   12.6500   -3.0760    0.9450 C   0  0  0  0  0
   12.6489    5.7141    6.5698 H   0  0  0  0  0
   14.0226    4.9935    5.6953 H   0  0  0  0  0
   13.1374    6.3666    4.9866 H   0  0  0  0  0
   12.5269    4.2453    3.9255 H   0  0  0  0  0
   11.1252    4.9805    4.8179 H   0  0  0  0  0
   11.4728    3.4472    6.6379 H   0  0  0  0  0
   12.2670    2.3726    8.0602 H   0  0  0  0  0
   14.1441    1.1648    9.0882 H   0  0  0  0  0
   15.2615    4.4471    4.3212 H   0  0  0  0  0
   16.3975    3.1086    4.0224 H   0  0  0  0  0
   15.4469    3.7867    2.6779 H   0  0  0  0  0
   15.0118   -0.9222    5.0703 H   0  0  0  0  0
   15.2578   -2.6165    3.2832 H   0  0  0  0  0
   16.9792   -2.3300    1.5371 H   0  0  0  0  0
   18.2240    1.3534    3.3584 H   0  0  0  0  0
   16.3271   -0.7968    6.6695 H   0  0  0  0  0
   10.2638    2.9688    4.5250 H   0  0  0  0  0
    9.8140    1.8742    6.6720 H   0  0  0  0  0
   10.8832    0.5660    6.1422 H   0  0  0  0  0
    8.3774    1.5267    4.7076 H   0  0  0  0  0
    8.5513    0.0053    5.6356 H   0  0  0  0  0
    8.7420   -0.2748    3.1586 H   0  0  0  0  0
   10.2061   -0.8092    4.0822 H   0  0  0  0  0
    9.8111    1.7274    2.5102 H   0  0  0  0  0
   12.2363    0.8558    4.0902 H   0  0  0  0  0
   12.0649    2.3527    3.1169 H   0  0  0  0  0
   11.7017   -1.4028    2.8661 H   0  0  0  0  0
   11.1953    0.5321   -1.4888 H   0  0  0  0  0
   13.5432   -3.0252    1.5677 H   0  0  0  0  0
   11.9264   -3.7525    1.3998 H   0  0  0  0  0
   12.9172   -3.4411   -0.0467 H   0  0  0  0  0
  1  2  1  0  0  0
  2  3  1  0  0  0
  3  4  1  0  0  0
  3 23  1  0  0  0
  4  5  4  0  0  0
  4  9  4  0  0  0
  5  6  4  0  0  0
  6  7  4  0  0  0
  7  8  4  0  0  0
  7 20  1  0  0  0
  8  9  4  0  0  0
  8 12  1  0  0  0
  9 10  1  0  0  0
 10 11  1  0  0  0
 12 13  1  0  0  0
 13 14  4  0  0  0
 13 18  4  0  0  0
 14 15  4  0  0  0
 15 16  4  0  0  0
 16 17  4  0  0  0
 17 18  4  0  0  0
 17 19  1  0  0  0
 20 21  1  0  0  0
 20 22  2  0  0  0
 23 24  1  0  0  0
 23 28  1  0  0  0
 24 25  1  0  0  0
 25 26  1  0  0  0
 26 27  1  0  0  0
 27 28  1  0  0  0
 27 29  1  0  0  0
 29 30  1  0  0  0
 29 35  1  0  0  0
 30 31  2  0  0  0
 31 32  1  0  0  0
 31 37  1  0  0  0
 32 33  2  0  0  0
 32 34  1  0  0  0
 34 35  1  0  0  0
 35 36  2  0  0  0
  1 38  1  0  0  0
  1 39  1  0  0  0
  1 40  1  0  0  0
  2 41  1  0  0  0
  2 42  1  0  0  0
  3 43  1  0  0  0
  5 44  1  0  0  0
  6 45  1  0  0  0
 11 46  1  0  0  0
 11 47  1  0  0  0
 11 48  1  0  0  0
 14 49  1  0  0  0
 15 50  1  0  0  0
 16 51  1  0  0  0
 18 52  1  0  0  0
 21 53  1  0  0  0
 23 54  1  0  0  0
 24 55  1  0  0  0
 24 56  1  0  0  0
 25 57  1  0  0  0
 25 58  1  0  0  0
 26 59  1  0  0  0
 26 60  1  0  0  0
 27 61  1  0  0  0
 28 62  1  0  0  0
 28 63  1  0  0  0
 30 64  1  0  0  0
 34 65  1  0  0  0
 37 66  1  0  0  0
 37 67  1  0  0  0
 37 68  1  0  0  0
M  END
$$$$
