5ta6_ligand
  -I-interpret- 

 79 84  0  0  0  0  0  0  0  0999 V2000
   10.7610   46.5050   10.9780 C   0  0  0  0  0
    9.9130   47.4910   11.8400 C   0  0  0  0  0
   10.9170   48.6580   12.0110 C   0  0  0  0  0
   12.1790   46.5820   11.5990 C   0  0  0  0  0
   11.4260   44.8380    8.8950 N   0  0  0  0  0
   11.7090   44.1400    7.8070 C   0  0  0  0  0
   13.4150   45.7480    6.8540 C   0  0  0  0  0
   13.9960   47.9530    7.5830 C   0  0  0  0  0
   14.4800   45.7790    5.9390 C   0  0  0  0  0
   15.8550   44.4420    4.4290 C   0  0  0  0  0
   17.0130   51.2120    7.6660 C   0  0  0  0  0
   16.9390   53.6890    8.1990 C   0  0  0  0  0
   11.4680   42.9050   12.7570 C   0  0  0  0  0
   10.4950   44.0070   13.1940 C   0  0  0  0  0
    9.5460   44.4890   12.0710 C   0  0  0  0  0
   10.2430   45.1140   10.9180 N   0  0  0  0  0
   12.2580   47.9560   12.2970 C   0  0  0  0  0
   10.5370   44.3930    9.7790 C   0  0  0  0  0
   12.6400   44.5730    6.8630 N   0  0  0  0  0
   13.1750   46.8440    7.6760 C   0  0  0  0  0
   15.0790   47.9990    6.6800 C   0  0  0  0  0
   15.3100   46.8950    5.8400 C   0  0  0  0  0
   14.6460   44.6640    5.1650 O   0  0  0  0  0
   15.9480   49.2040    6.5960 C   0  0  0  0  0
   16.4440   49.4770    5.5270 O   0  0  0  0  0
   16.1850   49.9920    7.6770 N   0  0  0  0  0
   16.1520   52.3710    8.1790 C   0  0  0  0  0
   18.1370   53.5600    9.0460 N   0  3  0  0  0
   18.8950   54.8210    9.0080 C   0  0  0  0  0
   18.9980   52.4190    8.6690 C   0  0  0  0  0
   18.2270   51.0820    8.5950 C   0  0  0  0  0
   11.1250   42.9770    7.5560 N   0  0  0  0  0
   10.2300   42.4580    8.3780 C   0  0  0  0  0
    9.9250   43.1520    9.5200 C   0  0  0  0  0
    8.9470   42.6890   10.4020 N   0  0  0  0  0
    8.0270   41.7070   10.2710 C   0  0  0  0  0
    7.2830   41.6720   11.3400 N   0  0  0  0  0
    7.7060   42.6720   12.1700 C   0  0  0  0  0
    7.1740   43.0010   13.4450 C   0  0  0  0  0
    6.7340   43.2420   14.4510 N   0  0  0  0  0
    8.7230   43.3240   11.5940 C   0  0  0  0  0
   10.7349   46.7979    9.9284 H   0  0  0  0  0
    9.5593   47.0679   12.7802 H   0  0  0  0  0
    8.9677   47.7817   11.3817 H   0  0  0  0  0
   10.6275   49.3384   12.8118 H   0  0  0  0  0
   10.9641   49.2955   11.1281 H   0  0  0  0  0
   12.9517   46.4792   10.8371 H   0  0  0  0  0
   12.3477   45.7685   12.3045 H   0  0  0  0  0
   13.8015   48.8132    8.2235 H   0  0  0  0  0
   16.0062   45.2608    3.7256 H   0  0  0  0  0
   16.6964   44.3953    5.1204 H   0  0  0  0  0
   15.7790   43.5016    3.8831 H   0  0  0  0  0
   17.3693   51.3790    6.6495 H   0  0  0  0  0
   16.3023   54.4762    8.6028 H   0  0  0  0  0
   17.2479   53.9331    7.1826 H   0  0  0  0  0
   10.9030   42.0370   12.4173 H   0  0  0  0  0
   12.0923   43.2749   11.9436 H   0  0  0  0  0
   12.0979   42.6227   13.6006 H   0  0  0  0  0
   11.0939   44.8642   13.5017 H   0  0  0  0  0
    9.8731   43.5935   13.9880 H   0  0  0  0  0
    8.9183   45.2689   12.5020 H   0  0  0  0  0
   12.4236   47.8445   13.3686 H   0  0  0  0  0
   13.0971   48.5413   11.9208 H   0  0  0  0  0
   12.7788   43.9505    6.0670 H   0  0  0  0  0
   12.3483   46.8290    8.3862 H   0  0  0  0  0
   16.1282   46.9116    5.1200 H   0  0  0  0  0
   15.7583   49.7193    8.5624 H   0  0  0  0  0
   15.8350   52.1422    9.1965 H   0  0  0  0  0
   15.2977   52.4885    7.5123 H   0  0  0  0  0
   17.8214   53.3683    9.9968 H   0  0  0  0  0
   19.1934   55.0333    7.9813 H   0  0  0  0  0
   18.2685   55.6314    9.3806 H   0  0  0  0  0
   19.7825   54.7289    9.6340 H   0  0  0  0  0
   19.7686   52.3169    9.4331 H   0  0  0  0  0
   19.4062   52.6230    7.6791 H   0  0  0  0  0
   18.8913   50.3115    8.2036 H   0  0  0  0  0
   17.8813   50.8170    9.5942 H   0  0  0  0  0
    9.7484   41.5060    8.1545 H   0  0  0  0  0
    7.9241   41.0491    9.4081 H   0  0  0  0  0
  1  2  1  0  0  0
  1  4  1  0  0  0
 16  1  1  0  0  0
  2  3  1  0  0  0
 17  3  1  0  0  0
  4 17  1  0  0  0
  6  5  4  0  0  0
  5 18  4  0  0  0
 19  6  1  0  0  0
  6 32  4  0  0  0
  9  7  4  0  0  0
  7 19  1  0  0  0
 20  7  4  0  0  0
  8 20  4  0  0  0
 21  8  4  0  0  0
 22  9  4  0  0  0
  9 23  1  0  0  0
 23 10  1  0  0  0
 26 11  1  0  0  0
 11 27  1  0  0  0
 11 31  1  0  0  0
 27 12  1  0  0  0
 12 28  1  0  0  0
 14 13  1  0  0  0
 15 14  1  0  0  0
 16 15  1  0  0  0
 15 41  1  0  0  0
 18 16  1  0  0  0
 18 34  4  0  0  0
 21 22  4  0  0  0
 24 21  1  0  0  0
 24 25  2  0  0  0
 24 26  1  0  0  0
 28 29  1  0  0  0
 28 30  1  0  0  0
 30 31  1  0  0  0
 32 33  4  0  0  0
 33 34  4  0  0  0
 34 35  1  0  0  0
 35 36  4  0  0  0
 35 41  4  0  0  0
 36 37  4  0  0  0
 37 38  4  0  0  0
 38 39  1  0  0  0
 38 41  4  0  0  0
 39 40  3  0  0  0
  1 42  1  0  0  0
  2 43  1  0  0  0
  2 44  1  0  0  0
  3 45  1  0  0  0
  3 46  1  0  0  0
  4 47  1  0  0  0
  4 48  1  0  0  0
  8 49  1  0  0  0
 10 50  1  0  0  0
 10 51  1  0  0  0
 10 52  1  0  0  0
 11 53  1  0  0  0
 12 54  1  0  0  0
 12 55  1  0  0  0
 13 56  1  0  0  0
 13 57  1  0  0  0
 13 58  1  0  0  0
 14 59  1  0  0  0
 14 60  1  0  0  0
 15 61  1  0  0  0
 17 62  1  0  0  0
 17 63  1  0  0  0
 19 64  1  0  0  0
 20 65  1  0  0  0
 22 66  1  0  0  0
 26 67  1  0  0  0
 27 68  1  0  0  0
 27 69  1  0  0  0
 28 70  1  0  0  0
 29 71  1  0  0  0
 29 72  1  0  0  0
 29 73  1  0  0  0
 30 74  1  0  0  0
 30 75  1  0  0  0
 31 76  1  0  0  0
 31 77  1  0  0  0
 33 78  1  0  0  0
 36 79  1  0  0  0
M  END
$$$$
