5tku_ligand
  -I-interpret- 

 69 73  0  0  0  0  0  0  0  0999 V2000
   37.7390  -17.0010   28.0280 C   0  0  0  0  0
   39.6760  -20.8890   28.5390 C   0  0  0  0  0
   39.0410  -18.7010   29.3880 C   0  0  0  0  0
   41.1780  -20.8100   28.5630 C   0  0  0  0  0
   39.2030  -21.9010   27.4870 C   0  0  0  0  0
   44.2930  -21.4690   30.1060 C   0  0  0  0  0
   45.4430  -20.6720   30.1450 C   0  0  0  0  0
   46.4730  -20.9460   31.0300 C   0  0  0  0  0
   46.3770  -22.0290   31.9070 C   0  0  0  0  0
   40.6210  -25.2480   29.1180 C   0  0  0  0  0
   39.8620  -23.9270   29.0360 C   0  0  0  0  0
   33.8140  -14.0140   29.5720 Cl  0  0  0  0  0
   36.7560  -13.5100   26.9100 C   0  0  0  0  0
   35.6370  -13.2940   27.7060 C   0  0  0  0  0
   35.2190  -14.2880   28.5680 C   0  0  0  0  0
   35.8880  -15.4950   28.6580 C   0  0  0  0  0
   37.0220  -15.7260   27.8590 C   0  0  0  0  0
   37.4430  -14.7230   26.9680 C   0  0  0  0  0
   38.5320  -14.9480   26.0670 N   0  0  0  0  0
   38.6040  -14.9390   24.7290 C   0  0  0  0  0
   39.8030  -15.2880   24.3510 N   0  0  0  0  0
   40.4960  -15.5140   25.4970 N   0  0  0  0  0
   39.7470  -15.3160   26.5380 N   0  0  0  0  0
   38.2750  -17.4510   29.1690 C   0  0  0  0  0
   39.6730  -18.9130   30.4290 O   0  0  0  0  0
   39.0710  -19.5690   28.3570 N   0  0  0  0  0
   45.2490  -22.8440   31.8630 C   0  0  0  0  0
   44.2110  -22.5800   30.9810 C   0  0  0  0  0
   41.9370  -20.6020   27.4680 N   0  0  0  0  0
   43.2380  -20.7840   27.8330 C   0  0  0  0  0
   43.2220  -21.1050   29.1620 C   0  0  0  0  0
   41.9180  -21.1030   29.6170 N   0  0  0  0  0
   43.0910  -23.4510   30.9510 N   0  0  0  0  0
   39.8400  -23.3100   27.6240 C   0  0  0  0  0
   41.7120  -25.2770   30.1780 C   0  0  0  0  0
   42.8120  -24.2750   29.9180 C   0  0  0  0  0
   47.4020  -22.4360   32.8040 N   0  0  0  0  0
   48.6920  -22.0020   32.8260 C   0  0  0  0  0
   49.3020  -22.4520   33.9390 O   0  0  0  0  0
   49.2290  -21.3180   31.9820 O   0  0  0  0  0
   50.7320  -22.2210   34.0240 C   0  0  0  0  0
   43.3890  -24.2180   28.8370 O   0  0  0  0  0
   37.8423  -17.6339   27.1466 H   0  0  0  0  0
   39.3374  -21.2499   29.5102 H   0  0  0  0  0
   39.4951  -21.5104   26.5122 H   0  0  0  0  0
   38.1276  -22.0211   27.6183 H   0  0  0  0  0
   45.5295  -19.8220   29.4681 H   0  0  0  0  0
   47.3613  -20.3144   31.0420 H   0  0  0  0  0
   41.1059  -25.4002   28.1537 H   0  0  0  0  0
   39.8967  -26.0188   29.3814 H   0  0  0  0  0
   40.3685  -23.2194   29.6924 H   0  0  0  0  0
   38.8288  -24.1272   29.3197 H   0  0  0  0  0
   37.0993  -12.7257   26.2354 H   0  0  0  0  0
   35.0953  -12.3498   27.6501 H   0  0  0  0  0
   35.5376  -16.2646   29.3458 H   0  0  0  0  0
   37.7851  -14.6795   24.0581 H   0  0  0  0  0
   38.1302  -16.8200   30.0459 H   0  0  0  0  0
   38.6740  -19.3071   27.4547 H   0  0  0  0  0
   45.1804  -23.7022   32.5314 H   0  0  0  0  0
   44.1156  -20.6920   27.1931 H   0  0  0  0  0
   42.4620  -23.4549   31.7540 H   0  0  0  0  0
   40.8835  -23.1970   27.3300 H   0  0  0  0  0
   39.2282  -23.9759   27.0155 H   0  0  0  0  0
   42.1586  -26.2712   30.1685 H   0  0  0  0  0
   41.2532  -25.0266   31.1345 H   0  0  0  0  0
   47.1428  -23.1280   33.5071 H   0  0  0  0  0
   51.2286  -22.7136   33.1881 H   0  0  0  0  0
   50.9286  -21.1496   33.9849 H   0  0  0  0  0
   51.1091  -22.6269   34.9627 H   0  0  0  0  0
  1 17  1  0  0  0
 24  1  2  0  0  0
  4  2  1  0  0  0
  2  5  1  0  0  0
  2 26  1  0  0  0
  3 24  1  0  0  0
  3 25  2  0  0  0
 26  3  1  0  0  0
 29  4  4  0  0  0
  4 32  4  0  0  0
  5 34  1  0  0  0
  6  7  4  0  0  0
  6 28  4  0  0  0
 31  6  1  0  0  0
  7  8  4  0  0  0
  8  9  4  0  0  0
 27  9  4  0  0  0
  9 37  1  0  0  0
 11 10  1  0  0  0
 10 35  1  0  0  0
 34 11  1  0  0  0
 15 12  1  0  0  0
 13 14  4  0  0  0
 18 13  4  0  0  0
 15 14  4  0  0  0
 16 15  4  0  0  0
 17 16  4  0  0  0
 17 18  4  0  0  0
 18 19  1  0  0  0
 19 20  4  0  0  0
 19 23  4  0  0  0
 20 21  4  0  0  0
 22 21  4  0  0  0
 23 22  4  0  0  0
 28 27  4  0  0  0
 28 33  1  0  0  0
 30 29  4  0  0  0
 30 31  4  0  0  0
 31 32  4  0  0  0
 33 36  1  0  0  0
 35 36  1  0  0  0
 36 42  2  0  0  0
 37 38  1  0  0  0
 38 39  1  0  0  0
 38 40  2  0  0  0
 39 41  1  0  0  0
  1 43  1  0  0  0
  2 44  1  0  0  0
  5 45  1  0  0  0
  5 46  1  0  0  0
  7 47  1  0  0  0
  8 48  1  0  0  0
 10 49  1  0  0  0
 10 50  1  0  0  0
 11 51  1  0  0  0
 11 52  1  0  0  0
 13 53  1  0  0  0
 14 54  1  0  0  0
 16 55  1  0  0  0
 20 56  1  0  0  0
 24 57  1  0  0  0
 26 58  1  0  0  0
 27 59  1  0  0  0
 30 60  1  0  0  0
 33 61  1  0  0  0
 34 62  1  0  0  0
 34 63  1  0  0  0
 35 64  1  0  0  0
 35 65  1  0  0  0
 37 66  1  0  0  0
 41 67  1  0  0  0
 41 68  1  0  0  0
 41 69  1  0  0  0
M  END
$$$$
