5fdi_ligand
  -I-interpret- 

 27 28  0  0  0  0  0  0  0  0999 V2000
   -6.8680    1.0870   16.3020 O   0  0  0  0  0
   -4.8070    1.2910   17.6170 O   0  0  0  0  0
   -5.5850    3.1000   14.6960 C   0  0  0  0  0
   -4.7050    4.1260   14.0460 C   0  0  0  0  0
   -5.2900    5.2360   13.2330 C   0  0  0  0  0
   -6.6400    5.5330   12.9340 C   0  0  0  0  0
   -6.9600    6.6500   12.1270 C   0  0  0  0  0
   -5.9550    7.4810   11.6070 C   0  0  0  0  0
   -4.5860    7.2160   11.8880 C   0  0  0  0  0
   -4.2910    6.0930   12.6990 C   0  0  0  0  0
   -3.3870    4.1620   14.1120 C   0  0  0  0  0
   -5.4380    0.9130   16.3830 S   0  0  0  0  0
   -5.0650   -0.5830   16.0760 N   0  0  0  0  0
   -4.8180    1.8680   15.1660 N   0  0  0  0  0
   -2.7130    5.5070   13.2160 S   0  0  0  0  0
   -2.1140    6.4700   14.1100 O   0  0  0  0  0
   -1.9430    5.0390   12.0810 O   0  0  0  0  0
   -6.3163    2.7736   13.9566 H   0  0  0  0  0
   -6.0413    3.5611   15.5720 H   0  0  0  0  0
   -7.4358    4.8998   13.3263 H   0  0  0  0  0
   -8.0045    6.8691   11.9052 H   0  0  0  0  0
   -6.2253    8.3340   10.9845 H   0  0  0  0  0
   -3.7941    7.8530   11.4941 H   0  0  0  0  0
   -2.7867    3.4370   14.6617 H   0  0  0  0  0
   -5.7991   -1.2579   15.8615 H   0  0  0  0  0
   -4.0889   -0.8787   16.0913 H   0  0  0  0  0
   -3.9250    1.6285   14.7351 H   0  0  0  0  0
 12  1  2  0  0  0
 12  2  2  0  0  0
  3  4  1  0  0  0
 14  3  1  0  0  0
  4  5  1  0  0  0
  4 11  2  0  0  0
  5  6  4  0  0  0
  5 10  4  0  0  0
  6  7  4  0  0  0
  7  8  4  0  0  0
  9  8  4  0  0  0
 10  9  4  0  0  0
 15 10  1  0  0  0
 11 15  1  0  0  0
 12 13  1  0  0  0
 12 14  1  0  0  0
 15 16  2  0  0  0
 15 17  2  0  0  0
  3 18  1  0  0  0
  3 19  1  0  0  0
  6 20  1  0  0  0
  7 21  1  0  0  0
  8 22  1  0  0  0
  9 23  1  0  0  0
 11 24  1  0  0  0
 13 25  1  0  0  0
 13 26  1  0  0  0
 14 27  1  0  0  0
M  END
$$$$
