3alt_ligand
  -I-interpret- 

 45 46  0  0  0  0  0  0  0  0999 V2000
   18.2520  -38.2240   32.3440 C   0  0  0  0  0
   18.5330  -38.2650   33.7780 O   0  0  0  0  0
   19.3930  -37.8210   31.4490 C   0  0  0  0  0
   20.4610  -38.6760   31.8150 O   0  0  0  0  0
   19.6680  -36.3320   31.6280 C   0  0  0  0  0
   20.5320  -35.9570   30.5540 O   0  0  0  0  0
   18.3620  -35.5240   31.5500 C   0  0  0  0  0
   17.8300  -35.6280   30.2250 O   0  0  0  0  0
   17.3150  -36.0530   32.5310 C   0  0  0  0  0
   17.0980  -37.3860   32.1620 O   0  0  0  0  0
   15.9670  -35.3300   32.5510 C   0  0  0  0  0
   15.3290  -35.2650   31.2730 O   0  0  0  0  0
   18.4560  -40.4230   37.0610 C   0  0  0  0  0
   17.2700  -41.2480   37.0950 O   0  0  0  0  0
   19.0090  -40.0180   38.4190 C   0  0  0  0  0
   18.0340  -40.2000   39.4400 O   0  0  0  0  0
   19.4890  -38.5680   38.4030 C   0  0  0  0  0
   20.3040  -38.3510   39.5370 O   0  0  0  0  0
   20.3000  -38.2490   37.1410 C   0  0  0  0  0
   20.8210  -36.9130   37.1900 O   0  0  0  0  0
   19.2890  -38.3310   36.0180 C   0  0  0  0  0
   18.1800  -39.1970   36.4070 O   0  0  0  0  0
   19.7510  -38.5510   34.5400 C   0  0  0  0  0
   18.0681  -39.2485   32.0205 H   0  0  0  0  0
   19.1992  -37.9365   30.3826 H   0  0  0  0  0
   20.2022  -39.5891   31.6708 H   0  0  0  0  0
   20.1173  -36.1326   32.6009 H   0  0  0  0  0
   21.3454  -36.4640   30.6072 H   0  0  0  0  0
   18.5889  -34.4890   31.8058 H   0  0  0  0  0
   18.4759  -35.2994   29.5953 H   0  0  0  0  0
   17.7108  -35.9026   33.5354 H   0  0  0  0  0
   16.1519  -34.3058   32.8748 H   0  0  0  0  0
   15.3080  -35.8886   33.2156 H   0  0  0  0  0
   14.4928  -34.8010   31.3573 H   0  0  0  0  0
   19.1866  -41.0514   36.5516 H   0  0  0  0  0
   16.9971  -41.4512   36.1973 H   0  0  0  0  0
   19.8612  -40.6624   38.6348 H   0  0  0  0  0
   18.4053  -39.9384   40.2858 H   0  0  0  0  0
   18.6140  -37.9181   38.4140 H   0  0  0  0  0
   20.6126  -37.4419   39.5387 H   0  0  0  0  0
   21.1453  -38.9272   37.0245 H   0  0  0  0  0
   21.3236  -36.7372   36.3912 H   0  0  0  0  0
   18.9772  -37.2911   35.9207 H   0  0  0  0  0
   20.5898  -37.9151   34.2568 H   0  0  0  0  0
   20.1405  -39.5530   34.3602 H   0  0  0  0  0
  2  1  1  0  0  0
  1  3  1  0  0  0
  1 10  1  0  0  0
 23  2  1  0  0  0
  3  4  1  0  0  0
  3  5  1  0  0  0
  5  6  1  0  0  0
  5  7  1  0  0  0
  7  8  1  0  0  0
  9  7  1  0  0  0
 10  9  1  0  0  0
  9 11  1  0  0  0
 11 12  1  0  0  0
 13 14  1  0  0  0
 13 15  1  0  0  0
 22 13  1  0  0  0
 15 16  1  0  0  0
 17 15  1  0  0  0
 17 18  1  0  0  0
 19 17  1  0  0  0
 19 20  1  0  0  0
 21 19  1  0  0  0
 21 22  1  0  0  0
 21 23  1  0  0  0
  1 24  1  0  0  0
  3 25  1  0  0  0
  4 26  1  0  0  0
  5 27  1  0  0  0
  6 28  1  0  0  0
  7 29  1  0  0  0
  8 30  1  0  0  0
  9 31  1  0  0  0
 11 32  1  0  0  0
 11 33  1  0  0  0
 12 34  1  0  0  0
 13 35  1  0  0  0
 14 36  1  0  0  0
 15 37  1  0  0  0
 16 38  1  0  0  0
 17 39  1  0  0  0
 18 40  1  0  0  0
 19 41  1  0  0  0
 20 42  1  0  0  0
 21 43  1  0  0  0
 23 44  1  0  0  0
 23 45  1  0  0  0
M  END
$$$$
