3iw5_ligand
  -I-interpret- 

 63 67  0  0  0  0  0  0  0  0999 V2000
   20.8150    1.4000  -26.2370 O   0  0  0  0  0
   22.1330    1.0210  -21.4740 O   0  0  0  0  0
   23.4750   -5.4220  -19.2310 F   0  0  0  0  0
   21.5500   -4.9010  -19.5740 F   0  0  0  0  0
   22.5890   -5.7520  -21.1930 F   0  0  0  0  0
   24.8490   -2.2670  -21.7950 C   0  0  0  0  0
   17.6210    3.6120  -23.5460 C   0  0  0  0  0
   17.5310    3.9380  -22.2000 C   0  0  0  0  0
   24.1230   -1.1000  -21.5750 C   0  0  0  0  0
   24.3720   -3.4870  -21.3180 C   0  0  0  0  0
   21.5510    3.5770  -25.6190 C   0  0  0  0  0
   21.5060    4.9330  -25.9020 C   0  0  0  0  0
   18.0820    2.3610  -23.9220 C   0  0  0  0  0
   17.9150    2.9920  -21.2390 C   0  0  0  0  0
   21.2130    3.9740  -23.2920 C   0  0  0  0  0
   22.4190   -2.4090  -20.4160 C   0  0  0  0  0
   19.1620   -0.3030  -21.7960 C   0  0  0  0  0
   20.3610    1.1070  -19.1520 C   0  0  0  0  0
   21.2560    7.9500  -24.0630 C   0  0  0  0  0
   20.3210    7.3190  -23.0580 C   0  0  0  0  0
   18.9620    0.5460  -19.5180 C   0  0  0  0  0
   21.0290   -0.4230  -24.7800 C   0  0  0  0  0
   21.2900    0.0500  -19.5530 N   0  0  0  0  0
   21.4440    1.8210  -24.1220 N   0  0  0  0  0
   21.2750    7.1180  -25.2140 O   0  0  0  0  0
   20.9860    6.1600  -22.5520 O   0  0  0  0  0
   19.3000   -0.8610  -24.4400 S   0  0  0  0  0
   21.0910    1.0320  -25.1120 C   0  0  0  0  0
   22.0860    0.0990  -20.6560 C   0  0  0  0  0
   21.4440    3.0980  -24.3310 C   0  0  0  0  0
   22.9180   -1.1670  -20.8750 C   0  0  0  0  0
   23.1600   -3.5620  -20.6320 C   0  0  0  0  0
   21.3170    5.8090  -24.8760 C   0  0  0  0  0
   21.1650    5.3240  -23.5800 C   0  0  0  0  0
   18.9550    0.1300  -23.0230 C   0  0  0  0  0
   18.4680    1.4270  -22.9730 C   0  0  0  0  0
   18.3940    1.7400  -21.6330 C   0  0  0  0  0
   18.8290    0.6700  -20.9730 N   0  0  0  0  0
   22.6930   -4.9350  -20.1490 C   0  0  0  0  0
   25.7916   -2.2269  -22.3409 H   0  0  0  0  0
   17.3298    4.3381  -24.3050 H   0  0  0  0  0
   17.1660    4.9182  -21.8935 H   0  0  0  0  0
   24.4920   -0.1437  -21.9457 H   0  0  0  0  0
   24.9537   -4.3939  -21.4833 H   0  0  0  0  0
   21.6746    2.8690  -26.4385 H   0  0  0  0  0
   21.6196    5.2914  -26.9251 H   0  0  0  0  0
   18.1422    2.1071  -24.9803 H   0  0  0  0  0
   17.8394    3.2346  -20.1790 H   0  0  0  0  0
   21.0724    3.6121  -22.2735 H   0  0  0  0  0
   21.4615   -2.4595  -19.8976 H   0  0  0  0  0
   19.5395   -1.2858  -21.5138 H   0  0  0  0  0
   20.4432    1.3453  -18.0915 H   0  0  0  0  0
   20.5699    2.0503  -19.6565 H   0  0  0  0  0
   22.2581    8.0422  -23.6441 H   0  0  0  0  0
   20.9139    8.9516  -24.3237 H   0  0  0  0  0
   19.3727    7.0510  -23.5238 H   0  0  0  0  0
   20.0874    8.0159  -22.2531 H   0  0  0  0  0
   18.1745    1.0993  -19.0064 H   0  0  0  0  0
   18.8653   -0.4937  -19.2053 H   0  0  0  0  0
   21.4053   -1.0124  -25.6161 H   0  0  0  0  0
   21.6454   -0.6324  -23.9057 H   0  0  0  0  0
   21.3449   -0.7816  -18.9649 H   0  0  0  0  0
   21.7103    1.4378  -23.2150 H   0  0  0  0  0
 28  1  2  0  0  0
 29  2  2  0  0  0
 39  3  1  0  0  0
 39  4  1  0  0  0
 39  5  1  0  0  0
  9  6  4  0  0  0
  6 10  4  0  0  0
  7  8  4  0  0  0
 13  7  4  0  0  0
  8 14  4  0  0  0
 31  9  4  0  0  0
 32 10  4  0  0  0
 11 12  4  0  0  0
 30 11  4  0  0  0
 12 33  4  0  0  0
 36 13  4  0  0  0
 14 37  4  0  0  0
 30 15  4  0  0  0
 15 34  4  0  0  0
 31 16  4  0  0  0
 16 32  4  0  0  0
 35 17  4  0  0  0
 17 38  4  0  0  0
 21 18  1  0  0  0
 18 23  1  0  0  0
 20 19  1  0  0  0
 25 19  1  0  0  0
 26 20  1  0  0  0
 38 21  1  0  0  0
 27 22  1  0  0  0
 22 28  1  0  0  0
 23 29  1  0  0  0
 28 24  1  0  0  0
 24 30  1  0  0  0
 33 25  1  0  0  0
 34 26  1  0  0  0
 35 27  1  0  0  0
 29 31  1  0  0  0
 32 39  1  0  0  0
 34 33  4  0  0  0
 35 36  4  0  0  0
 36 37  4  0  0  0
 37 38  4  0  0  0
  6 40  1  0  0  0
  7 41  1  0  0  0
  8 42  1  0  0  0
  9 43  1  0  0  0
 10 44  1  0  0  0
 11 45  1  0  0  0
 12 46  1  0  0  0
 13 47  1  0  0  0
 14 48  1  0  0  0
 15 49  1  0  0  0
 16 50  1  0  0  0
 17 51  1  0  0  0
 18 52  1  0  0  0
 18 53  1  0  0  0
 19 54  1  0  0  0
 19 55  1  0  0  0
 20 56  1  0  0  0
 20 57  1  0  0  0
 21 58  1  0  0  0
 21 59  1  0  0  0
 22 60  1  0  0  0
 22 61  1  0  0  0
 23 62  1  0  0  0
 24 63  1  0  0  0
M  END
$$$$
