2r4f_ligand
  -I-interpret- 

 74 76  0  0  0  0  0  0  0  0999 V2000
   77.2520    8.4100   -5.4310 N   0  0  0  0  0
   78.4760    8.0650   -5.0140 C   0  0  0  0  0
   79.2990    9.2900   -5.2960 C   0  0  0  0  0
   80.7470    9.5420   -5.0530 C   0  0  0  0  0
   78.9000    6.7480   -4.3960 C   0  0  0  0  0
   78.9040    6.9250   -2.8790 C   0  0  0  0  0
   78.5790    5.7710   -0.6750 C   0  0  0  0  0
   80.9610    9.9660   -3.6050 C   0  0  0  0  0
   74.6670    5.9850   -6.4020 C   0  0  0  0  0
   80.8230   12.7310   -9.0530 C   0  0  0  0  0
   82.0780   13.0370   -9.5800 C   0  0  0  0  0
   75.2880    7.6550   -4.2930 C   0  0  0  0  0
   74.1390    6.8690   -4.2320 C   0  0  0  0  0
   80.5270   15.0500   -8.4400 C   0  0  0  0  0
   79.1490   12.3740   -5.4810 O   0  0  0  0  0
   78.6650   11.6430   -6.3330 C   0  0  0  0  0
   78.3910   12.0680   -7.5770 N   0  0  0  0  0
   78.6950   13.4720   -7.9060 C   0  0  0  0  0
   77.6180   14.0590   -8.8260 C   0  0  0  0  0
   80.0430   13.7380   -8.4800 C   0  0  0  0  0
   81.7790   15.3590   -8.9680 C   0  0  0  0  0
   82.5530   14.3480   -9.5370 C   0  0  0  0  0
   77.7850   11.2370   -8.6200 C   0  0  0  0  0
   78.3300   10.2530   -5.9080 C   0  0  0  0  0
   81.6150    8.3370   -5.4120 C   0  0  0  0  0
   76.1650    7.6350   -5.3830 C   0  0  0  0  0
   75.8100    6.7820   -6.4350 C   0  0  0  0  0
   73.8270    6.0300   -5.2970 C   0  0  0  0  0
   72.7240    5.2660   -5.2570 F   0  0  0  0  0
   77.1070    9.6900   -5.9560 N   0  0  0  0  0
   79.0210    5.6010   -2.1290 C   0  0  0  0  0
   80.3890    5.1760   -2.1370 O   0  0  0  0  0
   77.0630    5.8210   -0.4980 C   0  0  0  0  0
   76.4760    4.5520   -0.8200 O   0  0  0  0  0
   76.7500    6.1750    0.9520 C   0  0  0  0  0
   75.2880    6.5290    1.1060 C   0  0  0  0  0
   74.8970    7.6570    0.7310 O   0  0  0  0  0
   74.5220    5.6800    1.6130 O   0  0  0  0  0
   81.0610   10.3521   -5.7111 H   0  0  0  0  0
   79.8929    6.4671   -4.7471 H   0  0  0  0  0
   78.2092    5.9552   -4.6830 H   0  0  0  0  0
   77.9587    7.3872   -2.5945 H   0  0  0  0  0
   79.7685    7.5347   -2.6165 H   0  0  0  0  0
   78.9807    6.7202   -0.3204 H   0  0  0  0  0
   78.9443    4.9073   -0.1195 H   0  0  0  0  0
   80.6998    9.1400   -2.9435 H   0  0  0  0  0
   82.0070   10.2347   -3.4572 H   0  0  0  0  0
   80.3288   10.8255   -3.3822 H   0  0  0  0  0
   74.4333    5.3288   -7.2404 H   0  0  0  0  0
   80.4515   11.7069   -9.0884 H   0  0  0  0  0
   82.6879   12.2512  -10.0257 H   0  0  0  0  0
   75.5134    8.3143   -3.4548 H   0  0  0  0  0
   73.4901    6.9112   -3.3572 H   0  0  0  0  0
   79.9199   15.8368   -7.9922 H   0  0  0  0  0
   78.6994   13.9697   -6.9363 H   0  0  0  0  0
   77.5765   13.4814   -9.7494 H   0  0  0  0  0
   76.6509   14.0156   -8.3250 H   0  0  0  0  0
   77.8636   15.0959   -9.0553 H   0  0  0  0  0
   82.1506   16.3832   -8.9365 H   0  0  0  0  0
   83.5338   14.5833   -9.9501 H   0  0  0  0  0
   78.4268   10.3784   -8.8173 H   0  0  0  0  0
   76.8069   10.8917   -8.2851 H   0  0  0  0  0
   77.6719   11.8247   -9.5310 H   0  0  0  0  0
   82.6655    8.5944   -5.2768 H   0  0  0  0  0
   81.3583    7.4997   -4.7631 H   0  0  0  0  0
   81.4383    8.0603   -6.4514 H   0  0  0  0  0
   76.4527    6.7395   -7.3143 H   0  0  0  0  0
   78.3845    4.8643   -2.6192 H   0  0  0  0  0
   80.6829    5.0643   -3.0441 H   0  0  0  0  0
   76.6475    6.5733   -1.1684 H   0  0  0  0  0
   75.5244    4.6020   -0.7033 H   0  0  0  0  0
   77.3552    7.0325    1.2461 H   0  0  0  0  0
   76.9749    5.3153    1.5832 H   0  0  0  0  0
   75.6396    8.1494    0.3737 H   0  0  0  0  0
  2  1  4  0  0  0
  1 26  1  0  0  0
  1 30  4  0  0  0
  3  2  4  0  0  0
  2  5  1  0  0  0
  3  4  1  0  0  0
 24  3  4  0  0  0
  4  8  1  0  0  0
  4 25  1  0  0  0
  5  6  1  0  0  0
  6 31  1  0  0  0
 31  7  1  0  0  0
  7 33  1  0  0  0
  9 27  4  0  0  0
 28  9  4  0  0  0
 10 11  4  0  0  0
 20 10  4  0  0  0
 11 22  4  0  0  0
 12 13  4  0  0  0
 26 12  4  0  0  0
 13 28  4  0  0  0
 20 14  4  0  0  0
 14 21  4  0  0  0
 16 15  2  0  0  0
 17 16  1  0  0  0
 16 24  1  0  0  0
 18 17  1  0  0  0
 17 23  1  0  0  0
 18 19  1  0  0  0
 18 20  1  0  0  0
 21 22  4  0  0  0
 24 30  4  0  0  0
 26 27  4  0  0  0
 28 29  1  0  0  0
 31 32  1  0  0  0
 33 34  1  0  0  0
 33 35  1  0  0  0
 35 36  1  0  0  0
 36 37  1  0  0  0
 36 38  2  0  0  0
  4 39  1  0  0  0
  5 40  1  0  0  0
  5 41  1  0  0  0
  6 42  1  0  0  0
  6 43  1  0  0  0
  7 44  1  0  0  0
  7 45  1  0  0  0
  8 46  1  0  0  0
  8 47  1  0  0  0
  8 48  1  0  0  0
  9 49  1  0  0  0
 10 50  1  0  0  0
 11 51  1  0  0  0
 12 52  1  0  0  0
 13 53  1  0  0  0
 14 54  1  0  0  0
 18 55  1  0  0  0
 19 56  1  0  0  0
 19 57  1  0  0  0
 19 58  1  0  0  0
 21 59  1  0  0  0
 22 60  1  0  0  0
 23 61  1  0  0  0
 23 62  1  0  0  0
 23 63  1  0  0  0
 25 64  1  0  0  0
 25 65  1  0  0  0
 25 66  1  0  0  0
 27 67  1  0  0  0
 31 68  1  0  0  0
 32 69  1  0  0  0
 33 70  1  0  0  0
 34 71  1  0  0  0
 35 72  1  0  0  0
 35 73  1  0  0  0
 37 74  1  0  0  0
M  END
$$$$
