5hx8_ligand
  -I-interpret- 

 45 48  0  0  0  0  0  0  0  0999 V2000
    5.8710   57.8390    0.5870 C   0  0  0  0  0
    4.6340   58.0020    1.2590 C   0  0  0  0  0
    8.4970   57.7730   -0.9650 N   0  0  0  0  0
    5.9620   55.3520    1.1100 C   0  0  0  0  0
    7.9730   55.0640    2.6150 C   0  0  0  0  0
    7.9350   53.9570    0.3330 C   0  0  0  0  0
    6.4100   54.1520    0.2850 C   0  0  0  0  0
    7.8260   58.8970   -0.7750 C   0  0  0  0  0
    9.5440   59.5100   -2.0120 C   0  0  0  0  0
    9.5900   58.1420   -1.7540 C   0  0  0  0  0
   11.6400   58.0120   -2.9930 C   0  0  0  0  0
    6.3580   61.3430   -0.3110 O   0  0  0  0  0
    5.8920   60.2910    0.1160 C   0  0  0  0  0
    6.5180   58.9880    0.0010 C   0  0  0  0  0
    6.4500   56.5940    0.5110 N   0  0  0  0  0
    8.4170   53.8610    1.7800 C   0  0  0  0  0
    9.9060   53.7380    1.8120 N   0  3  0  0  0
    6.4540   55.2310    2.5480 C   0  0  0  0  0
    4.0700   59.2240    1.3380 C   0  0  0  0  0
    4.6700   60.3150    0.7960 N   0  0  0  0  0
   10.6410   57.3730   -2.2570 C   0  0  0  0  0
   11.5870   59.3890   -3.2350 C   0  0  0  0  0
   10.5290   60.1560   -2.7560 C   0  0  0  0  0
    8.4100   59.9700   -1.3740 N   0  0  0  0  0
    4.1399   57.1418    1.7107 H   0  0  0  0  0
    4.8722   55.3725    1.1190 H   0  0  0  0  0
    8.4460   55.9632    2.2202 H   0  0  0  0  0
    8.2662   54.9027    3.6524 H   0  0  0  0  0
    8.4163   54.8103   -0.1447 H   0  0  0  0  0
    8.1905   53.0339   -0.1874 H   0  0  0  0  0
    6.1208   54.3240   -0.7518 H   0  0  0  0  0
    5.9391   53.2597    0.6975 H   0  0  0  0  0
   12.4738   57.4296   -3.3851 H   0  0  0  0  0
    6.9584   58.1189    0.4897 H   0  0  0  0  0
    7.3168   56.5294   -0.0228 H   0  0  0  0  0
    7.9641   52.9726    2.2201 H   0  0  0  0  0
   10.2200   53.6745    2.7804 H   0  0  0  0  0
   10.1875   52.8982    1.3062 H   0  0  0  0  0
   10.3232   54.5577    1.3711 H   0  0  0  0  0
    5.9920   54.3512    2.9958 H   0  0  0  0  0
    6.1853   56.1433    3.0805 H   0  0  0  0  0
    3.1131   59.3386    1.8472 H   0  0  0  0  0
   10.6805   56.2984   -2.0790 H   0  0  0  0  0
   12.3836   59.8667   -3.8054 H   0  0  0  0  0
   10.4729   61.2260   -2.9562 H   0  0  0  0  0
  1  2  2  0  0  0
 14  1  1  0  0  0
  1 15  1  0  0  0
  2 19  1  0  0  0
  8  3  4  0  0  0
  3 10  4  0  0  0
  4  7  1  0  0  0
 15  4  1  0  0  0
  4 18  1  0  0  0
  5 16  1  0  0  0
 18  5  1  0  0  0
  7  6  1  0  0  0
  6 16  1  0  0  0
 14  8  1  0  0  0
  8 24  4  0  0  0
  9 10  4  0  0  0
  9 23  4  0  0  0
 24  9  4  0  0  0
 10 21  4  0  0  0
 21 11  4  0  0  0
 11 22  4  0  0  0
 13 12  2  0  0  0
 13 14  1  0  0  0
 13 20  1  0  0  0
 16 17  1  0  0  0
 19 20  2  0  0  0
 22 23  4  0  0  0
  2 25  1  0  0  0
  4 26  1  0  0  0
  5 27  1  0  0  0
  5 28  1  0  0  0
  6 29  1  0  0  0
  6 30  1  0  0  0
  7 31  1  0  0  0
  7 32  1  0  0  0
 11 33  1  0  0  0
 14 34  1  0  0  0
 15 35  1  0  0  0
 16 36  1  0  0  0
 17 37  1  0  0  0
 17 38  1  0  0  0
 17 39  1  0  0  0
 18 40  1  0  0  0
 18 41  1  0  0  0
 19 42  1  0  0  0
 21 43  1  0  0  0
 22 44  1  0  0  0
 23 45  1  0  0  0
M  END
$$$$
