4oef_ligand
  -I-interpret- 

 60 61  0  0  0  0  0  0  0  0999 V2000
   13.9380  -19.3750   21.5260 C   0  0  0  0  0
   14.5710  -19.5830   20.1490 C   0  0  0  0  0
   14.5170  -21.0570   19.7590 C   0  0  0  0  0
   15.1650  -21.8860   20.8560 C   0  0  0  0  0
   14.4740  -21.5800   22.1780 C   0  0  0  0  0
   15.1430  -22.3660   23.2950 C   0  0  0  0  0
   13.8950  -18.7620   19.1540 N   0  0  0  0  0
   15.2020  -21.2330   18.5420 O   0  0  0  0  0
   15.0750  -23.2710   20.5550 O   0  0  0  0  0
   14.5820  -20.2020   22.4830 O   0  0  0  0  0
   16.4880  -21.9460   23.2900 O   0  0  0  0  0
   14.3950  -17.2510   18.9520 S   0  0  0  0  0
   13.6500  -16.6860   17.8600 O   0  0  0  0  0
   15.8210  -17.3520   18.6600 O   0  0  0  0  0
   14.1520  -16.5450   20.1980 O   0  0  0  0  0
   17.4490  -22.4740   24.3870 S   0  0  0  0  0
   18.6700  -21.6840   24.3180 O   0  0  0  0  0
   17.7180  -23.8510   23.9850 O   0  0  0  0  0
   16.7370  -22.3130   25.6540 O   0  0  0  0  0
   10.2310  -18.4640   17.7990 S   0  0  0  0  0
    9.1460  -19.4360   20.7900 C   0  0  0  0  0
    7.8540  -18.9200   21.1700 O   0  0  0  0  0
   10.1030  -18.3280   20.3270 C   0  0  0  0  0
   10.7750  -18.8440   19.1890 O   0  0  0  0  0
   11.1250  -17.8630   21.3550 C   0  0  0  0  0
   10.4470  -16.9500   22.2210 O   0  0  0  0  0
   11.7290  -19.0080   22.1720 C   0  0  0  0  0
   12.5850  -19.8200   21.3440 O   0  0  0  0  0
   10.5810  -19.8130   22.7450 C   0  0  0  0  0
    9.7720  -20.3540   21.6990 O   0  0  0  0  0
   11.0610  -20.9860   23.5430 C   0  0  0  0  0
    7.4550  -18.8520   22.5380 C   0  0  0  0  0
   11.8500  -20.7870   24.4730 O   0  0  0  0  0
   10.6220  -22.1100   23.2260 O   0  0  0  0  0
   11.0640  -19.1490   16.7980 O   0  0  0  0  0
   10.3170  -17.0000   17.6810 O   0  0  0  0  0
    8.8230  -18.9090   17.6740 O   0  0  0  0  0
   14.0128  -18.3463   21.8787 H   0  0  0  0  0
   15.6165  -19.2780   20.1933 H   0  0  0  0  0
   13.4830  -21.3794   19.6361 H   0  0  0  0  0
   16.2219  -21.6296   20.9293 H   0  0  0  0  0
   13.4235  -21.8570   22.0894 H   0  0  0  0  0
   15.0574  -23.4410   23.1365 H   0  0  0  0  0
   14.6676  -22.1792   24.2579 H   0  0  0  0  0
   13.1247  -19.1374   18.6007 H   0  0  0  0  0
   14.7816  -20.7040   17.8601 H   0  0  0  0  0
   15.5152  -23.4451   19.7198 H   0  0  0  0  0
   16.2749  -17.7332   19.4151 H   0  0  0  0  0
   15.9437  -22.8536   25.6449 H   0  0  0  0  0
    8.9110  -20.0686   19.9341 H   0  0  0  0  0
    9.5071  -17.4374   20.1275 H   0  0  0  0  0
   11.9642  -17.3996   20.8363 H   0  0  0  0  0
   11.0582  -16.6302   22.8887 H   0  0  0  0  0
   12.3488  -18.6232   22.9818 H   0  0  0  0  0
   10.0209  -19.1236   23.3767 H   0  0  0  0  0
    7.4608  -19.8540   22.9671 H   0  0  0  0  0
    8.1500  -18.2164   23.0867 H   0  0  0  0  0
    6.4504  -18.4339   22.6018 H   0  0  0  0  0
   10.0273  -22.0206   22.4777 H   0  0  0  0  0
    8.2866  -18.4579   18.3300 H   0  0  0  0  0
  1  2  1  0  0  0
  1 10  1  0  0  0
 28  1  1  0  0  0
  2  3  1  0  0  0
  2  7  1  0  0  0
  3  4  1  0  0  0
  3  8  1  0  0  0
  5  4  1  0  0  0
  4  9  1  0  0  0
  5  6  1  0  0  0
 10  5  1  0  0  0
  6 11  1  0  0  0
  7 12  1  0  0  0
 11 16  1  0  0  0
 12 13  2  0  0  0
 12 14  1  0  0  0
 12 15  2  0  0  0
 16 17  2  0  0  0
 16 18  2  0  0  0
 16 19  1  0  0  0
 24 20  1  0  0  0
 20 35  2  0  0  0
 20 36  2  0  0  0
 20 37  1  0  0  0
 21 22  1  0  0  0
 23 21  1  0  0  0
 21 30  1  0  0  0
 22 32  1  0  0  0
 23 24  1  0  0  0
 25 23  1  0  0  0
 25 26  1  0  0  0
 27 25  1  0  0  0
 27 28  1  0  0  0
 27 29  1  0  0  0
 29 30  1  0  0  0
 29 31  1  0  0  0
 31 33  2  0  0  0
 31 34  1  0  0  0
  1 38  1  0  0  0
  2 39  1  0  0  0
  3 40  1  0  0  0
  4 41  1  0  0  0
  5 42  1  0  0  0
  6 43  1  0  0  0
  6 44  1  0  0  0
  7 45  1  0  0  0
  8 46  1  0  0  0
  9 47  1  0  0  0
 14 48  1  0  0  0
 19 49  1  0  0  0
 21 50  1  0  0  0
 23 51  1  0  0  0
 25 52  1  0  0  0
 26 53  1  0  0  0
 27 54  1  0  0  0
 29 55  1  0  0  0
 32 56  1  0  0  0
 32 57  1  0  0  0
 32 58  1  0  0  0
 34 59  1  0  0  0
 37 60  1  0  0  0
M  END
$$$$
