### 
### Created by X-TOOL on Mon Sep 10 21:13:34 2018
### 

@<TRIPOS>MOLECULE
5lvf_ligand
  223   229     1     0     0
SMALL
GAST_HUCK


@<TRIPOS>ATOM
      1 N           4.2470   21.1250  -28.8300 N.4       1 PRO         0.2461
      2 CA          3.1270   20.1720  -28.7350 C.3       1 PRO         0.0670
      3 C           2.8660   19.4760  -30.0730 C.2       1 PRO         0.2268
      4 O           3.0980   20.0600  -31.1290 O.2       1 PRO        -0.3907
      5 CB          1.9300   21.0080  -28.3110 C.3       1 PRO         0.0127
      6 CG          2.1140   22.2770  -29.1400 C.3       1 PRO        -0.0053
      7 CD          3.6320   22.3710  -29.3350 C.3       1 PRO        -0.0313
      8 N           2.3840   18.2270  -30.0300 N.am      1 SER        -0.2589
      9 CA          2.1140   17.4490  -31.2360 C.3       1 SER         0.1540
     10 C           1.3390   16.1550  -30.9570 C.2       1 SER         0.2063
     11 O           1.1390   15.3650  -31.8810 O.2       1 SER        -0.3943
     12 CB          3.4360   17.0840  -31.9220 C.3       1 SER         0.0843
     13 OG          4.0540   16.0120  -31.2510 O.3       1 SER        -0.3903
     14 N           0.8980   15.9160  -29.7170 N.am      1 TYR        -0.2621
     15 CA          0.2640   14.6520  -29.3570 C.3       1 TYR         0.1390
     16 C          -1.1550   14.5470  -29.9160 C.2       1 TYR         0.2058
     17 O          -1.8600   15.5480  -30.0380 O.2       1 TYR        -0.3942
     18 CB          0.2850   14.5040  -27.8310 C.3       1 TYR         0.0163
     19 CG         -0.4320   13.2770  -27.3120 C.ar      1 TYR        -0.0493
     20 CD1         0.2520   12.0610  -27.1790 C.ar      1 TYR        -0.0685
     21 CD2        -1.7850   13.3570  -26.9610 C.ar      1 TYR        -0.0685
     22 CE1        -0.4160   10.9210  -26.7110 C.ar      1 TYR        -0.0398
     23 CE2        -2.4550   12.2280  -26.4760 C.ar      1 TYR        -0.0398
     24 CZ         -1.7770   11.0000  -26.3620 C.ar      1 TYR         0.0805
     25 OH         -2.4380    9.8970  -25.9180 O.3       1 TYR        -0.3376
     26 N          -1.5660   13.3200  -30.2560 N.am      1 SER        -0.2614
     27 CA         -2.9010   13.0280  -30.7590 C.3       1 SER         0.1541
     28 C          -3.7540   12.4210  -29.6490 C.2       1 SER         0.2087
     29 O          -3.3450   11.4350  -29.0440 O.2       1 SER        -0.3941
     30 CB         -2.7950   12.0540  -31.9320 C.3       1 SER         0.0843
     31 OG         -4.0060   11.3570  -32.1310 O.3       1 SER        -0.3903
     32 N          -4.9350   12.9880  -29.3670 N.am      1 PRO        -0.2498
     33 CA         -5.8760   12.4800  -28.3770 C.3       1 PRO         0.1338
     34 C          -6.5510   11.1950  -28.8680 C.2       1 PRO         0.2042
     35 O          -7.5460   10.7570  -28.2930 O.2       1 PRO        -0.3944
     36 CB         -6.8940   13.6010  -28.1840 C.3       1 PRO        -0.0104
     37 CG         -6.9260   14.2700  -29.5530 C.3       1 PRO        -0.0281
     38 CD         -5.4680   14.1830  -29.9990 C.3       1 PRO         0.0369
     39 N          -6.0060   10.5950  -29.9330 N.am      1 TPO        -0.2611
     40 CA         -6.5670    9.4220  -30.5870 C.3       1 TPO         0.1612
     41 CB         -6.9200    9.7770  -32.0360 C.3       1 TPO         0.1262
     42 CG2        -7.5600    8.6070  -32.7830 C.3       1 TPO        -0.0298
     43 OG1        -7.7830   10.8940  -32.0080 O.3       1 TPO        -0.2685
     44 P          -7.6720   12.0500  -33.1190 P.3       1 TPO         0.2014
     45 O1P        -8.1670   11.3830  -34.3400 O.co2     1 TPO        -0.5537
     46 O2P        -8.5670   13.0990  -32.5850 O.co2     1 TPO        -0.5537
     47 O3P        -6.2320   12.4000  -33.1210 O.co2     1 TPO        -0.5537
     48 C          -5.5720    8.2780  -30.5070 C.2       1 TPO         0.2069
     49 O          -5.9000    7.2230  -29.9740 O.2       1 TPO        -0.3943
     50 N          -4.3610    8.5000  -31.0370 N.am      1 SER        -0.2615
     51 CA         -3.2840    7.5190  -31.0920 C.3       1 SER         0.1541
     52 C          -3.6490    6.2610  -31.8910 C.2       1 SER         0.2087
     53 O          -4.7800    5.7860  -31.8350 O.2       1 SER        -0.3941
     54 CB         -2.8310    7.1730  -29.6690 C.3       1 SER         0.0843
     55 OG         -1.8130    6.1950  -29.7020 O.3       1 SER        -0.3903
     56 N          -2.6940    5.7020  -32.6490 N.am      1 PRO        -0.2498
     57 CA         -2.8970    4.4660  -33.3910 C.3       1 PRO         0.1338
     58 C          -2.8750    3.2360  -32.4810 C.2       1 PRO         0.2042
     59 O          -3.2010    2.1400  -32.9380 O.2       1 PRO        -0.3944
     60 CB         -1.7350    4.4170  -34.3790 C.3       1 PRO        -0.0104
     61 CG         -0.6110    5.1120  -33.6150 C.3       1 PRO        -0.0281
     62 CD         -1.3510    6.2120  -32.8560 C.3       1 PRO         0.0369
     63 N          -2.4990    3.3910  -31.2040 N.am      1 SER        -0.2616
     64 CA         -2.3830    2.2530  -30.3030 C.3       1 SER         0.1539
     65 C          -3.7530    1.8030  -29.7970 C.2       1 SER         0.2063
     66 O          -4.5310    2.6110  -29.2920 O.2       1 SER        -0.3943
     67 CB         -1.4610    2.5960  -29.1340 C.3       1 SER         0.0843
     68 OG         -1.3870    1.4930  -28.2540 O.3       1 SER        -0.3903
     69 N          -4.0340    0.5030  -29.9380 N.am      1 TYR        -0.2621
     70 CA         -5.2440   -0.1390  -29.4500 C.3       1 TYR         0.1390
     71 C          -5.0710   -1.6550  -29.5470 C.2       1 TYR         0.2058
     72 O          -4.1840   -2.1370  -30.2510 O.2       1 TYR        -0.3942
     73 CB         -6.4480    0.3270  -30.2770 C.3       1 TYR         0.0163
     74 CG         -7.7100   -0.4750  -30.0610 C.ar      1 TYR        -0.0493
     75 CD1        -8.2610   -1.2130  -31.1190 C.ar      1 TYR        -0.0685
     76 CD2        -8.3350   -0.4800  -28.8040 C.ar      1 TYR        -0.0685
     77 CE1        -9.4320   -1.9600  -30.9250 C.ar      1 TYR        -0.0398
     78 CE2        -9.5030   -1.2290  -28.6010 C.ar      1 TYR        -0.0398
     79 CZ        -10.0590   -1.9700  -29.6630 C.ar      1 TYR         0.0805
     80 OH        -11.1980   -2.6910  -29.4650 O.3       1 TYR        -0.3376
     81 N          -5.9200   -2.4100  -28.8400 N.am      1 SER        -0.2614
     82 CA         -5.8930   -3.8650  -28.8560 C.3       1 SER         0.1541
     83 C          -7.2850   -4.4030  -28.5240 C.2       1 SER         0.2087
     84 O          -7.9910   -3.7930  -27.7220 O.2       1 SER        -0.3941
     85 CB         -4.8610   -4.3600  -27.8450 C.3       1 SER         0.0843
     86 OG         -4.8300   -5.7700  -27.8200 O.3       1 SER        -0.3903
     87 N          -7.7000   -5.5300  -29.1190 N.am      1 PRO        -0.2498
     88 CA         -9.0050   -6.1250  -28.8850 C.3       1 PRO         0.1338
     89 C          -9.2580   -6.3960  -27.4030 C.2       1 PRO         0.2042
     90 O          -8.3270   -6.6400  -26.6370 O.2       1 PRO        -0.3944
     91 CB         -9.0140   -7.4260  -29.6920 C.3       1 PRO        -0.0104
     92 CG         -7.9930   -7.1620  -30.7960 C.3       1 PRO        -0.0281
     93 CD         -6.9500   -6.3150  -30.0790 C.3       1 PRO         0.0369
     94 N         -10.5310   -6.3520  -26.9980 N.am      1 THR        -0.2613
     95 CA        -10.9100   -6.5970  -25.6160 C.3       1 THR         0.1565
     96 C         -10.8450   -8.0920  -25.3180 C.2       1 THR         0.2065
     97 O         -11.1830   -8.9090  -26.1700 O.2       1 THR        -0.3943
     98 CB        -12.3100   -6.0350  -25.3550 C.3       1 THR         0.0924
     99 OG1       -12.3170   -4.6490  -25.6230 O.3       1 THR        -0.3874
    100 CG2       -12.7270   -6.2600  -23.9040 C.3       1 THR        -0.0346
    101 N         -10.4120   -8.4520  -24.1070 N.am      1 SER        -0.2615
    102 CA        -10.2900   -9.8460  -23.6970 C.3       1 SER         0.1541
    103 C         -10.3410   -9.9480  -22.1750 C.2       1 SER         0.2087
    104 O          -9.8240   -9.0660  -21.4920 O.2       1 SER        -0.3941
    105 CB         -8.9710  -10.4030  -24.2360 C.3       1 SER         0.0843
    106 OG         -8.7150  -11.6850  -23.7080 O.3       1 SER        -0.3903
    107 N         -10.9550  -11.0070  -21.6280 N.am      1 PRO        -0.2498
    108 CA        -11.0360  -11.2390  -20.1940 C.3       1 PRO         0.1337
    109 C          -9.6900  -11.6740  -19.6190 C.2       1 PRO         0.2036
    110 O          -9.5310  -11.7270  -18.4020 O.2       1 PRO        -0.3944
    111 CB        -12.0700  -12.3530  -20.0420 C.3       1 PRO        -0.0104
    112 CG        -11.9000  -13.1560  -21.3300 C.3       1 PRO        -0.0281
    113 CD        -11.6190  -12.0670  -22.3640 C.3       1 PRO         0.0369
    114 N          -8.7200  -11.9840  -20.4880 N.am      1 SER        -0.2672
    115 CA         -7.3830  -12.3950  -20.0880 C.3       1 SER         0.1173
    116 C          -6.3940  -12.1670  -21.2280 C.2       1 SER         0.0623
    117 O          -6.8010  -11.5410  -22.2310 O.co2     1 SER        -0.5665
    118 CB         -7.3980  -13.8690  -19.6860 C.3       1 SER         0.0789
    119 OG         -6.0820  -14.2480  -19.3590 O.3       1 SER        -0.3910
    120 OXT        -5.2370  -12.6210  -21.0900 O.co2     1 SER        -0.5665
    121 H1          4.9477   20.7883  -29.4716 H         1 PRO         0.2035
    122 H2          4.6645   21.2753  -27.9249 H         1 PRO         0.2035
    123 H3          3.3448   19.4088  -27.9734 H         1 PRO         0.1099
    124 H4          1.9584   21.2278  -27.2336 H         1 PRO         0.0347
    125 H5          0.9839   20.5040  -28.5577 H         1 PRO         0.0347
    126 H6          1.7333   23.1564  -28.5998 H         1 PRO         0.0320
    127 H7          1.5994   22.1903  -30.1083 H         1 PRO         0.0320
    128 H8          3.8621   22.4919  -30.4038 H         1 PRO         0.0814
    129 H9          4.0254   23.2325  -28.7755 H         1 PRO         0.0814
    130 H10         2.2022   17.8117  -29.1386 H         1 SER         0.1885
    131 H11         1.5156   18.0712  -31.9177 H         1 SER         0.0823
    132 H12         4.1059   17.9563  -31.9067 H         1 SER         0.0606
    133 H13         3.2362   16.7933  -32.9639 H         1 SER         0.0606
    134 H14         3.4778   15.2569  -31.2647 H         1 SER         0.2097
    135 H15         1.0057   16.6227  -29.0177 H         1 TYR         0.1885
    136 H16         0.8562   13.8332  -29.7915 H         1 TYR         0.0821
    137 H17        -0.1926   15.3926  -27.3926 H         1 TYR         0.0453
    138 H18         1.3342   14.4530  -27.5047 H         1 TYR         0.0453
    139 H19         1.3026   12.0018  -27.4393 H         1 TYR         0.0530
    140 H20        -2.3154   14.2966  -27.0652 H         1 TYR         0.0530
    141 H21         0.1147    9.9804  -26.6181 H         1 TYR         0.0525
    142 H22        -3.4975   12.2995  -26.1878 H         1 TYR         0.0525
    143 H23        -3.1625    9.7067  -26.5024 H         1 TYR         0.2458
    144 H24        -0.9211   12.5619  -30.1594 H         1 SER         0.1884
    145 H25        -3.3707   13.9608  -31.1042 H         1 SER         0.0823
    146 H26        -1.9943   11.3289  -31.7244 H         1 SER         0.0606
    147 H27        -2.5518   12.6175  -32.8448 H         1 SER         0.0606
    148 H28        -4.7010   11.9780  -32.3151 H         1 SER         0.2097
    149 H29        -5.3564   12.2723  -27.4300 H         1 PRO         0.0802
    150 H30        -6.5641   14.3058  -27.4066 H         1 PRO         0.0313
    151 H31        -7.8819   13.1972  -27.9176 H         1 PRO         0.0313
    152 H32        -7.2562   15.3165  -29.4762 H         1 PRO         0.0287
    153 H33        -7.5863   13.7270  -30.2452 H         1 PRO         0.0287
    154 H34        -5.4062   14.0981  -31.0940 H         1 PRO         0.0524
    155 H35        -4.9119   15.0726  -29.6682 H         1 PRO         0.0524
    156 H36        -5.1592   10.9771  -30.3031 H         1 TPO         0.1884
    157 H37        -7.4875    9.1228  -30.0644 H         1 TPO         0.0830
    158 H38        -5.9962   10.0535  -32.5653 H         1 TPO         0.0695
    159 H39        -7.7928    8.9133  -33.8135 H         1 TPO         0.0260
    160 H40        -8.4866    8.3080  -32.2712 H         1 TPO         0.0260
    161 H41        -6.8611    7.7578  -32.8020 H         1 TPO         0.0260
    162 H42        -4.1832    9.4052  -31.4231 H         1 SER         0.1884
    163 H43        -2.4351    7.9918  -31.6076 H         1 SER         0.0823
    164 H44        -3.6884    6.7849  -29.0997 H         1 SER         0.0606
    165 H45        -2.4466    8.0803  -29.1800 H         1 SER         0.0606
    166 H46        -1.5426    5.9909  -28.8145 H         1 SER         0.2097
    167 H47        -3.8574    4.4986  -33.9264 H         1 PRO         0.0802
    168 H48        -1.9789    4.9591  -35.3046 H         1 PRO         0.0313
    169 H49        -1.4654    3.3787  -34.6223 H         1 PRO         0.0313
    170 H50         0.1332    5.5375  -34.3043 H         1 PRO         0.0287
    171 H51        -0.1139    4.4174  -32.9219 H         1 PRO         0.0287
    172 H52        -0.8615    6.4096  -31.8910 H         1 PRO         0.0524
    173 H53        -1.3782    7.1376  -33.4497 H         1 PRO         0.0524
    174 H54        -2.2936    4.3082  -30.8625 H         1 SER         0.1884
    175 H55        -1.9350    1.4181  -30.8617 H         1 SER         0.0823
    176 H56        -1.8601    3.4684  -28.5958 H         1 SER         0.0606
    177 H57        -0.4559    2.8288  -29.5156 H         1 SER         0.0606
    178 H58        -0.8136    1.7069  -27.5274 H         1 SER         0.2097
    179 H59        -3.3643   -0.0681  -30.4128 H         1 TYR         0.1885
    180 H60        -5.4048    0.1387  -28.3979 H         1 TYR         0.0821
    181 H61        -6.1785    0.2618  -31.3415 H         1 TYR         0.0453
    182 H62        -6.6587    1.3745  -30.0155 H         1 TYR         0.0453
    183 H63        -7.7798   -1.2059  -32.0903 H         1 TYR         0.0530
    184 H64        -7.9137    0.0965  -27.9884 H         1 TYR         0.0530
    185 H65        -9.8544   -2.5292  -31.7451 H         1 TYR         0.0525
    186 H66        -9.9784   -1.2380  -27.6268 H         1 TYR         0.0525
    187 H67       -11.4388   -3.1288  -30.2730 H         1 TYR         0.2458
    188 H68        -6.6057   -1.9527  -28.2737 H         1 SER         0.1884
    189 H69        -5.6059   -4.2121  -29.8595 H         1 SER         0.0823
    190 H70        -5.1258   -3.9861  -26.8450 H         1 SER         0.0606
    191 H71        -3.8675   -3.9812  -28.1269 H         1 SER         0.0606
    192 H72        -4.1839   -6.0602  -27.1869 H         1 SER         0.2097
    193 H73        -9.7904   -5.4501  -29.2561 H         1 PRO         0.0802
    194 H74       -10.0105   -7.6202  -30.1153 H         1 PRO         0.0313
    195 H75        -8.7080   -8.2787  -29.0682 H         1 PRO         0.0313
    196 H76        -8.4457   -6.6113  -31.6337 H         1 PRO         0.0287
    197 H77        -7.5565   -8.1008  -31.1676 H         1 PRO         0.0287
    198 H78        -6.2175   -6.9558  -29.5664 H         1 PRO         0.0524
    199 H79        -6.4283   -5.6591  -30.7915 H         1 PRO         0.0524
    200 H80       -11.2451   -6.1441  -27.6665 H         1 THR         0.1884
    201 H81       -10.1982   -6.0792  -24.9564 H         1 THR         0.0826
    202 H82       -13.0280   -6.5394  -26.0184 H         1 THR         0.0639
    203 H83       -13.1859   -4.3006  -25.4609 H         1 THR         0.2101
    204 H84       -13.7342   -5.8478  -23.7438 H         1 THR         0.0257
    205 H85       -12.0139   -5.7559  -23.2351 H         1 THR         0.0257
    206 H86       -12.7335   -7.3384  -23.6873 H         1 THR         0.0257
    207 H87       -10.1613   -7.7365  -23.4549 H         1 SER         0.1884
    208 H88       -11.1248  -10.4238  -24.1205 H         1 SER         0.0823
    209 H89        -8.1514   -9.7263  -23.9528 H         1 SER         0.0606
    210 H90        -9.0291  -10.4698  -25.3324 H         1 SER         0.0606
    211 H91        -8.6609  -11.6312  -22.7611 H         1 SER         0.2097
    212 H92       -11.3717  -10.3277  -19.6776 H         1 PRO         0.0802
    213 H93       -13.0869  -11.9409  -19.9642 H         1 PRO         0.0313
    214 H94       -11.8568  -12.9727  -19.1585 H         1 PRO         0.0313
    215 H95       -12.8172  -13.7109  -21.5765 H         1 PRO         0.0287
    216 H96       -11.0565  -13.8577  -21.2526 H         1 PRO         0.0287
    217 H97       -10.9656  -12.4512  -23.1612 H         1 PRO         0.0524
    218 H98       -12.5584  -11.7013  -22.8042 H         1 PRO         0.0524
    219 H99        -8.9256  -11.9301  -21.4652 H         1 SER         0.1876
    220 H100       -7.0696  -11.7930  -19.2224 H         1 SER         0.0749
    221 H101       -7.7643  -14.4801  -20.5241 H         1 SER         0.0599
    222 H102       -8.0540  -14.0109  -18.8145 H         1 SER         0.0599
    223 H103       -5.5200  -14.1203  -20.1142 H         1 SER         0.2096
@<TRIPOS>BOND
     1    1    2 1  
     2    1    7 1  
     3    2    3 1  
     4    2    5 1  
     5    3    4 2  
     6    3    8 am 
     7    5    6 1  
     8    6    7 1  
     9    8    9 1  
    10    9   10 1  
    11    9   12 1  
    12   10   11 2  
    13   10   14 am 
    14   12   13 1  
    15   14   15 1  
    16   15   16 1  
    17   15   18 1  
    18   16   17 2  
    19   16   26 am 
    20   18   19 1  
    21   19   20 ar 
    22   19   21 ar 
    23   20   22 ar 
    24   21   23 ar 
    25   22   24 ar 
    26   23   24 ar 
    27   24   25 1  
    28   26   27 1  
    29   27   28 1  
    30   27   30 1  
    31   28   29 2  
    32   28   32 am 
    33   30   31 1  
    34   32   33 1  
    35   32   38 1  
    36   33   34 1  
    37   33   36 1  
    38   34   35 2  
    39   34   39 am 
    40   36   37 1  
    41   37   38 1  
    42   39   40 1  
    43   40   41 1  
    44   40   48 1  
    45   41   42 1  
    46   41   43 1  
    47   43   44 1  
    48   44   45 ar 
    49   44   46 ar 
    50   44   47 ar 
    51   48   49 2  
    52   48   50 am 
    53   50   51 1  
    54   51   52 1  
    55   51   54 1  
    56   52   53 2  
    57   52   56 am 
    58   54   55 1  
    59   56   57 1  
    60   56   62 1  
    61   57   58 1  
    62   57   60 1  
    63   58   59 2  
    64   58   63 am 
    65   60   61 1  
    66   61   62 1  
    67   63   64 1  
    68   64   65 1  
    69   64   67 1  
    70   65   66 2  
    71   65   69 am 
    72   67   68 1  
    73   69   70 1  
    74   70   71 1  
    75   70   73 1  
    76   71   72 2  
    77   71   81 am 
    78   73   74 1  
    79   74   75 ar 
    80   74   76 ar 
    81   75   77 ar 
    82   76   78 ar 
    83   77   79 ar 
    84   78   79 ar 
    85   79   80 1  
    86   81   82 1  
    87   82   83 1  
    88   82   85 1  
    89   83   84 2  
    90   83   87 am 
    91   85   86 1  
    92   87   88 1  
    93   87   93 1  
    94   88   89 1  
    95   88   91 1  
    96   89   90 2  
    97   89   94 am 
    98   91   92 1  
    99   92   93 1  
   100   94   95 1  
   101   95   96 1  
   102   95   98 1  
   103   96   97 2  
   104   96  101 am 
   105   98   99 1  
   106   98  100 1  
   107  101  102 1  
   108  102  103 1  
   109  102  105 1  
   110  103  104 2  
   111  103  107 am 
   112  105  106 1  
   113  107  108 1  
   114  107  113 1  
   115  108  109 1  
   116  108  111 1  
   117  109  110 2  
   118  109  114 am 
   119  111  112 1  
   120  112  113 1  
   121  114  115 1  
   122  115  116 1  
   123  115  118 1  
   124  116  117 ar 
   125  116  120 ar 
   126  118  119 1  
   127    1  121 1  
   128    1  122 1  
   129    2  123 1  
   130    5  124 1  
   131    5  125 1  
   132    6  126 1  
   133    6  127 1  
   134    7  128 1  
   135    7  129 1  
   136    8  130 1  
   137    9  131 1  
   138   12  132 1  
   139   12  133 1  
   140   13  134 1  
   141   14  135 1  
   142   15  136 1  
   143   18  137 1  
   144   18  138 1  
   145   20  139 1  
   146   21  140 1  
   147   22  141 1  
   148   23  142 1  
   149   25  143 1  
   150   26  144 1  
   151   27  145 1  
   152   30  146 1  
   153   30  147 1  
   154   31  148 1  
   155   33  149 1  
   156   36  150 1  
   157   36  151 1  
   158   37  152 1  
   159   37  153 1  
   160   38  154 1  
   161   38  155 1  
   162   39  156 1  
   163   40  157 1  
   164   41  158 1  
   165   42  159 1  
   166   42  160 1  
   167   42  161 1  
   168   50  162 1  
   169   51  163 1  
   170   54  164 1  
   171   54  165 1  
   172   55  166 1  
   173   57  167 1  
   174   60  168 1  
   175   60  169 1  
   176   61  170 1  
   177   61  171 1  
   178   62  172 1  
   179   62  173 1  
   180   63  174 1  
   181   64  175 1  
   182   67  176 1  
   183   67  177 1  
   184   68  178 1  
   185   69  179 1  
   186   70  180 1  
   187   73  181 1  
   188   73  182 1  
   189   75  183 1  
   190   76  184 1  
   191   77  185 1  
   192   78  186 1  
   193   80  187 1  
   194   81  188 1  
   195   82  189 1  
   196   85  190 1  
   197   85  191 1  
   198   86  192 1  
   199   88  193 1  
   200   91  194 1  
   201   91  195 1  
   202   92  196 1  
   203   92  197 1  
   204   93  198 1  
   205   93  199 1  
   206   94  200 1  
   207   95  201 1  
   208   98  202 1  
   209   99  203 1  
   210  100  204 1  
   211  100  205 1  
   212  100  206 1  
   213  101  207 1  
   214  102  208 1  
   215  105  209 1  
   216  105  210 1  
   217  106  211 1  
   218  108  212 1  
   219  111  213 1  
   220  111  214 1  
   221  112  215 1  
   222  112  216 1  
   223  113  217 1  
   224  113  218 1  
   225  114  219 1  
   226  115  220 1  
   227  118  221 1  
   228  118  222 1  
   229  119  223 1  
@<TRIPOS>SUBSTRUCTURE
     1 PRO         1

