5lvf_ligand
  -I-interpret- 

226232  0  0  0  0  0  0  0  0999 V2000
    4.2470   21.1250  -28.8300 N   0  3  0  0  0
    3.1270   20.1720  -28.7350 C   0  0  0  0  0
    2.8660   19.4760  -30.0730 C   0  0  0  0  0
    3.0980   20.0600  -31.1290 O   0  0  0  0  0
    1.9300   21.0080  -28.3110 C   0  0  0  0  0
    2.1140   22.2770  -29.1400 C   0  0  0  0  0
    3.6320   22.3710  -29.3350 C   0  0  0  0  0
    2.3840   18.2270  -30.0300 N   0  0  0  0  0
    2.1140   17.4490  -31.2360 C   0  0  0  0  0
    1.3390   16.1550  -30.9570 C   0  0  0  0  0
    1.1390   15.3650  -31.8810 O   0  0  0  0  0
    3.4360   17.0840  -31.9220 C   0  0  0  0  0
    4.0540   16.0120  -31.2510 O   0  0  0  0  0
    0.8980   15.9160  -29.7170 N   0  0  0  0  0
    0.2640   14.6520  -29.3570 C   0  0  0  0  0
   -1.1550   14.5470  -29.9160 C   0  0  0  0  0
   -1.8600   15.5480  -30.0380 O   0  0  0  0  0
    0.2850   14.5040  -27.8310 C   0  0  0  0  0
   -0.4320   13.2770  -27.3120 C   0  0  0  0  0
    0.2520   12.0610  -27.1790 C   0  0  0  0  0
   -1.7850   13.3570  -26.9610 C   0  0  0  0  0
   -0.4160   10.9210  -26.7110 C   0  0  0  0  0
   -2.4550   12.2280  -26.4760 C   0  0  0  0  0
   -1.7770   11.0000  -26.3620 C   0  0  0  0  0
   -2.4380    9.8970  -25.9180 O   0  0  0  0  0
   -1.5660   13.3200  -30.2560 N   0  0  0  0  0
   -2.9010   13.0280  -30.7590 C   0  0  0  0  0
   -3.7540   12.4210  -29.6490 C   0  0  0  0  0
   -3.3450   11.4350  -29.0440 O   0  0  0  0  0
   -2.7950   12.0540  -31.9320 C   0  0  0  0  0
   -4.0060   11.3570  -32.1310 O   0  0  0  0  0
   -4.9350   12.9880  -29.3670 N   0  0  0  0  0
   -5.8760   12.4800  -28.3770 C   0  0  0  0  0
   -6.5510   11.1950  -28.8680 C   0  0  0  0  0
   -7.5460   10.7570  -28.2930 O   0  0  0  0  0
   -6.8940   13.6010  -28.1840 C   0  0  0  0  0
   -6.9260   14.2700  -29.5530 C   0  0  0  0  0
   -5.4680   14.1830  -29.9990 C   0  0  0  0  0
   -6.0060   10.5950  -29.9330 N   0  0  0  0  0
   -6.5670    9.4220  -30.5870 C   0  0  0  0  0
   -6.9200    9.7770  -32.0360 C   0  0  0  0  0
   -7.5600    8.6070  -32.7830 C   0  0  0  0  0
   -7.7830   10.8940  -32.0080 O   0  0  0  0  0
   -7.6720   12.0500  -33.1190 P   0  0  0  0  0
   -8.1670   11.3830  -34.3400 O   0  0  0  0  0
   -8.5670   13.0990  -32.5850 O   0  0  0  0  0
   -6.2320   12.4000  -33.1210 O   0  0  0  0  0
   -5.5720    8.2780  -30.5070 C   0  0  0  0  0
   -5.9000    7.2230  -29.9740 O   0  0  0  0  0
   -4.3610    8.5000  -31.0370 N   0  0  0  0  0
   -3.2840    7.5190  -31.0920 C   0  0  0  0  0
   -3.6490    6.2610  -31.8910 C   0  0  0  0  0
   -4.7800    5.7860  -31.8350 O   0  0  0  0  0
   -2.8310    7.1730  -29.6690 C   0  0  0  0  0
   -1.8130    6.1950  -29.7020 O   0  0  0  0  0
   -2.6940    5.7020  -32.6490 N   0  0  0  0  0
   -2.8970    4.4660  -33.3910 C   0  0  0  0  0
   -2.8750    3.2360  -32.4810 C   0  0  0  0  0
   -3.2010    2.1400  -32.9380 O   0  0  0  0  0
   -1.7350    4.4170  -34.3790 C   0  0  0  0  0
   -0.6110    5.1120  -33.6150 C   0  0  0  0  0
   -1.3510    6.2120  -32.8560 C   0  0  0  0  0
   -2.4990    3.3910  -31.2040 N   0  0  0  0  0
   -2.3830    2.2530  -30.3030 C   0  0  0  0  0
   -3.7530    1.8030  -29.7970 C   0  0  0  0  0
   -4.5310    2.6110  -29.2920 O   0  0  0  0  0
   -1.4610    2.5960  -29.1340 C   0  0  0  0  0
   -1.3870    1.4930  -28.2540 O   0  0  0  0  0
   -4.0340    0.5030  -29.9380 N   0  0  0  0  0
   -5.2440   -0.1390  -29.4500 C   0  0  0  0  0
   -5.0710   -1.6550  -29.5470 C   0  0  0  0  0
   -4.1840   -2.1370  -30.2510 O   0  0  0  0  0
   -6.4480    0.3270  -30.2770 C   0  0  0  0  0
   -7.7100   -0.4750  -30.0610 C   0  0  0  0  0
   -8.2610   -1.2130  -31.1190 C   0  0  0  0  0
   -8.3350   -0.4800  -28.8040 C   0  0  0  0  0
   -9.4320   -1.9600  -30.9250 C   0  0  0  0  0
   -9.5030   -1.2290  -28.6010 C   0  0  0  0  0
  -10.0590   -1.9700  -29.6630 C   0  0  0  0  0
  -11.1980   -2.6910  -29.4650 O   0  0  0  0  0
   -5.9200   -2.4100  -28.8400 N   0  0  0  0  0
   -5.8930   -3.8650  -28.8560 C   0  0  0  0  0
   -7.2850   -4.4030  -28.5240 C   0  0  0  0  0
   -7.9910   -3.7930  -27.7220 O   0  0  0  0  0
   -4.8610   -4.3600  -27.8450 C   0  0  0  0  0
   -4.8300   -5.7700  -27.8200 O   0  0  0  0  0
   -7.7000   -5.5300  -29.1190 N   0  0  0  0  0
   -9.0050   -6.1250  -28.8850 C   0  0  0  0  0
   -9.2580   -6.3960  -27.4030 C   0  0  0  0  0
   -8.3270   -6.6400  -26.6370 O   0  0  0  0  0
   -9.0140   -7.4260  -29.6920 C   0  0  0  0  0
   -7.9930   -7.1620  -30.7960 C   0  0  0  0  0
   -6.9500   -6.3150  -30.0790 C   0  0  0  0  0
  -10.5310   -6.3520  -26.9980 N   0  0  0  0  0
  -10.9100   -6.5970  -25.6160 C   0  0  0  0  0
  -10.8450   -8.0920  -25.3180 C   0  0  0  0  0
  -11.1830   -8.9090  -26.1700 O   0  0  0  0  0
  -12.3100   -6.0350  -25.3550 C   0  0  0  0  0
  -12.3170   -4.6490  -25.6230 O   0  0  0  0  0
  -12.7270   -6.2600  -23.9040 C   0  0  0  0  0
  -10.4120   -8.4520  -24.1070 N   0  0  0  0  0
  -10.2900   -9.8460  -23.6970 C   0  0  0  0  0
  -10.3410   -9.9480  -22.1750 C   0  0  0  0  0
   -9.8240   -9.0660  -21.4920 O   0  0  0  0  0
   -8.9710  -10.4030  -24.2360 C   0  0  0  0  0
   -8.7150  -11.6850  -23.7080 O   0  0  0  0  0
  -10.9550  -11.0070  -21.6280 N   0  0  0  0  0
  -11.0360  -11.2390  -20.1940 C   0  0  0  0  0
   -9.6900  -11.6740  -19.6190 C   0  0  0  0  0
   -9.5310  -11.7270  -18.4020 O   0  0  0  0  0
  -12.0700  -12.3530  -20.0420 C   0  0  0  0  0
  -11.9000  -13.1560  -21.3300 C   0  0  0  0  0
  -11.6190  -12.0670  -22.3640 C   0  0  0  0  0
   -8.7200  -11.9840  -20.4880 N   0  0  0  0  0
   -7.3830  -12.3950  -20.0880 C   0  0  0  0  0
   -6.3940  -12.1670  -21.2280 C   0  0  0  0  0
   -6.8010  -11.5410  -22.2310 O   0  0  0  0  0
   -7.3980  -13.8690  -19.6860 C   0  0  0  0  0
   -6.0820  -14.2480  -19.3590 O   0  0  0  0  0
   -5.2370  -12.6210  -21.0900 O   0  0  0  0  0
    4.9856   20.7863  -29.4466 H   0  0  0  0  0
    4.7080   21.2637  -27.9307 H   0  0  0  0  0
    3.3400   19.3732  -28.0246 H   0  0  0  0  0
    1.8953   21.1964  -27.2380 H   0  0  0  0  0
    0.9752   20.5131  -28.4883 H   0  0  0  0  0
    1.7041   23.1580  -28.6460 H   0  0  0  0  0
    1.5761   22.2351  -30.0871 H   0  0  0  0  0
    3.8644   22.4991  -30.3922 H   0  0  0  0  0
    4.0252   23.2284  -28.7887 H   0  0  0  0  0
    2.1986   17.8034  -29.1208 H   0  0  0  0  0
    1.4946   18.0766  -31.8767 H   0  0  0  0  0
    4.0996   17.9484  -31.8993 H   0  0  0  0  0
    3.2335   16.7902  -32.9520 H   0  0  0  0  0
    4.8793   15.7941  -31.6903 H   0  0  0  0  0
    1.0079   16.6368  -29.0038 H   0  0  0  0  0
    0.8255   13.8321  -29.8048 H   0  0  0  0  0
   -0.2280   15.3727  -27.4184 H   0  0  0  0  0
    1.3295   14.4141  -27.5328 H   0  0  0  0  0
    1.3084   12.0015  -27.4407 H   0  0  0  0  0
   -2.3184   14.3018  -27.0658 H   0  0  0  0  0
    0.1177    9.9752  -26.6176 H   0  0  0  0  0
   -3.5033   12.2999  -26.1862 H   0  0  0  0  0
   -3.3501   10.1273  -25.7268 H   0  0  0  0  0
   -0.9082   12.5467  -30.1575 H   0  0  0  0  0
   -3.3731   13.9506  -31.0966 H   0  0  0  0  0
   -2.0102   11.3302  -31.7121 H   0  0  0  0  0
   -2.5689   12.6214  -32.8348 H   0  0  0  0  0
   -3.9091   10.7546  -32.8721 H   0  0  0  0  0
   -5.3815   12.2183  -27.4415 H   0  0  0  0  0
   -6.6208   14.2880  -27.3831 H   0  0  0  0  0
   -7.8712   13.2360  -27.8680 H   0  0  0  0  0
   -7.3015   15.2927  -29.5193 H   0  0  0  0  0
   -7.6140   13.7878  -30.2474 H   0  0  0  0  0
   -5.3866   14.1289  -31.0846 H   0  0  0  0  0
   -4.9086   15.0714  -29.7058 H   0  0  0  0  0
   -5.1423   10.9847  -30.3105 H   0  0  0  0  0
   -7.4812    9.1017  -30.0872 H   0  0  0  0  0
   -6.0056   10.0123  -32.5806 H   0  0  0  0  0
   -6.8666    7.7662  -32.8011 H   0  0  0  0  0
   -8.4780    8.3117  -32.2748 H   0  0  0  0  0
   -7.7902    8.9117  -33.8039 H   0  0  0  0  0
   -8.1754   13.4810  -31.7961 H   0  0  0  0  0
   -6.0063   12.8264  -32.2910 H   0  0  0  0  0
   -4.1797    9.4233  -31.4308 H   0  0  0  0  0
   -2.4545    7.9729  -31.6343 H   0  0  0  0  0
   -3.6814    6.7822  -29.1103 H   0  0  0  0  0
   -2.4443    8.0727  -29.1904 H   0  0  0  0  0
   -1.5398    5.9887  -28.8051 H   0  0  0  0  0
   -3.8721    4.4521  -33.8778 H   0  0  0  0  0
   -1.9649    4.9010  -35.3282 H   0  0  0  0  0
   -1.4778    3.4018  -34.6810 H   0  0  0  0  0
    0.1714    5.4985  -34.2681 H   0  0  0  0  0
   -0.0628    4.4369  -32.9579 H   0  0  0  0  0
   -0.8613    6.4445  -31.9104 H   0  0  0  0  0
   -1.3602    7.1474  -33.4155 H   0  0  0  0  0
   -2.2895    4.3265  -30.8556 H   0  0  0  0  0
   -1.9483    1.4230  -30.8600 H   0  0  0  0  0
   -1.8562    3.4606  -28.6008 H   0  0  0  0  0
   -0.4651    2.8269  -29.5121 H   0  0  0  0  0
   -0.8076    1.7092  -27.5198 H   0  0  0  0  0
   -3.3510   -0.0795  -30.4223 H   0  0  0  0  0
   -5.4214    0.1338  -28.4097 H   0  0  0  0  0
   -6.1755    0.2136  -31.3263 H   0  0  0  0  0
   -6.6660    1.3504  -29.9715 H   0  0  0  0  0
   -7.7772   -1.2059  -32.0957 H   0  0  0  0  0
   -7.9114    0.0997  -27.9839 H   0  0  0  0  0
   -9.8568   -2.5324  -31.7497 H   0  0  0  0  0
   -9.9810   -1.2381  -27.6215 H   0  0  0  0  0
  -11.4877   -2.5862  -28.5558 H   0  0  0  0  0
   -6.6194   -1.9435  -28.2624 H   0  0  0  0  0
   -5.6114   -4.2249  -29.8456 H   0  0  0  0  0
   -5.1321   -3.9943  -26.8546 H   0  0  0  0  0
   -3.8773   -3.9894  -28.1331 H   0  0  0  0  0
   -4.1771   -6.0633  -27.1803 H   0  0  0  0  0
   -9.8013   -5.4479  -29.1941 H   0  0  0  0  0
  -10.0016   -7.6700  -30.0835 H   0  0  0  0  0
   -8.7618   -8.2968  -29.0868 H   0  0  0  0  0
   -8.4221   -6.6667  -31.6670 H   0  0  0  0  0
   -7.5815   -8.0750  -31.2263 H   0  0  0  0  0
   -6.1932   -6.9313  -29.5937 H   0  0  0  0  0
   -6.3962   -5.6829  -30.7732 H   0  0  0  0  0
  -11.2593   -6.1399  -27.6799 H   0  0  0  0  0
  -10.2128   -6.0902  -24.9488 H   0  0  0  0  0
  -13.0136   -6.5517  -26.0077 H   0  0  0  0  0
  -13.1950   -4.2970  -25.4592 H   0  0  0  0  0
  -12.7330   -7.3289  -23.6906 H   0  0  0  0  0
  -12.0197   -5.7601  -23.2423 H   0  0  0  0  0
  -13.7251   -5.8512  -23.7466 H   0  0  0  0  0
  -10.1563   -7.7222  -23.4419 H   0  0  0  0  0
  -11.1175  -10.4292  -24.1010 H   0  0  0  0  0
   -8.1616   -9.7344  -23.9429 H   0  0  0  0  0
   -9.0386  -10.4773  -25.3214 H   0  0  0  0  0
   -7.8844  -12.0144  -24.0590 H   0  0  0  0  0
  -11.3118  -10.3332  -19.6540 H   0  0  0  0  0
  -13.0835  -11.9741  -19.9106 H   0  0  0  0  0
  -11.9156  -12.9538  -19.1457 H   0  0  0  0  0
  -12.7728  -13.7616  -21.5740 H   0  0  0  0  0
  -11.1063  -13.9005  -21.2675 H   0  0  0  0  0
  -11.0005  -12.4380  -23.1813 H   0  0  0  0  0
  -12.5357  -11.7152  -22.8372 H   0  0  0  0  0
   -8.9297  -11.9291  -21.4847 H   0  0  0  0  0
   -7.0670  -11.7955  -19.2343 H   0  0  0  0  0
   -7.7704  -14.4786  -20.5093 H   0  0  0  0  0
   -8.0551  -14.0175  -18.8291 H   0  0  0  0  0
   -6.0709  -15.1732  -19.1032 H   0  0  0  0  0
   -5.1662  -13.0603  -20.2393 H   0  0  0  0  0
  1  2  1  0  0  0
  1  7  1  0  0  0
  2  3  1  0  0  0
  2  5  1  0  0  0
  3  4  2  0  0  0
  3  8  1  0  0  0
  5  6  1  0  0  0
  6  7  1  0  0  0
  8  9  1  0  0  0
  9 10  1  0  0  0
  9 12  1  0  0  0
 10 11  2  0  0  0
 10 14  1  0  0  0
 12 13  1  0  0  0
 14 15  1  0  0  0
 15 16  1  0  0  0
 15 18  1  0  0  0
 16 17  2  0  0  0
 16 26  1  0  0  0
 18 19  1  0  0  0
 19 20  4  0  0  0
 19 21  4  0  0  0
 20 22  4  0  0  0
 21 23  4  0  0  0
 22 24  4  0  0  0
 23 24  4  0  0  0
 24 25  1  0  0  0
 26 27  1  0  0  0
 27 28  1  0  0  0
 27 30  1  0  0  0
 28 29  2  0  0  0
 28 32  1  0  0  0
 30 31  1  0  0  0
 32 33  1  0  0  0
 32 38  1  0  0  0
 33 34  1  0  0  0
 33 36  1  0  0  0
 34 35  2  0  0  0
 34 39  1  0  0  0
 36 37  1  0  0  0
 37 38  1  0  0  0
 39 40  1  0  0  0
 40 41  1  0  0  0
 40 48  1  0  0  0
 41 42  1  0  0  0
 41 43  1  0  0  0
 43 44  1  0  0  0
 44 45  2  0  0  0
 44 46  1  0  0  0
 44 47  1  0  0  0
 48 49  2  0  0  0
 48 50  1  0  0  0
 50 51  1  0  0  0
 51 52  1  0  0  0
 51 54  1  0  0  0
 52 53  2  0  0  0
 52 56  1  0  0  0
 54 55  1  0  0  0
 56 57  1  0  0  0
 56 62  1  0  0  0
 57 58  1  0  0  0
 57 60  1  0  0  0
 58 59  2  0  0  0
 58 63  1  0  0  0
 60 61  1  0  0  0
 61 62  1  0  0  0
 63 64  1  0  0  0
 64 65  1  0  0  0
 64 67  1  0  0  0
 65 66  2  0  0  0
 65 69  1  0  0  0
 67 68  1  0  0  0
 69 70  1  0  0  0
 70 71  1  0  0  0
 70 73  1  0  0  0
 71 72  2  0  0  0
 71 81  1  0  0  0
 73 74  1  0  0  0
 74 75  4  0  0  0
 74 76  4  0  0  0
 75 77  4  0  0  0
 76 78  4  0  0  0
 77 79  4  0  0  0
 78 79  4  0  0  0
 79 80  1  0  0  0
 81 82  1  0  0  0
 82 83  1  0  0  0
 82 85  1  0  0  0
 83 84  2  0  0  0
 83 87  1  0  0  0
 85 86  1  0  0  0
 87 88  1  0  0  0
 87 93  1  0  0  0
 88 89  1  0  0  0
 88 91  1  0  0  0
 89 90  2  0  0  0
 89 94  1  0  0  0
 91 92  1  0  0  0
 92 93  1  0  0  0
 94 95  1  0  0  0
 95 96  1  0  0  0
 95 98  1  0  0  0
 96 97  2  0  0  0
 96101  1  0  0  0
 98 99  1  0  0  0
 98100  1  0  0  0
101102  1  0  0  0
102103  1  0  0  0
102105  1  0  0  0
103104  2  0  0  0
103107  1  0  0  0
105106  1  0  0  0
107108  1  0  0  0
107113  1  0  0  0
108109  1  0  0  0
108111  1  0  0  0
109110  2  0  0  0
109114  1  0  0  0
111112  1  0  0  0
112113  1  0  0  0
114115  1  0  0  0
115116  1  0  0  0
115118  1  0  0  0
116117  2  0  0  0
116120  1  0  0  0
118119  1  0  0  0
  1121  1  0  0  0
  1122  1  0  0  0
  2123  1  0  0  0
  5124  1  0  0  0
  5125  1  0  0  0
  6126  1  0  0  0
  6127  1  0  0  0
  7128  1  0  0  0
  7129  1  0  0  0
  8130  1  0  0  0
  9131  1  0  0  0
 12132  1  0  0  0
 12133  1  0  0  0
 13134  1  0  0  0
 14135  1  0  0  0
 15136  1  0  0  0
 18137  1  0  0  0
 18138  1  0  0  0
 20139  1  0  0  0
 21140  1  0  0  0
 22141  1  0  0  0
 23142  1  0  0  0
 25143  1  0  0  0
 26144  1  0  0  0
 27145  1  0  0  0
 30146  1  0  0  0
 30147  1  0  0  0
 31148  1  0  0  0
 33149  1  0  0  0
 36150  1  0  0  0
 36151  1  0  0  0
 37152  1  0  0  0
 37153  1  0  0  0
 38154  1  0  0  0
 38155  1  0  0  0
 39156  1  0  0  0
 40157  1  0  0  0
 41158  1  0  0  0
 42159  1  0  0  0
 42160  1  0  0  0
 42161  1  0  0  0
 46162  1  0  0  0
 47163  1  0  0  0
 50164  1  0  0  0
 51165  1  0  0  0
 54166  1  0  0  0
 54167  1  0  0  0
 55168  1  0  0  0
 57169  1  0  0  0
 60170  1  0  0  0
 60171  1  0  0  0
 61172  1  0  0  0
 61173  1  0  0  0
 62174  1  0  0  0
 62175  1  0  0  0
 63176  1  0  0  0
 64177  1  0  0  0
 67178  1  0  0  0
 67179  1  0  0  0
 68180  1  0  0  0
 69181  1  0  0  0
 70182  1  0  0  0
 73183  1  0  0  0
 73184  1  0  0  0
 75185  1  0  0  0
 76186  1  0  0  0
 77187  1  0  0  0
 78188  1  0  0  0
 80189  1  0  0  0
 81190  1  0  0  0
 82191  1  0  0  0
 85192  1  0  0  0
 85193  1  0  0  0
 86194  1  0  0  0
 88195  1  0  0  0
 91196  1  0  0  0
 91197  1  0  0  0
 92198  1  0  0  0
 92199  1  0  0  0
 93200  1  0  0  0
 93201  1  0  0  0
 94202  1  0  0  0
 95203  1  0  0  0
 98204  1  0  0  0
 99205  1  0  0  0
100206  1  0  0  0
100207  1  0  0  0
100208  1  0  0  0
101209  1  0  0  0
102210  1  0  0  0
105211  1  0  0  0
105212  1  0  0  0
106213  1  0  0  0
108214  1  0  0  0
111215  1  0  0  0
111216  1  0  0  0
112217  1  0  0  0
112218  1  0  0  0
113219  1  0  0  0
113220  1  0  0  0
114221  1  0  0  0
115222  1  0  0  0
118223  1  0  0  0
118224  1  0  0  0
119225  1  0  0  0
120226  1  0  0  0
M  END
$$$$
