### 
### Created by X-TOOL on Mon Sep 10 21:13:17 2018
### 

@<TRIPOS>MOLECULE
4o62_ligand
  113   112     1     0     0
SMALL
GAST_HUCK


@<TRIPOS>ATOM
      1 N          16.1280    3.5320   21.5440 N.4       1 ALA         0.2377
      2 CA         17.0760    4.4370   22.2940 C.3       1 ALA         0.0621
      3 C          18.5180    4.0660   21.9960 C.2       1 ALA         0.2264
      4 O          18.8830    2.8900   21.9910 O.2       1 ALA        -0.3907
      5 CB         16.8270    4.3880   23.7940 C.3       1 ALA        -0.0040
      6 N          19.3320    5.0810   21.7390 N.am      1 ARG        -0.2610
      7 CA         20.7530    4.9220   21.4950 C.3       1 ARG         0.1312
      8 C          21.4520    5.2780   22.7910 C.2       1 ARG         0.2040
      9 O          21.2110    6.3760   23.3420 O.2       1 ARG        -0.3944
     10 CB         21.1650    5.8450   20.3540 C.3       1 ARG        -0.0092
     11 CG         22.5260    5.5650   19.7770 C.3       1 ARG        -0.0156
     12 CD         23.0190    6.7710   18.9950 C.3       1 ARG         0.0627
     13 NE         24.4400    6.6460   18.6710 N.pl3     1 ARG        -0.2723
     14 CZ         25.1960    7.6150   18.1450 C.cat     1 ARG         0.2882
     15 NH1        24.6850    8.8160   17.8620 N.pl3     1 ARG        -0.2849
     16 NH2        26.4810    7.3780   17.8950 N.pl3     1 ARG        -0.2849
     17 N          22.2750    4.3500   23.3130 N.am      1 THR        -0.2613
     18 CA         22.8560    4.4980   24.6530 C.3       1 THR         0.1565
     19 C          24.3690    4.2010   24.6620 C.2       1 THR         0.2065
     20 O          24.8770    3.5810   23.7280 O.2       1 THR        -0.3943
     21 CB         22.1660    3.5760   25.6740 C.3       1 THR         0.0924
     22 OG1        22.3740    2.2120   25.2820 O.3       1 THR        -0.3874
     23 CG2        20.6670    3.8630   25.7490 C.3       1 THR        -0.0346
     24 N          25.0690    4.6640   25.7020 N.am      1 M3L        -0.2637
     25 CA         26.4930    4.3640   25.8970 C.3       1 M3L         0.1310
     26 CB         27.4830    5.5330   25.6480 C.3       1 M3L        -0.0122
     27 CG         27.5520    6.1270   24.2360 C.3       1 M3L        -0.0440
     28 CD         28.6180    7.2420   24.1510 C.3       1 M3L        -0.0123
     29 CE         28.2180    8.5440   24.9010 C.3       1 M3L        -0.0309
     30 NZ         29.1260    9.7200   24.7100 N.4       1 M3L         0.2369
     31 C          26.6590    4.0220   27.3460 C.2       1 M3L         0.2039
     32 O          26.2170    4.7830   28.2280 O.2       1 M3L        -0.3944
     33 CM1        30.5430    9.3650   24.9080 C.3       1 M3L        -0.0418
     34 CM2        28.7760   10.7490   25.7050 C.3       1 M3L        -0.0418
     35 CM3        28.9670   10.2960   23.3610 C.3       1 M3L        -0.0418
     36 N          27.3170    2.8850   27.6290 N.am      1 GLN        -0.2636
     37 CA         27.6270    2.4680   29.0400 C.3       1 GLN         0.1330
     38 C          28.6660    3.4360   29.6410 C.2       1 GLN         0.2036
     39 O          29.4900    3.9650   28.9070 O.2       1 GLN        -0.3944
     40 CB         28.1530    1.0050   29.0970 C.3       1 GLN         0.0045
     41 CG         27.2140   -0.0550   28.5010 C.3       1 GLN         0.0412
     42 CD         25.8000   -0.0390   29.1020 C.2       1 GLN         0.1737
     43 OE1        25.6190   -0.0750   30.3480 O.2       1 GLN        -0.3973
     44 NE2        24.7750    0.0030   28.2140 N.am      1 GLN        -0.3009
     45 N          28.6240    3.6960   30.9500 N.am      1 THR        -0.2670
     46 CA         29.6740    4.5430   31.5730 C.3       1 THR         0.1198
     47 C          30.8390    3.6820   32.0900 C.2       1 THR         0.0626
     48 O          31.9820    4.1500   32.1760 O.co2     1 THR        -0.5665
     49 CB         29.1430    5.4300   32.7300 C.3       1 THR         0.0869
     50 OG1        28.3370    4.6470   33.6250 O.3       1 THR        -0.3880
     51 CG2        28.3330    6.5980   32.1940 C.3       1 THR        -0.0352
     52 O1         30.6278    2.4872   32.4297 O.co2     1 THR        -0.5665
     53 H1         15.1773    3.7931   21.7541 H         1 ALA         0.2015
     54 H2         16.2836    2.5763   21.8240 H         1 ALA         0.2015
     55 H3         16.2901    3.6225   20.5533 H         1 ALA         0.2015
     56 H4         16.9055    5.4682   21.9513 H         1 ALA         0.1095
     57 H5         17.5342    5.0578   24.3051 H         1 ALA         0.0310
     58 H6         16.9696    3.3591   24.1560 H         1 ALA         0.0310
     59 H7         15.7972    4.7118   24.0055 H         1 ALA         0.0310
     60 H8         18.9464    6.0033   21.7120 H         1 ARG         0.1884
     61 H9         20.9816    3.8813   21.2217 H         1 ARG         0.0800
     62 H10        21.1589    6.8785   20.7305 H         1 ARG         0.0313
     63 H11        20.4239    5.7441   19.5474 H         1 ARG         0.0313
     64 H12        22.4649    4.6960   19.1054 H         1 ARG         0.0301
     65 H13        23.2301    5.3483   20.5939 H         1 ARG         0.0301
     66 H14        22.8672    7.6773   19.5996 H         1 ARG         0.0689
     67 H15        22.4438    6.8527   18.0609 H         1 ARG         0.0689
     68 H16        24.8932    5.7412   18.8630 H         1 ARG         0.2642
     69 H17        25.2852    9.5486   17.4570 H         1 ARG         0.2615
     70 H18        23.6907    9.0096   18.0487 H         1 ARG         0.2615
     71 H19        26.8857    6.4554   18.1093 H         1 ARG         0.2615
     72 H20        27.0712    8.1171   17.4872 H         1 ARG         0.2615
     73 H21        22.4968    3.5377   22.7736 H         1 THR         0.1884
     74 H22        22.7064    5.5406   24.9702 H         1 THR         0.0826
     75 H23        22.6110    3.7423   26.6661 H         1 THR         0.0639
     76 H24        22.0026    2.0716   24.4190 H         1 THR         0.2101
     77 H25        20.2014    3.1908   26.4848 H         1 THR         0.0257
     78 H26        20.2120    3.6971   24.7614 H         1 THR         0.0257
     79 H27        20.5085    4.9076   26.0549 H         1 THR         0.0257
     80 H28        24.6037    5.2386   26.3753 H         1 M3L         0.1883
     81 H29        26.7685    3.5150   25.2541 H         1 M3L         0.0800
     82 H30        28.4899    5.1686   25.8995 H         1 M3L         0.0312
     83 H31        27.2063    6.3480   26.3329 H         1 M3L         0.0312
     84 H32        26.5700    6.5488   23.9757 H         1 M3L         0.0269
     85 H33        27.8092    5.3296   23.5233 H         1 M3L         0.0269
     86 H34        28.7809    7.4873   23.0912 H         1 M3L         0.0317
     87 H35        29.5536    6.8627   24.5877 H         1 M3L         0.0317
     88 H36        28.1854    8.3158   25.9766 H         1 M3L         0.0815
     89 H37        27.2144    8.8350   24.5573 H         1 M3L         0.0815
     90 H38        31.1689   10.2570   24.7579 H         1 M3L         0.0778
     91 H39        30.8312    8.5888   24.1838 H         1 M3L         0.0778
     92 H40        30.6863    8.9843   25.9300 H         1 M3L         0.0778
     93 H41        27.7210   11.0347   25.5813 H         1 M3L         0.0778
     94 H42        29.4147   11.6326   25.5589 H         1 M3L         0.0778
     95 H43        28.9309   10.3478   26.7174 H         1 M3L         0.0778
     96 H44        29.2251    9.5386   22.6062 H         1 M3L         0.0778
     97 H45        29.6336   11.1642   23.2521 H         1 M3L         0.0778
     98 H46        27.9238   10.6146   23.2189 H         1 M3L         0.0778
     99 H47        27.6104    2.2963   26.8757 H         1 GLN         0.1883
    100 H48        26.7030    2.5272   29.6338 H         1 GLN         0.0801
    101 H49        28.3290    0.7482   30.1520 H         1 GLN         0.0337
    102 H50        29.1042    0.9643   28.5461 H         1 GLN         0.0337
    103 H51        27.6546   -1.0473   28.6775 H         1 GLN         0.0504
    104 H52        27.1327    0.1229   27.4185 H         1 GLN         0.0504
    105 H53        23.8301    0.0154   28.5412 H         1 GLN         0.1814
    106 H54        24.9644    0.0216   27.2323 H         1 GLN         0.1814
    107 H55        27.8861    3.3208   31.5110 H         1 THR         0.1876
    108 H56        30.0625    5.2118   30.7908 H         1 THR         0.0752
    109 H57        30.0038    5.8280   33.2873 H         1 THR         0.0632
    110 H58        27.6004    4.2820   33.1488 H         1 THR         0.2100
    111 H59        27.9699    7.2085   33.0339 H         1 THR         0.0256
    112 H60        27.4754    6.2169   31.6201 H         1 THR         0.0256
    113 H61        28.9671    7.2145   31.5399 H         1 THR         0.0256
@<TRIPOS>BOND
     1    1    2 1  
     2    2    3 1  
     3    2    5 1  
     4    3    4 2  
     5    3    6 am 
     6    6    7 1  
     7    7    8 1  
     8    7   10 1  
     9    8    9 2  
    10    8   17 am 
    11   10   11 1  
    12   11   12 1  
    13   12   13 1  
    14   13   14 ar 
    15   14   15 ar 
    16   14   16 ar 
    17   17   18 1  
    18   18   19 1  
    19   18   21 1  
    20   19   20 2  
    21   19   24 am 
    22   21   22 1  
    23   21   23 1  
    24   24   25 1  
    25   25   26 1  
    26   25   31 1  
    27   26   27 1  
    28   27   28 1  
    29   28   29 1  
    30   29   30 1  
    31   30   33 1  
    32   30   34 1  
    33   30   35 1  
    34   31   32 2  
    35   31   36 am 
    36   36   37 1  
    37   37   38 1  
    38   37   40 1  
    39   38   39 2  
    40   38   45 am 
    41   40   41 1  
    42   41   42 1  
    43   42   43 2  
    44   42   44 am 
    45   45   46 1  
    46   46   47 1  
    47   46   49 1  
    48   47   48 ar 
    49   49   50 1  
    50   49   51 1  
    51   47   52 ar 
    52    1   53 1  
    53    1   54 1  
    54    1   55 1  
    55    2   56 1  
    56    5   57 1  
    57    5   58 1  
    58    5   59 1  
    59    6   60 1  
    60    7   61 1  
    61   10   62 1  
    62   10   63 1  
    63   11   64 1  
    64   11   65 1  
    65   12   66 1  
    66   12   67 1  
    67   13   68 1  
    68   15   69 1  
    69   15   70 1  
    70   16   71 1  
    71   16   72 1  
    72   17   73 1  
    73   18   74 1  
    74   21   75 1  
    75   22   76 1  
    76   23   77 1  
    77   23   78 1  
    78   23   79 1  
    79   24   80 1  
    80   25   81 1  
    81   26   82 1  
    82   26   83 1  
    83   27   84 1  
    84   27   85 1  
    85   28   86 1  
    86   28   87 1  
    87   29   88 1  
    88   29   89 1  
    89   33   90 1  
    90   33   91 1  
    91   33   92 1  
    92   34   93 1  
    93   34   94 1  
    94   34   95 1  
    95   35   96 1  
    96   35   97 1  
    97   35   98 1  
    98   36   99 1  
    99   37  100 1  
   100   40  101 1  
   101   40  102 1  
   102   41  103 1  
   103   41  104 1  
   104   44  105 1  
   105   44  106 1  
   106   45  107 1  
   107   46  108 1  
   108   49  109 1  
   109   50  110 1  
   110   51  111 1  
   111   51  112 1  
   112   51  113 1  
@<TRIPOS>SUBSTRUCTURE
     1 ALA         1

