4o62_ligand
  -I-interpret- 

113112  0  0  0  0  0  0  0  0999 V2000
   16.1280    3.5320   21.5440 N   0  3  0  0  0
   17.0760    4.4370   22.2940 C   0  0  0  0  0
   18.5180    4.0660   21.9960 C   0  0  0  0  0
   18.8830    2.8900   21.9910 O   0  0  0  0  0
   16.8270    4.3880   23.7940 C   0  0  0  0  0
   19.3320    5.0810   21.7390 N   0  0  0  0  0
   20.7530    4.9220   21.4950 C   0  0  0  0  0
   21.4520    5.2780   22.7910 C   0  0  0  0  0
   21.2110    6.3760   23.3420 O   0  0  0  0  0
   21.1650    5.8450   20.3540 C   0  0  0  0  0
   22.5260    5.5650   19.7770 C   0  0  0  0  0
   23.0190    6.7710   18.9950 C   0  0  0  0  0
   24.4400    6.6460   18.6710 N   0  0  0  0  0
   25.1960    7.6150   18.1450 C   0  0  0  0  0
   24.6850    8.8160   17.8620 N   0  0  0  0  0
   26.4810    7.3780   17.8950 N   0  0  0  0  0
   22.2750    4.3500   23.3130 N   0  0  0  0  0
   22.8560    4.4980   24.6530 C   0  0  0  0  0
   24.3690    4.2010   24.6620 C   0  0  0  0  0
   24.8770    3.5810   23.7280 O   0  0  0  0  0
   22.1660    3.5760   25.6740 C   0  0  0  0  0
   22.3740    2.2120   25.2820 O   0  0  0  0  0
   20.6670    3.8630   25.7490 C   0  0  0  0  0
   25.0690    4.6640   25.7020 N   0  0  0  0  0
   26.4930    4.3640   25.8970 C   0  0  0  0  0
   27.4830    5.5330   25.6480 C   0  0  0  0  0
   27.5520    6.1270   24.2360 C   0  0  0  0  0
   28.6180    7.2420   24.1510 C   0  0  0  0  0
   28.2180    8.5440   24.9010 C   0  0  0  0  0
   29.1260    9.7200   24.7100 N   0  3  0  0  0
   26.6590    4.0220   27.3460 C   0  0  0  0  0
   26.2170    4.7830   28.2280 O   0  0  0  0  0
   30.5430    9.3650   24.9080 C   0  0  0  0  0
   28.7760   10.7490   25.7050 C   0  0  0  0  0
   28.9670   10.2960   23.3610 C   0  0  0  0  0
   27.3170    2.8850   27.6290 N   0  0  0  0  0
   27.6270    2.4680   29.0400 C   0  0  0  0  0
   28.6660    3.4360   29.6410 C   0  0  0  0  0
   29.4900    3.9650   28.9070 O   0  0  0  0  0
   28.1530    1.0050   29.0970 C   0  0  0  0  0
   27.2140   -0.0550   28.5010 C   0  0  0  0  0
   25.8000   -0.0390   29.1020 C   0  0  0  0  0
   25.6190   -0.0750   30.3480 O   0  0  0  0  0
   24.7750    0.0030   28.2140 N   0  0  0  0  0
   28.6240    3.6960   30.9500 N   0  0  0  0  0
   29.6740    4.5430   31.5730 C   0  0  0  0  0
   30.8390    3.6820   32.0900 C   0  0  0  0  0
   31.9820    4.1500   32.1760 O   0  0  0  0  0
   29.1430    5.4300   32.7300 C   0  0  0  0  0
   28.3370    4.6470   33.6250 O   0  0  0  0  0
   28.3330    6.5980   32.1940 C   0  0  0  0  0
   30.6278    2.4872   32.4297 O   0  0  0  0  0
   16.3234    3.5902   20.5446 H   0  0  0  0  0
   16.2550    2.5709   21.8611 H   0  0  0  0  0
   15.1675    3.8257   21.7215 H   0  0  0  0  0
   16.8920    5.4558   21.9531 H   0  0  0  0  0
   17.0224    3.3803   24.1607 H   0  0  0  0  0
   17.4907    5.0932   24.2944 H   0  0  0  0  0
   15.7902    4.6556   23.9978 H   0  0  0  0  0
   18.9386    6.0217   21.7115 H   0  0  0  0  0
   21.0180    3.9064   21.2009 H   0  0  0  0  0
   21.1949    6.8562   20.7597 H   0  0  0  0  0
   20.4437    5.6966   19.5504 H   0  0  0  0  0
   22.4616    4.7066   19.1083 H   0  0  0  0  0
   23.2227    5.3554   20.5886 H   0  0  0  0  0
   22.8783    7.6629   19.6055 H   0  0  0  0  0
   22.4545    6.8373   18.0650 H   0  0  0  0  0
   24.8888    5.7500   18.8612 H   0  0  0  0  0
   25.2786    9.5406   17.4583 H   0  0  0  0  0
   23.7011    9.0087   18.0496 H   0  0  0  0  0
   26.8811    6.4635   18.1046 H   0  0  0  0  0
   22.5012    3.5215   22.7628 H   0  0  0  0  0
   22.6962    5.5382   24.9369 H   0  0  0  0  0
   22.5961    3.7580   26.6589 H   0  0  0  0  0
   21.9464    1.6298   25.9142 H   0  0  0  0  0
   20.5113    4.8984   26.0522 H   0  0  0  0  0
   20.2174    3.6983   24.7698 H   0  0  0  0  0
   20.2068    3.1964   26.4783 H   0  0  0  0  0
   24.5944    5.2501   26.3888 H   0  0  0  0  0
   26.7299    3.5827   25.1749 H   0  0  0  0  0
   28.4735    5.1192   25.8371 H   0  0  0  0  0
   27.1387    6.3456   26.2878 H   0  0  0  0  0
   26.5801    6.5551   23.9906 H   0  0  0  0  0
   27.8208    5.3344   23.5377 H   0  0  0  0  0
   28.7419    7.4961   23.0983 H   0  0  0  0  0
   29.5266    6.8618   24.6180 H   0  0  0  0  0
   28.2474    8.3052   25.9641 H   0  0  0  0  0
   27.2475    8.8398   24.5026 H   0  0  0  0  0
   30.6836    8.9879   25.9210 H   0  0  0  0  0
   30.8273    8.5959   24.1899 H   0  0  0  0  0
   31.1621   10.2497   24.7590 H   0  0  0  0  0
   27.7389   11.0526   25.5624 H   0  0  0  0  0
   28.9018   10.3407   26.7078 H   0  0  0  0  0
   29.4293   11.6123   25.5782 H   0  0  0  0  0
   29.2100    9.5405   22.6138 H   0  0  0  0  0
   27.9361   10.6236   23.2264 H   0  0  0  0  0
   29.6378   11.1479   23.2497 H   0  0  0  0  0
   27.6163    2.2846   26.8607 H   0  0  0  0  0
   26.7077    2.5083   29.6242 H   0  0  0  0  0
   28.2728    0.7577   30.1518 H   0  0  0  0  0
   29.0679    0.9793   28.5050 H   0  0  0  0  0
   27.6477   -1.0315   28.7164 H   0  0  0  0  0
   27.1172    0.1581   27.4364 H   0  0  0  0  0
   23.8111    0.0063   28.5475 H   0  0  0  0  0
   24.9684    0.0312   27.2129 H   0  0  0  0  0
   27.8713    3.3133   31.5222 H   0  0  0  0  0
   30.0216    5.2086   30.7829 H   0  0  0  0  0
   30.0010    5.8269   33.2726 H   0  0  0  0  0
   28.0147    5.2061   34.3357 H   0  0  0  0  0
   28.9624    7.2080   31.5460 H   0  0  0  0  0
   27.4837    6.2190   31.6256 H   0  0  0  0  0
   27.9738    7.2021   33.0271 H   0  0  0  0  0
   29.6989    2.2795   32.3044 H   0  0  0  0  0
  1  2  1  0  0  0
  2  3  1  0  0  0
  2  5  1  0  0  0
  3  4  2  0  0  0
  3  6  1  0  0  0
  6  7  1  0  0  0
  7  8  1  0  0  0
  7 10  1  0  0  0
  8  9  2  0  0  0
  8 17  1  0  0  0
 10 11  1  0  0  0
 11 12  1  0  0  0
 12 13  1  0  0  0
 13 14  1  0  0  0
 14 15  1  0  0  0
 14 16  2  0  0  0
 17 18  1  0  0  0
 18 19  1  0  0  0
 18 21  1  0  0  0
 19 20  2  0  0  0
 19 24  1  0  0  0
 21 22  1  0  0  0
 21 23  1  0  0  0
 24 25  1  0  0  0
 25 26  1  0  0  0
 25 31  1  0  0  0
 26 27  1  0  0  0
 27 28  1  0  0  0
 28 29  1  0  0  0
 29 30  1  0  0  0
 30 33  1  0  0  0
 30 34  1  0  0  0
 30 35  1  0  0  0
 31 32  2  0  0  0
 31 36  1  0  0  0
 36 37  1  0  0  0
 37 38  1  0  0  0
 37 40  1  0  0  0
 38 39  2  0  0  0
 38 45  1  0  0  0
 40 41  1  0  0  0
 41 42  1  0  0  0
 42 43  2  0  0  0
 42 44  1  0  0  0
 45 46  1  0  0  0
 46 47  1  0  0  0
 46 49  1  0  0  0
 47 48  2  0  0  0
 49 50  1  0  0  0
 49 51  1  0  0  0
 47 52  1  0  0  0
  1 53  1  0  0  0
  1 54  1  0  0  0
  1 55  1  0  0  0
  2 56  1  0  0  0
  5 57  1  0  0  0
  5 58  1  0  0  0
  5 59  1  0  0  0
  6 60  1  0  0  0
  7 61  1  0  0  0
 10 62  1  0  0  0
 10 63  1  0  0  0
 11 64  1  0  0  0
 11 65  1  0  0  0
 12 66  1  0  0  0
 12 67  1  0  0  0
 13 68  1  0  0  0
 15 69  1  0  0  0
 15 70  1  0  0  0
 16 71  1  0  0  0
 17 72  1  0  0  0
 18 73  1  0  0  0
 21 74  1  0  0  0
 22 75  1  0  0  0
 23 76  1  0  0  0
 23 77  1  0  0  0
 23 78  1  0  0  0
 24 79  1  0  0  0
 25 80  1  0  0  0
 26 81  1  0  0  0
 26 82  1  0  0  0
 27 83  1  0  0  0
 27 84  1  0  0  0
 28 85  1  0  0  0
 28 86  1  0  0  0
 29 87  1  0  0  0
 29 88  1  0  0  0
 33 89  1  0  0  0
 33 90  1  0  0  0
 33 91  1  0  0  0
 34 92  1  0  0  0
 34 93  1  0  0  0
 34 94  1  0  0  0
 35 95  1  0  0  0
 35 96  1  0  0  0
 35 97  1  0  0  0
 36 98  1  0  0  0
 37 99  1  0  0  0
 40100  1  0  0  0
 40101  1  0  0  0
 41102  1  0  0  0
 41103  1  0  0  0
 44104  1  0  0  0
 44105  1  0  0  0
 45106  1  0  0  0
 46107  1  0  0  0
 49108  1  0  0  0
 50109  1  0  0  0
 51110  1  0  0  0
 51111  1  0  0  0
 51112  1  0  0  0
 52113  1  0  0  0
M  END
$$$$
