2x6d_ligand
  -I-interpret- 

 68 73  0  0  0  0  0  0  0  0999 V2000
    0.6340   37.5200   83.6740 C   0  0  0  0  0
    0.0700   38.8790   83.9810 C   0  0  0  0  0
    0.7720   39.3980   85.1580 O   0  0  0  0  0
    0.5940   38.5710   86.3010 C   0  0  0  0  0
    1.1480   37.1950   85.9770 C   0  0  0  0  0
    0.4230   36.6410   84.8320 N   0  3  0  0  0
    0.9830   35.3240   84.5400 C   0  0  0  0  0
    0.3440   34.6340   83.3450 C   0  0  0  0  0
   -0.5490   33.6410   83.6420 C   0  0  0  0  0
   -1.1630   32.9660   82.6130 C   0  0  0  0  0
    0.6570   34.9420   82.0250 C   0  0  0  0  0
    0.0480   34.2600   80.9960 C   0  0  0  0  0
   -0.9050   33.3100   81.3010 C   0  0  0  0  0
   -1.4880   32.5150   80.3210 C   0  0  0  0  0
   -1.4030   32.6240   79.0030 N   0  0  0  0  0
   -2.1950   31.4210   80.5810 N   0  0  0  0  0
   -2.5600   30.8250   79.4650 C   0  0  0  0  0
   -2.0680   31.6280   78.4390 C   0  0  0  0  0
   -2.2810   31.3310   77.1490 N   0  0  0  0  0
   -2.9770   30.2450   76.8410 C   0  0  0  0  0
   -3.5390   29.3990   77.8140 C   0  0  0  0  0
   -4.4550   27.8960   77.1200 Br  0  0  0  0  0
   -3.3240   29.6820   79.1680 C   0  0  0  0  0
   -3.8650   28.9300   80.2910 N   0  0  0  0  0
   -5.2050   28.7610   80.4210 C   0  0  0  0  0
   -5.8400   27.6630   81.2610 C   0  0  0  0  0
   -3.5800   29.2630   81.7370 C   0  0  0  0  0
   -4.8700   29.1780   82.7260 C   0  0  0  0  0
   -5.3440   27.7840   82.6750 N   0  3  0  0  0
   -6.3090   26.7680   83.1740 C   0  0  0  0  0
   -6.0590   25.3090   82.7820 C   0  0  0  0  0
   -6.8860   24.6310   81.8460 C   0  0  0  0  0
   -6.5840   23.3040   81.5670 C   0  0  0  0  0
   -5.5340   22.6480   82.2120 C   0  0  0  0  0
   -5.1970   21.0150   81.8100 Cl  0  0  0  0  0
   -4.7450   23.3210   83.1420 C   0  0  0  0  0
   -5.0120   24.6550   83.4380 C   0  0  0  0  0
    1.7007   37.6035   83.4658 H   0  0  0  0  0
    0.1329   37.1032   82.8004 H   0  0  0  0  0
   -0.9999   38.8098   84.1777 H   0  0  0  0  0
    0.2087   39.5477   83.1315 H   0  0  0  0  0
   -0.4641   38.5006   86.5532 H   0  0  0  0  0
    1.1179   38.9953   87.1575 H   0  0  0  0  0
    1.0258   36.5393   86.8391 H   0  0  0  0  0
    2.2077   37.2753   85.7347 H   0  0  0  0  0
   -0.5743   36.5678   85.0331 H   0  0  0  0  0
    0.8035   34.6948   85.4118 H   0  0  0  0  0
    2.0384   35.4649   84.3068 H   0  0  0  0  0
   -0.7706   33.3885   84.6789 H   0  0  0  0  0
   -1.8570   32.1552   82.8344 H   0  0  0  0  0
    1.3845   35.7234   81.8055 H   0  0  0  0  0
    0.3137   34.4667   79.9593 H   0  0  0  0  0
   -3.1196   29.9975   75.7891 H   0  0  0  0  0
   -5.5162   28.5026   79.4088 H   0  0  0  0  0
   -5.5153   29.6703   80.9358 H   0  0  0  0  0
   -5.5695   26.6872   80.8576 H   0  0  0  0  0
   -6.9251   27.7644   81.2410 H   0  0  0  0  0
   -3.2315   30.2955   81.7606 H   0  0  0  0  0
   -2.8591   28.5276   82.0943 H   0  0  0  0  0
   -5.6517   29.8682   82.4086 H   0  0  0  0  0
   -4.6015   29.4623   83.7435 H   0  0  0  0  0
   -4.5903   27.5744   83.3295 H   0  0  0  0  0
   -7.2697   27.0316   82.7318 H   0  0  0  0  0
   -6.2334   26.7984   84.2609 H   0  0  0  0  0
   -7.7255   25.1332   81.3652 H   0  0  0  0  0
   -7.1786   22.7644   80.8299 H   0  0  0  0  0
   -3.9217   22.8052   83.6361 H   0  0  0  0  0
   -4.4094   25.1853   84.1754 H   0  0  0  0  0
  1  2  1  0  0  0
  1  6  1  0  0  0
  2  3  1  0  0  0
  3  4  1  0  0  0
  4  5  1  0  0  0
  5  6  1  0  0  0
  6  7  1  0  0  0
  7  8  1  0  0  0
  8  9  4  0  0  0
  8 11  4  0  0  0
  9 10  4  0  0  0
 10 13  4  0  0  0
 11 12  4  0  0  0
 12 13  4  0  0  0
 13 14  1  0  0  0
 14 15  4  0  0  0
 14 16  4  0  0  0
 15 18  4  0  0  0
 16 17  4  0  0  0
 17 18  4  0  0  0
 17 23  4  0  0  0
 18 19  4  0  0  0
 19 20  4  0  0  0
 20 21  4  0  0  0
 21 22  1  0  0  0
 21 23  4  0  0  0
 23 24  1  0  0  0
 24 25  1  0  0  0
 24 27  1  0  0  0
 25 26  1  0  0  0
 26 29  1  0  0  0
 27 28  1  0  0  0
 28 29  1  0  0  0
 29 30  1  0  0  0
 30 31  1  0  0  0
 31 32  4  0  0  0
 31 37  4  0  0  0
 32 33  4  0  0  0
 33 34  4  0  0  0
 34 35  1  0  0  0
 34 36  4  0  0  0
 36 37  4  0  0  0
  1 38  1  0  0  0
  1 39  1  0  0  0
  2 40  1  0  0  0
  2 41  1  0  0  0
  4 42  1  0  0  0
  4 43  1  0  0  0
  5 44  1  0  0  0
  5 45  1  0  0  0
  6 46  1  0  0  0
  7 47  1  0  0  0
  7 48  1  0  0  0
  9 49  1  0  0  0
 10 50  1  0  0  0
 11 51  1  0  0  0
 12 52  1  0  0  0
 20 53  1  0  0  0
 25 54  1  0  0  0
 25 55  1  0  0  0
 26 56  1  0  0  0
 26 57  1  0  0  0
 27 58  1  0  0  0
 27 59  1  0  0  0
 28 60  1  0  0  0
 28 61  1  0  0  0
 29 62  1  0  0  0
 30 63  1  0  0  0
 30 64  1  0  0  0
 32 65  1  0  0  0
 33 66  1  0  0  0
 36 67  1  0  0  0
 37 68  1  0  0  0
M  END
$$$$
