### 
### Created by X-TOOL on Mon Sep 10 21:13:04 2018
### 

@<TRIPOS>MOLECULE
2x6d_ligand
   67    72     1     0     0
SMALL
GAST_HUCK


@<TRIPOS>ATOM
      1 CAN         0.6340   37.5200   83.6740 C.3       1 X6D        -0.0861
      2 CAL         0.0700   38.8790   83.9810 C.3       1 X6D         0.0294
      3 OAY         0.7720   39.3980   85.1580 O.3       1 X6D        -0.3837
      4 CAM         0.5940   38.5710   86.3010 C.3       1 X6D         0.0294
      5 CAO         1.1480   37.1950   85.9770 C.3       1 X6D        -0.0861
      6 NBI         0.4230   36.6410   84.8320 N.4       1 X6D         0.4115
      7 CAT         0.9830   35.3240   84.5400 C.3       1 X6D        -0.0737
      8 CBB         0.3440   34.6340   83.3450 C.ar      1 X6D        -0.0585
      9 CAG        -0.5490   33.6410   83.6420 C.ar      1 X6D        -0.0568
     10 CAI        -1.1630   32.9660   82.6130 C.ar      1 X6D        -0.0508
     11 CAH         0.6570   34.9420   82.0250 C.ar      1 X6D        -0.0568
     12 CAJ         0.0480   34.2600   80.9960 C.ar      1 X6D        -0.0508
     13 CBD        -0.9050   33.3100   81.3010 C.ar      1 X6D         0.0269
     14 CBE        -1.4880   32.5150   80.3210 C.2       1 X6D         0.1374
     15 NAX        -1.4030   32.6240   79.0030 N.pl3     1 X6D        -0.2405
     16 NAW        -2.1950   31.4210   80.5810 N.2       1 X6D        -0.3019
     17 CBH        -2.5600   30.8250   79.4650 C.ar      1 X6D         0.0821
     18 CBG        -2.0680   31.6280   78.4390 C.ar      1 X6D         0.1420
     19 NAV        -2.2810   31.3310   77.1490 N.ar      1 X6D        -0.3004
     20 CAK        -2.9770   30.2450   76.8410 C.ar      1 X6D        -0.0107
     21 CBC        -3.5390   29.3990   77.8140 C.ar      1 X6D         0.0421
     22 BR         -4.4550   27.8960   77.1200 Br        1 X6D        -0.0634
     23 CBF        -3.3240   29.6820   79.1680 C.ar      1 X6D         0.0748
     24 NBK        -3.8650   28.9300   80.2910 N.pl3     1 X6D        -0.3037
     25 CAR        -5.2050   28.7610   80.4210 C.3       1 X6D         0.0121
     26 CAP        -5.8400   27.6630   81.2610 C.3       1 X6D        -0.0893
     27 CAS        -3.5800   29.2630   81.7370 C.3       1 X6D         0.0121
     28 CAQ        -4.8700   29.1780   82.7260 C.3       1 X6D        -0.0893
     29 NBJ        -5.3440   27.7840   82.6750 N.4       1 X6D         0.4107
     30 CAU        -6.3090   26.7680   83.1740 C.3       1 X6D        -0.0759
     31 CBA        -6.0590   25.3090   82.7820 C.ar      1 X6D        -0.0629
     32 CAE        -6.8860   24.6310   81.8460 C.ar      1 X6D        -0.0617
     33 CAC        -6.5840   23.3040   81.5670 C.ar      1 X6D        -0.0547
     34 CAZ        -5.5340   22.6480   82.2120 C.ar      1 X6D         0.0330
     35 CL         -5.1970   21.0150   81.8100 Cl        1 X6D        -0.0771
     36 CAD        -4.7450   23.3210   83.1420 C.ar      1 X6D        -0.0547
     37 CAF        -5.0120   24.6550   83.4380 C.ar      1 X6D        -0.0617
     38 H           1.7007   37.6035   83.4658 H         1 X6D         0.0043
     39 H           0.1329   37.1032   82.8004 H         1 X6D         0.0043
     40 H          -0.9999   38.8098   84.1777 H         1 X6D         0.0539
     41 H           0.2087   39.5477   83.1315 H         1 X6D         0.0539
     42 H          -0.4641   38.5006   86.5532 H         1 X6D         0.0539
     43 H           1.1179   38.9953   87.1575 H         1 X6D         0.0539
     44 H           1.0258   36.5393   86.8391 H         1 X6D         0.0043
     45 H           2.2077   37.2753   85.7347 H         1 X6D         0.0043
     46 H           0.8035   34.6948   85.4118 H         1 X6D         0.0194
     47 H           2.0384   35.4649   84.3068 H         1 X6D         0.0194
     48 H          -0.7706   33.3885   84.6789 H         1 X6D         0.0570
     49 H          -1.8570   32.1552   82.8344 H         1 X6D         0.0645
     50 H           1.3845   35.7234   81.8055 H         1 X6D         0.0570
     51 H           0.3137   34.4667   79.9593 H         1 X6D         0.0645
     52 H          -0.9040   33.3592   78.5022 H         1 X6D         0.2328
     53 H          -3.1196   29.9975   75.7891 H         1 X6D         0.0739
     54 H          -5.5162   28.5026   79.4088 H         1 X6D         0.0503
     55 H          -5.5153   29.6703   80.9358 H         1 X6D         0.0503
     56 H          -5.5695   26.6872   80.8576 H         1 X6D         0.0040
     57 H          -6.9251   27.7644   81.2410 H         1 X6D         0.0040
     58 H          -3.2315   30.2955   81.7606 H         1 X6D         0.0503
     59 H          -2.8591   28.5276   82.0943 H         1 X6D         0.0503
     60 H          -5.6517   29.8682   82.4086 H         1 X6D         0.0040
     61 H          -4.6015   29.4623   83.7435 H         1 X6D         0.0040
     62 H          -7.2697   27.0316   82.7318 H         1 X6D         0.0183
     63 H          -6.2334   26.7984   84.2609 H         1 X6D         0.0183
     64 H          -7.7255   25.1332   81.3652 H         1 X6D         0.0557
     65 H          -7.1786   22.7644   80.8299 H         1 X6D         0.0606
     66 H          -3.9217   22.8052   83.6361 H         1 X6D         0.0606
     67 H          -4.4094   25.1853   84.1754 H         1 X6D         0.0557
@<TRIPOS>BOND
     1    1    2 1  
     2    1    6 1  
     3    2    3 1  
     4    3    4 1  
     5    4    5 1  
     6    5    6 1  
     7    6    7 1  
     8    7    8 1  
     9    8    9 ar 
    10    8   11 ar 
    11    9   10 ar 
    12   10   13 ar 
    13   11   12 ar 
    14   12   13 ar 
    15   13   14 1  
    16   14   15 1  
    17   14   16 2  
    18   15   18 1  
    19   16   17 1  
    20   17   18 ar 
    21   17   23 ar 
    22   18   19 ar 
    23   19   20 ar 
    24   20   21 ar 
    25   21   22 1  
    26   21   23 ar 
    27   23   24 1  
    28   24   25 1  
    29   24   27 1  
    30   25   26 1  
    31   26   29 1  
    32   27   28 1  
    33   28   29 1  
    34   29   30 1  
    35   30   31 1  
    36   31   32 ar 
    37   31   37 ar 
    38   32   33 ar 
    39   33   34 ar 
    40   34   35 1  
    41   34   36 ar 
    42   36   37 ar 
    43    1   38 1  
    44    1   39 1  
    45    2   40 1  
    46    2   41 1  
    47    4   42 1  
    48    4   43 1  
    49    5   44 1  
    50    5   45 1  
    51    7   46 1  
    52    7   47 1  
    53    9   48 1  
    54   10   49 1  
    55   11   50 1  
    56   12   51 1  
    57   15   52 1  
    58   20   53 1  
    59   25   54 1  
    60   25   55 1  
    61   26   56 1  
    62   26   57 1  
    63   27   58 1  
    64   27   59 1  
    65   28   60 1  
    66   28   61 1  
    67   30   62 1  
    68   30   63 1  
    69   32   64 1  
    70   33   65 1  
    71   36   66 1  
    72   37   67 1  
@<TRIPOS>SUBSTRUCTURE
     1 X6D         1

