6oa3_ligand
  -I-interpret- 

 41 43  0  0  0  0  0  0  0  0999 V2000
   -1.9410  -13.3030   24.8790 C   0  0  0  0  0
   -1.0070  -13.8940   25.9310 C   0  0  0  0  0
    0.8960  -12.8440   25.0150 C   0  0  0  0  0
   -2.5330   -8.2730   26.3250 C   0  0  0  0  0
   -2.6800   -8.3670   24.8580 C   0  0  0  0  0
   -3.2280   -7.2270   24.0520 C   0  0  0  0  0
   -2.7670   -8.8810   22.7660 C   0  0  0  0  0
   -1.5670  -11.2250   21.6880 C   0  0  0  0  0
   -2.1870  -12.2040   22.6920 C   0  0  0  0  0
    0.0850  -12.3190   23.8200 C   0  0  0  0  0
   -4.1070   -4.9260   23.7780 C   0  0  0  0  0
   -3.4460   -5.9350   26.0410 C   0  0  0  0  0
   -2.8850   -6.8440   28.2740 C   0  0  0  0  0
   -3.2350   -7.5990   22.7320 N   0  0  0  0  0
   -1.2400  -12.9620   23.6070 N   0  3  0  0  0
   -2.3980   -9.3410   24.0020 N   0  0  0  0  0
   -3.5920   -6.0510   24.6030 N   0  0  0  0  0
   -2.9590   -7.0060   26.8440 N   0  0  0  0  0
    0.0350  -12.9330   26.1350 O   0  0  0  0  0
   -3.7400   -4.8570   26.5660 O   0  0  0  0  0
   -1.9290   -9.5720   27.2630 S   0  0  0  0  0
   -2.5680   -9.8290   21.2970 S   0  0  0  0  0
   -2.3605  -12.3826   25.2853 H   0  0  0  0  0
   -2.7009  -14.0503   24.6506 H   0  0  0  0  0
   -0.5984  -14.8482   25.5984 H   0  0  0  0  0
   -1.5415  -14.0934   26.8598 H   0  0  0  0  0
    1.7215  -12.1661   25.2321 H   0  0  0  0  0
    1.3088  -13.8258   24.7830 H   0  0  0  0  0
   -1.4192  -11.7769   20.7597 H   0  0  0  0  0
   -0.6547  -10.8409   22.1444 H   0  0  0  0  0
   -2.6863  -12.9641   22.0912 H   0  0  0  0  0
   -2.8078  -11.5961   23.3502 H   0  0  0  0  0
    0.6768  -12.5291   22.9291 H   0  0  0  0  0
   -0.1116  -11.2656   24.0193 H   0  0  0  0  0
   -5.1122   -4.6650   24.1088 H   0  0  0  0  0
   -3.4503   -4.0635   23.8916 H   0  0  0  0  0
   -4.1346   -5.2279   22.7310 H   0  0  0  0  0
   -2.2253   -6.0091   28.5101 H   0  0  0  0  0
   -3.8815   -6.6440   28.6678 H   0  0  0  0  0
   -2.4924   -7.7569   28.7220 H   0  0  0  0  0
   -0.9909  -13.8249   23.1235 H   0  0  0  0  0
  1  2  1  0  0  0
 15  1  1  0  0  0
  2 19  1  0  0  0
  3 10  1  0  0  0
 19  3  1  0  0  0
  5  4  1  0  0  0
  4 18  1  0  0  0
  4 21  2  0  0  0
  5  6  4  0  0  0
 16  5  4  0  0  0
 14  6  4  0  0  0
  6 17  1  0  0  0
  7 14  4  0  0  0
  7 16  4  0  0  0
 22  7  1  0  0  0
  9  8  1  0  0  0
  8 22  1  0  0  0
  9 15  1  0  0  0
 10 15  1  0  0  0
 17 11  1  0  0  0
 17 12  1  0  0  0
 12 18  1  0  0  0
 12 20  2  0  0  0
 18 13  1  0  0  0
  1 23  1  0  0  0
  1 24  1  0  0  0
  2 25  1  0  0  0
  2 26  1  0  0  0
  3 27  1  0  0  0
  3 28  1  0  0  0
  8 29  1  0  0  0
  8 30  1  0  0  0
  9 31  1  0  0  0
  9 32  1  0  0  0
 10 33  1  0  0  0
 10 34  1  0  0  0
 11 35  1  0  0  0
 11 36  1  0  0  0
 11 37  1  0  0  0
 13 38  1  0  0  0
 13 39  1  0  0  0
 13 40  1  0  0  0
 15 41  1  0  0  0
M  END
$$$$
