3qel_ligand
  -I-interpret- 

 50 52  0  0  0  0  0  0  0  0999 V2000
   80.4990    1.0220  -32.1880 C   0  0  0  0  0
   86.1030    6.6010  -31.8820 N   0  3  0  0  0
   85.8250    9.4300  -32.0130 O   0  0  0  0  0
   90.3220   10.1020  -30.7460 C   0  0  0  0  0
   91.8370   11.8350  -31.6200 O   0  0  0  0  0
   89.8100   11.3520  -32.6850 C   0  0  0  0  0
   82.3370    2.8190  -31.0800 C   0  0  0  0  0
   81.0490    3.2530  -31.3780 C   0  0  0  0  0
   80.1200    2.3640  -31.9320 C   0  0  0  0  0
   83.2980    3.7680  -30.4370 C   0  0  0  0  0
   84.5530    4.2650  -31.2710 C   0  0  0  0  0
   84.1340    5.1320  -32.3440 C   0  0  0  0  0
   81.7840    0.5860  -31.8850 C   0  0  0  0  0
   82.7080    1.4760  -31.3200 C   0  0  0  0  0
   85.2520    5.9610  -32.9120 C   0  0  0  0  0
   86.4740    5.7800  -30.7630 C   0  0  0  0  0
   85.3560    4.9570  -30.2410 C   0  0  0  0  0
   87.0920    7.4840  -32.5220 C   0  0  0  0  0
   86.9410    8.9080  -32.0930 C   0  0  0  0  0
   88.2560    9.6610  -31.8720 C   0  0  0  0  0
   89.1030    9.3780  -30.8670 C   0  0  0  0  0
   90.6370   11.0920  -31.6860 C   0  0  0  0  0
   88.5940   10.6190  -32.7980 C   0  0  0  0  0
   86.9830    7.5240  -33.9870 C   0  0  0  0  0
   79.7797    0.3289  -32.6243 H   0  0  0  0  0
   85.5384    7.2420  -31.3246 H   0  0  0  0  0
   91.0073    9.8874  -29.9260 H   0  0  0  0  0
   91.8660   12.4593  -32.3487 H   0  0  0  0  0
   90.0572   12.1215  -33.4163 H   0  0  0  0  0
   80.7630    4.2860  -31.1800 H   0  0  0  0  0
   79.1103    2.7020  -32.1653 H   0  0  0  0  0
   83.7178    3.2181  -29.5947 H   0  0  0  0  0
   82.7163    4.6680  -30.2378 H   0  0  0  0  0
   85.1149    3.4756  -31.7702 H   0  0  0  0  0
   83.3885    5.8174  -31.9409 H   0  0  0  0  0
   83.7521    4.5010  -33.1465 H   0  0  0  0  0
   82.0723   -0.4457  -32.0864 H   0  0  0  0  0
   83.7110    1.1331  -31.0661 H   0  0  0  0  0
   85.8894    5.2939  -33.4923 H   0  0  0  0  0
   84.7991    6.7583  -33.5013 H   0  0  0  0  0
   86.7963    6.4437  -29.9607 H   0  0  0  0  0
   87.2549    5.0982  -31.0999 H   0  0  0  0  0
   85.8014    4.1820  -29.6171 H   0  0  0  0  0
   84.6812    5.6374  -29.7216 H   0  0  0  0  0
   88.0455    7.0562  -32.2122 H   0  0  0  0  0
   88.8569    8.5969  -30.1476 H   0  0  0  0  0
   87.9212   10.8208  -33.6315 H   0  0  0  0  0
   86.0115    7.9314  -34.2668 H   0  0  0  0  0
   87.7736    8.1559  -34.3918 H   0  0  0  0  0
   87.0834    6.5143  -34.3852 H   0  0  0  0  0
  9  1  4  0  0  0
 13  1  4  0  0  0
  2 15  1  0  0  0
  2 16  1  0  0  0
 18  2  1  0  0  0
 19  3  2  0  0  0
 21  4  4  0  0  0
  4 22  4  0  0  0
 22  5  1  0  0  0
 22  6  4  0  0  0
  6 23  4  0  0  0
  7  8  4  0  0  0
 10  7  1  0  0  0
  7 14  4  0  0  0
  8  9  4  0  0  0
 11 10  1  0  0  0
 12 11  1  0  0  0
 17 11  1  0  0  0
 15 12  1  0  0  0
 14 13  4  0  0  0
 16 17  1  0  0  0
 19 18  1  0  0  0
 18 24  1  0  0  0
 20 19  1  0  0  0
 20 21  4  0  0  0
 20 23  4  0  0  0
  1 25  1  0  0  0
  2 26  1  0  0  0
  4 27  1  0  0  0
  5 28  1  0  0  0
  6 29  1  0  0  0
  8 30  1  0  0  0
  9 31  1  0  0  0
 10 32  1  0  0  0
 10 33  1  0  0  0
 11 34  1  0  0  0
 12 35  1  0  0  0
 12 36  1  0  0  0
 13 37  1  0  0  0
 14 38  1  0  0  0
 15 39  1  0  0  0
 15 40  1  0  0  0
 16 41  1  0  0  0
 16 42  1  0  0  0
 17 43  1  0  0  0
 17 44  1  0  0  0
 18 45  1  0  0  0
 21 46  1  0  0  0
 23 47  1  0  0  0
 24 48  1  0  0  0
 24 49  1  0  0  0
 24 50  1  0  0  0
M  END
$$$$
