### 
### Created by X-TOOL on Mon Sep 10 21:13:06 2018
### 

@<TRIPOS>MOLECULE
3qel_ligand
   49    51     1     0     0
SMALL
GAST_HUCK


@<TRIPOS>ATOM
      1 C1         80.4990    1.0220  -32.1880 C.ar      1 QEL        -0.0687
      2 N1         86.1030    6.6010  -31.8820 N.4       1 QEL         0.4143
      3 O1         85.8250    9.4300  -32.0130 O.2       1 QEL        -0.3859
      4 C2         90.3220   10.1020  -30.7460 C.ar      1 QEL        -0.0268
      5 O2         91.8370   11.8350  -31.6200 O.3       1 QEL        -0.3293
      6 C3         89.8100   11.3520  -32.6850 C.ar      1 QEL        -0.0268
      7 C4         82.3370    2.8190  -31.0800 C.ar      1 QEL        -0.0428
      8 C5         81.0490    3.2530  -31.3780 C.ar      1 QEL        -0.0603
      9 C6         80.1200    2.3640  -31.9320 C.ar      1 QEL        -0.0686
     10 C7         83.2980    3.7680  -30.4370 C.3       1 QEL        -0.0165
     11 C8         84.5530    4.2650  -31.2710 C.3       1 QEL        -0.0350
     12 C9         84.1340    5.1320  -32.3440 C.3       1 QEL        -0.0669
     13 C01        81.7840    0.5860  -31.8850 C.ar      1 QEL        -0.0686
     14 C02        82.7080    1.4760  -31.3200 C.ar      1 QEL        -0.0603
     15 C10        85.2520    5.9610  -32.9120 C.3       1 QEL        -0.1091
     16 C11        86.4740    5.7800  -30.7630 C.3       1 QEL        -0.1091
     17 C12        85.3560    4.9570  -30.2410 C.3       1 QEL        -0.0669
     18 C13        87.0920    7.4840  -32.5220 C.3       1 QEL        -0.0255
     19 C14        86.9410    8.9080  -32.0930 C.2       1 QEL         0.1073
     20 C15        88.2560    9.6610  -31.8720 C.ar      1 QEL         0.0195
     21 C16        89.1030    9.3780  -30.8670 C.ar      1 QEL        -0.0515
     22 C18        90.6370   11.0920  -31.6860 C.ar      1 QEL         0.0935
     23 C19        88.5940   10.6190  -32.7980 C.ar      1 QEL        -0.0515
     24 C24        86.9830    7.5240  -33.9870 C.3       1 QEL        -0.0660
     25 H          79.7797    0.3289  -32.6243 H         1 QEL         0.0559
     26 H          91.0073    9.8874  -29.9260 H         1 QEL         0.0557
     27 H          91.8717   12.3115  -30.7873 H         1 QEL         0.2502
     28 H          90.0572   12.1215  -33.4163 H         1 QEL         0.0557
     29 H          80.7630    4.2860  -31.1800 H         1 QEL         0.0557
     30 H          79.1103    2.7020  -32.1653 H         1 QEL         0.0599
     31 H          83.7178    3.2181  -29.5947 H         1 QEL         0.0429
     32 H          82.7163    4.6680  -30.2378 H         1 QEL         0.0429
     33 H          85.1149    3.4756  -31.7702 H         1 QEL         0.0321
     34 H          83.3885    5.8174  -31.9409 H         1 QEL         0.0250
     35 H          83.7521    4.5010  -33.1465 H         1 QEL         0.0250
     36 H          82.0723   -0.4457  -32.0864 H         1 QEL         0.0599
     37 H          83.7110    1.1331  -31.0661 H         1 QEL         0.0557
     38 H          85.8894    5.2939  -33.4923 H         1 QEL         0.0020
     39 H          84.7991    6.7583  -33.5013 H         1 QEL         0.0020
     40 H          86.7963    6.4437  -29.9607 H         1 QEL         0.0020
     41 H          87.2549    5.0982  -31.0999 H         1 QEL         0.0020
     42 H          85.8014    4.1820  -29.6171 H         1 QEL         0.0250
     43 H          84.6812    5.6374  -29.7216 H         1 QEL         0.0250
     44 H          88.0455    7.0562  -32.2122 H         1 QEL         0.0271
     45 H          88.8569    8.5969  -30.1476 H         1 QEL         0.0645
     46 H          87.9212   10.8208  -33.6315 H         1 QEL         0.0645
     47 H          86.0115    7.9314  -34.2668 H         1 QEL         0.0236
     48 H          87.7736    8.1559  -34.3918 H         1 QEL         0.0236
     49 H          87.0834    6.5143  -34.3852 H         1 QEL         0.0236
@<TRIPOS>BOND
     1    9    1 ar 
     2   13    1 ar 
     3    2   15 1  
     4    2   16 1  
     5   18    2 1  
     6   19    3 2  
     7   21    4 ar 
     8    4   22 ar 
     9   22    5 1  
    10   22    6 ar 
    11    6   23 ar 
    12    7    8 ar 
    13   10    7 1  
    14    7   14 ar 
    15    8    9 ar 
    16   11   10 1  
    17   12   11 1  
    18   17   11 1  
    19   15   12 1  
    20   14   13 ar 
    21   16   17 1  
    22   19   18 1  
    23   18   24 1  
    24   20   19 1  
    25   20   21 ar 
    26   20   23 ar 
    27    1   25 1  
    28    4   26 1  
    29    5   27 1  
    30    6   28 1  
    31    8   29 1  
    32    9   30 1  
    33   10   31 1  
    34   10   32 1  
    35   11   33 1  
    36   12   34 1  
    37   12   35 1  
    38   13   36 1  
    39   14   37 1  
    40   15   38 1  
    41   15   39 1  
    42   16   40 1  
    43   16   41 1  
    44   17   42 1  
    45   17   43 1  
    46   18   44 1  
    47   21   45 1  
    48   23   46 1  
    49   24   47 1  
    50   24   48 1  
    51   24   49 1  
@<TRIPOS>SUBSTRUCTURE
     1 QEL         1

