2c97_ligand
  -I-interpret- 

 30 30  0  0  0  0  0  0  0  0999 V2000
  -24.0530   -0.7470    6.6790 N   0  0  0  0  0
  -23.5450   -2.5420    5.2400 N   0  0  0  0  0
  -22.8090   -1.7380    4.4860 C   0  0  0  0  0
  -22.0600   -2.4610    3.0870 Cl  0  0  0  0  0
  -22.6120   -0.3030    4.7730 C   0  0  0  0  0
  -21.8080    0.6350    3.8890 C   0  0  0  0  0
  -24.1540   -2.0540    6.3170 C   0  0  0  0  0
  -23.3310    0.1700    5.9800 C   0  0  0  0  0
  -24.8160   -2.8710    6.9850 O   0  0  0  0  0
  -23.2490    1.3840    6.3310 O   0  0  0  0  0
  -20.3480    0.2740    3.5930 C   0  0  0  0  0
  -19.6430    1.5650    3.1770 C   0  0  0  0  0
  -19.3620    1.6740    1.7060 C   0  0  0  0  0
  -19.7170    2.8580    0.9330 O   0  0  0  0  0
  -18.7350    4.1070    0.5960 P   0  0  0  0  0
  -19.6540    5.2710    0.9050 O   0  0  0  0  0
  -17.5600    3.9090    1.5270 O   0  0  0  0  0
  -18.3970    4.0610   -0.8760 O   0  0  0  0  0
  -24.5440   -0.4383    7.5180 H   0  0  0  0  0
  -23.6436   -3.5275    4.9962 H   0  0  0  0  0
  -21.7671    1.5790    4.4325 H   0  0  0  0  0
  -22.3103    0.6208    2.9217 H   0  0  0  0  0
  -20.2885   -0.4706    2.7992 H   0  0  0  0  0
  -19.8720   -0.1587    4.4730 H   0  0  0  0  0
  -18.6804    1.5820    3.6880 H   0  0  0  0  0
  -20.3069    2.3894    3.4372 H   0  0  0  0  0
  -19.9811    0.8901    1.2698 H   0  0  0  0  0
  -18.2735    1.6518    1.6524 H   0  0  0  0  0
  -19.8539    5.2789    1.8439 H   0  0  0  0  0
  -17.8631    3.9528    2.4368 H   0  0  0  0  0
  7  1  1  0  0  0
  1  8  1  0  0  0
  2  3  1  0  0  0
  2  7  1  0  0  0
  3  4  1  0  0  0
  3  5  2  0  0  0
  5  6  1  0  0  0
  5  8  1  0  0  0
  6 11  1  0  0  0
  7  9  2  0  0  0
  8 10  2  0  0  0
 11 12  1  0  0  0
 12 13  1  0  0  0
 13 14  1  0  0  0
 14 15  1  0  0  0
 15 16  1  0  0  0
 15 17  1  0  0  0
 15 18  2  0  0  0
  1 19  1  0  0  0
  2 20  1  0  0  0
  6 21  1  0  0  0
  6 22  1  0  0  0
 11 23  1  0  0  0
 11 24  1  0  0  0
 12 25  1  0  0  0
 12 26  1  0  0  0
 13 27  1  0  0  0
 13 28  1  0  0  0
 16 29  1  0  0  0
 17 30  1  0  0  0
M  END
$$$$
