6f3g_ligand
  -I-interpret- 

 50 52  0  0  0  0  0  0  0  0999 V2000
  -29.0880  -16.6240  -12.5720 C   0  0  0  0  0
  -27.7580  -15.9750  -12.1550 C   0  0  0  0  0
  -27.8430  -14.4910  -12.5550 C   0  0  0  0  0
  -26.5090  -16.4050   -8.6600 C   0  0  0  0  0
  -24.2520  -16.3250   -8.0710 C   0  0  0  0  0
  -24.8280  -16.0590  -10.3370 C   0  0  0  0  0
  -22.9210  -15.8670  -11.9690 C   0  0  0  0  0
  -22.7380  -15.0740  -13.2790 C   0  0  0  0  0
  -21.2310  -14.9700  -13.5710 C   0  0  0  0  0
  -20.8590  -17.2860  -12.5140 C   0  0  0  0  0
  -22.3500  -17.3000  -12.1270 C   0  0  0  0  0
  -18.2280  -15.7170  -13.1260 C   0  0  0  0  0
  -26.2180  -16.1830  -10.0360 C   0  0  0  0  0
  -27.4650  -16.1660  -10.7100 N   0  0  0  0  0
  -28.4650  -16.3780   -9.7950 C   0  0  0  0  0
  -27.9580  -16.5170   -8.5610 C   0  0  0  0  0
  -25.5220  -16.4600   -7.7500 N   0  0  0  0  0
  -23.9290  -16.1470   -9.3390 N   0  0  0  0  0
  -24.3610  -15.8820  -11.6310 N   0  0  0  0  0
  -20.6130  -16.3820  -13.7440 C   0  0  0  0  0
  -19.1640  -16.3210  -14.0940 N   0  3  0  0  0
  -18.8680  -15.9140  -15.4900 C   0  0  0  0  0
  -29.0458  -17.6951  -12.3744 H   0  0  0  0  0
  -29.9027  -16.1795  -12.0003 H   0  0  0  0  0
  -29.2550  -16.4558  -13.6359 H   0  0  0  0  0
  -26.9217  -16.4532  -12.6649 H   0  0  0  0  0
  -28.6377  -14.0078  -11.9866 H   0  0  0  0  0
  -26.8924  -14.0030  -12.3399 H   0  0  0  0  0
  -28.0589  -14.4151  -13.6207 H   0  0  0  0  0
  -23.4798  -16.3596   -7.3024 H   0  0  0  0  0
  -22.3727  -15.3936  -11.1545 H   0  0  0  0  0
  -23.1698  -14.0783  -13.1779 H   0  0  0  0  0
  -23.2445  -15.5829  -14.0991 H   0  0  0  0  0
  -20.7420  -14.4692  -12.7355 H   0  0  0  0  0
  -21.0867  -14.4049  -14.4918 H   0  0  0  0  0
  -20.5527  -18.3025  -12.7608 H   0  0  0  0  0
  -20.2838  -16.8968  -11.6739 H   0  0  0  0  0
  -22.9038  -17.8027  -12.9199 H   0  0  0  0  0
  -22.4498  -17.8146  -11.1713 H   0  0  0  0  0
  -18.5138  -14.6810  -12.9441 H   0  0  0  0  0
  -18.2647  -16.2750  -12.1904 H   0  0  0  0  0
  -17.2166  -15.7505  -13.5311 H   0  0  0  0  0
  -29.5265  -16.4268  -10.0377 H   0  0  0  0  0
  -28.5284  -16.6840   -7.6473 H   0  0  0  0  0
  -25.0398  -15.7568  -12.3819 H   0  0  0  0  0
  -21.1310  -16.8410  -14.5860 H   0  0  0  0  0
  -18.9512  -17.3155  -14.0163 H   0  0  0  0  0
  -18.9450  -14.8301  -15.5752 H   0  0  0  0  0
  -17.8583  -16.2295  -15.7528 H   0  0  0  0  0
  -19.5840  -16.3845  -16.1639 H   0  0  0  0  0
  2  1  1  0  0  0
  2  3  1  0  0  0
 14  2  1  0  0  0
 13  4  4  0  0  0
  4 16  4  0  0  0
  4 17  4  0  0  0
  5 17  4  0  0  0
 18  5  4  0  0  0
  6 13  4  0  0  0
  6 18  4  0  0  0
 19  6  1  0  0  0
  8  7  1  0  0  0
 11  7  1  0  0  0
  7 19  1  0  0  0
  9  8  1  0  0  0
 20  9  1  0  0  0
 10 11  1  0  0  0
 20 10  1  0  0  0
 21 12  1  0  0  0
 13 14  4  0  0  0
 14 15  4  0  0  0
 15 16  4  0  0  0
 20 21  1  0  0  0
 21 22  1  0  0  0
  1 23  1  0  0  0
  1 24  1  0  0  0
  1 25  1  0  0  0
  2 26  1  0  0  0
  3 27  1  0  0  0
  3 28  1  0  0  0
  3 29  1  0  0  0
  5 30  1  0  0  0
  7 31  1  0  0  0
  8 32  1  0  0  0
  8 33  1  0  0  0
  9 34  1  0  0  0
  9 35  1  0  0  0
 10 36  1  0  0  0
 10 37  1  0  0  0
 11 38  1  0  0  0
 11 39  1  0  0  0
 12 40  1  0  0  0
 12 41  1  0  0  0
 12 42  1  0  0  0
 15 43  1  0  0  0
 16 44  1  0  0  0
 19 45  1  0  0  0
 20 46  1  0  0  0
 21 47  1  0  0  0
 22 48  1  0  0  0
 22 49  1  0  0  0
 22 50  1  0  0  0
M  END
$$$$
