4nym_ligand
  -I-interpret- 

 60 64  0  0  0  0  0  0  0  0999 V2000
   35.7100   30.0140   24.7010 C   0  0  0  0  0
   35.6410   30.0620   26.1410 C   0  0  0  0  0
   34.4500   29.8290   26.8160 C   0  0  0  0  0
   33.3160   29.5360   26.0780 C   0  0  0  0  0
   33.3870   29.4820   24.6070 C   0  0  0  0  0
   34.5540   29.7170   23.9450 C   0  0  0  0  0
   32.4050   29.2110   23.6470 N   0  0  0  0  0
   34.2800   29.5820   22.5160 C   0  0  0  0  0
   32.9210   29.2690   22.4250 C   0  0  0  0  0
   35.2020   29.7390   21.3460 C   0  0  0  0  0
   36.2000   28.6360   21.2940 N   0  3  0  0  0
   37.1700   27.9590   22.2010 C   0  0  0  0  0
   37.8370   26.7780   21.6040 C   0  0  0  0  0
   38.4260   27.1400   20.3170 C   0  0  0  0  0
   37.3740   27.6460   19.4270 C   0  0  0  0  0
   36.7670   28.9010   19.9840 C   0  0  0  0  0
   39.4230   28.2330   20.4580 N   0  0  0  0  0
   40.8240   28.0320   20.8310 C   0  0  0  0  0
   41.7690   29.1860   20.9310 C   0  0  0  0  0
   41.2620   26.9280   21.0520 O   0  0  0  0  0
   41.6790   29.9550   22.2640 C   0  0  0  0  0
   41.5990   30.0680   19.8450 N   0  3  0  0  0
   40.4710   30.7250   22.7420 C   0  0  0  0  0
   38.9180   31.5360   24.1830 N   0  0  0  0  0
   40.0230   30.7350   24.0660 C   0  0  0  0  0
   39.5520   31.6020   22.0200 C   0  0  0  0  0
   38.6170   32.0660   22.9600 C   0  0  0  0  0
   37.5360   32.9690   22.5710 C   0  0  0  0  0
   37.4470   33.3630   21.2610 C   0  0  0  0  0
   38.3820   32.8990   20.3030 C   0  0  0  0  0
   39.4460   32.0110   20.6890 C   0  0  0  0  0
   36.6559   30.2073   24.1951 H   0  0  0  0  0
   36.5426   30.2858   26.7112 H   0  0  0  0  0
   34.4089   29.8758   27.9042 H   0  0  0  0  0
   32.3702   29.3452   26.5851 H   0  0  0  0  0
   32.3722   29.0995   21.4986 H   0  0  0  0  0
   35.7343   30.6848   21.4475 H   0  0  0  0  0
   34.6098   29.7152   20.4312 H   0  0  0  0  0
   35.6198   27.9014   21.6991 H   0  0  0  0  0
   36.6093   27.6081   23.0674 H   0  0  0  0  0
   37.9494   28.6835   22.4370 H   0  0  0  0  0
   37.1025   25.9867   21.4543 H   0  0  0  0  0
   38.6227   26.4305   22.2748 H   0  0  0  0  0
   38.9079   26.2464   19.9203 H   0  0  0  0  0
   36.5956   26.8886   19.3349 H   0  0  0  0  0
   37.8120   27.8679   18.4539 H   0  0  0  0  0
   37.5394   29.6648   20.0742 H   0  0  0  0  0
   35.9795   29.2474   19.3147 H   0  0  0  0  0
   39.1098   29.1878   20.2830 H   0  0  0  0  0
   42.7681   28.7515   20.8974 H   0  0  0  0  0
   42.4176   30.7447   22.1263 H   0  0  0  0  0
   41.7486   29.1533   22.9992 H   0  0  0  0  0
   42.2529   30.8457   19.9346 H   0  0  0  0  0
   41.7783   29.5702   18.9730 H   0  0  0  0  0
   40.6432   30.4242   19.8442 H   0  0  0  0  0
   40.4855   30.1855   24.8859 H   0  0  0  0  0
   36.8147   33.3223   23.3079 H   0  0  0  0  0
   36.6495   34.0395   20.9536 H   0  0  0  0  0
   38.2944   33.2177   19.2643 H   0  0  0  0  0
   40.1642   31.6600   19.9480 H   0  0  0  0  0
  1  2  4  0  0  0
  1  6  4  0  0  0
  2  3  4  0  0  0
  3  4  4  0  0  0
  4  5  4  0  0  0
  5  6  4  0  0  0
  5  7  4  0  0  0
  6  8  4  0  0  0
  7  9  4  0  0  0
  8  9  4  0  0  0
  8 10  1  0  0  0
 10 11  1  0  0  0
 11 12  1  0  0  0
 11 16  1  0  0  0
 12 13  1  0  0  0
 13 14  1  0  0  0
 14 15  1  0  0  0
 14 17  1  0  0  0
 15 16  1  0  0  0
 17 18  1  0  0  0
 18 19  1  0  0  0
 18 20  2  0  0  0
 19 21  1  0  0  0
 19 22  1  0  0  0
 21 23  1  0  0  0
 23 25  4  0  0  0
 23 26  4  0  0  0
 25 24  4  0  0  0
 24 27  4  0  0  0
 26 27  4  0  0  0
 26 31  4  0  0  0
 27 28  4  0  0  0
 28 29  4  0  0  0
 29 30  4  0  0  0
 30 31  4  0  0  0
  1 32  1  0  0  0
  2 33  1  0  0  0
  3 34  1  0  0  0
  4 35  1  0  0  0
  9 36  1  0  0  0
 10 37  1  0  0  0
 10 38  1  0  0  0
 11 39  1  0  0  0
 12 40  1  0  0  0
 12 41  1  0  0  0
 13 42  1  0  0  0
 13 43  1  0  0  0
 14 44  1  0  0  0
 15 45  1  0  0  0
 15 46  1  0  0  0
 16 47  1  0  0  0
 16 48  1  0  0  0
 17 49  1  0  0  0
 19 50  1  0  0  0
 21 51  1  0  0  0
 21 52  1  0  0  0
 22 53  1  0  0  0
 22 54  1  0  0  0
 22 55  1  0  0  0
 25 56  1  0  0  0
 28 57  1  0  0  0
 29 58  1  0  0  0
 30 59  1  0  0  0
 31 60  1  0  0  0
M  END
$$$$
