### 
### Created by X-TOOL on Mon Aug  2 16:12:08 2021
### 

@<TRIPOS>MOLECULE
6egw_ligand
  268   269     1     0     0
SMALL
GAST_HUCK


@<TRIPOS>ATOM
      1 N          -8.1340   -0.4650   34.3690 N.4       1 THR         0.2398
      2 CA         -6.8950    0.2590   34.6360 C.3       1 THR         0.0910
      3 C          -6.8420    1.5790   33.8690 C.2       1 THR         0.2293
      4 O          -7.6500    1.8220   32.9730 O.2       1 THR        -0.3906
      5 CB         -5.6940   -0.5430   34.2220 C.3       1 THR         0.1120
      6 OG1        -5.7680   -0.7440   32.8100 O.3       1 THR        -0.3840
      7 CG2        -5.7010   -1.9070   34.9040 C.3       1 THR        -0.0314
      8 N          -5.8860    2.4370   34.2180 N.am      1 THR        -0.2585
      9 CA         -5.7210    3.6640   33.4360 C.3       1 THR         0.1566
     10 C          -5.4060    3.3610   31.9720 C.2       1 THR         0.2066
     11 O          -5.9730    3.9820   31.0620 O.2       1 THR        -0.3943
     12 CB         -4.6330    4.5300   34.0600 C.3       1 THR         0.0924
     13 OG1        -4.9700    4.8360   35.4250 O.3       1 THR        -0.3874
     14 CG2        -4.4640    5.8300   33.2650 C.3       1 THR        -0.0346
     15 N          -4.5420    2.3770   31.7180 N.am      1 THR        -0.2621
     16 CA         -4.2760    1.9770   30.3440 C.3       1 THR         0.1390
     17 C          -5.5590    1.5200   29.6520 C.2       1 THR         0.2057
     18 O          -5.8170    1.9000   28.5030 O.2       1 THR        -0.3942
     19 CB         -3.2070    0.8900   30.3110 C.3       1 THR         0.0163
     20 CG         -2.9240    0.3960   28.9080 C.ar      1 THR        -0.0493
     21 CD1        -2.2750    1.2060   27.9780 C.ar      1 THR        -0.0685
     22 CD2        -3.3520   -0.8500   28.4920 C.ar      1 THR        -0.0685
     23 CE1        -2.0410    0.7710   26.7030 C.ar      1 THR        -0.0398
     24 CE2        -3.1140   -1.2960   27.2150 C.ar      1 THR        -0.0398
     25 CZ         -2.4710   -0.4820   26.3200 C.ar      1 THR         0.0805
     26 OH         -2.2280   -0.9350   25.0380 O.3       1 THR        -0.3376
     27 N          -6.3740    0.6990   30.3310 N.am      1 THR        -0.2639
     28 CA         -7.6320    0.2670   29.7390 C.3       1 THR         0.1282
     29 C          -8.5060    1.4610   29.3760 C.2       1 THR         0.2037
     30 O          -9.1680    1.4620   28.3350 O.2       1 THR        -0.3944
     31 CB         -8.3790   -0.6630   30.6980 C.3       1 THR        -0.0244
     32 N          -8.5530    2.4690   30.2430 N.am      1 THR        -0.2622
     33 CA         -9.3500    3.6650   29.9510 C.3       1 THR         0.1423
     34 C          -8.7780    4.4490   28.7730 C.2       1 THR         0.2057
     35 O          -9.5350    5.0590   28.0110 O.2       1 THR        -0.3943
     36 CB         -9.4070    4.5740   31.1650 C.3       1 THR         0.0406
     37 CG        -10.2290    3.9930   32.3160 C.2       1 THR         0.0393
     38 OD1       -10.9340    2.9750   32.1440 O.co2     1 THR        -0.5688
     39 OD2       -10.1330    4.5590   33.4250 O.co2     1 THR        -0.5688
     40 N          -7.4440    4.4960   28.6540 N.am      1 THR        -0.2618
     41 CA         -6.8070    5.1070   27.4900 C.3       1 THR         0.1404
     42 C          -7.2260    4.4120   26.2010 C.2       1 THR         0.2060
     43 O          -7.6050    5.0610   25.2240 O.2       1 THR        -0.3942
     44 CB         -5.2940    5.0680   27.6630 C.3       1 THR         0.0214
     45 CG         -4.5280    5.5180   26.4540 C.ar      1 THR        -0.0386
     46 CD1        -4.6030    6.8230   26.0310 C.ar      1 THR        -0.0601
     47 CD2        -3.7530    4.6250   25.7280 C.ar      1 THR        -0.0601
     48 CE1        -3.8850    7.2450   24.9120 C.ar      1 THR        -0.0686
     49 CE2        -3.0340    5.0350   24.6170 C.ar      1 THR        -0.0686
     50 CZ         -3.1300    6.3630   24.1980 C.ar      1 THR        -0.0687
     51 N          -7.2030    3.0760   26.1920 N.am      1 THR        -0.2633
     52 CA         -7.6670    2.3580   25.0090 C.3       1 THR         0.1335
     53 C          -9.1460    2.6380   24.7510 C.2       1 THR         0.2041
     54 O          -9.5650    2.8200   23.6060 O.2       1 THR        -0.3944
     55 CB         -7.3810    0.8520   25.1550 C.3       1 THR        -0.0037
     56 CG1        -5.8720    0.5880   25.3500 C.3       1 THR        -0.0491
     57 CG2        -7.8680    0.1020   23.9270 C.3       1 THR        -0.0582
     58 CD1        -4.9750    1.1470   24.2880 C.3       1 THR        -0.0648
     59 N          -9.9570    2.7020   25.8100 N.am      1 THR        -0.2640
     60 CA        -11.4010    2.8550   25.6330 C.3       1 THR         0.1282
     61 C         -11.7690    4.2620   25.1930 C.2       1 THR         0.2037
     62 O         -12.6820    4.4390   24.3850 O.2       1 THR        -0.3944
     63 CB        -12.1250    2.5130   26.9250 C.3       1 THR        -0.0244
     64 N         -11.0770    5.2770   25.7130 N.am      1 THR        -0.2616
     65 CA        -11.5180    6.6570   25.5860 C.3       1 THR         0.1539
     66 C         -10.4670    7.5570   24.9830 C.2       1 THR         0.2060
     67 O         -10.8200    8.6140   24.4460 O.2       1 THR        -0.3943
     68 CB        -11.9150    7.2350   26.9630 C.3       1 THR         0.0843
     69 OG        -12.9640    6.4850   27.5380 O.3       1 THR        -0.3903
     70 N          -9.1900    7.1630   25.0550 N.am      1 THR        -0.2663
     71 CA         -8.0960    7.9280   24.4970 C.3       1 THR         0.1201
     72 C          -7.9520    7.7680   23.0100 C.2       1 THR         0.2007
     73 O          -8.6060    6.9730   22.3280 O.2       1 THR        -0.3947
     74 N          -7.0730    8.5770   22.4610 N.am      1 THR        -0.2640
     75 CA         -6.7420    8.4840   21.0530 C.3       1 THR         0.1311
     76 C          -5.4620    7.6650   20.9810 C.2       1 THR         0.2040
     77 O          -4.4300    8.0840   21.4990 O.2       1 THR        -0.3944
     78 CB         -6.6280    9.8900   20.4720 C.3       1 THR        -0.0092
     79 CG         -7.9720   10.5860   20.6060 C.3       1 THR        -0.0156
     80 CD         -8.0780   11.8070   19.7860 C.3       1 THR         0.0627
     81 NE         -6.9920   12.7330   20.0620 N.pl3     1 THR        -0.2723
     82 CZ         -6.6940   13.7250   19.2440 C.cat     1 THR         0.2882
     83 NH1        -5.6770   14.5110   19.5140 N.pl3     1 THR        -0.2849
     84 NH2        -7.4160   13.9080   18.1360 N.pl3     1 THR        -0.2849
     85 N          -5.5550    6.4490   20.4290 N.am      1 THR        -0.2613
     86 CA         -4.4260    5.5300   20.4670 C.3       1 THR         0.1565
     87 C          -3.5550    5.5810   19.2130 C.2       1 THR         0.2063
     88 O          -2.3960    5.1300   19.2620 O.2       1 THR        -0.3943
     89 CB         -4.9270    4.0970   20.6770 C.3       1 THR         0.0924
     90 OG1        -5.7850    3.7260   19.5940 O.3       1 THR        -0.3874
     91 CG2        -5.7190    4.0130   21.9700 C.3       1 THR        -0.0346
     92 N          -4.0770    6.1330   18.1110 N.am      1 THR        -0.2663
     93 CA         -3.3550    6.2200   16.8580 C.3       1 THR         0.1201
     94 C          -2.6350    7.5450   16.7100 C.2       1 THR         0.2007
     95 O          -2.5830    8.3690   17.6230 O.2       1 THR        -0.3947
     96 N          -2.0460    7.7360   15.5320 N.am      1 THR        -0.2640
     97 CA         -1.2920    8.9540   15.2840 C.3       1 THR         0.1311
     98 C          -2.2350   10.1460   15.3640 C.2       1 THR         0.2039
     99 O          -3.3800   10.0790   14.9110 O.2       1 THR        -0.3944
    100 CB         -0.6110    8.8900   13.9210 C.3       1 THR        -0.0092
    101 CG          0.4580    7.8110   13.8380 C.3       1 THR        -0.0156
    102 CD          1.1290    7.7990   12.4810 C.3       1 THR         0.0627
    103 NE          2.2910    6.9210   12.4530 N.pl3     1 THR        -0.2723
    104 CZ          2.2360    5.6000   12.2710 C.cat     1 THR         0.2882
    105 NH1         1.0620    4.9760   12.1010 N.pl3     1 THR        -0.2849
    106 NH2         3.3640    4.8990   12.2580 N.pl3     1 THR        -0.2849
    107 N          -1.7490   11.2260   15.9570 N.am      1 THR        -0.2637
    108 CA         -2.5650   12.3710   16.3240 C.3       1 THR         0.1311
    109 C          -2.2410   13.5620   15.4450 C.2       1 THR         0.2040
    110 O          -1.0790   13.9660   15.3500 O.2       1 THR        -0.3944
    111 CB         -2.3220   12.7280   17.7870 C.3       1 THR        -0.0092
    112 CG         -2.8330   11.6420   18.7320 C.3       1 THR        -0.0156
    113 CD         -2.1350   11.6050   20.1040 C.3       1 THR         0.0627
    114 NE         -0.7190   11.2460   20.0000 N.pl3     1 THR        -0.2723
    115 CZ          0.0240   10.8340   21.0130 C.cat     1 THR         0.2882
    116 NH1        -0.5240   10.6810   22.2270 N.pl3     1 THR        -0.2849
    117 NH2         1.3230   10.5510   20.8050 N.pl3     1 THR        -0.2849
    118 N          -3.2790   14.1340   14.8470 N.am      1 THR        -0.2616
    119 CA         -3.1200   15.3070   14.0140 C.3       1 THR         0.1476
    120 C          -2.9730   16.5550   14.8540 C.2       1 THR         0.2062
    121 O          -3.4890   16.6590   15.9810 O.2       1 THR        -0.3942
    122 CB         -4.3140   15.4880   13.1050 C.3       1 THR         0.0773
    123 CG         -4.4320   14.3990   12.1200 C.2       1 THR         0.1780
    124 OD1        -3.4280   13.8870   11.6360 O.2       1 THR        -0.3970
    125 ND2        -5.6600   14.0280   11.7980 N.am      1 THR        -0.3007
    126 N          -2.2680   17.5170   14.2760 N.am      1 THR        -0.2639
    127 CA         -2.2510   18.8600   14.8370 C.3       1 THR         0.1282
    128 C          -3.6080   19.5210   14.6400 C.2       1 THR         0.2031
    129 O          -4.4160   19.1180   13.7940 O.2       1 THR        -0.3944
    130 CB         -1.1620   19.7080   14.1840 C.3       1 THR        -0.0244
    131 N          -3.8630   20.4960   15.5120 N.am      1 THR        -0.2698
    132 CA         -4.8010   21.6190   15.3660 C.3       1 THR         0.0916
    133 C          -5.3440   21.8160   16.7830 C.2       1 THR         0.0598
    134 O          -4.7890   22.5790   17.5820 O.co2     1 THR        -0.5666
    135 CB         -5.9040   21.3940   14.3340 C.3       1 THR        -0.0300
    136 OXT        -6.3090   21.1800   17.1890 O.co2     1 THR        -0.5666
    137 H1         -8.9200    0.0968   34.6565 H         1 THR         0.2016
    138 H2         -8.1344   -1.3317   34.8837 H         1 THR         0.2016
    139 H3         -8.2033   -0.6600   33.3825 H         1 THR         0.2016
    140 H4         -6.8389    0.4649   35.7151 H         1 THR         0.1125
    141 H5         -4.7733   -0.0008   34.4832 H         1 THR         0.0674
    142 H6         -5.0169   -1.2503   32.5235 H         1 THR         0.2102
    143 H7         -4.8156   -2.4789   34.5892 H         1 THR         0.0258
    144 H8         -6.6115   -2.4547   34.6193 H         1 THR         0.0258
    145 H9         -5.6808   -1.7714   35.9954 H         1 THR         0.0258
    146 H10        -5.2917    2.2472   34.9995 H         1 THR         0.1885
    147 H11        -6.6683    4.2221   33.4699 H         1 THR         0.0826
    148 H12        -3.6833    3.9753   34.0418 H         1 THR         0.0639
    149 H13        -4.2868    5.3755   35.8054 H         1 THR         0.2101
    150 H14        -3.6763    6.4429   33.7276 H         1 THR         0.0257
    151 H15        -5.4120    6.3878   33.2685 H         1 THR         0.0257
    152 H16        -4.1823    5.5921   32.2287 H         1 THR         0.0257
    153 H17        -4.0766    1.9137   32.4722 H         1 THR         0.1885
    154 H18        -3.8905    2.8518   29.7999 H         1 THR         0.0821
    155 H19        -3.5484    0.0410   30.9215 H         1 THR         0.0453
    156 H20        -2.2774    1.2967   30.7357 H         1 THR         0.0453
    157 H21        -1.9501    2.1980   28.2705 H         1 THR         0.0530
    158 H22        -3.8860   -1.4879   29.1869 H         1 THR         0.0530
    159 H23        -1.5202    1.4077   25.9970 H         1 THR         0.0525
    160 H24        -3.4336   -2.2879   26.9165 H         1 THR         0.0525
    161 H25        -1.7784   -0.2592   24.5444 H         1 THR         0.2458
    162 H26        -6.1173    0.3834   31.2445 H         1 THR         0.1883
    163 H27        -7.4071   -0.2900   28.8175 H         1 THR         0.0797
    164 H28        -9.3261   -0.9806   30.2374 H         1 THR         0.0277
    165 H29        -8.5886   -0.1298   31.6370 H         1 THR         0.0277
    166 H30        -7.7592   -1.5470   30.9087 H         1 THR         0.0277
    167 H31        -8.0411    2.4107   31.1001 H         1 THR         0.1884
    168 H32       -10.3717    3.3460   29.6976 H         1 THR         0.0819
    169 H33        -9.8562    5.5318   30.8636 H         1 THR         0.0478
    170 H34        -8.3806    4.7463   31.5210 H         1 THR         0.0478
    171 H35        -6.8734    4.1051   29.3762 H         1 THR         0.1885
    172 H36        -7.1249    6.1584   27.4311 H         1 THR         0.0823
    173 H37        -4.9991    4.0337   27.8936 H         1 THR         0.0474
    174 H38        -5.0255    5.7224   28.5054 H         1 THR         0.0474
    175 H39        -5.2240    7.5291   26.5702 H         1 THR         0.0557
    176 H40        -3.7093    3.5866   26.0360 H         1 THR         0.0557
    177 H41        -3.9279    8.2844   24.6073 H         1 THR         0.0599
    178 H42        -2.4053    4.3338   24.0803 H         1 THR         0.0599
    179 H43        -2.6059    6.6917   23.3079 H         1 THR         0.0559
    180 H44        -6.8706    2.5722   26.9893 H         1 THR         0.1883
    181 H45        -7.0999    2.7263   24.1414 H         1 THR         0.0803
    182 H46        -7.9211    0.4781   26.0373 H         1 THR         0.0345
    183 H47        -5.7202   -0.5010   25.3825 H         1 THR         0.0267
    184 H48        -5.5728    1.0288   26.3123 H         1 THR         0.0267
    185 H49        -8.9429    0.2884   23.7859 H         1 THR         0.0235
    186 H50        -7.6978   -0.9760   24.0643 H         1 THR         0.0235
    187 H51        -7.3161    0.4505   23.0416 H         1 THR         0.0235
    188 H52        -3.9292    0.9020   24.5251 H         1 THR         0.0230
    189 H53        -5.0948    2.2396   24.2445 H         1 THR         0.0230
    190 H54        -5.2423    0.7097   23.3147 H         1 THR         0.0230
    191 H55        -9.5739    2.6448   26.7319 H         1 THR         0.1883
    192 H56       -11.7277    2.1531   24.8516 H         1 THR         0.0797
    193 H57       -13.2090    2.6315   26.7803 H         1 THR         0.0277
    194 H58       -11.7860    3.1877   27.7249 H         1 THR         0.0277
    195 H59       -11.9040    1.4724   27.2048 H         1 THR         0.0277
    196 H60       -10.2286    5.0829   26.2055 H         1 THR         0.1884
    197 H61       -12.4009    6.6689   24.9300 H         1 THR         0.0823
    198 H62       -12.2444    8.2767   26.8355 H         1 THR         0.0606
    199 H63       -11.0421    7.2056   27.6317 H         1 THR         0.0606
    200 H64       -13.1918    6.8567   28.3821 H         1 THR         0.2097
    201 H65        -8.9824    6.3001   25.5157 H         1 THR         0.1881
    202 H66        -7.1614    7.5992   24.9749 H         1 THR         0.0763
    203 H67        -8.2664    8.9920   24.7181 H         1 THR         0.0763
    204 H68        -6.6243    9.2697   23.0256 H         1 THR         0.1883
    205 H69        -7.5381    7.9506   20.5129 H         1 THR         0.0800
    206 H70        -6.3473    9.8296   19.4101 H         1 THR         0.0313
    207 H71        -5.8621   10.4563   21.0221 H         1 THR         0.0313
    208 H72        -8.1205   10.8595   21.6611 H         1 THR         0.0301
    209 H73        -8.7610    9.8858   20.2941 H         1 THR         0.0301
    210 H74        -9.0347   12.3031   20.0064 H         1 THR         0.0689
    211 H75        -8.0466   11.5268   18.7228 H         1 THR         0.0689
    212 H76        -6.4383   12.6113   20.9219 H         1 THR         0.2642
    213 H77        -5.4419   15.2860   18.8776 H         1 THR         0.2615
    214 H78        -5.1145   14.3524   20.3622 H         1 THR         0.2615
    215 H79        -8.2120   13.2871   17.9316 H         1 THR         0.2615
    216 H80        -7.1770   14.6700   17.4856 H         1 THR         0.2615
    217 H81        -6.4071    6.1693   19.9867 H         1 THR         0.1884
    218 H82        -3.7967    5.8094   21.3249 H         1 THR         0.0826
    219 H83        -4.0684    3.4110   20.7229 H         1 THR         0.0639
    220 H84        -6.0942    2.8375   19.7265 H         1 THR         0.2101
    221 H85        -6.0758    2.9826   22.1151 H         1 THR         0.0257
    222 H86        -6.5803    4.6952   21.9174 H         1 THR         0.0257
    223 H87        -5.0747    4.3002   22.8140 H         1 THR         0.0257
    224 H88        -5.0057    6.5013   18.1545 H         1 THR         0.1881
    225 H89        -4.0685    6.1087   16.0282 H         1 THR         0.0763
    226 H90        -2.6151    5.4071   16.8170 H         1 THR         0.0763
    227 H91        -2.1221    7.0412   14.8169 H         1 THR         0.1883
    228 H92        -0.5180    9.0596   16.0584 H         1 THR         0.0800
    229 H93        -0.1417    9.8640   13.7180 H         1 THR         0.0313
    230 H94        -1.3754    8.6849   13.1570 H         1 THR         0.0313
    231 H95        -0.0088    6.8308   14.0147 H         1 THR         0.0301
    232 H96         1.2176    8.0000   14.6108 H         1 THR         0.0301
    233 H97         1.4510    8.8217   12.2353 H         1 THR         0.0689
    234 H98         0.4042    7.4523   11.7297 H         1 THR         0.0689
    235 H99         3.2188    7.3491   12.5826 H         1 THR         0.2642
    236 H100        1.0365    3.9558   11.9617 H         1 THR         0.2615
    237 H101        0.1854    5.5167   12.1097 H         1 THR         0.2615
    238 H102        4.2679    5.3753   12.3883 H         1 THR         0.2615
    239 H103        3.3349    3.8790   12.1176 H         1 THR         0.2615
    240 H104       -0.7708   11.2549   16.1626 H         1 THR         0.1883
    241 H105       -3.6250   12.1092   16.1904 H         1 THR         0.0800
    242 H106       -2.8422   13.6702   18.0141 H         1 THR         0.0313
    243 H107       -1.2414   12.8581   17.9464 H         1 THR         0.0313
    244 H108       -2.6850   10.6666   18.2455 H         1 THR         0.0301
    245 H109       -3.9074   11.8097   18.8982 H         1 THR         0.0301
    246 H110       -2.6419   10.8630   20.7385 H         1 THR         0.0689
    247 H111       -2.2142   12.5993   20.5677 H         1 THR         0.0689
    248 H112       -0.2717   11.3195   19.0751 H         1 THR         0.2642
    249 H113        0.0545   10.3600   23.0164 H         1 THR         0.2615
    250 H114       -1.5235   10.8844   22.3702 H         1 THR         0.2615
    251 H115        1.7329   10.6725   19.8679 H         1 THR         0.2615
    252 H116        1.9074   10.2129   21.5829 H         1 THR         0.2615
    253 H117       -4.1916   13.7456   14.9749 H         1 THR         0.1885
    254 H118       -2.2165   15.1793   13.3998 H         1 THR         0.0826
    255 H119       -4.2091   16.4421   12.5677 H         1 THR         0.0551
    256 H120       -5.2265   15.5112   13.7188 H         1 THR         0.0551
    257 H121       -5.8027   13.2936   11.1345 H         1 THR         0.1814
    258 H122       -6.4458   14.4819   12.2181 H         1 THR         0.1814
    259 H123       -1.7436   17.3186   13.4479 H         1 THR         0.1883
    260 H124       -2.0431   18.7887   15.9148 H         1 THR         0.0797
    261 H125       -1.1693   20.7162   14.6239 H         1 THR         0.0277
    262 H126       -1.3511   19.7784   13.1027 H         1 THR         0.0277
    263 H127       -0.1811   19.2404   14.3551 H         1 THR         0.0277
    264 H128       -3.3536   20.4594   16.3717 H         1 THR         0.1875
    265 H129       -4.2437   22.5163   15.0589 H         1 THR         0.0723
    266 H130       -6.5541   22.2804   14.2930 H         1 THR         0.0270
    267 H131       -6.5002   20.5150   14.6202 H         1 THR         0.0270
    268 H132       -5.4523   21.2246   13.3455 H         1 THR         0.0270
@<TRIPOS>BOND
     1    1    2 1  
     2    2    3 1  
     3    2    5 1  
     4    3    4 2  
     5    3    8 am 
     6    5    6 1  
     7    5    7 1  
     8    8    9 1  
     9    9   10 1  
    10    9   12 1  
    11   10   11 2  
    12   10   15 am 
    13   12   13 1  
    14   12   14 1  
    15   15   16 1  
    16   16   17 1  
    17   16   19 1  
    18   17   18 2  
    19   17   27 am 
    20   19   20 1  
    21   20   21 ar 
    22   20   22 ar 
    23   21   23 ar 
    24   22   24 ar 
    25   23   25 ar 
    26   24   25 ar 
    27   25   26 1  
    28   27   28 1  
    29   28   29 1  
    30   28   31 1  
    31   29   30 2  
    32   29   32 am 
    33   32   33 1  
    34   33   34 1  
    35   33   36 1  
    36   34   35 2  
    37   34   40 am 
    38   36   37 1  
    39   37   38 ar 
    40   37   39 ar 
    41   40   41 1  
    42   41   42 1  
    43   41   44 1  
    44   42   43 2  
    45   42   51 am 
    46   44   45 1  
    47   45   46 ar 
    48   45   47 ar 
    49   46   48 ar 
    50   47   49 ar 
    51   48   50 ar 
    52   49   50 ar 
    53   51   52 1  
    54   52   53 1  
    55   52   55 1  
    56   53   54 2  
    57   53   59 am 
    58   55   56 1  
    59   55   57 1  
    60   56   58 1  
    61   59   60 1  
    62   60   61 1  
    63   60   63 1  
    64   61   62 2  
    65   61   64 am 
    66   64   65 1  
    67   65   66 1  
    68   65   68 1  
    69   66   67 2  
    70   66   70 am 
    71   68   69 1  
    72   70   71 1  
    73   71   72 1  
    74   72   73 2  
    75   72   74 am 
    76   74   75 1  
    77   75   76 1  
    78   75   78 1  
    79   76   77 2  
    80   76   85 am 
    81   78   79 1  
    82   79   80 1  
    83   80   81 1  
    84   81   82 ar 
    85   82   83 ar 
    86   82   84 ar 
    87   85   86 1  
    88   86   87 1  
    89   86   89 1  
    90   87   88 2  
    91   87   92 am 
    92   89   90 1  
    93   89   91 1  
    94   92   93 1  
    95   93   94 1  
    96   94   95 2  
    97   94   96 am 
    98   96   97 1  
    99   97   98 1  
   100   97  100 1  
   101   98   99 2  
   102   98  107 am 
   103  100  101 1  
   104  101  102 1  
   105  102  103 1  
   106  103  104 ar 
   107  104  105 ar 
   108  104  106 ar 
   109  107  108 1  
   110  108  109 1  
   111  108  111 1  
   112  109  110 2  
   113  109  118 am 
   114  111  112 1  
   115  112  113 1  
   116  113  114 1  
   117  114  115 ar 
   118  115  116 ar 
   119  115  117 ar 
   120  118  119 1  
   121  119  120 1  
   122  119  122 1  
   123  120  121 2  
   124  120  126 am 
   125  122  123 1  
   126  123  124 2  
   127  123  125 am 
   128  126  127 1  
   129  127  128 1  
   130  127  130 1  
   131  128  129 2  
   132  128  131 am 
   133  131  132 1  
   134  132  133 1  
   135  132  135 1  
   136  133  134 ar 
   137  133  136 ar 
   138    1  137 1  
   139    1  138 1  
   140    1  139 1  
   141    2  140 1  
   142    5  141 1  
   143    6  142 1  
   144    7  143 1  
   145    7  144 1  
   146    7  145 1  
   147    8  146 1  
   148    9  147 1  
   149   12  148 1  
   150   13  149 1  
   151   14  150 1  
   152   14  151 1  
   153   14  152 1  
   154   15  153 1  
   155   16  154 1  
   156   19  155 1  
   157   19  156 1  
   158   21  157 1  
   159   22  158 1  
   160   23  159 1  
   161   24  160 1  
   162   26  161 1  
   163   27  162 1  
   164   28  163 1  
   165   31  164 1  
   166   31  165 1  
   167   31  166 1  
   168   32  167 1  
   169   33  168 1  
   170   36  169 1  
   171   36  170 1  
   172   40  171 1  
   173   41  172 1  
   174   44  173 1  
   175   44  174 1  
   176   46  175 1  
   177   47  176 1  
   178   48  177 1  
   179   49  178 1  
   180   50  179 1  
   181   51  180 1  
   182   52  181 1  
   183   55  182 1  
   184   56  183 1  
   185   56  184 1  
   186   57  185 1  
   187   57  186 1  
   188   57  187 1  
   189   58  188 1  
   190   58  189 1  
   191   58  190 1  
   192   59  191 1  
   193   60  192 1  
   194   63  193 1  
   195   63  194 1  
   196   63  195 1  
   197   64  196 1  
   198   65  197 1  
   199   68  198 1  
   200   68  199 1  
   201   69  200 1  
   202   70  201 1  
   203   71  202 1  
   204   71  203 1  
   205   74  204 1  
   206   75  205 1  
   207   78  206 1  
   208   78  207 1  
   209   79  208 1  
   210   79  209 1  
   211   80  210 1  
   212   80  211 1  
   213   81  212 1  
   214   83  213 1  
   215   83  214 1  
   216   84  215 1  
   217   84  216 1  
   218   85  217 1  
   219   86  218 1  
   220   89  219 1  
   221   90  220 1  
   222   91  221 1  
   223   91  222 1  
   224   91  223 1  
   225   92  224 1  
   226   93  225 1  
   227   93  226 1  
   228   96  227 1  
   229   97  228 1  
   230  100  229 1  
   231  100  230 1  
   232  101  231 1  
   233  101  232 1  
   234  102  233 1  
   235  102  234 1  
   236  103  235 1  
   237  105  236 1  
   238  105  237 1  
   239  106  238 1  
   240  106  239 1  
   241  107  240 1  
   242  108  241 1  
   243  111  242 1  
   244  111  243 1  
   245  112  244 1  
   246  112  245 1  
   247  113  246 1  
   248  113  247 1  
   249  114  248 1  
   250  116  249 1  
   251  116  250 1  
   252  117  251 1  
   253  117  252 1  
   254  118  253 1  
   255  119  254 1  
   256  122  255 1  
   257  122  256 1  
   258  125  257 1  
   259  125  258 1  
   260  126  259 1  
   261  127  260 1  
   262  130  261 1  
   263  130  262 1  
   264  130  263 1  
   265  131  264 1  
   266  132  265 1  
   267  135  266 1  
   268  135  267 1  
   269  135  268 1  
@<TRIPOS>SUBSTRUCTURE
     1 THR         1

