6egw_ligand
  -I-interpret- 

267268  0  0  0  0  0  0  0  0999 V2000
   -8.1340   -0.4650   34.3690 N   0  3  0  0  0
   -6.8950    0.2590   34.6360 C   0  0  0  0  0
   -6.8420    1.5790   33.8690 C   0  0  0  0  0
   -7.6500    1.8220   32.9730 O   0  0  0  0  0
   -5.6940   -0.5430   34.2220 C   0  0  0  0  0
   -5.7680   -0.7440   32.8100 O   0  0  0  0  0
   -5.7010   -1.9070   34.9040 C   0  0  0  0  0
   -5.8860    2.4370   34.2180 N   0  0  0  0  0
   -5.7210    3.6640   33.4360 C   0  0  0  0  0
   -5.4060    3.3610   31.9720 C   0  0  0  0  0
   -5.9730    3.9820   31.0620 O   0  0  0  0  0
   -4.6330    4.5300   34.0600 C   0  0  0  0  0
   -4.9700    4.8360   35.4250 O   0  0  0  0  0
   -4.4640    5.8300   33.2650 C   0  0  0  0  0
   -4.5420    2.3770   31.7180 N   0  0  0  0  0
   -4.2760    1.9770   30.3440 C   0  0  0  0  0
   -5.5590    1.5200   29.6520 C   0  0  0  0  0
   -5.8170    1.9000   28.5030 O   0  0  0  0  0
   -3.2070    0.8900   30.3110 C   0  0  0  0  0
   -2.9240    0.3960   28.9080 C   0  0  0  0  0
   -2.2750    1.2060   27.9780 C   0  0  0  0  0
   -3.3520   -0.8500   28.4920 C   0  0  0  0  0
   -2.0410    0.7710   26.7030 C   0  0  0  0  0
   -3.1140   -1.2960   27.2150 C   0  0  0  0  0
   -2.4710   -0.4820   26.3200 C   0  0  0  0  0
   -2.2280   -0.9350   25.0380 O   0  0  0  0  0
   -6.3740    0.6990   30.3310 N   0  0  0  0  0
   -7.6320    0.2670   29.7390 C   0  0  0  0  0
   -8.5060    1.4610   29.3760 C   0  0  0  0  0
   -9.1680    1.4620   28.3350 O   0  0  0  0  0
   -8.3790   -0.6630   30.6980 C   0  0  0  0  0
   -8.5530    2.4690   30.2430 N   0  0  0  0  0
   -9.3500    3.6650   29.9510 C   0  0  0  0  0
   -8.7780    4.4490   28.7730 C   0  0  0  0  0
   -9.5350    5.0590   28.0110 O   0  0  0  0  0
   -9.4070    4.5740   31.1650 C   0  0  0  0  0
  -10.2290    3.9930   32.3160 C   0  0  0  0  0
  -10.9340    2.9750   32.1440 O   0  0  0  0  0
  -10.1330    4.5590   33.4250 O   0  0  0  0  0
   -7.4440    4.4960   28.6540 N   0  0  0  0  0
   -6.8070    5.1070   27.4900 C   0  0  0  0  0
   -7.2260    4.4120   26.2010 C   0  0  0  0  0
   -7.6050    5.0610   25.2240 O   0  0  0  0  0
   -5.2940    5.0680   27.6630 C   0  0  0  0  0
   -4.5280    5.5180   26.4540 C   0  0  0  0  0
   -4.6030    6.8230   26.0310 C   0  0  0  0  0
   -3.7530    4.6250   25.7280 C   0  0  0  0  0
   -3.8850    7.2450   24.9120 C   0  0  0  0  0
   -3.0340    5.0350   24.6170 C   0  0  0  0  0
   -3.1300    6.3630   24.1980 C   0  0  0  0  0
   -7.2030    3.0760   26.1920 N   0  0  0  0  0
   -7.6670    2.3580   25.0090 C   0  0  0  0  0
   -9.1460    2.6380   24.7510 C   0  0  0  0  0
   -9.5650    2.8200   23.6060 O   0  0  0  0  0
   -7.3810    0.8520   25.1550 C   0  0  0  0  0
   -5.8720    0.5880   25.3500 C   0  0  0  0  0
   -7.8680    0.1020   23.9270 C   0  0  0  0  0
   -4.9750    1.1470   24.2880 C   0  0  0  0  0
   -9.9570    2.7020   25.8100 N   0  0  0  0  0
  -11.4010    2.8550   25.6330 C   0  0  0  0  0
  -11.7690    4.2620   25.1930 C   0  0  0  0  0
  -12.6820    4.4390   24.3850 O   0  0  0  0  0
  -12.1250    2.5130   26.9250 C   0  0  0  0  0
  -11.0770    5.2770   25.7130 N   0  0  0  0  0
  -11.5180    6.6570   25.5860 C   0  0  0  0  0
  -10.4670    7.5570   24.9830 C   0  0  0  0  0
  -10.8200    8.6140   24.4460 O   0  0  0  0  0
  -11.9150    7.2350   26.9630 C   0  0  0  0  0
  -12.9640    6.4850   27.5380 O   0  0  0  0  0
   -9.1900    7.1630   25.0550 N   0  0  0  0  0
   -8.0960    7.9280   24.4970 C   0  0  0  0  0
   -7.9520    7.7680   23.0100 C   0  0  0  0  0
   -8.6060    6.9730   22.3280 O   0  0  0  0  0
   -7.0730    8.5770   22.4610 N   0  0  0  0  0
   -6.7420    8.4840   21.0530 C   0  0  0  0  0
   -5.4620    7.6650   20.9810 C   0  0  0  0  0
   -4.4300    8.0840   21.4990 O   0  0  0  0  0
   -6.6280    9.8900   20.4720 C   0  0  0  0  0
   -7.9720   10.5860   20.6060 C   0  0  0  0  0
   -8.0780   11.8070   19.7860 C   0  0  0  0  0
   -6.9920   12.7330   20.0620 N   0  0  0  0  0
   -6.6940   13.7250   19.2440 C   0  0  0  0  0
   -5.6770   14.5110   19.5140 N   0  0  0  0  0
   -7.4160   13.9080   18.1360 N   0  0  0  0  0
   -5.5550    6.4490   20.4290 N   0  0  0  0  0
   -4.4260    5.5300   20.4670 C   0  0  0  0  0
   -3.5550    5.5810   19.2130 C   0  0  0  0  0
   -2.3960    5.1300   19.2620 O   0  0  0  0  0
   -4.9270    4.0970   20.6770 C   0  0  0  0  0
   -5.7850    3.7260   19.5940 O   0  0  0  0  0
   -5.7190    4.0130   21.9700 C   0  0  0  0  0
   -4.0770    6.1330   18.1110 N   0  0  0  0  0
   -3.3550    6.2200   16.8580 C   0  0  0  0  0
   -2.6350    7.5450   16.7100 C   0  0  0  0  0
   -2.5830    8.3690   17.6230 O   0  0  0  0  0
   -2.0460    7.7360   15.5320 N   0  0  0  0  0
   -1.2920    8.9540   15.2840 C   0  0  0  0  0
   -2.2350   10.1460   15.3640 C   0  0  0  0  0
   -3.3800   10.0790   14.9110 O   0  0  0  0  0
   -0.6110    8.8900   13.9210 C   0  0  0  0  0
    0.4580    7.8110   13.8380 C   0  0  0  0  0
    1.1290    7.7990   12.4810 C   0  0  0  0  0
    2.2910    6.9210   12.4530 N   0  0  0  0  0
    2.2360    5.6000   12.2710 C   0  0  0  0  0
    1.0620    4.9760   12.1010 N   0  0  0  0  0
    3.3640    4.8990   12.2580 N   0  0  0  0  0
   -1.7490   11.2260   15.9570 N   0  0  0  0  0
   -2.5650   12.3710   16.3240 C   0  0  0  0  0
   -2.2410   13.5620   15.4450 C   0  0  0  0  0
   -1.0790   13.9660   15.3500 O   0  0  0  0  0
   -2.3220   12.7280   17.7870 C   0  0  0  0  0
   -2.8330   11.6420   18.7320 C   0  0  0  0  0
   -2.1350   11.6050   20.1040 C   0  0  0  0  0
   -0.7190   11.2460   20.0000 N   0  0  0  0  0
    0.0240   10.8340   21.0130 C   0  0  0  0  0
   -0.5240   10.6810   22.2270 N   0  0  0  0  0
    1.3230   10.5510   20.8050 N   0  0  0  0  0
   -3.2790   14.1340   14.8470 N   0  0  0  0  0
   -3.1200   15.3070   14.0140 C   0  0  0  0  0
   -2.9730   16.5550   14.8540 C   0  0  0  0  0
   -3.4890   16.6590   15.9810 O   0  0  0  0  0
   -4.3140   15.4880   13.1050 C   0  0  0  0  0
   -4.4320   14.3990   12.1200 C   0  0  0  0  0
   -3.4280   13.8870   11.6360 O   0  0  0  0  0
   -5.6600   14.0280   11.7980 N   0  0  0  0  0
   -2.2680   17.5170   14.2760 N   0  0  0  0  0
   -2.2510   18.8600   14.8370 C   0  0  0  0  0
   -3.6080   19.5210   14.6400 C   0  0  0  0  0
   -4.4160   19.1180   13.7940 O   0  0  0  0  0
   -1.1620   19.7080   14.1840 C   0  0  0  0  0
   -3.8630   20.4960   15.5120 N   0  0  0  0  0
   -4.8010   21.6190   15.3660 C   0  0  0  0  0
   -5.3440   21.8160   16.7830 C   0  0  0  0  0
   -4.7890   22.5790   17.5820 O   0  0  0  0  0
   -5.9040   21.3940   14.3340 C   0  0  0  0  0
   -6.3090   21.1800   17.1890 O   0  0  0  0  0
   -8.9286    0.1044   34.6602 H   0  0  0  0  0
   -8.2030   -0.6618   33.3705 H   0  0  0  0  0
   -8.1332   -1.3417   34.8903 H   0  0  0  0  0
   -6.8786    0.4443   35.7100 H   0  0  0  0  0
   -4.7856   -0.0109   34.5043 H   0  0  0  0  0
   -5.7645    0.1072   32.3661 H   0  0  0  0  0
   -6.6205   -2.4342   34.6497 H   0  0  0  0  0
   -4.8426   -2.4862   34.5639 H   0  0  0  0  0
   -5.6449   -1.7720   35.9842 H   0  0  0  0  0
   -5.2798    2.2434   35.0151 H   0  0  0  0  0
   -6.6639    4.2106   33.4533 H   0  0  0  0  0
   -3.6935    3.9778   34.0368 H   0  0  0  0  0
   -4.2796    5.3812   35.8094 H   0  0  0  0  0
   -4.1849    5.5929   32.2384 H   0  0  0  0  0
   -5.4040    6.3817   33.2692 H   0  0  0  0  0
   -3.6833    6.4364   33.7243 H   0  0  0  0  0
   -4.0673    1.9045   32.4873 H   0  0  0  0  0
   -3.8996    2.8399   29.7946 H   0  0  0  0  0
   -3.5683    0.0456   30.8980 H   0  0  0  0  0
   -2.2853    1.3131   30.7105 H   0  0  0  0  0
   -1.9483    2.2034   28.2721 H   0  0  0  0  0
   -3.8889   -1.4915   29.1908 H   0  0  0  0  0
   -1.5173    1.4113   25.9931 H   0  0  0  0  0
   -3.4353   -2.2934   26.9148 H   0  0  0  0  0
   -2.5903   -1.8183   24.9379 H   0  0  0  0  0
   -6.1122    0.3771   31.2628 H   0  0  0  0  0
   -7.4042   -0.2779   28.8229 H   0  0  0  0  0
   -7.7638   -1.5385   30.9060 H   0  0  0  0  0
   -8.5861   -0.1335   31.6280 H   0  0  0  0  0
   -9.3172   -0.9770   30.2405 H   0  0  0  0  0
   -8.0309    2.4096   31.1172 H   0  0  0  0  0
  -10.3533    3.3265   29.6922 H   0  0  0  0  0
   -9.8823    5.5055   30.8576 H   0  0  0  0  0
   -8.3867    4.7095   31.5238 H   0  0  0  0  0
  -10.8732    2.6961   31.2274 H   0  0  0  0  0
   -6.8620    4.0973   29.3907 H   0  0  0  0  0
   -7.1322    6.1447   27.4161 H   0  0  0  0  0
   -5.0175    4.0308   27.8526 H   0  0  0  0  0
   -5.0444    5.7503   28.4756 H   0  0  0  0  0
   -5.2275    7.5330   26.5732 H   0  0  0  0  0
   -3.7090    3.5809   26.0377 H   0  0  0  0  0
   -3.9281    8.2902   24.6056 H   0  0  0  0  0
   -2.4018    4.3299   24.0773 H   0  0  0  0  0
   -2.6030    6.6935   23.3029 H   0  0  0  0  0
   -6.8639    2.5621   27.0052 H   0  0  0  0  0
   -7.1175    2.7159   24.1384 H   0  0  0  0  0
   -7.9151    0.4966   26.0362 H   0  0  0  0  0
   -5.7414   -0.4939   25.3277 H   0  0  0  0  0
   -5.5900    1.0769   26.2825 H   0  0  0  0  0
   -8.9417    0.2518   23.8134 H   0  0  0  0  0
   -7.3519    0.4791   23.0441 H   0  0  0  0  0
   -7.6587   -0.9611   24.0454 H   0  0  0  0  0
   -5.2409    0.7130   23.3241 H   0  0  0  0  0
   -5.0947    2.2296   24.2459 H   0  0  0  0  0
   -3.9391    0.9036   24.5241 H   0  0  0  0  0
   -9.5662    2.6437   26.7504 H   0  0  0  0  0
  -11.7110    2.1668   24.8467 H   0  0  0  0  0
  -11.9052    1.4817   27.2011 H   0  0  0  0  0
  -11.7882    3.1822   27.7168 H   0  0  0  0  0
  -13.1989    2.6307   26.7803 H   0  0  0  0  0
  -10.2116    5.0791   26.2153 H   0  0  0  0  0
  -12.3774    6.6322   24.9160 H   0  0  0  0  0
  -12.2506    8.2634   26.8290 H   0  0  0  0  0
  -11.0496    7.1934   27.6244 H   0  0  0  0  0
  -13.1942    6.8606   28.3909 H   0  0  0  0  0
   -8.9782    6.2828   25.5249 H   0  0  0  0  0
   -7.1756    7.5676   24.9565 H   0  0  0  0  0
   -8.2967    8.9807   24.6959 H   0  0  0  0  0
   -6.6153    9.2835   23.0369 H   0  0  0  0  0
   -7.5038    7.9884   20.4512 H   0  0  0  0  0
   -6.3447    9.8334   19.4210 H   0  0  0  0  0
   -5.8657   10.4519   21.0118 H   0  0  0  0  0
   -8.0904   10.8776   21.6496 H   0  0  0  0  0
   -8.7393    9.8912   20.2647 H   0  0  0  0  0
   -9.0203   12.3007   20.0237 H   0  0  0  0  0
   -8.0284   11.5215   18.7352 H   0  0  0  0  0
   -6.4437   12.6125   20.9136 H   0  0  0  0  0
   -5.1200   14.3539   20.3539 H   0  0  0  0  0
   -7.1793   14.6626   17.4919 H   0  0  0  0  0
   -8.2043   13.2932   17.9336 H   0  0  0  0  0
   -6.4242    6.1637   19.9779 H   0  0  0  0  0
   -3.8008    5.8480   21.3013 H   0  0  0  0  0
   -4.0687    3.4267   20.7230 H   0  0  0  0  0
   -6.0974    2.8282   19.7279 H   0  0  0  0  0
   -5.0795    4.2979   22.8055 H   0  0  0  0  0
   -6.5721    4.6894   21.9167 H   0  0  0  0  0
   -6.0719    2.9916   22.1127 H   0  0  0  0  0
   -5.0242    6.5087   18.1553 H   0  0  0  0  0
   -4.0733    6.1290   16.0432 H   0  0  0  0  0
   -2.6114    5.4233   16.8365 H   0  0  0  0  0
   -2.1236    7.0273   14.8026 H   0  0  0  0  0
   -0.5133    9.0627   16.0390 H   0  0  0  0  0
   -0.1260    9.8507   13.7477 H   0  0  0  0  0
   -1.3752    8.6568   13.1796 H   0  0  0  0  0
   -0.0156    6.8424   13.9978 H   0  0  0  0  0
    1.2145    8.0151   14.5957 H   0  0  0  0  0
    1.4626    8.8123   12.2574 H   0  0  0  0  0
    0.4090    7.4341   11.7485 H   0  0  0  0  0
    3.2098    7.3449   12.5813 H   0  0  0  0  0
    1.0368    3.9658   11.9622 H   0  0  0  0  0
    0.1938    5.5113   12.1104 H   0  0  0  0  0
    4.2592    5.3708   12.3862 H   0  0  0  0  0
   -0.7512   11.2555   16.1667 H   0  0  0  0  0
   -3.6139   12.1106   16.1821 H   0  0  0  0  0
   -2.8579   13.6514   18.0066 H   0  0  0  0  0
   -1.2479   12.8346   17.9385 H   0  0  0  0  0
   -2.6381   10.6839   18.2502 H   0  0  0  0  0
   -3.8866   11.8514   18.9169 H   0  0  0  0  0
   -2.6305   10.8500   20.7144 H   0  0  0  0  0
   -2.1993   12.6010   20.5422 H   0  0  0  0  0
   -0.2760   11.3187   19.0841 H   0  0  0  0  0
   -1.5138   10.8824   22.3688 H   0  0  0  0  0
    1.9017   10.2162   21.5753 H   0  0  0  0  0
    1.7289   10.6713   19.8770 H   0  0  0  0  0
   -4.2098   13.7379   14.9775 H   0  0  0  0  0
   -2.2192   15.1555   13.4193 H   0  0  0  0  0
   -4.1886   16.4248   12.5621 H   0  0  0  0  0
   -5.2131   15.4875   13.7212 H   0  0  0  0  0
   -5.8056   13.2827   11.1170 H   0  0  0  0  0
   -6.4615   14.4872   12.2306 H   0  0  0  0  0
   -1.7331   17.3146   13.4314 H   0  0  0  0  0
   -2.0362   18.7843   15.9029 H   0  0  0  0  0
   -0.1907   19.2436   14.3542 H   0  0  0  0  0
   -1.3505   19.7769   13.1126 H   0  0  0  0  0
   -1.1702   20.7067   14.6206 H   0  0  0  0  0
   -3.3434   20.4587   16.3889 H   0  0  0  0  0
   -4.3038   22.5046   14.9703 H   0  0  0  0  0
   -4.0531   23.0158   17.1471 H   0  0  0  0  0
   -5.4551   21.2262   13.3550 H   0  0  0  0  0
   -6.4940   20.5228   14.6187 H   0  0  0  0  0
   -6.5474   22.2729   14.2943 H   0  0  0  0  0
  1  2  1  0  0  0
  2  3  1  0  0  0
  2  5  1  0  0  0
  3  4  2  0  0  0
  3  8  1  0  0  0
  5  6  1  0  0  0
  5  7  1  0  0  0
  8  9  1  0  0  0
  9 10  1  0  0  0
  9 12  1  0  0  0
 10 11  2  0  0  0
 10 15  1  0  0  0
 12 13  1  0  0  0
 12 14  1  0  0  0
 15 16  1  0  0  0
 16 17  1  0  0  0
 16 19  1  0  0  0
 17 18  2  0  0  0
 17 27  1  0  0  0
 19 20  1  0  0  0
 20 21  4  0  0  0
 20 22  4  0  0  0
 21 23  4  0  0  0
 22 24  4  0  0  0
 23 25  4  0  0  0
 24 25  4  0  0  0
 25 26  1  0  0  0
 27 28  1  0  0  0
 28 29  1  0  0  0
 28 31  1  0  0  0
 29 30  2  0  0  0
 29 32  1  0  0  0
 32 33  1  0  0  0
 33 34  1  0  0  0
 33 36  1  0  0  0
 34 35  2  0  0  0
 34 40  1  0  0  0
 36 37  1  0  0  0
 37 38  1  0  0  0
 37 39  2  0  0  0
 40 41  1  0  0  0
 41 42  1  0  0  0
 41 44  1  0  0  0
 42 43  2  0  0  0
 42 51  1  0  0  0
 44 45  1  0  0  0
 45 46  4  0  0  0
 45 47  4  0  0  0
 46 48  4  0  0  0
 47 49  4  0  0  0
 48 50  4  0  0  0
 49 50  4  0  0  0
 51 52  1  0  0  0
 52 53  1  0  0  0
 52 55  1  0  0  0
 53 54  2  0  0  0
 53 59  1  0  0  0
 55 56  1  0  0  0
 55 57  1  0  0  0
 56 58  1  0  0  0
 59 60  1  0  0  0
 60 61  1  0  0  0
 60 63  1  0  0  0
 61 62  2  0  0  0
 61 64  1  0  0  0
 64 65  1  0  0  0
 65 66  1  0  0  0
 65 68  1  0  0  0
 66 67  2  0  0  0
 66 70  1  0  0  0
 68 69  1  0  0  0
 70 71  1  0  0  0
 71 72  1  0  0  0
 72 73  2  0  0  0
 72 74  1  0  0  0
 74 75  1  0  0  0
 75 76  1  0  0  0
 75 78  1  0  0  0
 76 77  2  0  0  0
 76 85  1  0  0  0
 78 79  1  0  0  0
 79 80  1  0  0  0
 80 81  1  0  0  0
 81 82  1  0  0  0
 82 83  2  0  0  0
 82 84  1  0  0  0
 85 86  1  0  0  0
 86 87  1  0  0  0
 86 89  1  0  0  0
 87 88  2  0  0  0
 87 92  1  0  0  0
 89 90  1  0  0  0
 89 91  1  0  0  0
 92 93  1  0  0  0
 93 94  1  0  0  0
 94 95  2  0  0  0
 94 96  1  0  0  0
 96 97  1  0  0  0
 97 98  1  0  0  0
 97100  1  0  0  0
 98 99  2  0  0  0
 98107  1  0  0  0
100101  1  0  0  0
101102  1  0  0  0
102103  1  0  0  0
103104  1  0  0  0
104105  1  0  0  0
104106  2  0  0  0
107108  1  0  0  0
108109  1  0  0  0
108111  1  0  0  0
109110  2  0  0  0
109118  1  0  0  0
111112  1  0  0  0
112113  1  0  0  0
113114  1  0  0  0
114115  1  0  0  0
115116  2  0  0  0
115117  1  0  0  0
118119  1  0  0  0
119120  1  0  0  0
119122  1  0  0  0
120121  2  0  0  0
120126  1  0  0  0
122123  1  0  0  0
123124  2  0  0  0
123125  1  0  0  0
126127  1  0  0  0
127128  1  0  0  0
127130  1  0  0  0
128129  2  0  0  0
128131  1  0  0  0
131132  1  0  0  0
132133  1  0  0  0
132135  1  0  0  0
133134  1  0  0  0
133136  2  0  0  0
  1137  1  0  0  0
  1138  1  0  0  0
  1139  1  0  0  0
  2140  1  0  0  0
  5141  1  0  0  0
  6142  1  0  0  0
  7143  1  0  0  0
  7144  1  0  0  0
  7145  1  0  0  0
  8146  1  0  0  0
  9147  1  0  0  0
 12148  1  0  0  0
 13149  1  0  0  0
 14150  1  0  0  0
 14151  1  0  0  0
 14152  1  0  0  0
 15153  1  0  0  0
 16154  1  0  0  0
 19155  1  0  0  0
 19156  1  0  0  0
 21157  1  0  0  0
 22158  1  0  0  0
 23159  1  0  0  0
 24160  1  0  0  0
 26161  1  0  0  0
 27162  1  0  0  0
 28163  1  0  0  0
 31164  1  0  0  0
 31165  1  0  0  0
 31166  1  0  0  0
 32167  1  0  0  0
 33168  1  0  0  0
 36169  1  0  0  0
 36170  1  0  0  0
 38171  1  0  0  0
 40172  1  0  0  0
 41173  1  0  0  0
 44174  1  0  0  0
 44175  1  0  0  0
 46176  1  0  0  0
 47177  1  0  0  0
 48178  1  0  0  0
 49179  1  0  0  0
 50180  1  0  0  0
 51181  1  0  0  0
 52182  1  0  0  0
 55183  1  0  0  0
 56184  1  0  0  0
 56185  1  0  0  0
 57186  1  0  0  0
 57187  1  0  0  0
 57188  1  0  0  0
 58189  1  0  0  0
 58190  1  0  0  0
 58191  1  0  0  0
 59192  1  0  0  0
 60193  1  0  0  0
 63194  1  0  0  0
 63195  1  0  0  0
 63196  1  0  0  0
 64197  1  0  0  0
 65198  1  0  0  0
 68199  1  0  0  0
 68200  1  0  0  0
 69201  1  0  0  0
 70202  1  0  0  0
 71203  1  0  0  0
 71204  1  0  0  0
 74205  1  0  0  0
 75206  1  0  0  0
 78207  1  0  0  0
 78208  1  0  0  0
 79209  1  0  0  0
 79210  1  0  0  0
 80211  1  0  0  0
 80212  1  0  0  0
 81213  1  0  0  0
 83214  1  0  0  0
 84215  1  0  0  0
 84216  1  0  0  0
 85217  1  0  0  0
 86218  1  0  0  0
 89219  1  0  0  0
 90220  1  0  0  0
 91221  1  0  0  0
 91222  1  0  0  0
 91223  1  0  0  0
 92224  1  0  0  0
 93225  1  0  0  0
 93226  1  0  0  0
 96227  1  0  0  0
 97228  1  0  0  0
100229  1  0  0  0
100230  1  0  0  0
101231  1  0  0  0
101232  1  0  0  0
102233  1  0  0  0
102234  1  0  0  0
103235  1  0  0  0
105236  1  0  0  0
105237  1  0  0  0
106238  1  0  0  0
107239  1  0  0  0
108240  1  0  0  0
111241  1  0  0  0
111242  1  0  0  0
112243  1  0  0  0
112244  1  0  0  0
113245  1  0  0  0
113246  1  0  0  0
114247  1  0  0  0
116248  1  0  0  0
117249  1  0  0  0
117250  1  0  0  0
118251  1  0  0  0
119252  1  0  0  0
122253  1  0  0  0
122254  1  0  0  0
125255  1  0  0  0
125256  1  0  0  0
126257  1  0  0  0
127258  1  0  0  0
130259  1  0  0  0
130260  1  0  0  0
130261  1  0  0  0
131262  1  0  0  0
132263  1  0  0  0
134264  1  0  0  0
135265  1  0  0  0
135266  1  0  0  0
135267  1  0  0  0
M  END
$$$$
