5ovg_ligand
  -I-interpret- 

 56 60  0  0  0  0  0  0  0  0999 V2000
    2.4460  -30.8640   46.4720 C   0  0  0  0  0
   -0.0030  -35.4440   43.0070 C   0  0  0  0  0
    4.2530  -32.0210   45.5340 C   0  0  0  0  0
    1.8080  -33.6930   42.4960 C   0  0  0  0  0
    5.7320  -32.4230   45.6050 C   0  0  0  0  0
    2.1630  -32.1260   44.4290 C   0  0  0  0  0
    1.2630  -33.4750   41.0680 C   0  0  0  0  0
    1.2450  -34.9600   43.1280 C   0  0  0  0  0
    1.6110  -31.2960   45.4310 C   0  0  0  0  0
   -0.3860  -39.8870   47.9680 C   0  0  0  0  0
   -1.6650  -39.1310   47.6320 C   0  0  0  0  0
   -1.1490  -37.9570   46.8040 C   0  0  0  0  0
    0.1300  -38.4080   46.2150 N   0  0  0  0  0
    0.5900  -39.4940   46.8480 C   0  0  0  0  0
    1.7410  -39.8450   46.2700 N   0  0  0  0  0
    1.9970  -38.9850   45.2870 C   0  0  0  0  0
    0.9950  -38.1090   45.2470 C   0  0  0  0  0
    0.8570  -37.0140   44.4000 C   0  0  0  0  0
    2.1240  -35.9390   44.1410 S   0  0  0  0  0
   -0.2130  -36.5790   43.7120 C   0  0  0  0  0
    1.4290  -32.5600   43.3860 N   0  0  0  0  0
    3.4760  -32.4540   44.5140 N   0  0  0  0  0
    3.7390  -31.2340   46.5000 N   0  0  0  0  0
    1.9440  -30.0530   47.4870 C   0  0  0  0  0
    0.2680  -30.8850   45.4330 C   0  0  0  0  0
   -0.2470  -30.0670   46.4560 C   0  0  0  0  0
   -1.5580  -29.6460   46.4830 O   0  0  0  0  0
   -2.5360  -30.4070   45.7510 C   0  0  0  0  0
    0.6060  -29.6440   47.4860 C   0  0  0  0  0
    0.1280  -28.8500   48.4960 O   0  0  0  0  0
    0.9070  -27.6560   48.6980 C   0  0  0  0  0
   -0.7721  -34.9676   42.3991 H   0  0  0  0  0
    2.8909  -33.7708   42.3993 H   0  0  0  0  0
    5.8098  -33.5088   45.6601 H   0  0  0  0  0
    6.2476  -32.0653   44.7138 H   0  0  0  0  0
    6.1856  -31.9795   46.4914 H   0  0  0  0  0
    1.5394  -34.3231   40.4416 H   0  0  0  0  0
    0.1772  -33.3872   41.1044 H   0  0  0  0  0
    1.6890  -32.5614   40.6534 H   0  0  0  0  0
   -0.5455  -40.9642   48.0152 H   0  0  0  0  0
   -0.0036  -39.6295   48.9557 H   0  0  0  0  0
   -2.2201  -38.8179   48.5163 H   0  0  0  0  0
   -2.3936  -39.7415   47.0986 H   0  0  0  0  0
   -1.0094  -37.0690   47.4205 H   0  0  0  0  0
   -1.8630  -37.6742   46.0305 H   0  0  0  0  0
    2.8690  -38.9958   44.6331 H   0  0  0  0  0
   -1.1712  -37.0984   43.7216 H   0  0  0  0  0
    0.5510  -32.0785   43.1918 H   0  0  0  0  0
    2.6031  -29.7323   48.2938 H   0  0  0  0  0
   -0.3894  -31.2064   44.6251 H   0  0  0  0  0
   -2.2677  -30.4204   44.6946 H   0  0  0  0  0
   -2.5614  -31.4273   46.1337 H   0  0  0  0  0
   -3.5170  -29.9476   45.8722 H   0  0  0  0  0
    1.9310  -27.9304   48.9515 H   0  0  0  0  0
    0.9042  -27.0628   47.7835 H   0  0  0  0  0
    0.4734  -27.0741   49.5114 H   0  0  0  0  0
  9  1  4  0  0  0
  1 23  4  0  0  0
  1 24  4  0  0  0
  8  2  4  0  0  0
  2 20  4  0  0  0
  3  5  1  0  0  0
 22  3  4  0  0  0
  3 23  4  0  0  0
  4  7  1  0  0  0
  8  4  1  0  0  0
  4 21  1  0  0  0
  6  9  4  0  0  0
 21  6  1  0  0  0
  6 22  4  0  0  0
 19  8  4  0  0  0
  9 25  4  0  0  0
 10 11  1  0  0  0
 14 10  1  0  0  0
 12 11  1  0  0  0
 13 12  1  0  0  0
 13 14  4  0  0  0
 17 13  4  0  0  0
 15 14  4  0  0  0
 16 15  4  0  0  0
 17 16  4  0  0  0
 18 17  1  0  0  0
 18 19  4  0  0  0
 18 20  4  0  0  0
 24 29  4  0  0  0
 25 26  4  0  0  0
 26 27  1  0  0  0
 26 29  4  0  0  0
 27 28  1  0  0  0
 29 30  1  0  0  0
 30 31  1  0  0  0
  2 32  1  0  0  0
  4 33  1  0  0  0
  5 34  1  0  0  0
  5 35  1  0  0  0
  5 36  1  0  0  0
  7 37  1  0  0  0
  7 38  1  0  0  0
  7 39  1  0  0  0
 10 40  1  0  0  0
 10 41  1  0  0  0
 11 42  1  0  0  0
 11 43  1  0  0  0
 12 44  1  0  0  0
 12 45  1  0  0  0
 16 46  1  0  0  0
 20 47  1  0  0  0
 21 48  1  0  0  0
 24 49  1  0  0  0
 25 50  1  0  0  0
 28 51  1  0  0  0
 28 52  1  0  0  0
 28 53  1  0  0  0
 31 54  1  0  0  0
 31 55  1  0  0  0
 31 56  1  0  0  0
M  END
$$$$
