### 
### Created by X-TOOL on Mon Sep 10 21:13:14 2018
### 

@<TRIPOS>MOLECULE
4k3o_ligand
   88    88     1     0     0
SMALL
GAST_HUCK


@<TRIPOS>ATOM
      1 C          -3.5710   -8.3800  -12.4820 C.3       1 ACE         0.0796
      2 O          -3.0330   -8.0190  -13.5260 O.3       1 ACE        -0.3533
      3 CH3        -4.6260   -9.4640  -12.6540 C.3       1 ACE         0.0048
      4 N          -2.7200   -8.6680  -11.4590 N.4       1 GLN         0.2677
      5 CA         -1.5010   -7.8460  -11.1080 C.3       1 GLN         0.0714
      6 C          -0.2870   -8.2140  -11.9600 C.2       1 GLN         0.2270
      7 O           0.1240   -9.3770  -11.9840 O.2       1 GLN        -0.3907
      8 CB         -1.1330   -8.0280   -9.6300 C.3       1 GLN         0.0249
      9 CG          0.0630   -7.1990   -9.1750 C.3       1 GLN         0.0443
     10 CD         -0.1810   -5.7100   -9.3170 C.2       1 GLN         0.1738
     11 OE1        -1.2000   -5.2000   -8.8590 O.2       1 GLN        -0.3973
     12 NE2         0.7430   -5.0060   -9.9640 N.am      1 GLN        -0.3009
     13 N           0.2900   -7.2100  -12.6250 N.am      1 ALA        -0.2613
     14 CA          1.5050   -7.3770  -13.4270 C.3       1 ALA         0.1283
     15 C           2.7270   -6.9350  -12.6270 C.2       1 ALA         0.2037
     16 O           2.5900   -6.2540  -11.6110 O.2       1 ALA        -0.3944
     17 CB          1.3990   -6.5770  -14.7210 C.3       1 ALA        -0.0244
     18 N           3.9200   -7.3100  -13.0920 N.am      1 ASP        -0.2622
     19 CA          5.1560   -7.0470  -12.3430 C.3       1 ASP         0.1423
     20 C           6.0770   -6.0330  -13.0000 C.2       1 ASP         0.2056
     21 O           6.0930   -5.8920  -14.2250 O.2       1 ASP        -0.3943
     22 CB          5.9140   -8.3490  -12.0900 C.3       1 ASP         0.0406
     23 CG          5.4390   -9.0470  -10.8350 C.2       1 ASP         0.0393
     24 OD1         4.2210   -9.3070  -10.7320 O.co2     1 ASP        -0.5688
     25 OD2         6.2760   -9.3100   -9.9430 O.co2     1 ASP        -0.5688
     26 N           6.8480   -5.3390  -12.1590 N.am      1 LEU        -0.2636
     27 CA          7.7780   -4.2890  -12.5920 C.3       1 LEU         0.1312
     28 C           9.0450   -4.8340  -13.2280 C.2       1 LEU         0.2035
     29 O           9.6710   -4.1470  -14.0360 O.2       1 LEU        -0.3944
     30 CB          8.1630   -3.3820  -11.4050 C.3       1 LEU        -0.0101
     31 CG          7.1020   -2.4170  -10.8700 C.3       1 LEU        -0.0425
     32 CD1         7.5050   -1.8990   -9.4950 C.3       1 LEU        -0.0625
     33 CD2         6.8700   -1.2500  -11.8240 C.3       1 LEU        -0.0625
     34 N           9.4200   -6.0520  -12.8460 N.am      1 PHE        -0.2677
     35 CA         10.6830   -6.6540  -13.2520 C.3       1 PHE         0.1039
     36 C          10.7000   -8.1380  -12.8940 C.2       1 PHE         0.0621
     37 O           9.7670   -8.6770  -12.2940 O.co2     1 PHE        -0.5664
     38 CB         11.8530   -5.9690  -12.5340 C.3       1 PHE         0.0159
     39 CG         11.7450   -6.0020  -11.0240 C.ar      1 PHE        -0.0392
     40 CD1        12.1520   -7.1150  -10.3050 C.ar      1 PHE        -0.0602
     41 CD2        11.2150   -4.9230  -10.3310 C.ar      1 PHE        -0.0602
     42 CE1        12.0480   -7.1490   -8.9240 C.ar      1 PHE        -0.0686
     43 CE2        11.1020   -4.9490   -8.9520 C.ar      1 PHE        -0.0686
     44 CZ         11.5190   -6.0620   -8.2470 C.ar      1 PHE        -0.0687
     45 OXT        11.6910   -8.8110  -13.1610 O.co2     1 PHE        -0.5664
     46 H1         -4.1275   -7.4935  -12.1439 H         1 ACE         0.1181
     47 H2         -3.6994   -7.8410  -14.1792 H         1 ACE         0.2154
     48 H3         -5.0502   -9.7218  -11.6724 H         1 ACE         0.0310
     49 H4         -4.1645  -10.3574  -13.1000 H         1 ACE         0.0310
     50 H5         -5.4256   -9.0961  -13.3138 H         1 ACE         0.0310
     51 H6         -2.3769   -9.5975  -11.6442 H         1 GLN         0.2063
     52 H7         -3.2890   -8.6794  -10.6270 H         1 GLN         0.2063
     53 H8         -1.7420   -6.7874  -11.2849 H         1 GLN         0.1101
     54 H9         -0.9006   -9.0898   -9.4610 H         1 GLN         0.0370
     55 H10        -2.0027   -7.7415   -9.0205 H         1 GLN         0.0370
     56 H11         0.9363   -7.4739   -9.7847 H         1 GLN         0.0506
     57 H12         0.2680   -7.4245   -8.1181 H         1 GLN         0.0506
     58 H13         0.6274   -4.0199  -10.0837 H         1 GLN         0.1814
     59 H14         1.5535   -5.4626  -10.3309 H         1 GLN         0.1814
     60 H15        -0.1263   -6.3022  -12.5733 H         1 ALA         0.1884
     61 H16         1.6164   -8.4416  -13.6803 H         1 ALA         0.0797
     62 H17         2.3171   -6.7120  -15.3117 H         1 ALA         0.0277
     63 H18         1.2693   -5.5108  -14.4834 H         1 ALA         0.0277
     64 H19         0.5342   -6.9312  -15.3013 H         1 ALA         0.0277
     65 H20         3.9741   -7.7817  -13.9721 H         1 ASP         0.1884
     66 H21         4.8603   -6.6330  -11.3678 H         1 ASP         0.0819
     67 H22         6.9852   -8.1218  -11.9860 H         1 ASP         0.0478
     68 H23         5.7631   -9.0202  -12.9483 H         1 ASP         0.0478
     69 H24         6.7887   -5.5456  -11.1824 H         1 LEU         0.1883
     70 H25         7.2596   -3.6759  -13.3439 H         1 LEU         0.0800
     71 H26         9.0265   -2.7779  -11.7204 H         1 LEU         0.0315
     72 H27         8.4587   -4.0382  -10.5732 H         1 LEU         0.0315
     73 H28         6.1565   -2.9700  -10.7694 H         1 LEU         0.0298
     74 H29         6.7344   -1.2076   -9.1234 H         1 LEU         0.0232
     75 H30         8.4667   -1.3703   -9.5697 H         1 LEU         0.0232
     76 H31         7.6048   -2.7451   -8.7992 H         1 LEU         0.0232
     77 H32         6.5799   -1.6364  -12.8122 H         1 LEU         0.0232
     78 H33         7.7955   -0.6629  -11.9171 H         1 LEU         0.0232
     79 H34         6.0672   -0.6090  -11.4309 H         1 LEU         0.0232
     80 H35         8.8083   -6.5772  -12.2544 H         1 PHE         0.1877
     81 H36        10.8030   -6.5385  -14.3393 H         1 PHE         0.0749
     82 H37        11.8906   -4.9180  -12.8564 H         1 PHE         0.0467
     83 H38        12.7844   -6.4759  -12.8265 H         1 PHE         0.0467
     84 H39        12.5577   -7.9715  -10.8312 H         1 PHE         0.0557
     85 H40        10.8847   -4.0471  -10.8777 H         1 PHE         0.0557
     86 H41        12.3793   -8.0230   -8.3750 H         1 PHE         0.0599
     87 H42        10.6869   -4.0973   -8.4254 H         1 PHE         0.0599
     88 H43        11.4324   -6.0846   -7.1667 H         1 PHE         0.0559
@<TRIPOS>BOND
     1    1    2 1  
     2    1    3 1  
     3    1    4 1  
     4    4    5 1  
     5    5    6 1  
     6    5    8 1  
     7    6    7 2  
     8    6   13 am 
     9    8    9 1  
    10    9   10 1  
    11   10   11 2  
    12   10   12 am 
    13   13   14 1  
    14   14   15 1  
    15   14   17 1  
    16   15   16 2  
    17   15   18 am 
    18   18   19 1  
    19   19   20 1  
    20   19   22 1  
    21   20   21 2  
    22   20   26 am 
    23   22   23 1  
    24   23   24 ar 
    25   23   25 ar 
    26   26   27 1  
    27   27   28 1  
    28   27   30 1  
    29   28   29 2  
    30   28   34 am 
    31   30   31 1  
    32   31   32 1  
    33   31   33 1  
    34   34   35 1  
    35   35   36 1  
    36   35   38 1  
    37   36   37 ar 
    38   36   45 ar 
    39   38   39 1  
    40   39   40 ar 
    41   39   41 ar 
    42   40   42 ar 
    43   41   43 ar 
    44   42   44 ar 
    45   43   44 ar 
    46    1   46 1  
    47    2   47 1  
    48    3   48 1  
    49    3   49 1  
    50    3   50 1  
    51    4   51 1  
    52    4   52 1  
    53    5   53 1  
    54    8   54 1  
    55    8   55 1  
    56    9   56 1  
    57    9   57 1  
    58   12   58 1  
    59   12   59 1  
    60   13   60 1  
    61   14   61 1  
    62   17   62 1  
    63   17   63 1  
    64   17   64 1  
    65   18   65 1  
    66   19   66 1  
    67   22   67 1  
    68   22   68 1  
    69   26   69 1  
    70   27   70 1  
    71   30   71 1  
    72   30   72 1  
    73   31   73 1  
    74   32   74 1  
    75   32   75 1  
    76   32   76 1  
    77   33   77 1  
    78   33   78 1  
    79   33   79 1  
    80   34   80 1  
    81   35   81 1  
    82   38   82 1  
    83   38   83 1  
    84   40   84 1  
    85   41   85 1  
    86   42   86 1  
    87   43   87 1  
    88   44   88 1  
@<TRIPOS>SUBSTRUCTURE
     1 ACE         1

