4k3o_ligand
  -I-interpret- 

 90 90  0  0  0  0  0  0  0  0999 V2000
   -3.5710   -8.3800  -12.4820 C   0  0  0  0  0
   -3.0330   -8.0190  -13.5260 O   0  0  0  0  0
   -4.6260   -9.4640  -12.6540 C   0  0  0  0  0
   -2.7200   -8.6680  -11.4590 N   0  3  0  0  0
   -1.5010   -7.8460  -11.1080 C   0  0  0  0  0
   -0.2870   -8.2140  -11.9600 C   0  0  0  0  0
    0.1240   -9.3770  -11.9840 O   0  0  0  0  0
   -1.1330   -8.0280   -9.6300 C   0  0  0  0  0
    0.0630   -7.1990   -9.1750 C   0  0  0  0  0
   -0.1810   -5.7100   -9.3170 C   0  0  0  0  0
   -1.2000   -5.2000   -8.8590 O   0  0  0  0  0
    0.7430   -5.0060   -9.9640 N   0  0  0  0  0
    0.2900   -7.2100  -12.6250 N   0  0  0  0  0
    1.5050   -7.3770  -13.4270 C   0  0  0  0  0
    2.7270   -6.9350  -12.6270 C   0  0  0  0  0
    2.5900   -6.2540  -11.6110 O   0  0  0  0  0
    1.3990   -6.5770  -14.7210 C   0  0  0  0  0
    3.9200   -7.3100  -13.0920 N   0  0  0  0  0
    5.1560   -7.0470  -12.3430 C   0  0  0  0  0
    6.0770   -6.0330  -13.0000 C   0  0  0  0  0
    6.0930   -5.8920  -14.2250 O   0  0  0  0  0
    5.9140   -8.3490  -12.0900 C   0  0  0  0  0
    5.4390   -9.0470  -10.8350 C   0  0  0  0  0
    4.2210   -9.3070  -10.7320 O   0  0  0  0  0
    6.2760   -9.3100   -9.9430 O   0  0  0  0  0
    6.8480   -5.3390  -12.1590 N   0  0  0  0  0
    7.7780   -4.2890  -12.5920 C   0  0  0  0  0
    9.0450   -4.8340  -13.2280 C   0  0  0  0  0
    9.6710   -4.1470  -14.0360 O   0  0  0  0  0
    8.1630   -3.3820  -11.4050 C   0  0  0  0  0
    7.1020   -2.4170  -10.8700 C   0  0  0  0  0
    7.5050   -1.8990   -9.4950 C   0  0  0  0  0
    6.8700   -1.2500  -11.8240 C   0  0  0  0  0
    9.4200   -6.0520  -12.8460 N   0  0  0  0  0
   10.6830   -6.6540  -13.2520 C   0  0  0  0  0
   10.7000   -8.1380  -12.8940 C   0  0  0  0  0
    9.7670   -8.6770  -12.2940 O   0  0  0  0  0
   11.8530   -5.9690  -12.5340 C   0  0  0  0  0
   11.7450   -6.0020  -11.0240 C   0  0  0  0  0
   12.1520   -7.1150  -10.3050 C   0  0  0  0  0
   11.2150   -4.9230  -10.3310 C   0  0  0  0  0
   12.0480   -7.1490   -8.9240 C   0  0  0  0  0
   11.1020   -4.9490   -8.9520 C   0  0  0  0  0
   11.5190   -6.0620   -8.2470 C   0  0  0  0  0
   11.6910   -8.8110  -13.1610 O   0  0  0  0  0
   -4.1013   -7.4772  -12.1791 H   0  0  0  0  0
   -3.7064   -7.8391  -14.1861 H   0  0  0  0  0
   -4.1371  -10.4142  -12.8690 H   0  0  0  0  0
   -5.2072   -9.5524  -11.7361 H   0  0  0  0  0
   -5.2864   -9.1988  -13.4796 H   0  0  0  0  0
   -2.3128   -9.5563  -11.7515 H   0  0  0  0  0
   -3.3122   -8.5502  -10.6369 H   0  0  0  0  0
   -1.7631   -6.8070  -11.3079 H   0  0  0  0  0
   -0.8680   -9.0763   -9.4920 H   0  0  0  0  0
   -1.9915   -7.7017   -9.0430 H   0  0  0  0  0
    0.9151   -7.4630   -9.8013 H   0  0  0  0  0
    0.2414   -7.4132   -8.1213 H   0  0  0  0  0
    0.6198   -4.0021  -10.0958 H   0  0  0  0  0
    1.5751   -5.4699  -10.3286 H   0  0  0  0  0
   -0.1346   -6.2841  -12.5723 H   0  0  0  0  0
    1.6162   -8.4313  -13.6803 H   0  0  0  0  0
    0.5418   -6.9289  -15.2950 H   0  0  0  0  0
    1.2705   -5.5208  -14.4842 H   0  0  0  0  0
    2.3092   -6.7115  -15.3054 H   0  0  0  0  0
    3.9752   -7.7912  -13.9897 H   0  0  0  0  0
    4.8387   -6.6046  -11.3987 H   0  0  0  0  0
    6.9704   -8.1100  -11.9678 H   0  0  0  0  0
    5.7407   -9.0140  -12.9361 H   0  0  0  0  0
    7.1472   -9.0264  -10.2296 H   0  0  0  0  0
    6.7875   -5.5497  -11.1628 H   0  0  0  0  0
    7.2476   -3.7162  -13.3527 H   0  0  0  0  0
    8.9718   -2.7503  -11.7722 H   0  0  0  0  0
    8.3817   -4.0600  -10.5800 H   0  0  0  0  0
    6.1658   -2.9688  -10.7856 H   0  0  0  0  0
    7.6036   -2.7383   -8.8065 H   0  0  0  0  0
    8.4580   -1.3754   -9.5704 H   0  0  0  0  0
    6.7407   -1.2141   -9.1278 H   0  0  0  0  0
    7.8013   -0.6990  -11.9553 H   0  0  0  0  0
    6.5332   -1.6317  -12.7878 H   0  0  0  0  0
    6.1103   -0.5881  -11.4083 H   0  0  0  0  0
    8.7960   -6.5877  -12.2426 H   0  0  0  0  0
   10.7854   -6.5306  -14.3301 H   0  0  0  0  0
    9.0657   -8.0366  -12.1538 H   0  0  0  0  0
   11.8533   -4.9221  -12.8376 H   0  0  0  0  0
   12.7617   -6.5054  -12.8072 H   0  0  0  0  0
   12.5599   -7.9763  -10.8341 H   0  0  0  0  0
   10.8829   -4.0423  -10.8807 H   0  0  0  0  0
   12.3812   -8.0278   -8.3719 H   0  0  0  0  0
   10.6846   -4.0926   -8.4225 H   0  0  0  0  0
   11.4319   -6.0847   -7.1607 H   0  0  0  0  0
  1  2  1  0  0  0
  1  3  1  0  0  0
  1  4  1  0  0  0
  4  5  1  0  0  0
  5  6  1  0  0  0
  5  8  1  0  0  0
  6  7  2  0  0  0
  6 13  1  0  0  0
  8  9  1  0  0  0
  9 10  1  0  0  0
 10 11  2  0  0  0
 10 12  1  0  0  0
 13 14  1  0  0  0
 14 15  1  0  0  0
 14 17  1  0  0  0
 15 16  2  0  0  0
 15 18  1  0  0  0
 18 19  1  0  0  0
 19 20  1  0  0  0
 19 22  1  0  0  0
 20 21  2  0  0  0
 20 26  1  0  0  0
 22 23  1  0  0  0
 23 24  2  0  0  0
 23 25  1  0  0  0
 26 27  1  0  0  0
 27 28  1  0  0  0
 27 30  1  0  0  0
 28 29  2  0  0  0
 28 34  1  0  0  0
 30 31  1  0  0  0
 31 32  1  0  0  0
 31 33  1  0  0  0
 34 35  1  0  0  0
 35 36  1  0  0  0
 35 38  1  0  0  0
 36 37  1  0  0  0
 36 45  2  0  0  0
 38 39  1  0  0  0
 39 40  4  0  0  0
 39 41  4  0  0  0
 40 42  4  0  0  0
 41 43  4  0  0  0
 42 44  4  0  0  0
 43 44  4  0  0  0
  1 46  1  0  0  0
  2 47  1  0  0  0
  3 48  1  0  0  0
  3 49  1  0  0  0
  3 50  1  0  0  0
  4 51  1  0  0  0
  4 52  1  0  0  0
  5 53  1  0  0  0
  8 54  1  0  0  0
  8 55  1  0  0  0
  9 56  1  0  0  0
  9 57  1  0  0  0
 12 58  1  0  0  0
 12 59  1  0  0  0
 13 60  1  0  0  0
 14 61  1  0  0  0
 17 62  1  0  0  0
 17 63  1  0  0  0
 17 64  1  0  0  0
 18 65  1  0  0  0
 19 66  1  0  0  0
 22 67  1  0  0  0
 22 68  1  0  0  0
 25 69  1  0  0  0
 26 70  1  0  0  0
 27 71  1  0  0  0
 30 72  1  0  0  0
 30 73  1  0  0  0
 31 74  1  0  0  0
 32 75  1  0  0  0
 32 76  1  0  0  0
 32 77  1  0  0  0
 33 78  1  0  0  0
 33 79  1  0  0  0
 33 80  1  0  0  0
 34 81  1  0  0  0
 35 82  1  0  0  0
 37 83  1  0  0  0
 38 84  1  0  0  0
 38 85  1  0  0  0
 40 86  1  0  0  0
 41 87  1  0  0  0
 42 88  1  0  0  0
 43 89  1  0  0  0
 44 90  1  0  0  0
M  END
$$$$
