6ela_ligand
  -I-interpret- 

 52 54  0  0  0  0  0  0  0  0999 V2000
   14.2850    6.1020   34.7410 C   0  0  0  0  0
   14.5030    7.3570   35.2940 C   0  0  0  0  0
   13.4690    8.2790   35.3950 C   0  0  0  0  0
   11.3100   10.2010   35.5120 C   0  0  0  0  0
    9.0220   10.7930   35.2040 C   0  0  0  0  0
    4.0420   10.8180   34.3010 C   0  0  0  0  0
    5.2640   11.4650   34.2700 C   0  0  0  0  0
    5.6320   12.4420   33.1330 C   0  0  0  0  0
   12.2050    7.9350   34.9400 C   0  0  0  0  0
    9.7730    8.5790   34.6270 C   0  0  0  0  0
    3.7320    9.9420   35.3270 C   0  0  0  0  0
    6.7640   11.9150   32.2520 C   0  0  0  0  0
   13.0290    5.7660   34.2860 C   0  0  0  0  0
   11.9970    6.6820   34.3820 C   0  0  0  0  0
    8.7500    9.5200   34.7240 C   0  0  0  0  0
   16.4550    5.4020   35.4170 C   0  0  0  0  0
    6.1480   11.2390   35.3140 C   0  0  0  0  0
    5.8400   10.3640   36.3480 C   0  0  0  0  0
    4.6220    9.7120   36.3620 C   0  0  0  0  0
    4.4300   12.7470   32.2230 C   0  0  0  0  0
    3.4200   13.6720   32.9040 C   0  0  0  0  0
    2.2190   13.9600   32.0020 C   0  0  0  0  0
   11.0560    8.9290   35.0290 C   0  0  0  0  0
   10.2940   11.1310   35.6020 C   0  0  0  0  0
   15.3140    5.1600   34.6250 O   0  0  0  0  0
    7.6980   12.6830   31.8680 O   0  0  0  0  0
    6.7390   10.7210   31.8930 O   0  0  0  0  0
    1.4180   14.8840   32.3020 O   0  0  0  0  0
    2.0370   13.2710   30.9600 O   0  0  0  0  0
    7.7500   12.0740   35.3420 S   0  0  0  0  0
   15.4975    7.6218   35.6531 H   0  0  0  0  0
   13.6493    9.2631   35.8276 H   0  0  0  0  0
   12.3193   10.4702   35.8234 H   0  0  0  0  0
    3.3153   10.9998   33.5092 H   0  0  0  0  0
    5.9578   13.3520   33.6368 H   0  0  0  0  0
    9.5692    7.5804   34.2404 H   0  0  0  0  0
    2.7723    9.4253   35.3198 H   0  0  0  0  0
   12.8491    4.7824   33.8521 H   0  0  0  0  0
   11.0062    6.4156   34.0140 H   0  0  0  0  0
    7.7362    9.2561   34.4228 H   0  0  0  0  0
   16.8879    6.3643   35.1438 H   0  0  0  0  0
   16.1693    5.4162   36.4688 H   0  0  0  0  0
   17.1868    4.6120   35.2486 H   0  0  0  0  0
    6.5594   10.1918   37.1485 H   0  0  0  0  0
    4.3667    9.0295   37.1726 H   0  0  0  0  0
    3.9300   11.8068   31.9903 H   0  0  0  0  0
    4.7980   13.2441   31.3255 H   0  0  0  0  0
    3.9158   14.6166   33.1277 H   0  0  0  0  0
    3.0604   13.1814   33.8085 H   0  0  0  0  0
   10.4993   12.1298   35.9872 H   0  0  0  0  0
    7.5615   13.5594   32.2352 H   0  0  0  0  0
    2.7351   12.6164   30.8846 H   0  0  0  0  0
  2  1  4  0  0  0
 13  1  4  0  0  0
  1 25  1  0  0  0
  3  2  4  0  0  0
  9  3  4  0  0  0
  4 23  4  0  0  0
 24  4  4  0  0  0
  5 15  4  0  0  0
  5 24  4  0  0  0
 30  5  1  0  0  0
  7  6  4  0  0  0
  6 11  4  0  0  0
  7  8  1  0  0  0
 17  7  4  0  0  0
  8 12  1  0  0  0
  8 20  1  0  0  0
  9 14  4  0  0  0
 23  9  1  0  0  0
 15 10  4  0  0  0
 10 23  4  0  0  0
 11 19  4  0  0  0
 12 26  1  0  0  0
 12 27  2  0  0  0
 14 13  4  0  0  0
 25 16  1  0  0  0
 17 18  4  0  0  0
 17 30  1  0  0  0
 18 19  4  0  0  0
 20 21  1  0  0  0
 21 22  1  0  0  0
 22 28  2  0  0  0
 22 29  1  0  0  0
  2 31  1  0  0  0
  3 32  1  0  0  0
  4 33  1  0  0  0
  6 34  1  0  0  0
  8 35  1  0  0  0
 10 36  1  0  0  0
 11 37  1  0  0  0
 13 38  1  0  0  0
 14 39  1  0  0  0
 15 40  1  0  0  0
 16 41  1  0  0  0
 16 42  1  0  0  0
 16 43  1  0  0  0
 18 44  1  0  0  0
 19 45  1  0  0  0
 20 46  1  0  0  0
 20 47  1  0  0  0
 21 48  1  0  0  0
 21 49  1  0  0  0
 24 50  1  0  0  0
 26 51  1  0  0  0
 29 52  1  0  0  0
M  END
$$$$
