3d9m_ligand
  -I-interpret- 

105107  0  0  0  0  0  0  0  0999 V2000
   16.0580    4.9550   -4.9350 N   0  3  0  0  0
   15.8740    6.2390   -5.5820 C   0  0  0  0  0
   15.5870    6.0720   -7.0620 C   0  0  0  0  0
   16.2380    5.2820   -7.7450 O   0  0  0  0  0
   17.1030    7.1260   -5.3930 C   0  0  0  0  0
   16.9170    8.5010   -6.0040 C   0  0  0  0  0
   16.2840    9.5180   -5.2940 C   0  0  0  0  0
   17.3420    8.7690   -7.3050 C   0  0  0  0  0
   16.1050   10.7800   -5.8510 C   0  0  0  0  0
   17.1610   10.0360   -7.8790 C   0  0  0  0  0
   16.5440   11.0320   -7.1430 C   0  0  0  0  0
   16.3610   12.2780   -7.7020 O   0  0  0  0  0
   14.5980    6.8240   -7.5340 N   0  0  0  0  0
   14.3030    6.9430   -8.9520 C   0  0  0  0  0
   14.2540    8.4190   -9.3650 C   0  0  0  0  0
   13.6610    9.2380   -8.6570 O   0  0  0  0  0
   12.9670    6.2820   -9.2740 C   0  0  0  0  0
   12.4900    6.6910  -10.5450 O   0  0  0  0  0
   14.8300    8.7540  -10.5370 N   0  0  0  0  0
   14.7470   10.1460  -11.0040 C   0  0  0  0  0
   13.3360   10.5600  -11.4690 C   0  0  0  0  0
   13.1240   11.7220  -11.8150 O   0  0  0  0  0
   15.7080   10.1720  -12.2030 C   0  0  0  0  0
   15.6660    8.7640  -12.7320 C   0  0  0  0  0
   15.5420    7.8870  -11.5020 C   0  0  0  0  0
   12.3900    9.6170  -11.4910 N   0  0  0  0  0
   11.0000    9.9200  -11.8500 C   0  0  0  0  0
   10.1390   10.2500  -10.6230 C   0  0  0  0  0
    8.9670   10.6250  -10.7550 O   0  0  0  0  0
   10.3430    8.7480  -12.6070 C   0  0  0  0  0
   10.2270    7.6160  -11.7360 O   0  0  0  0  0
   11.1630    8.3660  -13.8330 C   0  0  0  0  0
   10.7210   10.0980   -9.4350 N   0  0  0  0  0
    9.9990   10.3230   -8.1800 C   0  0  0  0  0
   10.6270    9.4880   -7.0640 C   0  0  0  0  0
    9.7490    9.3470   -5.9610 O   0  0  0  0  0
    9.9950   11.8040   -7.7830 C   0  0  0  0  0
   11.0200   12.4770   -7.9270 O   0  0  0  0  0
    9.6690    7.7890   -5.5490 P   0  0  0  0  0
    8.4490    7.0890   -6.3350 O   0  0  0  0  0
   11.0570    7.0610   -5.9520 O   0  0  0  0  0
    9.4140    7.6770   -3.9630 O   0  0  0  0  0
    8.8450   12.3140   -7.2840 N   0  0  0  0  0
    8.7270   13.7020   -6.8130 C   0  0  0  0  0
    9.6920   14.0760   -5.6790 C   0  0  0  0  0
   10.2110   13.1980   -4.9870 O   0  0  0  0  0
    7.2780   13.7790   -6.3060 C   0  0  0  0  0
    6.5640   12.6990   -7.0250 C   0  0  0  0  0
    7.5610   11.5940   -7.1650 C   0  0  0  0  0
    9.9170   15.3770   -5.5030 N   0  0  0  0  0
   10.7730   15.8980   -4.4330 C   0  0  0  0  0
   10.0440   15.9330   -3.0900 C   0  0  0  0  0
    9.2789   16.8873   -2.7873 O   0  0  0  0  0
   11.3030   17.2910   -4.7960 C   0  0  0  0  0
   12.1910   17.2230   -5.9010 O   0  0  0  0  0
   10.2112   14.9904   -2.2707 O   0  0  0  0  0
   15.2256    4.3825   -5.0754 H   0  0  0  0  0
   16.8677    4.4847   -5.3395 H   0  0  0  0  0
   16.2097    5.0974   -3.9365 H   0  0  0  0  0
   15.0153    6.7192   -5.1128 H   0  0  0  0  0
   17.9468    6.6461   -5.8888 H   0  0  0  0  0
   17.2700    7.2503   -4.3231 H   0  0  0  0  0
   15.9226    9.3218   -4.2845 H   0  0  0  0  0
   17.8226    7.9812   -7.8851 H   0  0  0  0  0
   15.6214   11.5685   -5.2744 H   0  0  0  0  0
   17.5030   10.2340   -8.8948 H   0  0  0  0  0
   16.7189   12.2835   -8.5928 H   0  0  0  0  0
   14.0201    7.3408   -6.8712 H   0  0  0  0  0
   15.0947    6.4409   -9.5081 H   0  0  0  0  0
   12.2402    6.5762   -8.5168 H   0  0  0  0  0
   13.1056    5.2009   -9.2842 H   0  0  0  0  0
   11.6499    6.2620  -10.7235 H   0  0  0  0  0
   14.9920   10.8410  -10.2008 H   0  0  0  0  0
   16.7151   10.4774  -11.9193 H   0  0  0  0  0
   15.4129   10.9050  -12.9538 H   0  0  0  0  0
   16.5571    8.5233  -13.3118 H   0  0  0  0  0
   14.8337    8.6154  -13.4199 H   0  0  0  0  0
   15.0108    6.9564  -11.7017 H   0  0  0  0  0
   16.5084    7.5484  -11.1286 H   0  0  0  0  0
   12.6414    8.6580  -11.2511 H   0  0  0  0  0
   11.0463   10.7970  -12.4956 H   0  0  0  0  0
    9.3528    9.0627  -12.9366 H   0  0  0  0  0
    9.8177    6.8889  -12.2108 H   0  0  0  0  0
   11.2323    9.2226  -14.5035 H   0  0  0  0  0
   12.1631    8.0658  -13.5205 H   0  0  0  0  0
   10.6781    7.5373  -14.3490 H   0  0  0  0  0
   11.7005    9.8160   -9.3975 H   0  0  0  0  0
    8.9639   10.0172   -8.3321 H   0  0  0  0  0
   11.5305    9.9933   -6.7226 H   0  0  0  0  0
   10.8468    8.4958   -7.4583 H   0  0  0  0  0
    8.5994    7.1549   -7.2808 H   0  0  0  0  0
   11.1936    7.1369   -6.8992 H   0  0  0  0  0
    8.9773   14.3979   -7.6137 H   0  0  0  0  0
    6.8335   14.7555   -6.4983 H   0  0  0  0  0
    7.2204   13.6520   -5.2250 H   0  0  0  0  0
    6.1986   13.0357   -7.9952 H   0  0  0  0  0
    5.6769   12.3732   -6.4819 H   0  0  0  0  0
    7.5429   10.9012   -6.3237 H   0  0  0  0  0
    7.3584   10.9497   -8.0205 H   0  0  0  0  0
    9.4746   16.0393   -6.1402 H   0  0  0  0  0
   11.6184   15.2178   -4.3291 H   0  0  0  0  0
   11.8407   17.6958   -3.9386 H   0  0  0  0  0
   10.4599   17.9283   -5.0626 H   0  0  0  0  0
   12.5090   18.1045   -6.1093 H   0  0  0  0  0
   10.8169   14.3464   -2.6448 H   0  0  0  0  0
  1  2  1  0  0  0
  2  3  1  0  0  0
  2  5  1  0  0  0
  3  4  2  0  0  0
  3 13  1  0  0  0
  5  6  1  0  0  0
  6  7  4  0  0  0
  6  8  4  0  0  0
  7  9  4  0  0  0
  8 10  4  0  0  0
  9 11  4  0  0  0
 10 11  4  0  0  0
 11 12  1  0  0  0
 13 14  1  0  0  0
 14 15  1  0  0  0
 14 17  1  0  0  0
 15 16  2  0  0  0
 15 19  1  0  0  0
 17 18  1  0  0  0
 19 20  1  0  0  0
 19 25  1  0  0  0
 20 21  1  0  0  0
 20 23  1  0  0  0
 21 22  2  0  0  0
 21 26  1  0  0  0
 23 24  1  0  0  0
 24 25  1  0  0  0
 26 27  1  0  0  0
 27 28  1  0  0  0
 27 30  1  0  0  0
 28 29  2  0  0  0
 28 33  1  0  0  0
 30 31  1  0  0  0
 30 32  1  0  0  0
 33 34  1  0  0  0
 34 35  1  0  0  0
 34 37  1  0  0  0
 35 36  1  0  0  0
 36 39  1  0  0  0
 37 38  2  0  0  0
 37 43  1  0  0  0
 39 40  1  0  0  0
 39 41  1  0  0  0
 39 42  2  0  0  0
 43 44  1  0  0  0
 43 49  1  0  0  0
 44 45  1  0  0  0
 44 47  1  0  0  0
 45 46  2  0  0  0
 45 50  1  0  0  0
 47 48  1  0  0  0
 48 49  1  0  0  0
 50 51  1  0  0  0
 51 52  1  0  0  0
 51 54  1  0  0  0
 52 53  2  0  0  0
 54 55  1  0  0  0
 52 56  1  0  0  0
  1 57  1  0  0  0
  1 58  1  0  0  0
  1 59  1  0  0  0
  2 60  1  0  0  0
  5 61  1  0  0  0
  5 62  1  0  0  0
  7 63  1  0  0  0
  8 64  1  0  0  0
  9 65  1  0  0  0
 10 66  1  0  0  0
 12 67  1  0  0  0
 13 68  1  0  0  0
 14 69  1  0  0  0
 17 70  1  0  0  0
 17 71  1  0  0  0
 18 72  1  0  0  0
 20 73  1  0  0  0
 23 74  1  0  0  0
 23 75  1  0  0  0
 24 76  1  0  0  0
 24 77  1  0  0  0
 25 78  1  0  0  0
 25 79  1  0  0  0
 26 80  1  0  0  0
 27 81  1  0  0  0
 30 82  1  0  0  0
 31 83  1  0  0  0
 32 84  1  0  0  0
 32 85  1  0  0  0
 32 86  1  0  0  0
 33 87  1  0  0  0
 34 88  1  0  0  0
 35 89  1  0  0  0
 35 90  1  0  0  0
 40 91  1  0  0  0
 41 92  1  0  0  0
 44 93  1  0  0  0
 47 94  1  0  0  0
 47 95  1  0  0  0
 48 96  1  0  0  0
 48 97  1  0  0  0
 49 98  1  0  0  0
 49 99  1  0  0  0
 50100  1  0  0  0
 51101  1  0  0  0
 54102  1  0  0  0
 54103  1  0  0  0
 55104  1  0  0  0
 56105  1  0  0  0
M  END
$$$$
