### 
### Created by X-TOOL on Mon Sep 10 21:12:57 2018
### 

@<TRIPOS>MOLECULE
3d9m_ligand
  102   104     1     0     0
SMALL
GAST_HUCK


@<TRIPOS>ATOM
      1 N          16.0580    4.9550   -4.9350 N.4       1 TYR         0.2392
      2 CA         15.8740    6.2390   -5.5820 C.3       1 TYR         0.0730
      3 C          15.5870    6.0720   -7.0620 C.2       1 TYR         0.2286
      4 O          16.2380    5.2820   -7.7450 O.2       1 TYR        -0.3905
      5 CB         17.1030    7.1260   -5.3930 C.3       1 TYR         0.0365
      6 CG         16.9170    8.5010   -6.0040 C.ar      1 TYR        -0.0460
      7 CD1        16.2840    9.5180   -5.2940 C.ar      1 TYR        -0.0684
      8 CD2        17.3420    8.7690   -7.3050 C.ar      1 TYR        -0.0684
      9 CE1        16.1050   10.7800   -5.8510 C.ar      1 TYR        -0.0398
     10 CE2        17.1610   10.0360   -7.8790 C.ar      1 TYR        -0.0398
     11 CZ         16.5440   11.0320   -7.1430 C.ar      1 TYR         0.0805
     12 OH         16.3610   12.2780   -7.7020 O.3       1 TYR        -0.3376
     13 N          14.5980    6.8240   -7.5340 N.am      1 SER        -0.2587
     14 CA         14.3030    6.9430   -8.9520 C.3       1 SER         0.1542
     15 C          14.2540    8.4190   -9.3650 C.2       1 SER         0.2087
     16 O          13.6610    9.2380   -8.6570 O.2       1 SER        -0.3941
     17 CB         12.9670    6.2820   -9.2740 C.3       1 SER         0.0843
     18 OG         12.4900    6.6910  -10.5450 O.3       1 SER        -0.3903
     19 N          14.8300    8.7540  -10.5370 N.am      1 PRO        -0.2498
     20 CA         14.7470   10.1460  -11.0040 C.3       1 PRO         0.1338
     21 C          13.3360   10.5600  -11.4690 C.2       1 PRO         0.2042
     22 O          13.1240   11.7220  -11.8150 O.2       1 PRO        -0.3944
     23 CB         15.7080   10.1720  -12.2030 C.3       1 PRO        -0.0104
     24 CG         15.6660    8.7640  -12.7320 C.3       1 PRO        -0.0281
     25 CD         15.5420    7.8870  -11.5020 C.3       1 PRO         0.0369
     26 N          12.3900    9.6170  -11.4910 N.am      1 THR        -0.2613
     27 CA         11.0000    9.9200  -11.8500 C.3       1 THR         0.1565
     28 C          10.1390   10.2500  -10.6230 C.2       1 THR         0.2065
     29 O           8.9670   10.6250  -10.7550 O.2       1 THR        -0.3943
     30 CB         10.3430    8.7480  -12.6070 C.3       1 THR         0.0924
     31 OG1        10.2270    7.6160  -11.7360 O.3       1 THR        -0.3874
     32 CG2        11.1630    8.3660  -13.8330 C.3       1 THR        -0.0346
     33 N          10.7210   10.0980   -9.4350 N.am      1 SEP        -0.2612
     34 CA          9.9990   10.3230   -8.1800 C.3       1 SEP         0.1588
     35 CB         10.6270    9.4880   -7.0640 C.3       1 SEP         0.1184
     36 OG          9.7490    9.3470   -5.9610 O.3       1 SEP        -0.2714
     37 C           9.9950   11.8040   -7.7830 C.2       1 SEP         0.2090
     38 O          11.0200   12.4770   -7.9270 O.2       1 SEP        -0.3941
     39 P           9.6690    7.7890   -5.5490 P.3       1 SEP         0.2010
     40 O1P         8.4490    7.0890   -6.3350 O.co2     1 SEP        -0.5537
     41 O2P        11.0570    7.0610   -5.9520 O.co2     1 SEP        -0.5537
     42 O3P         9.4140    7.6770   -3.9630 O.co2     1 SEP        -0.5537
     43 N           8.8450   12.3140   -7.2840 N.am      1 PRO        -0.2498
     44 CA          8.7270   13.7020   -6.8130 C.3       1 PRO         0.1337
     45 C           9.6920   14.0760   -5.6790 C.2       1 PRO         0.2036
     46 O          10.2110   13.1980   -4.9870 O.2       1 PRO        -0.3944
     47 CB          7.2780   13.7790   -6.3060 C.3       1 PRO        -0.0104
     48 CG          6.5640   12.6990   -7.0250 C.3       1 PRO        -0.0281
     49 CD          7.5610   11.5940   -7.1650 C.3       1 PRO         0.0369
     50 N           9.9170   15.3770   -5.5030 N.am      1 SER        -0.2672
     51 CA         10.7730   15.8980   -4.4330 C.3       1 SER         0.1173
     52 C          10.0440   15.9330   -3.0900 C.2       1 SER         0.0623
     53 O           9.2789   16.8873   -2.7873 O.co2     1 SER        -0.5665
     54 CB         11.3030   17.2910   -4.7960 C.3       1 SER         0.0789
     55 OG         12.1910   17.2230   -5.9010 O.3       1 SER        -0.3910
     56 O44        10.2112   14.9904   -2.2707 O.co2     1 SER        -0.5665
     57 H1         16.2467    5.0966   -3.9550 H         1 TYR         0.2017
     58 H2         16.8342    4.4726   -5.3603 H         1 TYR         0.2017
     59 H3         15.2211    4.4030   -5.0397 H         1 TYR         0.2017
     60 H4         15.0110    6.7367   -5.1156 H         1 TYR         0.1120
     61 H5         17.9670    6.6404   -5.8702 H         1 TYR         0.0486
     62 H6         17.2951    7.2402   -4.3160 H         1 TYR         0.0486
     63 H7         15.9246    9.3229   -4.2901 H         1 TYR         0.0530
     64 H8         17.8199    7.9855   -7.8819 H         1 TYR         0.0530
     65 H9         15.6241   11.5642   -5.2775 H         1 TYR         0.0525
     66 H10        17.5012   10.2329   -8.8892 H         1 TYR         0.0525
     67 H11        15.8249   12.1982   -8.4822 H         1 TYR         0.2458
     68 H12        14.0314    7.3307   -6.8842 H         1 SER         0.1885
     69 H13        15.0973    6.4388   -9.5220 H         1 SER         0.0823
     70 H14        12.2318    6.5645   -8.5061 H         1 SER         0.0606
     71 H15        13.0968    5.1897   -9.2732 H         1 SER         0.0606
     72 H16        11.6587    6.2665  -10.7216 H         1 SER         0.2097
     73 H17        15.0807   10.8337  -10.2130 H         1 PRO         0.0802
     74 H18        16.7258   10.4394  -11.8829 H         1 PRO         0.0313
     75 H19        15.3636   10.8866  -12.9650 H         1 PRO         0.0313
     76 H20        16.5892    8.5299  -13.2823 H         1 PRO         0.0287
     77 H21        14.7990    8.6255  -13.3946 H         1 PRO         0.0287
     78 H22        14.9594    6.9802  -11.7216 H         1 PRO         0.0524
     79 H23        16.5332    7.6023  -11.1194 H         1 PRO         0.0524
     80 H24        12.6365    8.6768  -11.2558 H         1 THR         0.1884
     81 H25        11.0098   10.7992  -12.5110 H         1 THR         0.0826
     82 H26         9.3384    9.0551  -12.9333 H         1 THR         0.0639
     83 H27        11.0914    7.3557  -11.4400 H         1 THR         0.2101
     84 H28        10.6747    7.5297  -14.3547 H         1 THR         0.0257
     85 H29        12.1726    8.0628  -13.5189 H         1 THR         0.0257
     86 H30        11.2336    9.2296  -14.5106 H         1 THR         0.0257
     87 H31        11.6813    9.8215   -9.3982 H         1 SEP         0.1884
     88 H32         8.9567    9.9998   -8.3183 H         1 SEP         0.0827
     89 H33        11.5497    9.9816   -6.7249 H         1 SEP         0.0662
     90 H34        10.8686    8.4897   -7.4578 H         1 SEP         0.0662
     91 H35         8.8859   14.3956   -7.6518 H         1 PRO         0.0802
     92 H36         6.8369   14.7585   -6.5425 H         1 PRO         0.0313
     93 H37         7.2389   13.6119   -5.2195 H         1 PRO         0.0313
     94 H38         6.2335   13.0476   -8.0145 H         1 PRO         0.0287
     95 H39         5.6924   12.3607   -6.4454 H         1 PRO         0.0287
     96 H40         7.5546   10.9419   -6.2791 H         1 PRO         0.0524
     97 H41         7.3605   10.9930   -8.0642 H         1 PRO         0.0524
     98 H42         9.4833   16.0263   -6.1277 H         1 SER         0.1876
     99 H43        11.6343   15.2214   -4.3311 H         1 SER         0.0749
    100 H44        11.8368   17.7101   -3.9303 H         1 SER         0.0599
    101 H45        10.4554   17.9426   -5.0548 H         1 SER         0.0599
    102 H46        12.9266   16.6637   -5.6807 H         1 SER         0.2096
@<TRIPOS>BOND
     1    1    2 1  
     2    2    3 1  
     3    2    5 1  
     4    3    4 2  
     5    3   13 am 
     6    5    6 1  
     7    6    7 ar 
     8    6    8 ar 
     9    7    9 ar 
    10    8   10 ar 
    11    9   11 ar 
    12   10   11 ar 
    13   11   12 1  
    14   13   14 1  
    15   14   15 1  
    16   14   17 1  
    17   15   16 2  
    18   15   19 am 
    19   17   18 1  
    20   19   20 1  
    21   19   25 1  
    22   20   21 1  
    23   20   23 1  
    24   21   22 2  
    25   21   26 am 
    26   23   24 1  
    27   24   25 1  
    28   26   27 1  
    29   27   28 1  
    30   27   30 1  
    31   28   29 2  
    32   28   33 am 
    33   30   31 1  
    34   30   32 1  
    35   33   34 1  
    36   34   35 1  
    37   34   37 1  
    38   35   36 1  
    39   36   39 1  
    40   37   38 2  
    41   37   43 am 
    42   39   40 ar 
    43   39   41 ar 
    44   39   42 ar 
    45   43   44 1  
    46   43   49 1  
    47   44   45 1  
    48   44   47 1  
    49   45   46 2  
    50   45   50 am 
    51   47   48 1  
    52   48   49 1  
    53   50   51 1  
    54   51   52 1  
    55   51   54 1  
    56   52   53 ar 
    57   54   55 1  
    58   52   56 ar 
    59    1   57 1  
    60    1   58 1  
    61    1   59 1  
    62    2   60 1  
    63    5   61 1  
    64    5   62 1  
    65    7   63 1  
    66    8   64 1  
    67    9   65 1  
    68   10   66 1  
    69   12   67 1  
    70   13   68 1  
    71   14   69 1  
    72   17   70 1  
    73   17   71 1  
    74   18   72 1  
    75   20   73 1  
    76   23   74 1  
    77   23   75 1  
    78   24   76 1  
    79   24   77 1  
    80   25   78 1  
    81   25   79 1  
    82   26   80 1  
    83   27   81 1  
    84   30   82 1  
    85   31   83 1  
    86   32   84 1  
    87   32   85 1  
    88   32   86 1  
    89   33   87 1  
    90   34   88 1  
    91   35   89 1  
    92   35   90 1  
    93   44   91 1  
    94   47   92 1  
    95   47   93 1  
    96   48   94 1  
    97   48   95 1  
    98   49   96 1  
    99   49   97 1  
   100   50   98 1  
   101   51   99 1  
   102   54  100 1  
   103   54  101 1  
   104   55  102 1  
@<TRIPOS>SUBSTRUCTURE
     1 TYR         1

