5fxq_ligand
  -I-interpret- 

 51 55  0  0  0  0  0  0  0  0999 V2000
    8.0030   -3.3010   54.4760 C   0  0  0  0  0
    8.9180   -3.4250   53.3370 C   0  0  0  0  0
   10.1960   -2.9760   53.1440 C   0  0  0  0  0
   10.5850   -3.3940   51.8420 C   0  0  0  0  0
    9.5900   -4.0690   51.2570 N   0  0  0  0  0
    8.6060   -4.0700   52.1780 N   0  0  0  0  0
    7.3350   -4.7280   51.9260 C   0  0  0  0  0
    6.4560   -3.9080   51.0260 C   0  0  0  0  0
    5.1500   -4.6350   50.8170 C   0  0  0  0  0
    5.5290   -5.8680   50.0780 N   0  3  0  0  0
    6.2860   -6.7940   50.9510 C   0  0  0  0  0
    7.5760   -6.1120   51.3700 C   0  0  0  0  0
   10.8840   -2.2710   54.0670 N   0  0  0  0  0
   12.2640   -2.3520   54.1980 C   0  0  0  0  0
   12.8200   -1.4580   55.0250 N   0  0  0  0  0
   14.1440   -1.5310   55.1530 C   0  0  0  0  0
   14.8780   -2.4570   54.4730 C   0  0  0  0  0
   14.2150   -3.3440   53.6490 C   0  0  0  0  0
   12.9000   -3.3010   53.4980 N   0  0  0  0  0
   14.8980   -4.4080   52.8610 C   0  0  0  0  0
   16.2470   -4.4760   52.5770 C   0  0  0  0  0
   16.4000   -5.6090   51.7950 N   0  0  0  0  0
   15.2260   -6.2180   51.5930 C   0  0  0  0  0
   14.3060   -5.5160   52.2420 N   0  0  0  0  0
   12.9790   -5.8790   52.2370 C   0  0  0  0  0
   12.6220   -6.9760   51.5540 C   0  0  0  0  0
   13.5730   -7.7850   50.8230 C   0  0  0  0  0
   14.8690   -7.4300   50.8240 C   0  0  0  0  0
   16.5660   -2.4070   54.7380 Cl  0  0  0  0  0
    8.4523   -3.7657   55.3536 H   0  0  0  0  0
    7.8163   -2.2461   54.6773 H   0  0  0  0  0
    7.0625   -3.7993   54.2408 H   0  0  0  0  0
   11.5546   -3.1932   51.3863 H   0  0  0  0  0
    6.8008   -4.8266   52.8710 H   0  0  0  0  0
    6.9507   -3.7588   50.0663 H   0  0  0  0  0
    6.2664   -2.9369   51.4834 H   0  0  0  0  0
    4.4287   -4.0319   50.2655 H   0  0  0  0  0
    4.6502   -4.8591   51.7594 H   0  0  0  0  0
    6.1171   -5.6086   49.2860 H   0  0  0  0  0
    4.6795   -6.3355   49.7616 H   0  0  0  0  0
    6.5092   -7.7151   50.4126 H   0  0  0  0  0
    5.6938   -7.0442   51.8312 H   0  0  0  0  0
    8.0405   -6.7149   52.1503 H   0  0  0  0  0
    8.2115   -6.0179   50.4894 H   0  0  0  0  0
   10.3688   -1.6532   54.6942 H   0  0  0  0  0
   14.6530   -0.8331   55.8178 H   0  0  0  0  0
   17.0261   -3.7852   52.8994 H   0  0  0  0  0
   12.2365   -5.2895   52.7749 H   0  0  0  0  0
   11.5725   -7.2704   51.5492 H   0  0  0  0  0
   13.2428   -8.6700   50.2791 H   0  0  0  0  0
   15.6203   -8.0069   50.2846 H   0  0  0  0  0
  1  2  1  0  0  0
  2  3  4  0  0  0
  2  6  4  0  0  0
  3  4  4  0  0  0
  3 13  1  0  0  0
  4  5  4  0  0  0
  5  6  4  0  0  0
  6  7  1  0  0  0
  7  8  1  0  0  0
  7 12  1  0  0  0
  8  9  1  0  0  0
  9 10  1  0  0  0
 10 11  1  0  0  0
 11 12  1  0  0  0
 13 14  1  0  0  0
 14 15  4  0  0  0
 14 19  4  0  0  0
 15 16  4  0  0  0
 16 17  4  0  0  0
 17 18  4  0  0  0
 17 29  1  0  0  0
 18 19  4  0  0  0
 18 20  1  0  0  0
 20 21  4  0  0  0
 20 24  4  0  0  0
 21 22  4  0  0  0
 22 23  4  0  0  0
 23 24  4  0  0  0
 23 28  4  0  0  0
 24 25  4  0  0  0
 25 26  4  0  0  0
 26 27  4  0  0  0
 27 28  4  0  0  0
  1 30  1  0  0  0
  1 31  1  0  0  0
  1 32  1  0  0  0
  4 33  1  0  0  0
  7 34  1  0  0  0
  8 35  1  0  0  0
  8 36  1  0  0  0
  9 37  1  0  0  0
  9 38  1  0  0  0
 10 39  1  0  0  0
 10 40  1  0  0  0
 11 41  1  0  0  0
 11 42  1  0  0  0
 12 43  1  0  0  0
 12 44  1  0  0  0
 13 45  1  0  0  0
 16 46  1  0  0  0
 21 47  1  0  0  0
 25 48  1  0  0  0
 26 49  1  0  0  0
 27 50  1  0  0  0
 28 51  1  0  0  0
M  END
$$$$
