### 
### Created by X-TOOL on Mon Sep 10 21:13:15 2018
### 

@<TRIPOS>MOLECULE
4dwg_ligand
   38    37     1     0     0
SMALL
GAST_HUCK


@<TRIPOS>ATOM
      1 O1         11.0810   14.1310  175.5230 O.co2     1 0M8        -0.5610
      2 P1         12.4360   14.6220  175.9920 P.3       1 0M8         0.0831
      3 O2         13.5350   14.5040  175.0030 O.co2     1 0M8        -0.5610
      4 O3         12.7710   14.1420  177.4000 O.co2     1 0M8        -0.5610
      5 C9         12.3670   16.4370  175.9770 C.3       1 0M8         0.1400
      6 P2         13.4480   17.1260  177.2950 P.3       1 0M8         0.0831
      7 O5         14.5950   17.1090  176.3180 O.co2     1 0M8        -0.5610
      8 O4         13.7070   16.2610  178.5000 O.co2     1 0M8        -0.5610
      9 O6         13.0130   18.5030  177.7630 O.co2     1 0M8        -0.5610
     10 C8         11.0050   17.1250  175.8130 C.3       1 0M8         0.0001
     11 N1         11.2440   18.5640  175.7210 N.4       1 0M8         0.2292
     12 C7         11.0330   19.3740  174.5500 C.3       1 0M8        -0.0336
     13 C6         10.8510   20.8640  174.9590 C.3       1 0M8        -0.0126
     14 C5         10.4370   21.7200  173.7430 C.3       1 0M8        -0.0483
     15 C4         11.5680   21.7790  172.7050 C.3       1 0M8        -0.0529
     16 C3         11.5700   23.0730  171.8960 C.3       1 0M8        -0.0533
     17 C2         12.4650   23.0120  170.6520 C.3       1 0M8        -0.0559
     18 C1         12.4430   24.3110  169.8460 C.3       1 0M8        -0.0653
     19 H1         12.8813   16.7043  175.0421 H         1 0M8         0.0732
     20 H2         10.3671   16.9057  176.6819 H         1 0M8         0.0845
     21 H3         10.5122   16.7675  174.8968 H         1 0M8         0.0845
     22 H4         12.2155   18.6884  175.9592 H         1 0M8         0.2014
     23 H5         10.6669   18.9761  176.4373 H         1 0M8         0.2014
     24 H6         10.1305   19.0275  174.0253 H         1 0M8         0.0814
     25 H7         11.9027   19.2832  173.8827 H         1 0M8         0.0814
     26 H8         11.8006   21.2458  175.3621 H         1 0M8         0.0317
     27 H9         10.0706   20.9332  175.7311 H         1 0M8         0.0317
     28 H10        10.2060   22.7405  174.0825 H         1 0M8         0.0267
     29 H11         9.5439   21.2773  173.2779 H         1 0M8         0.0267
     30 H12        11.4518   20.9328  172.0119 H         1 0M8         0.0265
     31 H13        12.5305   21.6930  173.2305 H         1 0M8         0.0265
     32 H14        11.9270   23.8881  172.5427 H         1 0M8         0.0265
     33 H15        10.5397   23.2847  171.5742 H         1 0M8         0.0265
     34 H16        12.1163   22.1918  170.0073 H         1 0M8         0.0263
     35 H17        13.4987   22.8134  170.9714 H         1 0M8         0.0263
     36 H18        13.0998   24.2098  168.9695 H         1 0M8         0.0230
     37 H19        12.7979   25.1397  170.4763 H         1 0M8         0.0230
     38 H20        11.4155   24.5181  169.5122 H         1 0M8         0.0230
@<TRIPOS>BOND
     1    1    2 ar 
     2    2    3 ar 
     3    2    4 ar 
     4    2    5 1  
     5    5    6 1  
     6    5   10 1  
     7    6    7 ar 
     8    6    8 ar 
     9    6    9 ar 
    10   10   11 1  
    11   11   12 1  
    12   12   13 1  
    13   13   14 1  
    14   14   15 1  
    15   15   16 1  
    16   16   17 1  
    17   17   18 1  
    18    5   19 1  
    19   10   20 1  
    20   10   21 1  
    21   11   22 1  
    22   11   23 1  
    23   12   24 1  
    24   12   25 1  
    25   13   26 1  
    26   13   27 1  
    27   14   28 1  
    28   14   29 1  
    29   15   30 1  
    30   15   31 1  
    31   16   32 1  
    32   16   33 1  
    33   17   34 1  
    34   17   35 1  
    35   18   36 1  
    36   18   37 1  
    37   18   38 1  
@<TRIPOS>SUBSTRUCTURE
     1 0M8         1

