4dwg_ligand
  -I-interpret- 

 42 41  0  0  0  0  0  0  0  0999 V2000
   11.0810   14.1310  175.5230 O   0  0  0  0  0
   12.4360   14.6220  175.9920 P   0  0  0  0  0
   13.5350   14.5040  175.0030 O   0  0  0  0  0
   12.7710   14.1420  177.4000 O   0  0  0  0  0
   12.3670   16.4370  175.9770 C   0  0  0  0  0
   13.4480   17.1260  177.2950 P   0  0  0  0  0
   14.5950   17.1090  176.3180 O   0  0  0  0  0
   13.7070   16.2610  178.5000 O   0  0  0  0  0
   13.0130   18.5030  177.7630 O   0  0  0  0  0
   11.0050   17.1250  175.8130 C   0  0  0  0  0
   11.2440   18.5640  175.7210 N   0  3  0  0  0
   11.0330   19.3740  174.5500 C   0  0  0  0  0
   10.8510   20.8640  174.9590 C   0  0  0  0  0
   10.4370   21.7200  173.7430 C   0  0  0  0  0
   11.5680   21.7790  172.7050 C   0  0  0  0  0
   11.5700   23.0730  171.8960 C   0  0  0  0  0
   12.4650   23.0120  170.6520 C   0  0  0  0  0
   12.4430   24.3110  169.8460 C   0  0  0  0  0
   10.4386   14.2474  176.2268 H   0  0  0  0  0
   12.0045   14.2563  177.9666 H   0  0  0  0  0
   12.7777   16.7137  175.0060 H   0  0  0  0  0
   14.3848   17.6723  175.5696 H   0  0  0  0  0
   12.8458   19.0610  177.0000 H   0  0  0  0  0
   10.3611   16.9005  176.6634 H   0  0  0  0  0
   10.5033   16.7651  174.9148 H   0  0  0  0  0
   12.2554   18.6206  175.8404 H   0  0  0  0  0
   10.5489   18.9377  176.3672 H   0  0  0  0  0
   10.1359   19.0317  174.0342 H   0  0  0  0  0
   11.8979   19.2858  173.8925 H   0  0  0  0  0
   11.7976   21.2399  175.3473 H   0  0  0  0  0
   10.0692   20.9276  175.7159 H   0  0  0  0  0
   10.2204   22.7324  174.0839 H   0  0  0  0  0
    9.5588   21.2702  173.2799 H   0  0  0  0  0
   11.4225   20.9530  172.0088 H   0  0  0  0  0
   12.5146   21.7226  173.2425 H   0  0  0  0  0
   11.9562   23.8628  172.5403 H   0  0  0  0  0
   10.5491   23.2508  171.5580 H   0  0  0  0  0
   12.0927   22.2133  170.0104 H   0  0  0  0  0
   13.4890   22.8412  170.9841 H   0  0  0  0  0
   11.4244   24.5151  169.5159 H   0  0  0  0  0
   12.7948   25.1313  170.4717 H   0  0  0  0  0
   13.0942   24.2095  168.9778 H   0  0  0  0  0
  1  2  1  0  0  0
  2  3  2  0  0  0
  2  4  1  0  0  0
  2  5  1  0  0  0
  5  6  1  0  0  0
  5 10  1  0  0  0
  6  7  1  0  0  0
  6  8  2  0  0  0
  6  9  1  0  0  0
 10 11  1  0  0  0
 11 12  1  0  0  0
 12 13  1  0  0  0
 13 14  1  0  0  0
 14 15  1  0  0  0
 15 16  1  0  0  0
 16 17  1  0  0  0
 17 18  1  0  0  0
  1 19  1  0  0  0
  4 20  1  0  0  0
  5 21  1  0  0  0
  7 22  1  0  0  0
  9 23  1  0  0  0
 10 24  1  0  0  0
 10 25  1  0  0  0
 11 26  1  0  0  0
 11 27  1  0  0  0
 12 28  1  0  0  0
 12 29  1  0  0  0
 13 30  1  0  0  0
 13 31  1  0  0  0
 14 32  1  0  0  0
 14 33  1  0  0  0
 15 34  1  0  0  0
 15 35  1  0  0  0
 16 36  1  0  0  0
 16 37  1  0  0  0
 17 38  1  0  0  0
 17 39  1  0  0  0
 18 40  1  0  0  0
 18 41  1  0  0  0
 18 42  1  0  0  0
M  END
$$$$
