4llj_ligand
  -I-interpret- 

 19 20  0  0  0  0  0  0  0  0999 V2000
    3.4930   13.9410   40.7790 N   0  0  0  0  0
    3.6800   13.7560   42.0320 C   0  0  0  0  0
    3.2710   14.6080   42.9980 N   0  0  0  0  0
    3.6110   14.1420   44.2220 C   0  0  0  0  0
    3.3500   14.7300   45.3390 N   0  0  0  0  0
    4.2700   12.9280   44.0380 C   0  0  0  0  0
    4.8240   12.0310   44.9560 C   0  0  0  0  0
    5.4250   10.8870   44.4220 C   0  0  0  0  0
    5.4620   10.6520   43.0450 C   0  0  0  0  0
    4.9110   11.5430   42.1270 C   0  0  0  0  0
    4.3130   12.6850   42.6540 C   0  0  0  0  0
    3.0065   14.7765   40.4538 H   0  0  0  0  0
    3.8305   13.2529   40.1059 H   0  0  0  0  0
    2.8492   15.6186   45.3428 H   0  0  0  0  0
    3.6442   14.3067   46.2191 H   0  0  0  0  0
    4.7893   12.2135   46.0300 H   0  0  0  0  0
    5.8762   10.1599   45.0971 H   0  0  0  0  0
    5.9372    9.7425   42.6776 H   0  0  0  0  0
    4.9460   11.3564   41.0537 H   0  0  0  0  0
  1  2  1  0  0  0
  2  3  4  0  0  0
  2 11  4  0  0  0
  3  4  4  0  0  0
  4  5  1  0  0  0
  4  6  4  0  0  0
  6  7  4  0  0  0
  6 11  4  0  0  0
  7  8  4  0  0  0
  8  9  4  0  0  0
  9 10  4  0  0  0
 10 11  4  0  0  0
  1 12  1  0  0  0
  1 13  1  0  0  0
  5 14  1  0  0  0
  5 15  1  0  0  0
  7 16  1  0  0  0
  8 17  1  0  0  0
  9 18  1  0  0  0
 10 19  1  0  0  0
M  END
$$$$
