### 
### Created by X-TOOL on Mon Sep 10 21:13:12 2018
### 

@<TRIPOS>MOLECULE
2lha_ligand
   42    42     1     0     0
SMALL
GAST_HUCK


@<TRIPOS>ATOM
      1 C1         13.6370    2.1310  -10.4540 C.3       1 IHP         0.1556
      2 C2         15.0160    1.6920  -10.9690 C.3       1 IHP         0.1556
      3 C3         14.9630    0.2060  -11.4040 C.3       1 IHP         0.1556
      4 C4         13.9360    0.0560  -12.5330 C.3       1 IHP         0.1556
      5 C5         12.5490    0.5030  -12.0500 C.3       1 IHP         0.1556
      6 C6         12.5950    1.9600  -11.5710 C.3       1 IHP         0.1556
      7 O11        13.6520    3.5080  -10.0540 O.3       1 IHP        -0.2668
      8 P1         13.2490    3.9250   -8.5410 P.3       1 IHP         0.2013
      9 O21        14.0510    3.2430   -7.4960 O.co2     1 IHP        -0.5537
     10 O31        11.6890    3.5830   -8.3870 O.co2     1 IHP        -0.5537
     11 O41        13.3780    5.5190   -8.4470 O.co2     1 IHP        -0.5537
     12 O12        15.4320    2.4860  -12.0730 O.3       1 IHP        -0.2668
     13 P2         16.7830    3.3550  -11.9910 P.3       1 IHP         0.2013
     14 O22        16.9730    3.8620  -10.6080 O.co2     1 IHP        -0.5537
     15 O32        17.9780    2.3750  -12.4290 O.co2     1 IHP        -0.5537
     16 O42        16.6190    4.5350  -13.0570 O.co2     1 IHP        -0.5537
     17 O13        16.2400   -0.2100  -11.8850 O.3       1 IHP        -0.2668
     18 P3         17.0020   -1.4530  -11.1990 P.3       1 IHP         0.2013
     19 O23        16.1170   -2.6410  -11.2320 O.co2     1 IHP        -0.5537
     20 O33        17.3270   -0.9850   -9.6950 O.co2     1 IHP        -0.5537
     21 O43        18.3710   -1.7160  -11.9950 O.co2     1 IHP        -0.5537
     22 O14        13.8570   -1.3110  -12.9400 O.3       1 IHP        -0.2668
     23 P4         14.1910   -1.7240  -14.4620 P.3       1 IHP         0.2013
     24 O24        15.5440   -1.2440  -14.8260 O.co2     1 IHP        -0.5537
     25 O34        13.0400   -1.0130  -15.3310 O.co2     1 IHP        -0.5537
     26 O44        14.0550   -3.3190  -14.6010 O.co2     1 IHP        -0.5537
     27 O15        11.6050    0.3920  -13.1090 O.3       1 IHP        -0.2668
     28 P5         10.3040   -0.5440  -12.9610 P.3       1 IHP         0.2013
     29 O25        10.7190   -1.9350  -12.6750 O.co2     1 IHP        -0.5537
     30 O35         9.4310    0.0690  -11.7510 O.co2     1 IHP        -0.5537
     31 O45         9.4700   -0.4390  -14.3240 O.co2     1 IHP        -0.5537
     32 O16        11.2990    2.3530  -11.1220 O.3       1 IHP        -0.2668
     33 P6         10.5140    3.5660  -11.8280 P.3       1 IHP         0.2013
     34 O26         9.1820    3.8020  -11.2080 O.co2     1 IHP        -0.5537
     35 O36        10.3940    3.0980  -13.3620 O.co2     1 IHP        -0.5537
     36 O46        11.4370    4.8740  -11.7460 O.co2     1 IHP        -0.5537
     37 H          13.3839    1.5119   -9.5933 H         1 IHP         0.0710
     38 H          15.7337    1.8211  -10.1588 H         1 IHP         0.0710
     39 H          14.6828   -0.4088  -10.5487 H         1 IHP         0.0710
     40 H          14.2523    0.6774  -13.3709 H         1 IHP         0.0710
     41 H          12.2497   -0.1402  -11.2225 H         1 IHP         0.0710
     42 H          12.8915    2.6009  -12.4013 H         1 IHP         0.0710
@<TRIPOS>BOND
     1    1    2 1  
     2    1    6 1  
     3    1    7 1  
     4    2    3 1  
     5    2   12 1  
     6    3    4 1  
     7    3   17 1  
     8    4    5 1  
     9    4   22 1  
    10    5    6 1  
    11    5   27 1  
    12    6   32 1  
    13    7    8 1  
    14    8    9 ar 
    15    8   10 ar 
    16    8   11 ar 
    17   12   13 1  
    18   13   14 ar 
    19   13   15 ar 
    20   13   16 ar 
    21   17   18 1  
    22   18   19 ar 
    23   18   20 ar 
    24   18   21 ar 
    25   22   23 1  
    26   23   24 ar 
    27   23   25 ar 
    28   23   26 ar 
    29   27   28 1  
    30   28   29 ar 
    31   28   30 ar 
    32   28   31 ar 
    33   32   33 1  
    34   33   34 ar 
    35   33   35 ar 
    36   33   36 ar 
    37    1   37 1  
    38    2   38 1  
    39    3   39 1  
    40    4   40 1  
    41    5   41 1  
    42    6   42 1  
@<TRIPOS>SUBSTRUCTURE
     1 IHP         1

