2lha_ligand
  -I-interpret- 

 54 54  0  0  0  0  0  0  0  0999 V2000
   13.6370    2.1310  -10.4540 C   0  0  0  0  0
   15.0160    1.6920  -10.9690 C   0  0  0  0  0
   14.9630    0.2060  -11.4040 C   0  0  0  0  0
   13.9360    0.0560  -12.5330 C   0  0  0  0  0
   12.5490    0.5030  -12.0500 C   0  0  0  0  0
   12.5950    1.9600  -11.5710 C   0  0  0  0  0
   13.6520    3.5080  -10.0540 O   0  0  0  0  0
   13.2490    3.9250   -8.5410 P   0  0  0  0  0
   14.0510    3.2430   -7.4960 O   0  0  0  0  0
   11.6890    3.5830   -8.3870 O   0  0  0  0  0
   13.3780    5.5190   -8.4470 O   0  0  0  0  0
   15.4320    2.4860  -12.0730 O   0  0  0  0  0
   16.7830    3.3550  -11.9910 P   0  0  0  0  0
   16.9730    3.8620  -10.6080 O   0  0  0  0  0
   17.9780    2.3750  -12.4290 O   0  0  0  0  0
   16.6190    4.5350  -13.0570 O   0  0  0  0  0
   16.2400   -0.2100  -11.8850 O   0  0  0  0  0
   17.0020   -1.4530  -11.1990 P   0  0  0  0  0
   16.1170   -2.6410  -11.2320 O   0  0  0  0  0
   17.3270   -0.9850   -9.6950 O   0  0  0  0  0
   18.3710   -1.7160  -11.9950 O   0  0  0  0  0
   13.8570   -1.3110  -12.9400 O   0  0  0  0  0
   14.1910   -1.7240  -14.4620 P   0  0  0  0  0
   15.5440   -1.2440  -14.8260 O   0  0  0  0  0
   13.0400   -1.0130  -15.3310 O   0  0  0  0  0
   14.0550   -3.3190  -14.6010 O   0  0  0  0  0
   11.6050    0.3920  -13.1090 O   0  0  0  0  0
   10.3040   -0.5440  -12.9610 P   0  0  0  0  0
   10.7190   -1.9350  -12.6750 O   0  0  0  0  0
    9.4310    0.0690  -11.7510 O   0  0  0  0  0
    9.4700   -0.4390  -14.3240 O   0  0  0  0  0
   11.2990    2.3530  -11.1220 O   0  0  0  0  0
   10.5140    3.5660  -11.8280 P   0  0  0  0  0
    9.1820    3.8020  -11.2080 O   0  0  0  0  0
   10.3940    3.0980  -13.3620 O   0  0  0  0  0
   11.4370    4.8740  -11.7460 O   0  0  0  0  0
   13.3839    1.5119   -9.5933 H   0  0  0  0  0
   15.7337    1.8211  -10.1588 H   0  0  0  0  0
   14.6828   -0.4088  -10.5487 H   0  0  0  0  0
   14.2523    0.6774  -13.3709 H   0  0  0  0  0
   12.2497   -0.1402  -11.2225 H   0  0  0  0  0
   12.8915    2.6009  -12.4013 H   0  0  0  0  0
   11.1940    4.0358   -9.0737 H   0  0  0  0  0
   12.8468    5.9231   -9.1370 H   0  0  0  0  0
   17.8249    2.0661  -13.3250 H   0  0  0  0  0
   16.4993    4.1596  -13.9324 H   0  0  0  0  0
   17.9008   -0.2157   -9.7174 H   0  0  0  0  0
   18.9197   -0.9293  -11.9543 H   0  0  0  0  0
   12.1828   -1.3523  -15.0633 H   0  0  0  0  0
   13.1659   -3.5858  -14.3563 H   0  0  0  0  0
    9.1773    0.9697  -11.9653 H   0  0  0  0  0
    9.2194    0.4754  -14.4749 H   0  0  0  0  0
   11.2727    2.9574  -13.7221 H   0  0  0  0  0
   12.2869    4.6906  -12.1530 H   0  0  0  0  0
  1  2  1  0  0  0
  1  6  1  0  0  0
  1  7  1  0  0  0
  2  3  1  0  0  0
  2 12  1  0  0  0
  3  4  1  0  0  0
  3 17  1  0  0  0
  4  5  1  0  0  0
  4 22  1  0  0  0
  5  6  1  0  0  0
  5 27  1  0  0  0
  6 32  1  0  0  0
  7  8  1  0  0  0
  8  9  2  0  0  0
  8 10  1  0  0  0
  8 11  1  0  0  0
 12 13  1  0  0  0
 13 14  2  0  0  0
 13 15  1  0  0  0
 13 16  1  0  0  0
 17 18  1  0  0  0
 18 19  2  0  0  0
 18 20  1  0  0  0
 18 21  1  0  0  0
 22 23  1  0  0  0
 23 24  2  0  0  0
 23 25  1  0  0  0
 23 26  1  0  0  0
 27 28  1  0  0  0
 28 29  2  0  0  0
 28 30  1  0  0  0
 28 31  1  0  0  0
 32 33  1  0  0  0
 33 34  2  0  0  0
 33 35  1  0  0  0
 33 36  1  0  0  0
  1 37  1  0  0  0
  2 38  1  0  0  0
  3 39  1  0  0  0
  4 40  1  0  0  0
  5 41  1  0  0  0
  6 42  1  0  0  0
 10 43  1  0  0  0
 11 44  1  0  0  0
 15 45  1  0  0  0
 16 46  1  0  0  0
 20 47  1  0  0  0
 21 48  1  0  0  0
 25 49  1  0  0  0
 26 50  1  0  0  0
 30 51  1  0  0  0
 31 52  1  0  0  0
 35 53  1  0  0  0
 36 54  1  0  0  0
M  END
$$$$
