5tkt_ligand
  -I-interpret- 

 67 71  0  0  0  0  0  0  0  0999 V2000
   37.7230  -16.9960   28.0500 C   0  0  0  0  0
   39.5890  -20.8980   28.5600 C   0  0  0  0  0
   38.9890  -18.6990   29.4170 C   0  0  0  0  0
   41.0930  -20.8370   28.5930 C   0  0  0  0  0
   39.1350  -21.9030   27.4920 C   0  0  0  0  0
   44.2260  -21.4850   30.1240 C   0  0  0  0  0
   45.3760  -20.6890   30.1520 C   0  0  0  0  0
   46.4040  -20.9510   31.0440 C   0  0  0  0  0
   46.3100  -22.0260   31.9300 C   0  0  0  0  0
   40.5230  -25.2420   29.0950 C   0  0  0  0  0
   39.8890  -23.9000   28.8910 C   0  0  0  0  0
   33.8210  -14.0160   29.6510 Cl  0  0  0  0  0
   36.7590  -13.4890   26.9900 C   0  0  0  0  0
   35.6500  -13.2750   27.7990 C   0  0  0  0  0
   35.2250  -14.2810   28.6450 C   0  0  0  0  0
   35.8790  -15.4960   28.7060 C   0  0  0  0  0
   36.9990  -15.7280   27.8880 C   0  0  0  0  0
   37.4240  -14.7150   27.0140 C   0  0  0  0  0
   38.5200  -14.9320   26.1220 N   0  0  0  0  0
   38.6020  -14.9460   24.7870 C   0  0  0  0  0
   39.8110  -15.2700   24.4240 N   0  0  0  0  0
   40.5010  -15.4550   25.5760 N   0  0  0  0  0
   39.7420  -15.2550   26.6080 N   0  0  0  0  0
   38.2610  -17.4300   29.1900 C   0  0  0  0  0
   39.6300  -18.9140   30.4530 O   0  0  0  0  0
   38.9810  -19.5770   28.3930 N   0  0  0  0  0
   45.1900  -22.8520   31.8850 C   0  0  0  0  0
   44.1500  -22.5950   31.0010 C   0  0  0  0  0
   41.8580  -20.5930   27.5090 N   0  0  0  0  0
   43.1590  -20.7650   27.8790 C   0  0  0  0  0
   43.1410  -21.1140   29.1990 C   0  0  0  0  0
   41.8270  -21.1480   29.6450 N   0  0  0  0  0
   43.0300  -23.4660   30.9770 N   0  0  0  0  0
   39.7210  -23.2770   27.7100 C   0  0  0  0  0
   41.5750  -25.2450   30.2240 C   0  0  0  0  0
   42.6980  -24.2670   29.9420 C   0  0  0  0  0
   47.3270  -22.4230   32.8400 N   0  0  0  0  0
   48.6190  -22.0030   32.8560 C   0  0  0  0  0
   49.2290  -22.4560   33.9700 O   0  0  0  0  0
   49.1590  -21.3310   32.0030 O   0  0  0  0  0
   50.6470  -22.1650   34.0950 C   0  0  0  0  0
   43.2580  -24.2170   28.8520 O   0  0  0  0  0
   37.8284  -17.6309   27.1703 H   0  0  0  0  0
   39.2353  -21.2523   29.5282 H   0  0  0  0  0
   39.4750  -21.5411   26.5217 H   0  0  0  0  0
   38.0496  -21.9864   27.5466 H   0  0  0  0  0
   45.4650  -19.8500   29.4619 H   0  0  0  0  0
   47.2894  -20.3153   31.0538 H   0  0  0  0  0
   41.0285  -25.5152   28.1688 H   0  0  0  0  0
   39.7357  -25.9430   29.3722 H   0  0  0  0  0
   39.5312  -23.3809   29.7802 H   0  0  0  0  0
   37.1115  -12.6942   26.3326 H   0  0  0  0  0
   35.1205  -12.3228   27.7665 H   0  0  0  0  0
   35.5282  -16.2724   29.3859 H   0  0  0  0  0
   37.7816  -14.7205   24.1057 H   0  0  0  0  0
   38.1524  -16.7751   30.0545 H   0  0  0  0  0
   38.5520  -19.3208   27.5038 H   0  0  0  0  0
   45.1286  -23.7117   32.5523 H   0  0  0  0  0
   44.0389  -20.6473   27.2465 H   0  0  0  0  0
   42.4315  -23.4886   31.8027 H   0  0  0  0  0
   40.0406  -23.8197   26.8204 H   0  0  0  0  0
   42.0000  -26.2461   30.2963 H   0  0  0  0  0
   41.0855  -24.9493   31.1519 H   0  0  0  0  0
   47.0580  -23.0955   33.5582 H   0  0  0  0  0
   51.1834  -22.6115   33.2577 H   0  0  0  0  0
   50.7969  -21.0854   34.0900 H   0  0  0  0  0
   51.0208  -22.5806   35.0308 H   0  0  0  0  0
  1 17  1  0  0  0
 24  1  2  0  0  0
  4  2  1  0  0  0
  2  5  1  0  0  0
  2 26  1  0  0  0
  3 24  1  0  0  0
  3 25  2  0  0  0
 26  3  1  0  0  0
 29  4  4  0  0  0
  4 32  4  0  0  0
  5 34  1  0  0  0
  6  7  4  0  0  0
  6 28  4  0  0  0
 31  6  1  0  0  0
  7  8  4  0  0  0
  8  9  4  0  0  0
 27  9  4  0  0  0
  9 37  1  0  0  0
 11 10  1  0  0  0
 10 35  1  0  0  0
 34 11  2  0  0  0
 15 12  1  0  0  0
 13 14  4  0  0  0
 18 13  4  0  0  0
 15 14  4  0  0  0
 16 15  4  0  0  0
 17 16  4  0  0  0
 17 18  4  0  0  0
 18 19  1  0  0  0
 19 20  4  0  0  0
 19 23  4  0  0  0
 20 21  4  0  0  0
 22 21  4  0  0  0
 23 22  4  0  0  0
 28 27  4  0  0  0
 28 33  1  0  0  0
 30 29  4  0  0  0
 30 31  4  0  0  0
 31 32  4  0  0  0
 33 36  1  0  0  0
 35 36  1  0  0  0
 36 42  2  0  0  0
 37 38  1  0  0  0
 38 39  1  0  0  0
 38 40  2  0  0  0
 39 41  1  0  0  0
  1 43  1  0  0  0
  2 44  1  0  0  0
  5 45  1  0  0  0
  5 46  1  0  0  0
  7 47  1  0  0  0
  8 48  1  0  0  0
 10 49  1  0  0  0
 10 50  1  0  0  0
 11 51  1  0  0  0
 13 52  1  0  0  0
 14 53  1  0  0  0
 16 54  1  0  0  0
 20 55  1  0  0  0
 24 56  1  0  0  0
 26 57  1  0  0  0
 27 58  1  0  0  0
 30 59  1  0  0  0
 33 60  1  0  0  0
 34 61  1  0  0  0
 35 62  1  0  0  0
 35 63  1  0  0  0
 37 64  1  0  0  0
 41 65  1  0  0  0
 41 66  1  0  0  0
 41 67  1  0  0  0
M  END
$$$$
