1b9s_ligand
  -I-interpret- 

 41 41  0  0  0  0  0  0  0  0999 V2000
   33.5870   -9.7130   64.2290 C   0  0  0  0  0
   32.2850   -9.4600   63.7000 C   0  0  0  0  0
   31.2190  -10.3660   64.0090 C   0  0  0  0  0
   31.4760  -11.5020   64.8300 C   0  0  0  0  0
   32.7670  -11.7590   65.3550 C   0  0  0  0  0
   33.8260  -10.8520   65.0500 C   0  0  0  0  0
   32.9920  -12.9650   66.2010 C   0  0  0  0  0
   31.9170  -13.7590   66.4190 O   0  0  0  0  0
   34.0660  -13.2130   66.6530 O   0  0  0  0  0
   29.9440  -10.1580   63.5200 N   0  0  0  0  0
   28.8040  -10.6760   64.0940 C   0  0  0  0  0
   27.9830   -9.6620   64.9570 C   0  0  0  0  0
   28.4160  -11.8350   63.9350 O   0  0  0  0  0
   27.6710   -8.3960   64.1190 C   0  0  0  0  0
   26.2190   -8.2830   63.6280 C   0  0  0  0  0
   28.7640   -9.3610   66.2760 C   0  0  0  0  0
   28.7360  -10.4960   67.3210 C   0  0  0  0  0
   32.0850   -8.3570   62.9020 N   0  0  0  0  0
   31.5340   -7.1880   63.3370 C   0  0  0  0  0
   31.4230   -6.1220   62.2430 C   0  0  0  0  0
   31.1480   -6.9660   64.4800 O   0  0  0  0  0
   34.4047   -9.0288   64.0026 H   0  0  0  0  0
   30.6612  -12.1888   65.0594 H   0  0  0  0  0
   34.8245  -11.0323   65.4481 H   0  0  0  0  0
   31.1517  -13.3892   65.9727 H   0  0  0  0  0
   29.8403   -9.5855   62.6822 H   0  0  0  0  0
   27.0208  -10.0841   65.2468 H   0  0  0  0  0
   28.3006   -8.4439   63.2305 H   0  0  0  0  0
   27.8518   -7.5379   64.7664 H   0  0  0  0  0
   25.9818   -9.1408   62.9987 H   0  0  0  0  0
   25.5471   -8.2634   64.4861 H   0  0  0  0  0
   26.1019   -7.3649   63.0522 H   0  0  0  0  0
   28.2851   -8.4966   66.7360 H   0  0  0  0  0
   29.8076   -9.2136   65.9981 H   0  0  0  0  0
   27.7040  -10.6996   67.6068 H   0  0  0  0  0
   29.1795  -11.3944   66.8917 H   0  0  0  0  0
   29.3048  -10.1929   68.2001 H   0  0  0  0  0
   32.3666   -8.4176   61.9235 H   0  0  0  0  0
   30.3763   -5.8493   62.1080 H   0  0  0  0  0
   31.9943   -5.2413   62.5364 H   0  0  0  0  0
   31.8196   -6.5194   61.3087 H   0  0  0  0  0
  1  6  4  0  0  0
  1  2  4  0  0  0
  2 18  1  0  0  0
  2  3  4  0  0  0
  3 10  1  0  0  0
  3  4  4  0  0  0
  4  5  4  0  0  0
  5  7  1  0  0  0
  5  6  4  0  0  0
  7  9  2  0  0  0
  7  8  1  0  0  0
 10 11  1  0  0  0
 11 13  2  0  0  0
 11 12  1  0  0  0
 12 16  1  0  0  0
 12 14  1  0  0  0
 14 15  1  0  0  0
 16 17  1  0  0  0
 18 19  1  0  0  0
 19 21  2  0  0  0
 19 20  1  0  0  0
  1 22  1  0  0  0
  4 23  1  0  0  0
  6 24  1  0  0  0
  8 25  1  0  0  0
 10 26  1  0  0  0
 12 27  1  0  0  0
 14 28  1  0  0  0
 14 29  1  0  0  0
 15 30  1  0  0  0
 15 31  1  0  0  0
 15 32  1  0  0  0
 16 33  1  0  0  0
 16 34  1  0  0  0
 17 35  1  0  0  0
 17 36  1  0  0  0
 17 37  1  0  0  0
 18 38  1  0  0  0
 20 39  1  0  0  0
 20 40  1  0  0  0
 20 41  1  0  0  0
M  END
$$$$
