4j0t_ligand
  -I-interpret- 

 48 50  0  0  0  0  0  0  0  0999 V2000
  -16.6150  -41.4590   -9.0870 C   0  0  0  0  0
  -16.6250  -40.0680   -9.7280 C   0  0  0  0  0
  -15.6300  -41.3270   -8.0360 O   0  0  0  0  0
  -15.5480  -40.1750   -7.3170 C   0  0  0  0  0
  -16.0940  -39.0240   -7.6640 N   0  0  0  0  0
  -17.0010  -38.9040   -8.7830 C   0  0  0  0  0
  -18.4600  -39.0900   -8.3880 C   0  0  0  0  0
  -18.8150  -39.7750   -7.2150 C   0  0  0  0  0
  -20.1670  -39.9590   -6.8630 C   0  0  0  0  0
  -21.2020  -39.4650   -7.6680 C   0  0  0  0  0
  -20.8670  -38.8290   -8.8860 C   0  0  0  0  0
  -19.5210  -38.6420   -9.2330 C   0  0  0  0  0
  -19.2110  -37.9520  -10.3810 F   0  0  0  0  0
  -14.7270  -40.1970   -6.2310 N   0  0  0  0  0
  -16.6930  -37.5560   -9.4550 C   0  0  0  0  0
  -20.4050  -40.6740   -5.6830 N   0  0  0  0  0
  -21.6290  -41.1210   -5.2750 C   0  0  0  0  0
  -21.5900  -41.8680   -4.0250 C   0  0  0  0  0
  -22.6050  -40.9680   -5.9950 O   0  0  0  0  0
  -20.4700  -41.6810   -3.3480 N   0  0  0  0  0
  -20.1940  -42.2630   -2.2200 C   0  0  0  0  0
  -21.0730  -43.1700   -1.6690 C   0  0  0  0  0
  -22.2870  -43.4150   -2.3510 C   0  0  0  0  0
  -22.5400  -42.7780   -3.5680 C   0  0  0  0  0
  -20.6990  -43.7770   -0.4650 O   0  0  0  0  0
  -15.3750  -39.8450  -10.2740 F   0  0  0  0  0
  -17.4620  -40.0710  -10.7890 F   0  0  0  0  0
  -21.7640  -44.6020    0.0770 C   0  0  0  0  0
  -21.3370  -45.2050    1.4040 C   0  0  0  0  0
  -16.3711  -42.2492   -9.7971 H   0  0  0  0  0
  -17.5940  -41.7582   -8.7127 H   0  0  0  0  0
  -15.8676  -38.1895   -7.1229 H   0  0  0  0  0
  -18.0330  -40.1705   -6.5668 H   0  0  0  0  0
  -22.2430  -39.5687   -7.3621 H   0  0  0  0  0
  -21.6552  -38.4840   -9.5553 H   0  0  0  0  0
  -14.5481  -39.3389   -5.7094 H   0  0  0  0  0
  -17.2845  -37.4619  -10.3657 H   0  0  0  0  0
  -16.9443  -36.7449   -8.7715 H   0  0  0  0  0
  -15.6325  -37.5088   -9.7025 H   0  0  0  0  0
  -19.6047  -40.8760   -5.0837 H   0  0  0  0  0
  -19.2609  -42.0324   -1.7059 H   0  0  0  0  0
  -23.0231  -44.0988   -1.9284 H   0  0  0  0  0
  -23.4458  -42.9851   -4.1379 H   0  0  0  0  0
  -21.9852  -45.4057   -0.6253 H   0  0  0  0  0
  -22.6487  -43.9848    0.2338 H   0  0  0  0  0
  -20.4499  -45.8202    1.2534 H   0  0  0  0  0
  -21.1106  -44.4051    2.1090 H   0  0  0  0  0
  -22.1451  -45.8209    1.7986 H   0  0  0  0  0
  1  2  1  0  0  0
  1  3  1  0  0  0
  2  6  1  0  0  0
  2 26  1  0  0  0
  2 27  1  0  0  0
  3  4  1  0  0  0
  4  5  1  0  0  0
  4 14  2  0  0  0
  5  6  1  0  0  0
  6  7  1  0  0  0
  6 15  1  0  0  0
  7  8  4  0  0  0
  7 12  4  0  0  0
  8  9  4  0  0  0
  9 10  4  0  0  0
  9 16  1  0  0  0
 10 11  4  0  0  0
 11 12  4  0  0  0
 12 13  1  0  0  0
 16 17  1  0  0  0
 17 18  1  0  0  0
 17 19  2  0  0  0
 18 20  4  0  0  0
 18 24  4  0  0  0
 20 21  4  0  0  0
 21 22  4  0  0  0
 22 23  4  0  0  0
 22 25  1  0  0  0
 23 24  4  0  0  0
 25 28  1  0  0  0
 28 29  1  0  0  0
  1 30  1  0  0  0
  1 31  1  0  0  0
  5 32  1  0  0  0
  8 33  1  0  0  0
 10 34  1  0  0  0
 11 35  1  0  0  0
 14 36  1  0  0  0
 15 37  1  0  0  0
 15 38  1  0  0  0
 15 39  1  0  0  0
 16 40  1  0  0  0
 21 41  1  0  0  0
 23 42  1  0  0  0
 24 43  1  0  0  0
 28 44  1  0  0  0
 28 45  1  0  0  0
 29 46  1  0  0  0
 29 47  1  0  0  0
 29 48  1  0  0  0
M  END
$$$$
