3jqb_ligand
  -I-interpret- 

 31 33  0  0  0  0  0  0  0  0999 V2000
   14.7990  -16.7840   20.7260 C   0  0  0  0  0
   15.0790  -17.8100   19.8260 C   0  0  0  0  0
   15.2120  -19.1170   20.2880 C   0  0  0  0  0
   15.0710  -19.3930   21.6480 C   0  0  0  0  0
   14.7900  -18.3680   22.5460 C   0  0  0  0  0
   14.6550  -17.0620   22.0850 C   0  0  0  0  0
   14.3410  -15.9370   23.0700 C   0  0  0  0  0
   12.8240  -15.7230   23.1480 C   0  0  0  0  0
   12.4060  -14.3220   22.6750 C   0  0  0  0  0
   13.1920  -13.4080   22.1000 C   0  0  0  0  0
   12.4840  -12.3110   21.8310 N   0  0  0  0  0
   11.2240  -12.4880   22.2230 C   0  0  0  0  0
   10.1410  -11.6900   22.1620 N   0  0  0  0  0
   11.1350  -13.7650   22.7680 C   0  0  0  0  0
    9.9120  -14.2200   23.2600 C   0  0  0  0  0
    9.7970  -15.3420   23.7500 O   0  0  0  0  0
    8.8020  -13.3710   23.1890 N   0  0  0  0  0
    8.9480  -12.0940   22.6320 C   0  0  0  0  0
    7.8980  -11.2850   22.5580 N   0  0  0  0  0
   14.6921  -15.7605   20.3667 H   0  0  0  0  0
   15.1935  -17.5906   18.7645 H   0  0  0  0  0
   15.4262  -19.9239   19.5872 H   0  0  0  0  0
   15.1814  -20.4157   22.0087 H   0  0  0  0  0
   14.6759  -18.5874   23.6076 H   0  0  0  0  0
   14.8177  -15.0174   22.7307 H   0  0  0  0  0
   14.7182  -16.2061   24.0566 H   0  0  0  0  0
   12.5207  -15.8322   24.1893 H   0  0  0  0  0
   12.3458  -16.4555   22.4977 H   0  0  0  0  0
   14.2522  -13.5392   21.8834 H   0  0  0  0  0
   10.2276  -10.7605   21.7510 H   0  0  0  0  0
    6.9904  -11.5943   22.9058 H   0  0  0  0  0
  1  2  4  0  0  0
  1  6  4  0  0  0
  2  3  4  0  0  0
  3  4  4  0  0  0
  4  5  4  0  0  0
  5  6  4  0  0  0
  6  7  1  0  0  0
  7  8  1  0  0  0
  8  9  1  0  0  0
  9 10  4  0  0  0
  9 14  4  0  0  0
 10 11  4  0  0  0
 11 12  4  0  0  0
 12 13  1  0  0  0
 12 14  4  0  0  0
 13 18  1  0  0  0
 14 15  1  0  0  0
 15 16  2  0  0  0
 15 17  1  0  0  0
 17 18  4  0  0  0
 18 19  2  0  0  0
  1 20  1  0  0  0
  2 21  1  0  0  0
  3 22  1  0  0  0
  4 23  1  0  0  0
  5 24  1  0  0  0
  7 25  1  0  0  0
  7 26  1  0  0  0
  8 27  1  0  0  0
  8 28  1  0  0  0
 10 29  1  0  0  0
 13 30  1  0  0  0
 19 31  1  0  0  0
M  END
$$$$
