6e7v_ligand
  -I-interpret- 

 62 63  0  0  0  0  0  0  0  0999 V2000
  252.5460  -68.8650  163.3710 C   0  0  0  0  0
  251.3430  -68.2150  163.1730 C   0  0  0  0  0
  251.2750  -66.8350  163.2760 C   0  0  0  0  0
  252.4080  -66.1140  163.6180 C   0  0  0  0  0
  253.6040  -66.7690  163.8630 C   0  0  0  0  0
  253.6880  -68.1370  163.6640 C   0  0  0  0  0
  254.8890  -65.9550  163.9750 C   0  0  0  0  0
  255.4440  -65.6030  162.5980 C   0  0  0  0  0
  254.9150  -64.3250  162.1580 N   0  3  0  0  0
  253.5480  -64.4660  161.6800 C   0  0  0  0  0
  253.0280  -63.1040  161.2180 C   0  0  0  0  0
  251.5050  -63.0370  161.1520 C   0  0  0  0  0
  251.0110  -61.6420  160.7670 C   0  0  0  0  0
  255.7320  -63.8090  161.0810 C   0  0  0  0  0
  256.0400  -62.3410  161.3480 C   0  0  0  0  0
  257.3120  -62.2580  162.1800 C   0  0  0  0  0
  257.1940  -61.1720  163.0470 O   0  0  0  0  0
  258.2890  -60.3170  162.9740 C   0  0  0  0  0
  259.2670  -60.3930  163.9500 C   0  0  0  0  0
  260.4450  -59.6850  163.7990 C   0  0  0  0  0
  260.6580  -58.9390  162.6530 C   0  0  0  0  0
  259.7640  -59.0210  161.6010 C   0  0  0  0  0
  258.5780  -59.7110  161.7630 C   0  0  0  0  0
  261.8980  -58.2090  162.4880 N   0  0  0  0  0
  262.9770  -58.6420  161.2410 S   0  0  0  0  0
  262.0910  -58.8070  159.6640 C   0  0  0  0  0
  263.6980  -59.8720  161.5720 O   0  0  0  0  0
  264.0760  -57.6810  161.1380 O   0  0  0  0  0
  254.9850  -61.7660  162.0620 O   0  0  0  0  0
  249.8790  -69.1720  162.8210 Cl  0  0  0  0  0
  252.6050  -70.6440  163.2700 Cl  0  0  0  0  0
  250.3337  -66.3183  163.0887 H   0  0  0  0  0
  252.3580  -65.0278  163.6945 H   0  0  0  0  0
  254.6518  -68.6407  163.7378 H   0  0  0  0  0
  255.6315  -66.5501  164.5066 H   0  0  0  0  0
  254.6683  -65.0297  164.5071 H   0  0  0  0  0
  255.1512  -66.3751  161.8865 H   0  0  0  0  0
  256.5306  -65.5392  162.6562 H   0  0  0  0  0
  254.9257  -63.6847  162.9519 H   0  0  0  0  0
  252.9177  -64.8418  162.4859 H   0  0  0  0  0
  253.5249  -65.1665  160.8452 H   0  0  0  0  0
  253.4116  -62.9260  160.2134 H   0  0  0  0  0
  253.3617  -62.3592  161.9405 H   0  0  0  0  0
  251.1094  -63.2792  162.1384 H   0  0  0  0  0
  251.1648  -63.7413  160.3929 H   0  0  0  0  0
  251.3530  -60.9195  161.5080 H   0  0  0  0  0
  251.4075  -61.3751  159.7874 H   0  0  0  0  0
  249.9216  -61.6406  160.7321 H   0  0  0  0  0
  255.1969  -63.9054  160.1363 H   0  0  0  0  0
  256.6622  -64.3742  161.0233 H   0  0  0  0  0
  256.1697  -61.8093  160.4054 H   0  0  0  0  0
  258.1774  -62.1272  161.5303 H   0  0  0  0  0
  257.4497  -63.1782  162.7478 H   0  0  0  0  0
  259.1092  -61.0092  164.8352 H   0  0  0  0  0
  261.2041  -59.7144  164.5807 H   0  0  0  0  0
  259.9940  -58.5435  160.6485 H   0  0  0  0  0
  257.8697  -59.7783  160.9373 H   0  0  0  0  0
  262.1251  -57.4380  163.1161 H   0  0  0  0  0
  262.8050  -59.0181  158.8679 H   0  0  0  0  0
  261.3730  -59.6239  159.7359 H   0  0  0  0  0
  261.5652  -57.8776  159.4452 H   0  0  0  0  0
  255.1801  -60.8411  162.2297 H   0  0  0  0  0
  1  2  4  0  0  0
  1  6  4  0  0  0
  1 31  1  0  0  0
  2  3  4  0  0  0
  2 30  1  0  0  0
  3  4  4  0  0  0
  4  5  4  0  0  0
  5  6  4  0  0  0
  5  7  1  0  0  0
  7  8  1  0  0  0
  8  9  1  0  0  0
  9 10  1  0  0  0
  9 14  1  0  0  0
 10 11  1  0  0  0
 11 12  1  0  0  0
 12 13  1  0  0  0
 14 15  1  0  0  0
 15 16  1  0  0  0
 15 29  1  0  0  0
 16 17  1  0  0  0
 17 18  1  0  0  0
 18 19  4  0  0  0
 18 23  4  0  0  0
 19 20  4  0  0  0
 20 21  4  0  0  0
 21 22  4  0  0  0
 21 24  1  0  0  0
 22 23  4  0  0  0
 24 25  1  0  0  0
 25 26  1  0  0  0
 25 27  2  0  0  0
 25 28  2  0  0  0
  3 32  1  0  0  0
  4 33  1  0  0  0
  6 34  1  0  0  0
  7 35  1  0  0  0
  7 36  1  0  0  0
  8 37  1  0  0  0
  8 38  1  0  0  0
  9 39  1  0  0  0
 10 40  1  0  0  0
 10 41  1  0  0  0
 11 42  1  0  0  0
 11 43  1  0  0  0
 12 44  1  0  0  0
 12 45  1  0  0  0
 13 46  1  0  0  0
 13 47  1  0  0  0
 13 48  1  0  0  0
 14 49  1  0  0  0
 14 50  1  0  0  0
 15 51  1  0  0  0
 16 52  1  0  0  0
 16 53  1  0  0  0
 19 54  1  0  0  0
 20 55  1  0  0  0
 22 56  1  0  0  0
 23 57  1  0  0  0
 24 58  1  0  0  0
 26 59  1  0  0  0
 26 60  1  0  0  0
 26 61  1  0  0  0
 29 62  1  0  0  0
M  END
$$$$
