5t36_ligand
  -I-interpret- 

 49 50  0  0  0  0  0  0  0  0999 V2000
   15.8100   16.9830   33.7540 O   0  0  0  0  0
   10.7000   14.8830   28.2000 C   0  0  0  0  0
   17.2270   18.5810   33.0460 O   0  0  0  0  0
    8.4090   14.0330   28.7020 C   0  0  0  0  0
   11.1020   13.5320   34.1550 C   0  0  0  0  0
   13.9080   16.2910   31.9820 N   0  0  0  0  0
    9.3170   15.2720   28.7560 C   0  0  0  0  0
    9.4600   15.7880   30.2110 C   0  0  0  0  0
   10.2500   15.1580   32.5140 C   0  0  0  0  0
    9.8580   13.9480   33.3700 C   0  0  0  0  0
   15.2890   16.3020   27.0570 Cl  0  0  0  0  0
   15.5920   16.6830   28.7080 C   0  0  0  0  0
   16.7760   17.3290   29.0740 C   0  0  0  0  0
   14.6510   16.3460   29.6840 C   0  0  0  0  0
   14.8800   16.6480   31.0340 C   0  0  0  0  0
   16.0700   17.2970   31.4020 C   0  0  0  0  0
   16.3750   17.6460   32.8080 C   0  0  0  0  0
   17.0100   17.6340   30.4190 C   0  0  0  0  0
   12.5460   15.9980   31.6590 C   0  0  0  0  0
   11.7350   15.4390   32.8250 C   0  0  0  0  0
   12.2770   14.1200   33.3810 C   0  0  0  0  0
   10.0170   14.8760   31.1060 N   0  0  0  0  0
    9.1070   16.9240   30.5420 O   0  0  0  0  0
    8.7370   16.3600   27.8360 C   0  0  0  0  0
   11.3529   15.7558   28.2103 H   0  0  0  0  0
   11.1316   14.0974   28.8202 H   0  0  0  0  0
   10.5906   14.5216   27.1775 H   0  0  0  0  0
   17.5331   18.9525   32.2154 H   0  0  0  0  0
    8.8398   13.2414   29.3151 H   0  0  0  0  0
    7.4207   14.2916   29.0821 H   0  0  0  0  0
    8.3248   13.6905   27.6706 H   0  0  0  0  0
   11.1793   12.4482   34.2420 H   0  0  0  0  0
   11.0719   13.8989   35.1810 H   0  0  0  0  0
   14.1904   16.2373   32.9607 H   0  0  0  0  0
    9.6493   16.0383   32.7426 H   0  0  0  0  0
    9.0428   14.2032   34.0471 H   0  0  0  0  0
    9.5074   13.1292   32.7417 H   0  0  0  0  0
   17.5129   17.5937   28.3157 H   0  0  0  0  0
   13.7289   15.8429   29.3930 H   0  0  0  0  0
   17.9327   18.1388   30.7052 H   0  0  0  0  0
   12.5563   15.2366   30.8791 H   0  0  0  0  0
   12.0768   16.9353   31.3600 H   0  0  0  0  0
   11.8272   16.2508   33.5465 H   0  0  0  0  0
   12.6264   13.4531   32.5928 H   0  0  0  0  0
   13.1535   14.2679   34.0119 H   0  0  0  0  0
   10.2769   13.9553   30.7523 H   0  0  0  0  0
    7.7528   16.6550   28.1999 H   0  0  0  0  0
    9.4000   17.2252   27.8358 H   0  0  0  0  0
    8.6487   15.9681   26.8227 H   0  0  0  0  0
 17  1  2  0  0  0
  7  2  1  0  0  0
 17  3  1  0  0  0
  7  4  1  0  0  0
 10  5  1  0  0  0
  5 21  1  0  0  0
  6 15  1  0  0  0
 19  6  1  0  0  0
  8  7  1  0  0  0
  7 24  1  0  0  0
 22  8  1  0  0  0
  8 23  2  0  0  0
  9 10  1  0  0  0
 20  9  1  0  0  0
  9 22  1  0  0  0
 12 11  1  0  0  0
 12 13  4  0  0  0
 14 12  4  0  0  0
 18 13  4  0  0  0
 15 14  4  0  0  0
 15 16  4  0  0  0
 16 17  1  0  0  0
 16 18  4  0  0  0
 19 20  1  0  0  0
 20 21  1  0  0  0
  2 25  1  0  0  0
  2 26  1  0  0  0
  2 27  1  0  0  0
  3 28  1  0  0  0
  4 29  1  0  0  0
  4 30  1  0  0  0
  4 31  1  0  0  0
  5 32  1  0  0  0
  5 33  1  0  0  0
  6 34  1  0  0  0
  9 35  1  0  0  0
 10 36  1  0  0  0
 10 37  1  0  0  0
 13 38  1  0  0  0
 14 39  1  0  0  0
 18 40  1  0  0  0
 19 41  1  0  0  0
 19 42  1  0  0  0
 20 43  1  0  0  0
 21 44  1  0  0  0
 21 45  1  0  0  0
 22 46  1  0  0  0
 24 47  1  0  0  0
 24 48  1  0  0  0
 24 49  1  0  0  0
M  END
$$$$
