4jps_ligand
  -I-interpret- 

 52 54  0  0  0  0  0  0  0  0999 V2000
   -3.0800  -11.7290   15.7730 C   0  0  0  0  0
   -1.6030  -10.4210   14.7720 C   0  0  0  0  0
    0.0440   -8.8630   13.8080 C   0  0  0  0  0
    1.6100   -5.2050   13.6960 O   0  0  0  0  0
   -4.2730  -11.6290   18.7320 C   0  0  0  0  0
   -4.6390  -11.5270   20.0560 C   0  0  0  0  0
   -2.9160  -10.0900   20.5290 C   0  0  0  0  0
   -2.4780  -10.1140   19.1970 C   0  0  0  0  0
   -2.1400   -9.3030   21.6130 C   0  0  0  0  0
   -1.0640   -8.4030   20.9840 C   0  0  0  0  0
   -3.1110   -8.4460   22.4440 C   0  0  0  0  0
   -1.3810  -10.3370   22.6220 C   0  0  0  0  0
   -0.6820   -9.6680   23.5380 F   0  0  0  0  0
   -2.2190  -11.1320   23.2770 F   0  0  0  0  0
   -0.5360  -11.1320   21.9750 F   0  0  0  0  0
   -3.9910  -10.7690   20.9520 N   0  0  0  0  0
   -3.1840  -10.8900   18.2830 C   0  0  0  0  0
   -2.7500  -10.9380   16.8690 C   0  0  0  0  0
   -4.0520  -12.8640   15.7720 C   0  0  0  0  0
   -1.5770   -9.7460   16.3620 S   0  0  0  0  0
   -2.4190  -11.4290   14.5990 N   0  0  0  0  0
   -0.8290   -9.9580   13.7250 N   0  0  0  0  0
    0.1900   -8.2350   14.8460 O   0  0  0  0  0
    0.7390   -8.5170   12.6650 N   0  0  0  0  0
    1.6800   -7.3850   12.6910 C   0  0  0  0  0
    1.0160   -6.0450   13.0140 C   0  0  0  0  0
   -0.2270   -5.8810   12.5910 N   0  0  0  0  0
    2.3070   -7.3990   11.2880 C   0  0  0  0  0
    1.3280   -8.1590   10.4240 C   0  0  0  0  0
    0.6760   -9.1660   11.3460 C   0  0  0  0  0
   -4.8256  -12.2756   18.0503 H   0  0  0  0  0
   -5.5053  -12.0953   20.3947 H   0  0  0  0  0
   -1.6060   -9.5390   18.8854 H   0  0  0  0  0
   -0.3571   -9.0185   20.4276 H   0  0  0  0  0
   -1.5375   -7.6905   20.3085 H   0  0  0  0  0
   -0.5372   -7.8641   21.7715 H   0  0  0  0  0
   -3.6237   -7.7416   21.7889 H   0  0  0  0  0
   -3.8427   -9.0935   22.9272 H   0  0  0  0  0
   -2.5520   -7.8980   23.2024 H   0  0  0  0  0
   -3.7218  -13.6241   16.4800 H   0  0  0  0  0
   -5.0365  -12.4978   16.0630 H   0  0  0  0  0
   -4.1042  -13.2951   14.7722 H   0  0  0  0  0
   -0.8970  -10.4453   12.8315 H   0  0  0  0  0
    2.4163   -7.4933   13.4874 H   0  0  0  0  0
   -0.7378   -5.0301   12.8265 H   0  0  0  0  0
   -0.6744   -6.6055   12.0294 H   0  0  0  0  0
    3.2900   -7.8701   11.2916 H   0  0  0  0  0
    2.4751   -6.3896   10.9127 H   0  0  0  0  0
    1.8277   -8.6472    9.5873 H   0  0  0  0  0
    0.5917   -7.4937    9.9731 H   0  0  0  0  0
   -0.3444   -9.4059   11.0472 H   0  0  0  0  0
    1.1801  -10.1323   11.3319 H   0  0  0  0  0
  1 18  4  0  0  0
  1 19  1  0  0  0
 21  1  4  0  0  0
  2 20  4  0  0  0
  2 21  4  0  0  0
 22  2  1  0  0  0
  3 22  1  0  0  0
  3 23  2  0  0  0
 24  3  1  0  0  0
 26  4  2  0  0  0
  5  6  4  0  0  0
 17  5  4  0  0  0
  6 16  4  0  0  0
  8  7  4  0  0  0
  7  9  1  0  0  0
  7 16  4  0  0  0
 17  8  4  0  0  0
  9 10  1  0  0  0
  9 11  1  0  0  0
  9 12  1  0  0  0
 12 13  1  0  0  0
 12 14  1  0  0  0
 12 15  1  0  0  0
 18 17  1  0  0  0
 20 18  4  0  0  0
 25 24  1  0  0  0
 24 30  1  0  0  0
 25 26  1  0  0  0
 25 28  1  0  0  0
 26 27  1  0  0  0
 28 29  1  0  0  0
 29 30  1  0  0  0
  5 31  1  0  0  0
  6 32  1  0  0  0
  8 33  1  0  0  0
 10 34  1  0  0  0
 10 35  1  0  0  0
 10 36  1  0  0  0
 11 37  1  0  0  0
 11 38  1  0  0  0
 11 39  1  0  0  0
 19 40  1  0  0  0
 19 41  1  0  0  0
 19 42  1  0  0  0
 22 43  1  0  0  0
 25 44  1  0  0  0
 27 45  1  0  0  0
 27 46  1  0  0  0
 28 47  1  0  0  0
 28 48  1  0  0  0
 29 49  1  0  0  0
 29 50  1  0  0  0
 30 51  1  0  0  0
 30 52  1  0  0  0
M  END
$$$$
