6ei5_ligand
  -I-interpret- 

 53 57  0  0  0  0  0  0  0  0999 V2000
  -33.2090  -10.4220  -26.0720 C   0  0  0  0  0
  -31.6450  -11.0580  -24.1990 C   0  0  0  0  0
  -31.1620  -10.0410  -23.7220 O   0  0  0  0  0
  -32.1770   -9.7700  -26.7890 C   0  0  0  0  0
  -34.7890   -9.8760  -27.8910 C   0  0  0  0  0
  -32.4580   -9.1940  -28.0270 C   0  0  0  0  0
  -33.7690   -9.2660  -28.5710 C   0  0  0  0  0
  -35.2630  -11.6390  -24.7570 C   0  0  0  0  0
  -31.3660   -8.5220  -28.7860 C   0  0  0  0  0
  -29.5420  -12.3790  -23.7670 C   0  0  0  0  0
  -29.0240  -13.6850  -24.3360 C   0  0  0  0  0
  -27.7640  -14.2620  -24.2980 C   0  0  0  0  0
  -27.5610  -15.4920  -24.8940 C   0  0  0  0  0
  -28.6080  -16.1540  -25.5390 C   0  0  0  0  0
  -30.3380   -9.3330  -29.2990 C   0  0  0  0  0
  -30.2570   -6.5860  -29.7450 C   0  0  0  0  0
  -31.2790   -5.9340  -26.2650 C   0  0  0  0  0
  -30.9210  -12.2040  -24.2440 N   0  0  0  0  0
  -33.0080  -11.0250  -24.7940 C   0  0  0  0  0
  -34.5320  -10.4750  -26.6340 C   0  0  0  0  0
  -34.0470  -11.6230  -24.2000 N   0  0  0  0  0
  -35.5010  -11.0970  -25.9440 N   0  0  0  0  0
  -36.3140  -12.2510  -24.1020 N   0  0  0  0  0
  -31.3260  -13.5120  -24.8070 C   0  0  0  0  0
  -30.0810  -14.3520  -24.9510 C   0  0  0  0  0
  -29.8690  -15.5830  -25.5610 C   0  0  0  0  0
  -29.2800   -8.7790  -30.0100 C   0  0  0  0  0
  -29.2460   -7.4060  -30.2470 C   0  0  0  0  0
  -31.3220   -7.1220  -29.0220 C   0  0  0  0  0
  -32.3600   -6.1410  -28.4960 C   0  0  0  0  0
  -32.5140   -6.2200  -27.0260 N   0  3  0  0  0
  -31.1696   -9.7187  -26.3759 H   0  0  0  0  0
  -35.7929   -9.9003  -28.3148 H   0  0  0  0  0
  -33.9664   -8.8269  -29.5489 H   0  0  0  0  0
  -28.9918  -11.6943  -23.1215 H   0  0  0  0  0
  -26.9399  -13.7494  -23.8018 H   0  0  0  0  0
  -26.5728  -15.9507  -24.8604 H   0  0  0  0  0
  -28.4333  -17.1151  -26.0225 H   0  0  0  0  0
  -30.3714  -10.4104  -29.1369 H   0  0  0  0  0
  -30.2137   -5.5111  -29.9205 H   0  0  0  0  0
  -30.5078   -6.6524  -26.5431 H   0  0  0  0  0
  -30.9374   -4.9249  -26.4953 H   0  0  0  0  0
  -31.4846   -6.0147  -25.1976 H   0  0  0  0  0
  -36.1626  -12.6904  -23.1940 H   0  0  0  0  0
  -37.2415  -12.2635  -24.5263 H   0  0  0  0  0
  -32.3399  -13.8135  -25.0699 H   0  0  0  0  0
  -30.6933  -16.0972  -26.0552 H   0  0  0  0  0
  -28.4783   -9.4172  -30.3816 H   0  0  0  0  0
  -28.4294   -6.9728  -30.8246 H   0  0  0  0  0
  -33.3195   -6.3883  -28.9502 H   0  0  0  0  0
  -32.0305   -5.1329  -28.7477 H   0  0  0  0  0
  -33.1999   -5.5139  -26.7590 H   0  0  0  0  0
  -32.7862   -7.1779  -26.8050 H   0  0  0  0  0
  4  1  4  0  0  0
  1 19  4  0  0  0
  1 20  4  0  0  0
  2  3  2  0  0  0
  2 18  1  0  0  0
 19  2  1  0  0  0
  6  4  4  0  0  0
  7  5  4  0  0  0
  5 20  4  0  0  0
  6  7  4  0  0  0
  9  6  1  0  0  0
 21  8  4  0  0  0
 22  8  4  0  0  0
  8 23  1  0  0  0
  9 15  4  0  0  0
 29  9  4  0  0  0
 10 11  4  0  0  0
 18 10  4  0  0  0
 11 12  4  0  0  0
 25 11  4  0  0  0
 12 13  4  0  0  0
 14 13  4  0  0  0
 26 14  4  0  0  0
 15 27  4  0  0  0
 16 28  4  0  0  0
 29 16  4  0  0  0
 31 17  1  0  0  0
 18 24  4  0  0  0
 19 21  4  0  0  0
 20 22  4  0  0  0
 24 25  4  0  0  0
 25 26  4  0  0  0
 28 27  4  0  0  0
 30 29  1  0  0  0
 30 31  1  0  0  0
  4 32  1  0  0  0
  5 33  1  0  0  0
  7 34  1  0  0  0
 10 35  1  0  0  0
 12 36  1  0  0  0
 13 37  1  0  0  0
 14 38  1  0  0  0
 15 39  1  0  0  0
 16 40  1  0  0  0
 17 41  1  0  0  0
 17 42  1  0  0  0
 17 43  1  0  0  0
 23 44  1  0  0  0
 23 45  1  0  0  0
 24 46  1  0  0  0
 26 47  1  0  0  0
 27 48  1  0  0  0
 28 49  1  0  0  0
 30 50  1  0  0  0
 30 51  1  0  0  0
 31 52  1  0  0  0
 31 53  1  0  0  0
M  END
$$$$
