### 
### Created by X-TOOL on Fri Nov  2 11:09:03 2018
### 

@<TRIPOS>MOLECULE
6bw3_ligand
  163   162     1     0     0
SMALL
GAST_HUCK


@<TRIPOS>ATOM
      1 N          -7.5380   33.0090   -7.5110 N.4       1 MET         0.2379
      2 CA         -8.5760   33.2540   -8.5520 C.3       1 MET         0.0658
      3 C          -7.8430   33.6040   -9.8140 C.2       1 MET         0.2267
      4 O          -7.0870   34.5500   -9.8390 O.2       1 MET        -0.3907
      5 CB         -9.5040   34.3880   -8.1560 C.3       1 MET         0.0168
      6 CG        -10.7620   34.5240   -8.9970 C.3       1 MET         0.0007
      7 SD        -11.4650   36.1710   -8.7060 S.3       1 MET        -0.1638
      8 CE        -13.2160   35.7910   -8.5430 C.3       1 MET        -0.0181
      9 N          -8.0300   32.8070  -10.8510 N.am      1 MET        -0.2610
     10 CA         -7.2850   33.0130  -12.0750 C.3       1 MET         0.1312
     11 C          -7.9510   34.0790  -12.9260 C.2       1 MET         0.2040
     12 O          -9.1490   34.3040  -12.8410 O.2       1 MET        -0.3944
     13 CB         -7.0780   31.6940  -12.8400 C.3       1 MET        -0.0092
     14 CG         -8.3040   31.0350  -13.4580 C.3       1 MET        -0.0156
     15 CD         -8.0110   29.5600  -13.6680 C.3       1 MET         0.0627
     16 NE         -8.2200   28.7900  -12.4360 N.pl3     1 MET        -0.2723
     17 CZ         -7.7990   27.5370  -12.2210 C.cat     1 MET         0.2882
     18 NH1        -8.0520   26.9440  -11.0540 N.pl3     1 MET        -0.2849
     19 NH2        -7.1220   26.8710  -13.1420 N.pl3     1 MET        -0.2849
     20 N          -7.1320   34.7530  -13.7140 N.am      1 MET        -0.2616
     21 CA         -7.5850   35.7350  -14.6710 C.3       1 MET         0.1539
     22 C          -7.2550   35.1590  -16.0380 C.2       1 MET         0.2062
     23 O          -6.0860   35.0040  -16.3710 O.2       1 MET        -0.3943
     24 CB         -6.8710   37.0820  -14.4100 C.3       1 MET         0.0843
     25 OG         -6.6700   37.8300  -15.5970 O.3       1 MET        -0.3903
     26 N          -8.2820   34.8300  -16.8180 N.am      1 MET        -0.2637
     27 CA         -8.0770   34.2750  -18.1720 C.3       1 MET         0.1310
     28 C          -7.5760   35.3550  -19.1260 C.2       1 MET         0.2037
     29 O          -8.0940   36.4740  -19.1090 O.2       1 MET        -0.3944
     30 CB         -9.3860   33.6810  -18.7150 C.3       1 MET        -0.0122
     31 CG         -9.8510   32.4470  -17.9520 C.3       1 MET        -0.0440
     32 CD        -11.2480   31.9790  -18.3500 C.3       1 MET        -0.0124
     33 CE        -12.3410   32.5990  -17.5180 C.3       1 MET        -0.0354
     34 NZ        -13.5340   31.7220  -17.4460 N.4       1 MET         0.2185
     35 N          -6.5860   35.0230  -19.9580 N.am      1 MET        -0.2664
     36 CA         -6.1260   35.9390  -21.0230 C.3       1 MET         0.1201
     37 C          -7.2220   36.2730  -22.0430 C.2       1 MET         0.2007
     38 O          -8.3050   35.6930  -22.0210 O.2       1 MET        -0.3947
     39 N          -6.9590   37.2310  -22.9260 N.am      1 MET        -0.2640
     40 CA         -7.8670   37.4900  -24.0560 C.3       1 MET         0.1311
     41 C          -7.4760   36.5630  -25.2230 C.2       1 MET         0.2039
     42 O          -6.3510   36.6110  -25.7280 O.2       1 MET        -0.3944
     43 CB         -7.8390   38.9680  -24.4710 C.3       1 MET        -0.0092
     44 CG         -8.7130   39.2610  -25.6750 C.3       1 MET        -0.0156
     45 CD         -9.0370   40.7310  -25.8530 C.3       1 MET         0.0627
     46 NE        -10.3270   40.8750  -26.5260 N.pl3     1 MET        -0.2723
     47 CZ        -11.5170   40.8670  -25.9220 C.cat     1 MET         0.2882
     48 NH1       -11.6310   40.7350  -24.5960 N.pl3     1 MET        -0.2849
     49 NH2       -12.6170   40.9860  -26.6630 N.pl3     1 MET        -0.2849
     50 N          -8.4110   35.7160  -25.6340 N.am      1 MET        -0.2640
     51 CA         -8.1270   34.6890  -26.6220 C.3       1 MET         0.1282
     52 C          -8.0540   35.3190  -27.9930 C.2       1 MET         0.2036
     53 O          -8.8920   36.1510  -28.3390 O.2       1 MET        -0.3944
     54 CB         -9.2020   33.6270  -26.6020 C.3       1 MET        -0.0244
     55 N          -7.0480   34.9080  -28.7530 N.am      1 MET        -0.2637
     56 CA         -6.8610   35.2910  -30.1410 C.3       1 MET         0.1307
     57 C          -7.1040   34.0690  -31.0570 C.2       1 MET         0.2039
     58 O          -6.5930   32.9680  -30.7890 O.2       1 MET        -0.3944
     59 CB         -5.4380   35.8340  -30.3140 C.3       1 MET        -0.0152
     60 CG         -5.1170   37.0140  -29.3980 C.3       1 MET        -0.0610
     61 N          -7.8860   34.2680  -32.1250 N.am      1 MET        -0.2637
     62 CA         -8.1430   33.2340  -33.1600 C.3       1 MET         0.1309
     63 C          -6.9090   32.9730  -34.0320 C.2       1 MET         0.2033
     64 O          -5.9890   33.7780  -34.0470 O.2       1 MET        -0.3944
     65 CB         -9.3150   33.6720  -34.0500 C.3       1 MET        -0.0122
     66 CG         -9.8880   32.6270  -34.9880 C.3       1 MET        -0.0440
     67 CD        -11.1490   33.1440  -35.6600 C.3       1 MET        -0.0124
     68 CE        -11.6550   32.1890  -36.7300 C.3       1 MET        -0.0354
     69 NZ        -13.1330   32.2960  -36.9210 N.4       1 MET         0.2185
     70 N          -6.8960   31.8290  -34.7190 N.am      1 MET        -0.2698
     71 CA         -5.8770   31.4210  -35.7150 C.3       1 MET         0.0916
     72 C          -4.6370   30.8250  -35.0560 C.2       1 MET         0.0598
     73 O          -4.0700   29.8400  -35.5450 O.co2     1 MET        -0.5666
     74 CB         -5.4940   32.5500  -36.6740 C.3       1 MET        -0.0300
     75 OXT        -4.1730   31.3140  -34.0190 O.co2     1 MET        -0.5666
     76 H1         -7.9855   32.7691   -6.6402 H         1 MET         0.2015
     77 H2         -6.9844   33.8420   -7.3859 H         1 MET         0.2015
     78 H3         -6.9421   32.2502   -7.8027 H         1 MET         0.2015
     79 H4         -9.1709   32.3413   -8.7040 H         1 MET         0.1098
     80 H5         -8.9410   35.3299   -8.2327 H         1 MET         0.0354
     81 H6         -9.8097   34.2275   -7.1116 H         1 MET         0.0354
     82 H7        -11.4896   33.7521   -8.7058 H         1 MET         0.0380
     83 H8        -10.5119   34.4091  -10.0620 H         1 MET         0.0380
     84 H9        -13.7770   36.7191   -8.3592 H         1 MET         0.0340
     85 H10       -13.3643   35.0999   -7.7002 H         1 MET         0.0340
     86 H11       -13.5772   35.3217   -9.4700 H         1 MET         0.0340
     87 H12        -8.6895   32.0577  -10.7901 H         1 MET         0.1884
     88 H13        -6.2885   33.3878  -11.7985 H         1 MET         0.0800
     89 H14        -6.6361   30.9723  -12.1372 H         1 MET         0.0313
     90 H15        -6.3669   31.8948  -13.6549 H         1 MET         0.0313
     91 H16        -8.5308   31.5084  -14.4246 H         1 MET         0.0301
     92 H17        -9.1650   31.1487  -12.7830 H         1 MET         0.0301
     93 H18        -6.9649   29.4453  -13.9882 H         1 MET         0.0689
     94 H19        -8.6788   29.1707  -14.4506 H         1 MET         0.0689
     95 H20        -8.7338   29.2524  -11.6724 H         1 MET         0.2642
     96 H21        -7.7296   25.9804  -10.8854 H         1 MET         0.2615
     97 H22        -8.5698   27.4495  -10.3210 H         1 MET         0.2615
     98 H23        -6.9167   27.3121  -14.0498 H         1 MET         0.2615
     99 H24        -6.8002   25.9113  -12.9512 H         1 MET         0.2615
    100 H25        -6.1506   34.5743  -13.6442 H         1 MET         0.1884
    101 H26        -8.6714   35.8827  -14.5821 H         1 MET         0.0823
    102 H27        -5.8921   36.8790  -13.9513 H         1 MET         0.0606
    103 H28        -7.4840   37.6776  -13.7176 H         1 MET         0.0606
    104 H29        -6.1351   37.3273  -16.2000 H         1 MET         0.2097
    105 H30        -9.2139   34.9614  -16.4799 H         1 MET         0.1883
    106 H31        -7.3227   33.4766  -18.1129 H         1 MET         0.0800
    107 H32        -9.2326   33.4028  -19.7681 H         1 MET         0.0312
    108 H33       -10.1713   34.4484  -18.6491 H         1 MET         0.0312
    109 H34        -9.8551   32.6824  -16.8775 H         1 MET         0.0269
    110 H35        -9.1411   31.6293  -18.1455 H         1 MET         0.0269
    111 H36       -11.2971   30.8863  -18.2335 H         1 MET         0.0317
    112 H37       -11.4183   32.2435  -19.4041 H         1 MET         0.0317
    113 H38       -12.6308   33.5601  -17.9677 H         1 MET         0.0813
    114 H39       -11.9615   32.7702  -16.4998 H         1 MET         0.0813
    115 H40       -14.2435   32.1654  -16.8839 H         1 MET         0.1994
    116 H41       -13.2782   30.8402  -17.0300 H         1 MET         0.1994
    117 H42       -13.8915   31.5641  -18.3751 H         1 MET         0.1994
    118 H43        -6.1442   34.1315  -19.8581 H         1 MET         0.1881
    119 H44        -5.2864   35.4660  -21.5534 H         1 MET         0.0763
    120 H45        -5.7846   36.8749  -20.5567 H         1 MET         0.0763
    121 H46        -6.1324   37.7840  -22.8214 H         1 MET         0.1883
    122 H47        -8.8930   37.2449  -23.7441 H         1 MET         0.0800
    123 H48        -6.8025   39.2443  -24.7145 H         1 MET         0.0313
    124 H49        -8.1917   39.5765  -23.6253 H         1 MET         0.0313
    125 H50        -9.6576   38.7092  -25.5603 H         1 MET         0.0301
    126 H51        -8.1902   38.9096  -26.5767 H         1 MET         0.0301
    127 H52        -8.2530   41.2070  -26.4603 H         1 MET         0.0689
    128 H53        -9.0830   41.2170  -24.8673 H         1 MET         0.0689
    129 H54       -10.3165   40.9921  -27.5493 H         1 MET         0.2642
    130 H55       -12.5627   40.7322  -24.1569 H         1 MET         0.2615
    131 H56       -10.7871   40.6361  -24.0139 H         1 MET         0.2615
    132 H57       -12.5409   41.0882  -27.6851 H         1 MET         0.2615
    133 H58       -13.5440   40.9758  -26.2141 H         1 MET         0.2615
    134 H59        -9.3336   35.7861  -25.2546 H         1 MET         0.1883
    135 H60        -7.1591   34.2223  -26.3869 H         1 MET         0.0797
    136 H61        -8.9721   32.8584  -27.3546 H         1 MET         0.0277
    137 H62       -10.1750   34.0857  -26.8318 H         1 MET         0.0277
    138 H63        -9.2413   33.1638  -25.6051 H         1 MET         0.0277
    139 H64        -6.3737   34.2938  -28.3431 H         1 MET         0.1883
    140 H65        -7.5814   36.0803  -30.4016 H         1 MET         0.0800
    141 H66        -5.3149   36.1604  -31.3572 H         1 MET         0.0310
    142 H67        -4.7276   35.0226  -30.0974 H         1 MET         0.0310
    143 H68        -4.0844   37.3476  -29.5781 H         1 MET         0.0232
    144 H69        -5.2240   36.7031  -28.3483 H         1 MET         0.0232
    145 H70        -5.8114   37.8408  -29.6082 H         1 MET         0.0232
    146 H71        -8.3211   35.1620  -32.2320 H         1 MET         0.1883
    147 H72        -8.4135   32.2964  -32.6524 H         1 MET         0.0800
    148 H73        -8.9693   34.5167  -34.6640 H         1 MET         0.0312
    149 H74       -10.1277   34.0075  -33.3891 H         1 MET         0.0312
    150 H75       -10.1302   31.7203  -34.4142 H         1 MET         0.0269
    151 H76        -9.1413   32.3848  -35.7586 H         1 MET         0.0269
    152 H77       -10.9304   34.1162  -36.1259 H         1 MET         0.0317
    153 H78       -11.9318   33.2705  -34.8976 H         1 MET         0.0317
    154 H79       -11.4089   31.1591  -36.4322 H         1 MET         0.0813
    155 H80       -11.1559   32.4247  -37.6815 H         1 MET         0.0813
    156 H81       -13.4271   31.6491  -37.6359 H         1 MET         0.1994
    157 H82       -13.3686   33.2354  -37.2004 H         1 MET         0.1994
    158 H83       -13.6005   32.0756  -36.0556 H         1 MET         0.1994
    159 H84        -7.6432   31.1874  -34.5457 H         1 MET         0.1875
    160 H85        -6.3324   30.6259  -36.3236 H         1 MET         0.0723
    161 H86        -4.7378   32.1862  -37.3853 H         1 MET         0.0270
    162 H87        -5.0824   33.3940  -36.1011 H         1 MET         0.0270
    163 H88        -6.3863   32.8815  -37.2252 H         1 MET         0.0270
@<TRIPOS>BOND
     1    1    2 1  
     2    2    3 1  
     3    2    5 1  
     4    3    4 2  
     5    3    9 am 
     6    5    6 1  
     7    6    7 1  
     8    7    8 1  
     9    9   10 1  
    10   10   11 1  
    11   10   13 1  
    12   11   12 2  
    13   11   20 am 
    14   13   14 1  
    15   14   15 1  
    16   15   16 1  
    17   16   17 ar 
    18   17   18 ar 
    19   17   19 ar 
    20   20   21 1  
    21   21   22 1  
    22   21   24 1  
    23   22   23 2  
    24   22   26 am 
    25   24   25 1  
    26   26   27 1  
    27   27   28 1  
    28   27   30 1  
    29   28   29 2  
    30   28   35 am 
    31   30   31 1  
    32   31   32 1  
    33   32   33 1  
    34   33   34 1  
    35   35   36 1  
    36   36   37 1  
    37   37   38 2  
    38   37   39 am 
    39   39   40 1  
    40   40   41 1  
    41   40   43 1  
    42   41   42 2  
    43   41   50 am 
    44   43   44 1  
    45   44   45 1  
    46   45   46 1  
    47   46   47 ar 
    48   47   48 ar 
    49   47   49 ar 
    50   50   51 1  
    51   51   52 1  
    52   51   54 1  
    53   52   53 2  
    54   52   55 am 
    55   55   56 1  
    56   56   57 1  
    57   56   59 1  
    58   57   58 2  
    59   57   61 am 
    60   59   60 1  
    61   61   62 1  
    62   62   63 1  
    63   62   65 1  
    64   63   64 2  
    65   63   70 am 
    66   65   66 1  
    67   66   67 1  
    68   67   68 1  
    69   68   69 1  
    70   70   71 1  
    71   71   72 1  
    72   71   74 1  
    73   72   73 ar 
    74   72   75 ar 
    75    1   76 1  
    76    1   77 1  
    77    1   78 1  
    78    2   79 1  
    79    5   80 1  
    80    5   81 1  
    81    6   82 1  
    82    6   83 1  
    83    8   84 1  
    84    8   85 1  
    85    8   86 1  
    86    9   87 1  
    87   10   88 1  
    88   13   89 1  
    89   13   90 1  
    90   14   91 1  
    91   14   92 1  
    92   15   93 1  
    93   15   94 1  
    94   16   95 1  
    95   18   96 1  
    96   18   97 1  
    97   19   98 1  
    98   19   99 1  
    99   20  100 1  
   100   21  101 1  
   101   24  102 1  
   102   24  103 1  
   103   25  104 1  
   104   26  105 1  
   105   27  106 1  
   106   30  107 1  
   107   30  108 1  
   108   31  109 1  
   109   31  110 1  
   110   32  111 1  
   111   32  112 1  
   112   33  113 1  
   113   33  114 1  
   114   34  115 1  
   115   34  116 1  
   116   34  117 1  
   117   35  118 1  
   118   36  119 1  
   119   36  120 1  
   120   39  121 1  
   121   40  122 1  
   122   43  123 1  
   123   43  124 1  
   124   44  125 1  
   125   44  126 1  
   126   45  127 1  
   127   45  128 1  
   128   46  129 1  
   129   48  130 1  
   130   48  131 1  
   131   49  132 1  
   132   49  133 1  
   133   50  134 1  
   134   51  135 1  
   135   54  136 1  
   136   54  137 1  
   137   54  138 1  
   138   55  139 1  
   139   56  140 1  
   140   59  141 1  
   141   59  142 1  
   142   60  143 1  
   143   60  144 1  
   144   60  145 1  
   145   61  146 1  
   146   62  147 1  
   147   65  148 1  
   148   65  149 1  
   149   66  150 1  
   150   66  151 1  
   151   67  152 1  
   152   67  153 1  
   153   68  154 1  
   154   68  155 1  
   155   69  156 1  
   156   69  157 1  
   157   69  158 1  
   158   70  159 1  
   159   71  160 1  
   160   74  161 1  
   161   74  162 1  
   162   74  163 1  
@<TRIPOS>SUBSTRUCTURE
     1 MET         1

