6bw3_ligand
  -I-interpret- 

162161  0  0  0  0  0  0  0  0999 V2000
   -7.5380   33.0090   -7.5110 N   0  3  0  0  0
   -8.5760   33.2540   -8.5520 C   0  0  0  0  0
   -7.8430   33.6040   -9.8140 C   0  0  0  0  0
   -7.0870   34.5500   -9.8390 O   0  0  0  0  0
   -9.5040   34.3880   -8.1560 C   0  0  0  0  0
  -10.7620   34.5240   -8.9970 C   0  0  0  0  0
  -11.4650   36.1710   -8.7060 S   0  0  0  0  0
  -13.2160   35.7910   -8.5430 C   0  0  0  0  0
   -8.0300   32.8070  -10.8510 N   0  0  0  0  0
   -7.2850   33.0130  -12.0750 C   0  0  0  0  0
   -7.9510   34.0790  -12.9260 C   0  0  0  0  0
   -9.1490   34.3040  -12.8410 O   0  0  0  0  0
   -7.0780   31.6940  -12.8400 C   0  0  0  0  0
   -8.3040   31.0350  -13.4580 C   0  0  0  0  0
   -8.0110   29.5600  -13.6680 C   0  0  0  0  0
   -8.2200   28.7900  -12.4360 N   0  0  0  0  0
   -7.7990   27.5370  -12.2210 C   0  0  0  0  0
   -8.0520   26.9440  -11.0540 N   0  0  0  0  0
   -7.1220   26.8710  -13.1420 N   0  0  0  0  0
   -7.1320   34.7530  -13.7140 N   0  0  0  0  0
   -7.5850   35.7350  -14.6710 C   0  0  0  0  0
   -7.2550   35.1590  -16.0380 C   0  0  0  0  0
   -6.0860   35.0040  -16.3710 O   0  0  0  0  0
   -6.8710   37.0820  -14.4100 C   0  0  0  0  0
   -6.6700   37.8300  -15.5970 O   0  0  0  0  0
   -8.2820   34.8300  -16.8180 N   0  0  0  0  0
   -8.0770   34.2750  -18.1720 C   0  0  0  0  0
   -7.5760   35.3550  -19.1260 C   0  0  0  0  0
   -8.0940   36.4740  -19.1090 O   0  0  0  0  0
   -9.3860   33.6810  -18.7150 C   0  0  0  0  0
   -9.8510   32.4470  -17.9520 C   0  0  0  0  0
  -11.2480   31.9790  -18.3500 C   0  0  0  0  0
  -12.3410   32.5990  -17.5180 C   0  0  0  0  0
  -13.5340   31.7220  -17.4460 N   0  3  0  0  0
   -6.5860   35.0230  -19.9580 N   0  0  0  0  0
   -6.1260   35.9390  -21.0230 C   0  0  0  0  0
   -7.2220   36.2730  -22.0430 C   0  0  0  0  0
   -8.3050   35.6930  -22.0210 O   0  0  0  0  0
   -6.9590   37.2310  -22.9260 N   0  0  0  0  0
   -7.8670   37.4900  -24.0560 C   0  0  0  0  0
   -7.4760   36.5630  -25.2230 C   0  0  0  0  0
   -6.3510   36.6110  -25.7280 O   0  0  0  0  0
   -7.8390   38.9680  -24.4710 C   0  0  0  0  0
   -8.7130   39.2610  -25.6750 C   0  0  0  0  0
   -9.0370   40.7310  -25.8530 C   0  0  0  0  0
  -10.3270   40.8750  -26.5260 N   0  0  0  0  0
  -11.5170   40.8670  -25.9220 C   0  0  0  0  0
  -11.6310   40.7350  -24.5960 N   0  0  0  0  0
  -12.6170   40.9860  -26.6630 N   0  0  0  0  0
   -8.4110   35.7160  -25.6340 N   0  0  0  0  0
   -8.1270   34.6890  -26.6220 C   0  0  0  0  0
   -8.0540   35.3190  -27.9930 C   0  0  0  0  0
   -8.8920   36.1510  -28.3390 O   0  0  0  0  0
   -9.2020   33.6270  -26.6020 C   0  0  0  0  0
   -7.0480   34.9080  -28.7530 N   0  0  0  0  0
   -6.8610   35.2910  -30.1410 C   0  0  0  0  0
   -7.1040   34.0690  -31.0570 C   0  0  0  0  0
   -6.5930   32.9680  -30.7890 O   0  0  0  0  0
   -5.4380   35.8340  -30.3140 C   0  0  0  0  0
   -5.1170   37.0140  -29.3980 C   0  0  0  0  0
   -7.8860   34.2680  -32.1250 N   0  0  0  0  0
   -8.1430   33.2340  -33.1600 C   0  0  0  0  0
   -6.9090   32.9730  -34.0320 C   0  0  0  0  0
   -5.9890   33.7780  -34.0470 O   0  0  0  0  0
   -9.3150   33.6720  -34.0500 C   0  0  0  0  0
   -9.8880   32.6270  -34.9880 C   0  0  0  0  0
  -11.1490   33.1440  -35.6600 C   0  0  0  0  0
  -11.6550   32.1890  -36.7300 C   0  0  0  0  0
  -13.1330   32.2960  -36.9210 N   0  3  0  0  0
   -6.8960   31.8290  -34.7190 N   0  0  0  0  0
   -5.8770   31.4210  -35.7150 C   0  0  0  0  0
   -4.6370   30.8250  -35.0560 C   0  0  0  0  0
   -4.0700   29.8400  -35.5450 O   0  0  0  0  0
   -5.4940   32.5500  -36.6740 C   0  0  0  0  0
   -4.1730   31.3140  -34.0190 O   0  0  0  0  0
   -6.9337   32.2431   -7.8087 H   0  0  0  0  0
   -6.9805   33.8535   -7.3831 H   0  0  0  0  0
   -7.9919   32.7633   -6.6312 H   0  0  0  0  0
   -9.1984   32.3685   -8.6806 H   0  0  0  0  0
   -8.9404   35.3117   -8.2871 H   0  0  0  0  0
   -9.8314   34.1810   -7.1372 H   0  0  0  0  0
  -11.4828   33.7550   -8.7192 H   0  0  0  0  0
  -10.5213   34.4011  -10.0530 H   0  0  0  0  0
  -13.5727   35.3260   -9.4621 H   0  0  0  0  0
  -13.3616   35.1061   -7.7076 H   0  0  0  0  0
  -13.7708   36.7114   -8.3609 H   0  0  0  0  0
   -8.7026   32.0427  -10.7889 H   0  0  0  0  0
   -6.2895   33.3743  -11.8170 H   0  0  0  0  0
   -6.7057   30.9837  -12.1018 H   0  0  0  0  0
   -6.4262   31.9416  -13.6778 H   0  0  0  0  0
   -8.5351   31.5060  -14.4134 H   0  0  0  0  0
   -9.1607   31.1512  -12.7941 H   0  0  0  0  0
   -6.9687   29.4542  -13.9689 H   0  0  0  0  0
   -8.6877   29.1788  -14.4327 H   0  0  0  0  0
   -8.7288   29.2479  -11.6798 H   0  0  0  0  0
   -7.7250   25.9930  -10.8837 H   0  0  0  0  0
   -8.5725   27.4414  -10.3315 H   0  0  0  0  0
   -6.9109   27.3111  -14.0376 H   0  0  0  0  0
   -6.1309   34.5708  -13.6429 H   0  0  0  0  0
   -8.6535   35.9376  -14.5977 H   0  0  0  0  0
   -5.8932   36.8659  -13.9795 H   0  0  0  0  0
   -7.5002   37.6721  -13.7437 H   0  0  0  0  0
   -6.2255   38.6537  -15.3834 H   0  0  0  0  0
   -9.2325   34.9641  -16.4732 H   0  0  0  0  0
   -7.3278   33.4865  -18.1014 H   0  0  0  0  0
   -9.2080   33.3816  -19.7479 H   0  0  0  0  0
  -10.1598   34.4419  -18.6132 H   0  0  0  0  0
   -9.8806   32.7068  -16.8938 H   0  0  0  0  0
   -9.1563   31.6386  -18.1800 H   0  0  0  0  0
  -11.2902   30.9002  -18.2001 H   0  0  0  0  0
  -11.4130   32.2751  -19.3859 H   0  0  0  0  0
  -12.6334   33.5419  -17.9800 H   0  0  0  0  0
  -11.9619   32.7493  -16.5072 H   0  0  0  0  0
  -14.2512   32.1717  -16.8770 H   0  0  0  0  0
  -13.8948   31.5629  -18.3867 H   0  0  0  0  0
  -13.2739   30.8301  -17.0250 H   0  0  0  0  0
   -6.1354   34.1136  -19.8561 H   0  0  0  0  0
   -5.3148   35.4449  -21.5578 H   0  0  0  0  0
   -5.8192   36.8713  -20.5488 H   0  0  0  0  0
   -6.1159   37.7950  -22.8193 H   0  0  0  0  0
   -8.8927   37.2763  -23.7555 H   0  0  0  0  0
   -6.8122   39.2193  -24.7366 H   0  0  0  0  0
   -8.2177   39.5554  -23.6345 H   0  0  0  0  0
   -9.6566   38.7359  -25.5270 H   0  0  0  0  0
   -8.1646   38.9396  -26.5605 H   0  0  0  0  0
   -8.2607   41.2009  -26.4568 H   0  0  0  0  0
   -9.0846   41.2108  -24.8754 H   0  0  0  0  0
  -10.3166   40.9910  -27.5393 H   0  0  0  0  0
  -12.5539   40.7262  -24.1618 H   0  0  0  0  0
  -10.7950   40.6431  -24.0189 H   0  0  0  0  0
  -12.5419   41.0813  -27.6758 H   0  0  0  0  0
   -9.3520   35.7875  -25.2470 H   0  0  0  0  0
   -7.1721   34.2206  -26.3835 H   0  0  0  0  0
   -9.2400   33.1688  -25.6137 H   0  0  0  0  0
  -10.1655   34.0828  -26.8298 H   0  0  0  0  0
   -8.9731   32.8660  -27.3481 H   0  0  0  0  0
   -6.3602   34.2815  -28.3349 H   0  0  0  0  0
   -7.5737   36.0674  -30.4192 H   0  0  0  0  0
   -5.3448   36.1840  -31.3421 H   0  0  0  0  0
   -4.7483   35.0283  -30.0624 H   0  0  0  0  0
   -5.8057   37.8326  -29.6072 H   0  0  0  0  0
   -5.2235   36.7046  -28.3583 H   0  0  0  0  0
   -4.0936   37.3437  -29.5774 H   0  0  0  0  0
   -8.3298   35.1799  -32.2341 H   0  0  0  0  0
   -8.3883   32.3061  -32.6434 H   0  0  0  0  0
   -8.9265   34.4661  -34.6876 H   0  0  0  0  0
  -10.1237   33.9399  -33.3700 H   0  0  0  0  0
  -10.1351   31.7345  -34.4132 H   0  0  0  0  0
   -9.1482   32.3976  -35.7549 H   0  0  0  0  0
  -10.9164   34.0969  -36.1353 H   0  0  0  0  0
  -11.9235   33.2464  -34.8999 H   0  0  0  0  0
  -11.4245   31.1712  -36.4154 H   0  0  0  0  0
  -11.1699   32.4443  -37.6721 H   0  0  0  0  0
  -13.4294   31.6410  -37.6446 H   0  0  0  0  0
  -13.6049   32.0728  -36.0447 H   0  0  0  0  0
  -13.3701   33.2469  -37.2037 H   0  0  0  0  0
   -7.6581   31.1746  -34.5422 H   0  0  0  0  0
   -6.3479   30.6408  -36.3131 H   0  0  0  0  0
   -4.5332   29.5678  -36.3406 H   0  0  0  0  0
   -6.3790   32.8775  -37.2195 H   0  0  0  0  0
   -5.0863   33.3856  -36.1051 H   0  0  0  0  0
   -4.7448   32.1883  -37.3782 H   0  0  0  0  0
  1  2  1  0  0  0
  2  3  1  0  0  0
  2  5  1  0  0  0
  3  4  2  0  0  0
  3  9  1  0  0  0
  5  6  1  0  0  0
  6  7  1  0  0  0
  7  8  1  0  0  0
  9 10  1  0  0  0
 10 11  1  0  0  0
 10 13  1  0  0  0
 11 12  2  0  0  0
 11 20  1  0  0  0
 13 14  1  0  0  0
 14 15  1  0  0  0
 15 16  1  0  0  0
 16 17  1  0  0  0
 17 18  1  0  0  0
 17 19  2  0  0  0
 20 21  1  0  0  0
 21 22  1  0  0  0
 21 24  1  0  0  0
 22 23  2  0  0  0
 22 26  1  0  0  0
 24 25  1  0  0  0
 26 27  1  0  0  0
 27 28  1  0  0  0
 27 30  1  0  0  0
 28 29  2  0  0  0
 28 35  1  0  0  0
 30 31  1  0  0  0
 31 32  1  0  0  0
 32 33  1  0  0  0
 33 34  1  0  0  0
 35 36  1  0  0  0
 36 37  1  0  0  0
 37 38  2  0  0  0
 37 39  1  0  0  0
 39 40  1  0  0  0
 40 41  1  0  0  0
 40 43  1  0  0  0
 41 42  2  0  0  0
 41 50  1  0  0  0
 43 44  1  0  0  0
 44 45  1  0  0  0
 45 46  1  0  0  0
 46 47  1  0  0  0
 47 48  1  0  0  0
 47 49  2  0  0  0
 50 51  1  0  0  0
 51 52  1  0  0  0
 51 54  1  0  0  0
 52 53  2  0  0  0
 52 55  1  0  0  0
 55 56  1  0  0  0
 56 57  1  0  0  0
 56 59  1  0  0  0
 57 58  2  0  0  0
 57 61  1  0  0  0
 59 60  1  0  0  0
 61 62  1  0  0  0
 62 63  1  0  0  0
 62 65  1  0  0  0
 63 64  2  0  0  0
 63 70  1  0  0  0
 65 66  1  0  0  0
 66 67  1  0  0  0
 67 68  1  0  0  0
 68 69  1  0  0  0
 70 71  1  0  0  0
 71 72  1  0  0  0
 71 74  1  0  0  0
 72 73  1  0  0  0
 72 75  2  0  0  0
  1 76  1  0  0  0
  1 77  1  0  0  0
  1 78  1  0  0  0
  2 79  1  0  0  0
  5 80  1  0  0  0
  5 81  1  0  0  0
  6 82  1  0  0  0
  6 83  1  0  0  0
  8 84  1  0  0  0
  8 85  1  0  0  0
  8 86  1  0  0  0
  9 87  1  0  0  0
 10 88  1  0  0  0
 13 89  1  0  0  0
 13 90  1  0  0  0
 14 91  1  0  0  0
 14 92  1  0  0  0
 15 93  1  0  0  0
 15 94  1  0  0  0
 16 95  1  0  0  0
 18 96  1  0  0  0
 18 97  1  0  0  0
 19 98  1  0  0  0
 20 99  1  0  0  0
 21100  1  0  0  0
 24101  1  0  0  0
 24102  1  0  0  0
 25103  1  0  0  0
 26104  1  0  0  0
 27105  1  0  0  0
 30106  1  0  0  0
 30107  1  0  0  0
 31108  1  0  0  0
 31109  1  0  0  0
 32110  1  0  0  0
 32111  1  0  0  0
 33112  1  0  0  0
 33113  1  0  0  0
 34114  1  0  0  0
 34115  1  0  0  0
 34116  1  0  0  0
 35117  1  0  0  0
 36118  1  0  0  0
 36119  1  0  0  0
 39120  1  0  0  0
 40121  1  0  0  0
 43122  1  0  0  0
 43123  1  0  0  0
 44124  1  0  0  0
 44125  1  0  0  0
 45126  1  0  0  0
 45127  1  0  0  0
 46128  1  0  0  0
 48129  1  0  0  0
 48130  1  0  0  0
 49131  1  0  0  0
 50132  1  0  0  0
 51133  1  0  0  0
 54134  1  0  0  0
 54135  1  0  0  0
 54136  1  0  0  0
 55137  1  0  0  0
 56138  1  0  0  0
 59139  1  0  0  0
 59140  1  0  0  0
 60141  1  0  0  0
 60142  1  0  0  0
 60143  1  0  0  0
 61144  1  0  0  0
 62145  1  0  0  0
 65146  1  0  0  0
 65147  1  0  0  0
 66148  1  0  0  0
 66149  1  0  0  0
 67150  1  0  0  0
 67151  1  0  0  0
 68152  1  0  0  0
 68153  1  0  0  0
 69154  1  0  0  0
 69155  1  0  0  0
 69156  1  0  0  0
 70157  1  0  0  0
 71158  1  0  0  0
 73159  1  0  0  0
 74160  1  0  0  0
 74161  1  0  0  0
 74162  1  0  0  0
M  END
$$$$
