1ce5_ligand
  -I-interpret- 

 17 17  0  0  0  0  0  0  0  0999 V2000
   12.1120   28.6310   26.2150 C   0  0  0  0  0
   11.4070   27.9480   27.3430 C   0  0  0  0  0
   11.2570   28.5920   28.6550 C   0  0  0  0  0
   11.7440   29.9650   28.8500 C   0  0  0  0  0
   12.3900   30.6870   27.7570 C   0  0  0  0  0
   12.6160   30.0160   26.4740 C   0  0  0  0  0
   12.3530   27.9680   24.9490 C   0  0  0  0  0
   12.7630   28.6000   23.8250 N   0  0  0  0  0
   12.1920   26.6400   24.7490 N   0  0  0  0  0
   10.9954   26.9506   27.1885 H   0  0  0  0  0
   10.7873   28.0547   29.4789 H   0  0  0  0  0
   11.6219   30.4488   29.8191 H   0  0  0  0  0
   12.7031   31.7219   27.8952 H   0  0  0  0  0
   13.1642   30.5381   25.6898 H   0  0  0  0  0
   12.9115   28.0692   22.9667 H   0  0  0  0  0
   12.9236   29.6072   23.8360 H   0  0  0  0  0
   12.3775   26.2363   23.8308 H   0  0  0  0  0
  1  7  1  0  0  0
  1  6  4  0  0  0
  1  2  4  0  0  0
  2  3  4  0  0  0
  3  4  4  0  0  0
  4  5  4  0  0  0
  5  6  4  0  0  0
  7  9  2  0  0  0
  7  8  1  0  0  0
  2 10  1  0  0  0
  3 11  1  0  0  0
  4 12  1  0  0  0
  5 13  1  0  0  0
  6 14  1  0  0  0
  8 15  1  0  0  0
  8 16  1  0  0  0
  9 17  1  0  0  0
M  END
$$$$
