6plf_ligand
  -I-interpret- 

 52 55  0  0  0  0  0  0  0  0999 V2000
   15.8620   24.6460  -11.1460 C   0  0  0  0  0
   14.7840   24.1690  -12.1080 C   0  0  0  0  0
   15.5750   24.0820   -9.7700 C   0  0  0  0  0
   15.0110   25.7020   -7.9920 C   0  0  0  0  0
   15.4060   25.1560   -6.7800 C   0  0  0  0  0
   14.7420   27.0000   -8.1470 C   0  0  0  0  0
   14.8280   27.8000   -7.0720 C   0  0  0  0  0
   15.2120   27.2730   -5.8470 C   0  0  0  0  0
   15.5390   25.9300   -5.6920 C   0  0  0  0  0
   14.9020   29.4480   -5.6900 C   0  0  0  0  0
   15.3050   28.3280   -5.0020 C   0  0  0  0  0
   14.8420   30.7910   -5.1470 C   0  0  0  0  0
   15.3800   32.2620   -3.3050 C   0  0  0  0  0
   14.0730   32.3750   -2.5790 C   0  0  0  0  0
   13.6310   31.2610   -1.8450 C   0  0  0  0  0
   12.4430   31.3000   -1.1480 C   0  0  0  0  0
   11.6480   32.4460   -1.1020 C   0  0  0  0  0
    9.4220   33.1200   -0.8600 O   0  0  0  0  0
   10.3360   32.4500   -0.2810 C   0  0  0  0  0
   10.1630   31.8550    0.9050 O   0  0  0  0  0
   12.0710   33.5710   -1.8680 C   0  0  0  0  0
   13.2550   33.5190   -2.6200 C   0  0  0  0  0
   16.4520   32.2530   -2.2250 C   0  0  0  0  0
   17.7520   32.2520   -2.8180 O   0  0  0  0  0
   15.4380   30.9800   -4.0090 N   0  0  0  0  0
   14.3390   31.6630   -5.8450 O   0  0  0  0  0
   15.7030   23.3890   -6.7610 Cl  0  0  0  0  0
   14.6230   29.1530   -6.9730 N   0  0  0  0  0
   14.7590   25.0210   -9.1380 O   0  0  0  0  0
   15.4250   22.9290  -12.5400 N   0  0  0  0  0
   17.0910   24.0090  -11.4460 O   0  0  0  0  0
   16.7270   22.8970  -12.3100 C   0  0  0  0  0
   17.5610   22.1160  -12.7710 O   0  0  0  0  0
   15.8910   25.7339  -11.2078 H   0  0  0  0  0
   14.5282   24.8658  -12.9062 H   0  0  0  0  0
   13.7894   24.0555  -11.6767 H   0  0  0  0  0
   16.4950   23.9146   -9.2098 H   0  0  0  0  0
   15.0859   23.1100   -9.8336 H   0  0  0  0  0
   14.4599   27.4002   -9.1208 H   0  0  0  0  0
   15.8842   25.5284   -4.7393 H   0  0  0  0  0
   15.6388   28.2948   -3.9649 H   0  0  0  0  0
   15.5083   33.0729   -4.0220 H   0  0  0  0  0
   14.2358   30.3544   -1.8268 H   0  0  0  0  0
   12.1138   30.4076   -0.6158 H   0  0  0  0  0
   10.9731   31.4062    1.1578 H   0  0  0  0  0
   11.4696   34.4800   -1.8699 H   0  0  0  0  0
   13.5422   34.3691   -3.2388 H   0  0  0  0  0
   16.3373   31.3558   -1.6167 H   0  0  0  0  0
   16.3429   33.1445   -1.6074 H   0  0  0  0  0
   18.4179   32.2463   -2.1265 H   0  0  0  0  0
   15.9630   30.2110   -3.5926 H   0  0  0  0  0
   14.9164   22.1607  -12.9776 H   0  0  0  0  0
  1  2  1  0  0  0
  3  1  1  0  0  0
  1 31  1  0  0  0
  2 30  1  0  0  0
 29  3  1  0  0  0
  4  5  4  0  0  0
  6  4  4  0  0  0
  4 29  1  0  0  0
  9  5  4  0  0  0
  5 27  1  0  0  0
  7  6  4  0  0  0
  7  8  4  0  0  0
 28  7  4  0  0  0
  8  9  4  0  0  0
 11  8  4  0  0  0
 10 11  4  0  0  0
 12 10  1  0  0  0
 10 28  4  0  0  0
 25 12  1  0  0  0
 12 26  2  0  0  0
 13 14  1  0  0  0
 13 23  1  0  0  0
 13 25  1  0  0  0
 14 15  4  0  0  0
 14 22  4  0  0  0
 15 16  4  0  0  0
 16 17  4  0  0  0
 17 19  1  0  0  0
 17 21  4  0  0  0
 19 18  2  0  0  0
 19 20  1  0  0  0
 21 22  4  0  0  0
 23 24  1  0  0  0
 30 32  1  0  0  0
 31 32  1  0  0  0
 32 33  2  0  0  0
  1 34  1  0  0  0
  2 35  1  0  0  0
  2 36  1  0  0  0
  3 37  1  0  0  0
  3 38  1  0  0  0
  6 39  1  0  0  0
  9 40  1  0  0  0
 11 41  1  0  0  0
 13 42  1  0  0  0
 15 43  1  0  0  0
 16 44  1  0  0  0
 20 45  1  0  0  0
 21 46  1  0  0  0
 22 47  1  0  0  0
 23 48  1  0  0  0
 23 49  1  0  0  0
 24 50  1  0  0  0
 25 51  1  0  0  0
 30 52  1  0  0  0
M  END
$$$$
