1nw4_ligand
  -I-interpret- 

 33 35  0  0  0  0  0  0  0  0999 V2000
    7.4180    1.1570   94.6480 O   0  0  0  0  0
    8.6520    1.3670   93.9700 C   0  0  0  0  0
    8.3860    1.3530   92.5090 C   0  0  0  0  0
    7.4440    2.3560   92.1400 N   0  3  0  0  0
    9.6400    1.6000   91.7260 C   0  0  0  0  0
    9.5810    0.7130   90.6020 O   0  0  0  0  0
    9.5160    3.0410   91.3480 C   0  0  0  0  0
    9.9980    3.2540   90.0160 O   0  0  0  0  0
    8.0360    3.4550   91.4630 C   0  0  0  0  0
    7.8230    4.6840   92.3660 C   0  0  0  0  0
    6.5780    5.1940   92.7270 C   0  0  0  0  0
    6.6120    6.2500   93.5050 N   0  0  0  0  0
    7.9650    6.4990   93.7090 C   0  0  0  0  0
    8.6010    7.5390   94.4790 C   0  0  0  0  0
    8.0430    8.4320   95.1270 O   0  0  0  0  0
   10.0110    7.4730   94.4520 N   0  0  0  0  0
   10.7440    6.5040   93.7530 C   0  0  0  0  0
   10.1430    5.5140   93.0180 N   0  0  0  0  0
    8.7460    5.5570   93.0250 C   0  0  0  0  0
    7.5700    1.1628   95.5959 H   0  0  0  0  0
    9.3611    0.5809   94.2296 H   0  0  0  0  0
    9.0830    2.3242   94.2636 H   0  0  0  0  0
    7.9870    0.3646   92.2812 H   0  0  0  0  0
    7.0193    2.7121   92.9963 H   0  0  0  0  0
    6.7690    1.9287   91.5058 H   0  0  0  0  0
   10.5879    1.4222   92.2339 H   0  0  0  0  0
    9.6656   -0.1935   90.9064 H   0  0  0  0  0
   10.1196    3.6509   92.0202 H   0  0  0  0  0
   10.9198    2.9907   89.9645 H   0  0  0  0  0
    7.6331    3.6981   90.4798 H   0  0  0  0  0
    5.6431    4.7480   92.3877 H   0  0  0  0  0
   10.5308    8.1771   94.9759 H   0  0  0  0  0
   11.8326    6.5385   93.7951 H   0  0  0  0  0
  1  2  1  0  0  0
  2  3  1  0  0  0
  3  4  1  0  0  0
  3  5  1  0  0  0
  4  9  1  0  0  0
  5  6  1  0  0  0
  5  7  1  0  0  0
  7  8  1  0  0  0
  7  9  1  0  0  0
  9 10  1  0  0  0
 10 11  4  0  0  0
 10 19  4  0  0  0
 11 12  4  0  0  0
 12 13  4  0  0  0
 13 14  1  0  0  0
 13 19  4  0  0  0
 14 15  2  0  0  0
 14 16  1  0  0  0
 16 17  1  0  0  0
 17 18  2  0  0  0
 18 19  1  0  0  0
  1 20  1  0  0  0
  2 21  1  0  0  0
  2 22  1  0  0  0
  3 23  1  0  0  0
  4 24  1  0  0  0
  4 25  1  0  0  0
  5 26  1  0  0  0
  6 27  1  0  0  0
  7 28  1  0  0  0
  8 29  1  0  0  0
  9 30  1  0  0  0
 11 31  1  0  0  0
 16 32  1  0  0  0
 17 33  1  0  0  0
M  END
$$$$
