3nf9_ligand
  -I-interpret- 

 36 39  0  0  0  0  0  0  0  0999 V2000
    5.1390  -28.4940   -8.6980 C   0  0  0  0  0
    6.2940  -29.1410   -9.1080 C   0  0  0  0  0
    7.4010  -28.4150   -9.4720 C   0  0  0  0  0
    7.3070  -27.0480   -9.4030 C   0  0  0  0  0
    6.1790  -26.3910   -8.9900 C   0  0  0  0  0
    5.0650  -27.1140   -8.6320 C   0  0  0  0  0
    6.3940  -24.9210   -9.0520 C   0  0  0  0  0
    7.8180  -24.8460   -9.5740 C   0  0  0  0  0
    8.4210  -23.8110   -9.8150 O   0  0  0  0  0
    8.2980  -26.1340   -9.7360 N   0  0  0  0  0
    9.6410  -26.5540  -10.0310 C   0  0  0  0  0
    9.9640  -26.6670  -11.4910 C   0  0  0  0  0
    8.9830  -26.9030  -12.4460 C   0  0  0  0  0
    9.2770  -27.0280  -13.8040 C   0  0  0  0  0
   10.5930  -26.9000  -14.2130 C   0  0  0  0  0
   11.5640  -26.6620  -13.2950 C   0  0  0  0  0
   11.2730  -26.5490  -11.9460 C   0  0  0  0  0
   12.4060  -26.3260  -11.0540 C   0  0  0  0  0
   13.3760  -25.7110  -11.5820 O   0  0  0  0  0
   12.2840  -26.8520   -9.8970 O   0  0  0  0  0
   12.8130  -26.5520  -13.8620 O   0  0  0  0  0
   12.4880  -26.5960  -15.2700 C   0  0  0  0  0
   11.1210  -26.9710  -15.5060 O   0  0  0  0  0
    6.4570  -30.8750   -9.1990 Cl  0  0  0  0  0
    4.2674  -29.0869   -8.4207 H   0  0  0  0  0
    8.3171  -28.9047   -9.8023 H   0  0  0  0  0
    4.1522  -26.6152   -8.3064 H   0  0  0  0  0
    6.2526  -24.4183   -8.0953 H   0  0  0  0  0
    5.6709  -24.4000   -9.6795 H   0  0  0  0  0
    9.7598  -27.5501   -9.6046 H   0  0  0  0  0
   10.3056  -25.7942   -9.6198 H   0  0  0  0  0
    7.9461  -26.9938  -12.1225 H   0  0  0  0  0
    8.4861  -27.2226  -14.5284 H   0  0  0  0  0
   11.4113  -27.2436   -9.8151 H   0  0  0  0  0
   13.1282  -27.3423  -15.7404 H   0  0  0  0  0
   12.6397  -25.5984  -15.6822 H   0  0  0  0  0
  1  2  4  0  0  0
  1  6  4  0  0  0
  2  3  4  0  0  0
  2 24  1  0  0  0
  3  4  4  0  0  0
  4  5  4  0  0  0
  4 10  1  0  0  0
  5  6  4  0  0  0
  5  7  1  0  0  0
  7  8  1  0  0  0
  8  9  2  0  0  0
  8 10  1  0  0  0
 10 11  1  0  0  0
 11 12  1  0  0  0
 12 13  4  0  0  0
 12 17  4  0  0  0
 13 14  4  0  0  0
 14 15  4  0  0  0
 15 16  4  0  0  0
 15 23  1  0  0  0
 16 17  4  0  0  0
 16 21  1  0  0  0
 17 18  1  0  0  0
 18 19  2  0  0  0
 18 20  1  0  0  0
 21 22  1  0  0  0
 22 23  1  0  0  0
  1 25  1  0  0  0
  3 26  1  0  0  0
  6 27  1  0  0  0
  7 28  1  0  0  0
  7 29  1  0  0  0
 11 30  1  0  0  0
 11 31  1  0  0  0
 13 32  1  0  0  0
 14 33  1  0  0  0
 20 34  1  0  0  0
 22 35  1  0  0  0
 22 36  1  0  0  0
M  END
$$$$
