5hcy_ligand
  -I-interpret- 

 69 74  0  0  0  0  0  0  0  0999 V2000
  -55.4040    1.0340  -24.4270 C   0  0  0  0  0
  -51.4200   -0.3610  -19.2420 C   0  0  0  0  0
  -52.2210    0.6080  -18.7020 C   0  0  0  0  0
  -53.1070    1.0580  -19.7980 C   0  0  0  0  0
  -52.7220    0.3230  -20.9520 C   0  0  0  0  0
  -53.4010    0.5760  -22.1550 C   0  0  0  0  0
  -54.4510    1.5030  -22.1580 C   0  0  0  0  0
  -54.1310    2.0030  -19.9050 C   0  0  0  0  0
  -51.7140   -2.8220  -21.4320 C   0  0  0  0  0
  -49.5200   -1.5660  -21.3380 C   0  0  0  0  0
  -51.0370   -1.4500  -21.5160 C   0  0  0  0  0
  -51.6890   -0.5140  -20.5780 N   0  0  0  0  0
  -54.7530    2.1950  -21.0590 N   0  0  0  0  0
  -55.1990    1.8180  -23.3040 N   0  0  0  0  0
  -56.6300    1.1430  -25.1010 C   0  0  0  0  0
  -56.8150    0.3760  -26.2470 C   0  0  0  0  0
  -55.8400   -0.4380  -26.6540 N   0  0  0  0  0
  -54.6730   -0.5160  -26.0100 C   0  0  0  0  0
  -54.4530    0.2190  -24.9160 N   0  0  0  0  0
  -53.6350   -1.4670  -26.4730 C   0  0  0  0  0
  -53.4880   -2.0310  -27.7580 C   0  0  0  0  0
  -52.4710   -2.8490  -27.7270 N   0  0  0  0  0
  -51.9290   -2.8520  -26.4320 N   0  0  0  0  0
  -52.6670   -2.0110  -25.6830 C   0  0  0  0  0
  -50.6590   -3.7890  -25.8720 S   0  0  0  0  0
  -49.8760   -4.0330  -27.0380 O   0  0  0  0  0
  -50.1330   -3.0770  -24.7500 O   0  0  0  0  0
  -51.4560   -5.3360  -25.3260 C   0  0  0  0  0
  -50.5490   -6.5070  -24.9380 C   0  0  0  0  0
  -51.3340   -5.7570  -23.8620 C   0  0  0  0  0
  -52.2560    1.0830  -17.3040 C   0  0  0  0  0
  -52.8540    2.1130  -17.0150 O   0  0  0  0  0
  -51.6070    0.3820  -16.3460 N   0  0  0  0  0
  -51.6430    0.7840  -14.9400 C   0  0  0  0  0
  -52.7490   -0.0720  -14.2860 C   0  0  0  0  0
  -52.7930    0.1860  -12.7750 C   0  0  0  0  0
  -51.4930   -0.1200  -12.2500 O   0  0  0  0  0
  -50.4070    0.6810  -12.7640 C   0  0  0  0  0
  -50.2800    0.5120  -14.2890 C   0  0  0  0  0
  -50.6736   -0.9308  -18.6885 H   0  0  0  0  0
  -53.1156    0.0594  -23.0714 H   0  0  0  0  0
  -54.4205    2.5872  -19.0315 H   0  0  0  0  0
  -51.3206   -3.4685  -22.2165 H   0  0  0  0  0
  -51.5116   -3.2666  -20.4576 H   0  0  0  0  0
  -52.7897   -2.7035  -21.5624 H   0  0  0  0  0
  -49.3021   -2.0017  -20.3629 H   0  0  0  0  0
  -49.1112   -2.2036  -22.1218 H   0  0  0  0  0
  -49.0710   -0.5749  -21.4030 H   0  0  0  0  0
  -51.1695   -1.0323  -22.5141 H   0  0  0  0  0
  -55.6453    2.7352  -23.3100 H   0  0  0  0  0
  -57.4134    1.8082  -24.7378 H   0  0  0  0  0
  -57.7480    0.4398  -26.8069 H   0  0  0  0  0
  -54.1141   -1.8205  -28.6250 H   0  0  0  0  0
  -52.5158   -1.8009  -24.6242 H   0  0  0  0  0
  -52.2905   -5.1915  -26.0122 H   0  0  0  0  0
  -49.5294   -6.8470  -25.1193 H   0  0  0  0  0
  -50.3632   -7.5354  -25.2478 H   0  0  0  0  0
  -51.9885   -5.9849  -23.0207 H   0  0  0  0  0
  -51.1523   -5.2946  -22.8918 H   0  0  0  0  0
  -51.0784   -0.4491  -16.6112 H   0  0  0  0  0
  -51.8504    1.8474  -14.8202 H   0  0  0  0  0
  -52.5358   -1.1263  -14.4622 H   0  0  0  0  0
  -53.7118    0.1946  -14.7220 H   0  0  0  0  0
  -53.5524   -0.4372  -12.3027 H   0  0  0  0  0
  -53.0523    1.2251  -12.5720 H   0  0  0  0  0
  -49.4778    0.3571  -12.2951 H   0  0  0  0  0
  -50.6063    1.7292  -12.5412 H   0  0  0  0  0
  -49.5423    1.2152  -14.6755 H   0  0  0  0  0
  -49.9598   -0.5040  -14.5198 H   0  0  0  0  0
 14  1  1  0  0  0
  1 15  4  0  0  0
  1 19  4  0  0  0
  2  3  4  0  0  0
 12  2  4  0  0  0
  4  3  4  0  0  0
  3 31  1  0  0  0
  5  4  4  0  0  0
  4  8  4  0  0  0
  5  6  4  0  0  0
 12  5  4  0  0  0
  6  7  4  0  0  0
  7 13  4  0  0  0
  7 14  1  0  0  0
  8 13  4  0  0  0
 11  9  1  0  0  0
 11 10  1  0  0  0
 11 12  1  0  0  0
 15 16  4  0  0  0
 16 17  4  0  0  0
 17 18  4  0  0  0
 18 19  4  0  0  0
 18 20  1  0  0  0
 20 21  4  0  0  0
 20 24  4  0  0  0
 21 22  4  0  0  0
 22 23  4  0  0  0
 23 24  4  0  0  0
 23 25  1  0  0  0
 25 26  2  0  0  0
 25 27  2  0  0  0
 25 28  1  0  0  0
 28 29  1  0  0  0
 28 30  1  0  0  0
 29 30  1  0  0  0
 31 32  2  0  0  0
 31 33  1  0  0  0
 33 34  1  0  0  0
 34 35  1  0  0  0
 34 39  1  0  0  0
 35 36  1  0  0  0
 36 37  1  0  0  0
 37 38  1  0  0  0
 38 39  1  0  0  0
  2 40  1  0  0  0
  6 41  1  0  0  0
  8 42  1  0  0  0
  9 43  1  0  0  0
  9 44  1  0  0  0
  9 45  1  0  0  0
 10 46  1  0  0  0
 10 47  1  0  0  0
 10 48  1  0  0  0
 11 49  1  0  0  0
 14 50  1  0  0  0
 15 51  1  0  0  0
 16 52  1  0  0  0
 21 53  1  0  0  0
 24 54  1  0  0  0
 28 55  1  0  0  0
 29 56  1  0  0  0
 29 57  1  0  0  0
 30 58  1  0  0  0
 30 59  1  0  0  0
 33 60  1  0  0  0
 34 61  1  0  0  0
 35 62  1  0  0  0
 35 63  1  0  0  0
 36 64  1  0  0  0
 36 65  1  0  0  0
 38 66  1  0  0  0
 38 67  1  0  0  0
 39 68  1  0  0  0
 39 69  1  0  0  0
M  END
$$$$
