4p75_ligand
  -I-interpret- 

 25 26  0  0  0  0  0  0  0  0999 V2000
   44.7090   23.5170   23.3690 C   0  0  0  0  0
   43.4040   23.5550   23.8540 C   0  0  0  0  0
   42.3580   23.2520   22.9960 C   0  0  0  0  0
   44.1940   22.3610   19.8310 C   0  0  0  0  0
   43.3740   22.2230   18.7300 C   0  0  0  0  0
   44.2210   21.7910   17.6870 C   0  0  0  0  0
   43.8720   21.4910   16.2760 C   0  0  0  0  0
   43.4950   20.2480   16.1200 F   0  0  0  0  0
   42.8750   22.2380   15.8500 F   0  0  0  0  0
   44.9060   21.6540   15.4490 F   0  0  0  0  0
   45.4800   21.6670   18.1070 N   0  0  0  0  0
   45.4310   22.0120   19.4210 N   0  0  0  0  0
   43.9140   22.8140   21.2080 C   0  0  0  0  0
   42.6080   22.8920   21.6810 C   0  0  0  0  0
   44.9690   23.1410   22.0580 C   0  0  0  0  0
   45.8300   23.9030   24.0580 O   0  0  0  0  0
   45.6590   24.4380   25.3710 C   0  0  0  0  0
   43.2079   23.8192   24.8932 H   0  0  0  0  0
   41.3310   23.2972   23.3583 H   0  0  0  0  0
   42.3011   22.4081   18.6770 H   0  0  0  0  0
   41.7760   22.6686   21.0132 H   0  0  0  0  0
   45.9958   23.1016   21.6944 H   0  0  0  0  0
   45.0358   25.3308   25.3198 H   0  0  0  0  0
   45.1781   23.6935   26.0055 H   0  0  0  0  0
   46.6330   24.6966   25.7863 H   0  0  0  0  0
  2  1  4  0  0  0
  1 15  4  0  0  0
  1 16  1  0  0  0
  3  2  4  0  0  0
 14  3  4  0  0  0
  4  5  4  0  0  0
  4 12  4  0  0  0
 13  4  1  0  0  0
  5  6  4  0  0  0
  6  7  1  0  0  0
 11  6  4  0  0  0
  7  8  1  0  0  0
  7  9  1  0  0  0
  7 10  1  0  0  0
 12 11  4  0  0  0
 13 14  4  0  0  0
 13 15  4  0  0  0
 16 17  1  0  0  0
  2 18  1  0  0  0
  3 19  1  0  0  0
  5 20  1  0  0  0
 14 21  1  0  0  0
 15 22  1  0  0  0
 17 23  1  0  0  0
 17 24  1  0  0  0
 17 25  1  0  0  0
M  END
$$$$
