3f38_ligand
  -I-interpret- 

 19 19  0  0  0  0  0  0  0  0999 V2000
   31.3580   -0.0500   34.9490 C   0  0  0  0  0
   32.7790   -0.0870   35.5060 C   0  0  0  0  0
   32.9720   -0.1640   36.8760 C   0  0  0  0  0
   34.2570   -0.2010   37.3960 C   0  0  0  0  0
   35.3520   -0.1570   36.5410 C   0  0  0  0  0
   35.1600   -0.0830   35.1600 C   0  0  0  0  0
   36.3700   -0.0350   34.2200 C   0  0  0  0  0
   33.8710   -0.0430   34.6420 C   0  0  0  0  0
   33.6600    0.0310   33.2870 O   0  0  0  0  0
   30.8293   -0.9560   35.2452 H   0  0  0  0  0
   30.8368    0.8220   35.3441 H   0  0  0  0  0
   31.3969    0.0103   33.8614 H   0  0  0  0  0
   32.1127   -0.1955   37.5458 H   0  0  0  0  0
   34.4081   -0.2645   38.4736 H   0  0  0  0  0
   36.3624   -0.1803   36.9493 H   0  0  0  0  0
   36.9730    0.8433   34.4506 H   0  0  0  0  0
   36.9698   -0.9349   34.3557 H   0  0  0  0  0
   36.0245    0.0207   33.1877 H   0  0  0  0  0
   34.5057    0.0534   32.8333 H   0  0  0  0  0
  1  2  1  0  0  0
  2  3  4  0  0  0
  2  8  4  0  0  0
  3  4  4  0  0  0
  4  5  4  0  0  0
  5  6  4  0  0  0
  6  7  1  0  0  0
  6  8  4  0  0  0
  8  9  1  0  0  0
  1 10  1  0  0  0
  1 11  1  0  0  0
  1 12  1  0  0  0
  3 13  1  0  0  0
  4 14  1  0  0  0
  5 15  1  0  0  0
  7 16  1  0  0  0
  7 17  1  0  0  0
  7 18  1  0  0  0
  9 19  1  0  0  0
M  END
$$$$
