6dhu_ligand
  -I-interpret- 

 21 21  0  0  0  0  0  0  0  0999 V2000
    6.1150  -14.3190  -33.9540 C   0  0  0  0  0
    7.2050  -13.5800  -34.3930 C   0  0  0  0  0
    7.0500  -12.0720  -34.6090 C   0  0  0  0  0
    8.4150  -14.2150  -34.6360 C   0  0  0  0  0
    9.6360  -13.4300  -35.1200 C   0  0  0  0  0
    8.5290  -15.5790  -34.4480 C   0  0  0  0  0
    6.2300  -15.6880  -33.7620 C   0  0  0  0  0
    7.6010  -17.8110  -33.8080 C   0  0  0  0  0
    7.4420  -16.3110  -34.0120 C   0  0  0  0  0
    8.5240  -18.4210  -34.4120 O   0  0  0  0  0
    6.8150  -18.4220  -33.0370 O   0  0  0  0  0
    6.3020  -11.6580  -35.5260 O   0  0  0  0  0
    7.6600  -11.2530  -33.8780 O   0  0  0  0  0
    9.5070  -12.5840  -36.0340 O   0  0  0  0  0
   10.7690  -13.6150  -34.6000 O   0  0  0  0  0
    5.1649  -13.8215  -33.7594 H   0  0  0  0  0
    9.4780  -16.0780  -34.6440 H   0  0  0  0  0
    5.3742  -16.2686  -33.4174 H   0  0  0  0  0
    9.0181  -17.7988  -34.9508 H   0  0  0  0  0
    8.1847  -11.7315  -33.2320 H   0  0  0  0  0
   10.7016  -14.2897  -33.9204 H   0  0  0  0  0
  1  2  4  0  0  0
  1  7  4  0  0  0
  2  3  1  0  0  0
  2  4  4  0  0  0
  3 12  2  0  0  0
  3 13  1  0  0  0
  4  5  1  0  0  0
  4  6  4  0  0  0
  5 14  2  0  0  0
  5 15  1  0  0  0
  6  9  4  0  0  0
  7  9  4  0  0  0
  9  8  1  0  0  0
  8 10  1  0  0  0
  8 11  2  0  0  0
  1 16  1  0  0  0
  6 17  1  0  0  0
  7 18  1  0  0  0
 10 19  1  0  0  0
 13 20  1  0  0  0
 15 21  1  0  0  0
M  END
$$$$
