3nuo_ligand
  -I-interpret- 

 70 72  0  0  0  0  0  0  0  0999 V2000
   16.6100   25.3290   19.4890 C   0  0  0  0  0
   14.6280   24.5260   20.5520 C   0  0  0  0  0
   14.4200   22.7240   18.0830 C   0  0  0  0  0
   15.2710   24.6870   19.1590 C   0  0  0  0  0
   13.8330   20.5600   17.0000 C   0  0  0  0  0
   13.4190   19.4450   17.9610 C   0  0  0  0  0
   14.5630   20.0660   15.7580 C   0  0  0  0  0
   14.9670   21.2180   14.8550 C   0  0  0  0  0
   16.2890   21.6600   14.7980 C   0  0  0  0  0
   14.0300   21.8220   14.0480 C   0  0  0  0  0
   16.6170   22.7880   14.0350 C   0  0  0  0  0
   14.3440   22.8890   13.2240 C   0  0  0  0  0
   15.6460   23.3470   13.2210 C   0  0  0  0  0
   12.3310   18.5160   17.4000 C   0  0  0  0  0
   10.0920   18.8170   18.4490 C   0  0  0  0  0
   10.4790   19.3930   19.8130 C   0  0  0  0  0
    9.5810   18.0420   15.2590 C   0  0  0  0  0
   10.2910   17.1470   14.4910 C   0  0  0  0  0
    9.7700   15.9410   14.0320 C   0  0  0  0  0
    8.4480   15.6290   14.3360 C   0  0  0  0  0
    7.6980   16.5740   15.0340 C   0  0  0  0  0
    8.2630   17.7600   15.5340 C   0  0  0  0  0
   10.4240   20.9220   19.7760 C   0  0  0  0  0
    9.4510   18.8950   20.8400 C   0  0  0  0  0
   15.7430   24.8990   21.5120 C   0  0  0  0  0
   14.7320   21.4860   17.6810 N   0  0  0  0  0
   11.0260   19.1680   17.3790 N   0  0  0  0  0
    7.9390   14.4490   13.9390 N   0  0  0  0  0
   15.4920   23.3610   18.6400 O   0  0  0  0  0
   13.2940   23.2220   18.0320 O   0  0  0  0  0
   14.5520   18.6330   18.2720 O   0  0  0  0  0
   11.4320   19.8530   14.9750 O   0  0  0  0  0
    9.2710   20.4970   16.0770 O   0  0  0  0  0
   16.9520   24.8460   20.7830 O   0  0  0  0  0
   10.3430   19.5050   15.9230 S   0  0  0  0  0
   16.5473   26.4171   19.4716 H   0  0  0  0  0
   17.3702   25.0710   18.7516 H   0  0  0  0  0
   14.2549   23.5161   20.7222 H   0  0  0  0  0
   13.7461   25.1543   20.6767 H   0  0  0  0  0
   14.6860   25.2585   18.4384 H   0  0  0  0  0
   12.9028   21.0326   16.6846 H   0  0  0  0  0
   13.0156   19.9479   18.8399 H   0  0  0  0  0
   13.8934   19.4098   15.2020 H   0  0  0  0  0
   15.4651   19.5417   16.0733 H   0  0  0  0  0
   17.0661   21.1280   15.3468 H   0  0  0  0  0
   13.0064   21.4476   14.0580 H   0  0  0  0  0
   17.6177   23.2177   14.0811 H   0  0  0  0  0
   13.5847   23.3542   12.5954 H   0  0  0  0  0
   15.9172   24.1705   12.5604 H   0  0  0  0  0
   12.2660   17.6362   18.0401 H   0  0  0  0  0
   12.5993   18.2498   16.3776 H   0  0  0  0  0
    9.1195   19.2314   18.1831 H   0  0  0  0  0
   10.0930   17.7309   18.5406 H   0  0  0  0  0
   11.4895   19.0782   20.0734 H   0  0  0  0  0
   11.3188   17.3969   14.2277 H   0  0  0  0  0
   10.3837   15.2557   13.4473 H   0  0  0  0  0
    6.6367   16.3869   15.1978 H   0  0  0  0  0
    7.6645   18.4473   16.1319 H   0  0  0  0  0
   11.1191   21.2912   19.0219 H   0  0  0  0  0
    9.4122   21.2420   19.5270 H   0  0  0  0  0
   10.7016   21.3180   20.7528 H   0  0  0  0  0
    8.4568   19.2368   20.5521 H   0  0  0  0  0
    9.4675   17.8055   20.8698 H   0  0  0  0  0
    9.7017   19.2905   21.8243 H   0  0  0  0  0
   15.7714   24.2098   22.3559 H   0  0  0  0  0
   15.5825   25.8970   21.9199 H   0  0  0  0  0
   15.6810   21.1615   17.8669 H   0  0  0  0  0
    8.5207   13.7915   13.4197 H   0  0  0  0  0
    6.9713   14.2117   14.1572 H   0  0  0  0  0
   15.2527   19.1855   18.6262 H   0  0  0  0  0
  4  1  1  0  0  0
  1 34  1  0  0  0
  4  2  1  0  0  0
  2 25  1  0  0  0
 26  3  1  0  0  0
  3 29  1  0  0  0
  3 30  2  0  0  0
 29  4  1  0  0  0
  6  5  1  0  0  0
  5  7  1  0  0  0
  5 26  1  0  0  0
 14  6  1  0  0  0
  6 31  1  0  0  0
  7  8  1  0  0  0
  8  9  4  0  0  0
  8 10  4  0  0  0
  9 11  4  0  0  0
 10 12  4  0  0  0
 11 13  4  0  0  0
 12 13  4  0  0  0
 27 14  1  0  0  0
 15 16  1  0  0  0
 27 15  1  0  0  0
 16 23  1  0  0  0
 16 24  1  0  0  0
 17 18  4  0  0  0
 17 22  4  0  0  0
 35 17  1  0  0  0
 18 19  4  0  0  0
 19 20  4  0  0  0
 21 20  4  0  0  0
 20 28  1  0  0  0
 22 21  4  0  0  0
 25 34  1  0  0  0
 27 35  1  0  0  0
 35 32  2  0  0  0
 35 33  2  0  0  0
  1 36  1  0  0  0
  1 37  1  0  0  0
  2 38  1  0  0  0
  2 39  1  0  0  0
  4 40  1  0  0  0
  5 41  1  0  0  0
  6 42  1  0  0  0
  7 43  1  0  0  0
  7 44  1  0  0  0
  9 45  1  0  0  0
 10 46  1  0  0  0
 11 47  1  0  0  0
 12 48  1  0  0  0
 13 49  1  0  0  0
 14 50  1  0  0  0
 14 51  1  0  0  0
 15 52  1  0  0  0
 15 53  1  0  0  0
 16 54  1  0  0  0
 18 55  1  0  0  0
 19 56  1  0  0  0
 21 57  1  0  0  0
 22 58  1  0  0  0
 23 59  1  0  0  0
 23 60  1  0  0  0
 23 61  1  0  0  0
 24 62  1  0  0  0
 24 63  1  0  0  0
 24 64  1  0  0  0
 25 65  1  0  0  0
 25 66  1  0  0  0
 26 67  1  0  0  0
 28 68  1  0  0  0
 28 69  1  0  0  0
 31 70  1  0  0  0
M  END
$$$$
