3nyn_ligand
  -I-interpret- 

 37 39  0  0  0  0  0  0  0  0999 V2000
  -71.0400   17.4850   19.2790 N   0  0  0  0  0
  -70.8730   16.1870   19.6080 C   0  0  0  0  0
  -71.7270   15.5070   20.4030 N   0  0  0  0  0
  -72.8280   16.1000   20.9250 C   0  0  0  0  0
  -73.0750   17.5150   20.6080 C   0  0  0  0  0
  -72.0930   18.1970   19.7300 C   0  0  0  0  0
  -72.2190   19.4890   19.3770 N   0  0  0  0  0
  -74.3250   17.7920   21.3380 C   0  0  0  0  0
  -74.7050   16.6360   21.9800 C   0  0  0  0  0
  -73.8140   15.6580   21.7210 N   0  0  0  0  0
  -73.8830   14.2680   22.2410 C   0  0  0  0  0
  -74.9420   19.1440   21.2910 C   0  0  0  0  0
  -76.2630   19.2410   21.3460 N   0  0  0  0  0
  -74.2430   20.1360   21.2110 O   0  0  0  0  0
  -72.9320   14.1990   23.4170 C   0  0  0  0  0
  -72.3830   12.8800   23.5330 O   0  0  0  0  0
  -73.8230   14.5680   24.5760 C   0  0  0  0  0
  -73.3520   13.9840   25.7870 O   0  0  0  0  0
  -75.1980   14.0400   24.1790 C   0  0  0  0  0
  -75.1820   13.9410   22.7520 O   0  0  0  0  0
  -76.3780   14.8950   24.6580 C   0  0  0  0  0
  -75.9990   15.7710   25.7400 O   0  0  0  0  0
  -70.0046   15.6606   19.2119 H   0  0  0  0  0
  -71.5212   19.9230   18.7727 H   0  0  0  0  0
  -73.0123   20.0346   19.7137 H   0  0  0  0  0
  -75.5923   16.5273   22.6037 H   0  0  0  0  0
  -73.6430   13.5817   21.4289 H   0  0  0  0  0
  -76.7085   20.1582   21.3214 H   0  0  0  0  0
  -76.8339   18.3984   21.4129 H   0  0  0  0  0
  -72.0635   14.8533   23.3413 H   0  0  0  0  0
  -71.7824   12.8493   24.2813 H   0  0  0  0  0
  -73.8447   15.6408   24.7677 H   0  0  0  0  0
  -73.9343   14.2328   26.5086 H   0  0  0  0  0
  -75.3629   13.0799   24.6681 H   0  0  0  0  0
  -77.1623   14.2278   25.0155 H   0  0  0  0  0
  -76.7185   15.5080   23.8235 H   0  0  0  0  0
  -76.7601   16.2887   26.0127 H   0  0  0  0  0
  1  2  4  0  0  0
  1  6  4  0  0  0
  2  3  4  0  0  0
  3  4  4  0  0  0
  4  5  4  0  0  0
  4 10  4  0  0  0
  5  6  4  0  0  0
  5  8  4  0  0  0
  6  7  1  0  0  0
  8  9  4  0  0  0
  8 12  1  0  0  0
  9 10  4  0  0  0
 10 11  1  0  0  0
 11 15  1  0  0  0
 11 20  1  0  0  0
 12 13  1  0  0  0
 12 14  2  0  0  0
 15 16  1  0  0  0
 15 17  1  0  0  0
 17 18  1  0  0  0
 17 19  1  0  0  0
 19 20  1  0  0  0
 19 21  1  0  0  0
 21 22  1  0  0  0
  2 23  1  0  0  0
  7 24  1  0  0  0
  7 25  1  0  0  0
  9 26  1  0  0  0
 11 27  1  0  0  0
 13 28  1  0  0  0
 13 29  1  0  0  0
 15 30  1  0  0  0
 16 31  1  0  0  0
 17 32  1  0  0  0
 18 33  1  0  0  0
 19 34  1  0  0  0
 21 35  1  0  0  0
 21 36  1  0  0  0
 22 37  1  0  0  0
M  END
$$$$
