4d52_ligand
  -I-interpret- 

 24 24  0  0  0  0  0  0  0  0999 V2000
   18.7000  -24.5000   19.5100 C   0  0  0  0  0
   19.9000  -23.6000   19.7780 C   0  0  0  0  0
   19.6130  -22.1300   19.4710 C   0  0  0  0  0
   18.3280  -21.7060   20.2140 C   0  0  0  0  0
   17.1900  -22.6590   19.8280 C   0  0  0  0  0
   15.8970  -22.2260   20.4790 C   0  0  0  0  0
   19.0430  -25.7930   20.0080 O   0  0  0  0  0
   20.7800  -21.3420   19.8400 O   0  0  0  0  0
   18.5070  -21.7460   21.6300 O   0  0  0  0  0
   17.5600  -23.9880   20.1810 O   0  0  0  0  0
   14.8130  -23.0150   20.0120 O   0  0  0  0  0
   21.0310  -24.0740   19.0420 O   0  0  0  0  0
   18.4614  -24.5487   18.4476 H   0  0  0  0  0
   20.1207  -23.6472   20.8444 H   0  0  0  0  0
   19.4347  -21.9648   18.4085 H   0  0  0  0  0
   18.0889  -20.6819   19.9273 H   0  0  0  0  0
   17.0210  -22.6297   18.7516 H   0  0  0  0  0
   15.7077  -21.1823   20.2281 H   0  0  0  0  0
   15.9858  -22.3516   21.5581 H   0  0  0  0  0
   19.8154  -26.1200   19.5411 H   0  0  0  0  0
   21.5431  -21.6521   19.3469 H   0  0  0  0  0
   19.2184  -21.1512   21.8784 H   0  0  0  0  0
   14.0019  -22.7255   20.4361 H   0  0  0  0  0
   21.1860  -24.9971   19.2551 H   0  0  0  0  0
  1  2  1  0  0  0
  1  7  1  0  0  0
  1 10  1  0  0  0
  2  3  1  0  0  0
  2 12  1  0  0  0
  3  4  1  0  0  0
  3  8  1  0  0  0
  4  5  1  0  0  0
  4  9  1  0  0  0
  5  6  1  0  0  0
  5 10  1  0  0  0
  6 11  1  0  0  0
  1 13  1  0  0  0
  2 14  1  0  0  0
  3 15  1  0  0  0
  4 16  1  0  0  0
  5 17  1  0  0  0
  6 18  1  0  0  0
  6 19  1  0  0  0
  7 20  1  0  0  0
  8 21  1  0  0  0
  9 22  1  0  0  0
 11 23  1  0  0  0
 12 24  1  0  0  0
M  END
$$$$
