4z7n_ligand
  -I-interpret- 

 50 49  0  0  0  0  0  0  0  0999 V2000
   50.1860  107.3530   74.6560 N   0  3  0  0  0
   50.9690  108.5390   74.9740 C   0  0  0  0  0
   51.4270  109.2310   73.6950 C   0  0  0  0  0
   50.9030  110.2800   73.3250 O   0  0  0  0  0
   52.1620  108.1700   75.8420 C   0  0  0  0  0
   52.4090  108.6430   73.0250 N   0  0  0  0  0
   52.8480  109.1730   71.7440 C   0  0  0  0  0
   53.7780  110.3520   71.9140 C   0  0  0  0  0
   54.7790  110.2750   72.6280 O   0  0  0  0  0
   53.4440  111.4580   71.2490 N   0  0  0  0  0
   54.3140  112.6320   71.1800 C   0  0  0  0  0
   54.1340  113.4700   72.4430 C   0  0  0  0  0
   53.4000  114.4620   72.4780 O   0  0  0  0  0
   54.0070  113.4420   69.9280 C   0  0  0  0  0
   54.9620  114.5960   69.7340 C   0  0  0  0  0
   56.1580  114.4390   70.0440 O   0  0  0  0  0
   54.5140  115.6610   69.2680 O   0  0  0  0  0
   54.8280  113.0590   73.5000 N   0  0  0  0  0
   54.7760  113.7580   74.7810 C   0  0  0  0  0
   56.1210  113.6800   75.4940 C   0  0  0  0  0
   56.8640  112.7100   75.3560 O   0  0  0  0  0
   53.6680  113.1900   75.6830 C   0  0  0  0  0
   52.2990  113.4410   75.0790 C   0  0  0  0  0
   53.8840  111.7040   75.9230 C   0  0  0  0  0
   56.4950  114.5860   76.2390 O   0  0  0  0  0
   49.3911  107.6178   74.0743 H   0  0  0  0  0
   50.7706  106.6862   74.1519 H   0  0  0  0  0
   49.8499  106.9273   75.5198 H   0  0  0  0  0
   50.3403  109.2320   75.5330 H   0  0  0  0  0
   52.8162  107.4950   75.2902 H   0  0  0  0  0
   52.7105  109.0740   76.1067 H   0  0  0  0  0
   51.8113  107.6775   76.7490 H   0  0  0  0  0
   52.8595  107.8132   73.4110 H   0  0  0  0  0
   51.9694  109.5063   71.1917 H   0  0  0  0  0
   53.3849  108.3866   71.2135 H   0  0  0  0  0
   52.5447  111.4869   70.7685 H   0  0  0  0  0
   55.3551  112.3149   71.1205 H   0  0  0  0  0
   53.0023  113.8519   70.0317 H   0  0  0  0  0
   54.1027  112.7793   69.0679 H   0  0  0  0  0
   53.5736  115.5651   69.1005 H   0  0  0  0  0
   55.4151  112.2294   73.4134 H   0  0  0  0  0
   54.5466  114.8035   74.5750 H   0  0  0  0  0
   53.7140  113.7037   76.6433 H   0  0  0  0  0
   52.1446  114.5140   74.9655 H   0  0  0  0  0
   52.2399  112.9589   74.1032 H   0  0  0  0  0
   51.5325  113.0298   75.7359 H   0  0  0  0  0
   53.8688  111.1772   74.9689 H   0  0  0  0  0
   54.8482  111.5520   76.4081 H   0  0  0  0  0
   53.0893  111.3214   76.5635 H   0  0  0  0  0
   55.8295  115.2776   76.2590 H   0  0  0  0  0
  1  2  1  0  0  0
  2  3  1  0  0  0
  2  5  1  0  0  0
  3  4  2  0  0  0
  3  6  1  0  0  0
  6  7  1  0  0  0
  7  8  1  0  0  0
  8  9  2  0  0  0
  8 10  1  0  0  0
 10 11  1  0  0  0
 11 12  1  0  0  0
 11 14  1  0  0  0
 12 13  2  0  0  0
 12 18  1  0  0  0
 14 15  1  0  0  0
 15 16  2  0  0  0
 15 17  1  0  0  0
 18 19  1  0  0  0
 19 20  1  0  0  0
 19 22  1  0  0  0
 20 21  2  0  0  0
 20 25  1  0  0  0
 22 23  1  0  0  0
 22 24  1  0  0  0
  1 26  1  0  0  0
  1 27  1  0  0  0
  1 28  1  0  0  0
  2 29  1  0  0  0
  5 30  1  0  0  0
  5 31  1  0  0  0
  5 32  1  0  0  0
  6 33  1  0  0  0
  7 34  1  0  0  0
  7 35  1  0  0  0
 10 36  1  0  0  0
 11 37  1  0  0  0
 14 38  1  0  0  0
 14 39  1  0  0  0
 17 40  1  0  0  0
 18 41  1  0  0  0
 19 42  1  0  0  0
 22 43  1  0  0  0
 23 44  1  0  0  0
 23 45  1  0  0  0
 23 46  1  0  0  0
 24 47  1  0  0  0
 24 48  1  0  0  0
 24 49  1  0  0  0
 25 50  1  0  0  0
M  END
$$$$
