4d8c_ligand
  -I-interpret- 

 79 81  0  0  0  0  0  0  0  0999 V2000
   30.8100    9.4900   21.3900 F   0  0  0  0  0
   30.7100    8.3100   20.7360 C   0  0  0  0  0
   31.9360    8.0010   20.2650 F   0  0  0  0  0
   30.3210    7.3190   21.5810 F   0  0  0  0  0
   29.7320    8.4610   19.5350 C   0  0  0  0  0
   30.2460    9.5590   18.7400 O   0  0  0  0  0
   30.6030    9.3650   17.4090 C   0  0  0  0  0
   30.2620   10.3590   16.4560 C   0  0  0  0  0
   30.6220   10.1750   15.0960 C   0  0  0  0  0
   31.2870    8.9990   14.6820 C   0  0  0  0  0
   31.6170    8.0040   15.6380 C   0  0  0  0  0
   31.2700    8.1920   16.9910 C   0  0  0  0  0
   32.3220    6.7020   15.2260 C   0  0  0  0  0
   31.3450    5.6920   14.5220 C   0  0  0  0  0
   31.9840    4.3080   14.1880 C   0  0  0  0  0
   31.0420    3.3910   13.3440 C   0  0  0  0  0
   29.6270    3.1280   13.9520 C   0  0  0  0  0
   28.7850    4.6730   14.3140 S   0  0  0  0  0
   30.0260    5.4710   15.3380 C   0  0  0  0  0
   27.6140    4.3840   15.1100 O   0  0  0  0  0
   28.6100    5.4540   13.0990 O   0  0  0  0  0
   31.7050    2.1270   12.9120 N   0  3  0  0  0
   31.1160    1.2670   11.8480 C   0  0  0  0  0
   30.9020    2.0840   10.5580 C   0  0  0  0  0
   32.0370    2.5480    9.8600 C   0  0  0  0  0
   31.9510    3.3110    8.6580 C   0  0  0  0  0
   30.6310    3.5820    8.1880 C   0  0  0  0  0
   29.4770    3.1280    8.8690 C   0  0  0  0  0
   29.6040    2.3730   10.0600 C   0  0  0  0  0
   33.2470    3.8000    7.9250 C   0  0  0  0  0
   34.2140    2.5960    7.7180 C   0  0  0  0  0
   33.0210    4.4330    6.5070 C   0  0  0  0  0
   33.9910    4.8900    8.7680 C   0  0  0  0  0
   33.1790    4.4790   13.4060 O   0  0  0  0  0
   30.3120   11.0990   14.1910 F   0  0  0  0  0
   29.6240   11.4870   16.8540 N   0  0  0  0  0
   28.2780    8.7570   19.9990 C   0  0  0  0  0
   27.4550    8.8720   18.8220 O   0  0  0  0  0
   26.0210    8.8840   19.0730 C   0  0  0  0  0
   25.5520   10.3750   19.0670 C   0  0  0  0  0
   29.6799    7.5329   18.9657 H   0  0  0  0  0
   31.5453    8.8569   13.6326 H   0  0  0  0  0
   31.5191    7.4237   17.7230 H   0  0  0  0  0
   32.7081    6.2265   16.1276 H   0  0  0  0  0
   33.1135    6.9546   14.5204 H   0  0  0  0  0
   31.1075    6.1757   13.5745 H   0  0  0  0  0
   32.1855    3.8434   15.1532 H   0  0  0  0  0
   30.8445    3.9880   12.4537 H   0  0  0  0  0
   29.7435    2.5674   14.8795 H   0  0  0  0  0
   29.0342    2.5676   13.2290 H   0  0  0  0  0
   29.6462    6.4377   15.6687 H   0  0  0  0  0
   30.2413    4.8349   16.1965 H   0  0  0  0  0
   31.6770    1.5391   13.7450 H   0  0  0  0  0
   32.5898    2.4393   12.5121 H   0  0  0  0  0
   30.1546    0.8845   12.1909 H   0  0  0  0  0
   31.7976    0.4426   11.6385 H   0  0  0  0  0
   33.0243    2.3127   10.2574 H   0  0  0  0  0
   30.5075    4.1593    7.2717 H   0  0  0  0  0
   28.4873    3.3601    8.4756 H   0  0  0  0  0
   28.7181    2.0187   10.5871 H   0  0  0  0  0
   34.4814    2.1756    8.6875 H   0  0  0  0  0
   33.7202    1.8347    7.1141 H   0  0  0  0  0
   35.1145    2.9384    7.2081 H   0  0  0  0  0
   32.5549    3.6969    5.8520 H   0  0  0  0  0
   32.3710    5.3032    6.5984 H   0  0  0  0  0
   33.9807    4.7371    6.0891 H   0  0  0  0  0
   33.3307    5.7440    8.9191 H   0  0  0  0  0
   34.2721    4.4710    9.7342 H   0  0  0  0  0
   34.8862    5.2110    8.2354 H   0  0  0  0  0
   33.5578    3.6189   13.2103 H   0  0  0  0  0
   29.3897   11.6203   17.8377 H   0  0  0  0  0
   29.3783   12.2024   16.1697 H   0  0  0  0  0
   28.2455    9.6816   20.5753 H   0  0  0  0  0
   27.9137    7.9529   20.6384 H   0  0  0  0  0
   25.7995    8.4199   20.0341 H   0  0  0  0  0
   25.4959    8.3174   18.3041 H   0  0  0  0  0
   26.0793   10.9236   19.8475 H   0  0  0  0  0
   25.7720   10.8198   18.0965 H   0  0  0  0  0
   24.4788   10.4177   19.2528 H   0  0  0  0  0
  1  2  1  0  0  0
  2  3  1  0  0  0
  2  4  1  0  0  0
  2  5  1  0  0  0
  5  6  1  0  0  0
  5 37  1  0  0  0
  6  7  1  0  0  0
  7  8  4  0  0  0
  7 12  4  0  0  0
  8  9  4  0  0  0
  8 36  1  0  0  0
  9 10  4  0  0  0
  9 35  1  0  0  0
 10 11  4  0  0  0
 11 12  4  0  0  0
 11 13  1  0  0  0
 13 14  1  0  0  0
 14 15  1  0  0  0
 14 19  1  0  0  0
 15 16  1  0  0  0
 15 34  1  0  0  0
 16 17  1  0  0  0
 16 22  1  0  0  0
 17 18  1  0  0  0
 18 19  1  0  0  0
 18 20  2  0  0  0
 18 21  2  0  0  0
 22 23  1  0  0  0
 23 24  1  0  0  0
 24 25  4  0  0  0
 24 29  4  0  0  0
 25 26  4  0  0  0
 26 27  4  0  0  0
 26 30  1  0  0  0
 27 28  4  0  0  0
 28 29  4  0  0  0
 30 31  1  0  0  0
 30 32  1  0  0  0
 30 33  1  0  0  0
 37 38  1  0  0  0
 38 39  1  0  0  0
 39 40  1  0  0  0
  5 41  1  0  0  0
 10 42  1  0  0  0
 12 43  1  0  0  0
 13 44  1  0  0  0
 13 45  1  0  0  0
 14 46  1  0  0  0
 15 47  1  0  0  0
 16 48  1  0  0  0
 17 49  1  0  0  0
 17 50  1  0  0  0
 19 51  1  0  0  0
 19 52  1  0  0  0
 22 53  1  0  0  0
 22 54  1  0  0  0
 23 55  1  0  0  0
 23 56  1  0  0  0
 25 57  1  0  0  0
 27 58  1  0  0  0
 28 59  1  0  0  0
 29 60  1  0  0  0
 31 61  1  0  0  0
 31 62  1  0  0  0
 31 63  1  0  0  0
 32 64  1  0  0  0
 32 65  1  0  0  0
 32 66  1  0  0  0
 33 67  1  0  0  0
 33 68  1  0  0  0
 33 69  1  0  0  0
 34 70  1  0  0  0
 36 71  1  0  0  0
 36 72  1  0  0  0
 37 73  1  0  0  0
 37 74  1  0  0  0
 39 75  1  0  0  0
 39 76  1  0  0  0
 40 77  1  0  0  0
 40 78  1  0  0  0
 40 79  1  0  0  0
M  END
$$$$
