2r0u_ligand
  -I-interpret- 

 53 57  0  0  0  0  0  0  0  0999 V2000
   19.8780   -2.0870    9.4050 C   0  0  0  0  0
   19.9870   -3.3720   10.1190 C   0  0  0  0  0
   18.8590   -3.9520   10.8160 C   0  0  0  0  0
   18.6100   -1.3970    9.3630 C   0  0  0  0  0
   17.4550   -1.9640    9.9920 C   0  0  0  0  0
   17.5860   -3.2680   10.7390 C   0  0  0  0  0
   16.4460   -3.8580   11.3820 C   0  0  0  0  0
   15.1960   -3.2330   11.3060 C   0  0  0  0  0
   16.1580   -1.3310    9.9400 C   0  0  0  0  0
   14.9890   -1.9590   10.6170 C   0  0  0  0  0
   13.6890   -1.3150   10.5650 C   0  0  0  0  0
   13.4940   -0.0980    9.9540 C   0  0  0  0  0
   14.6310    0.5080    9.2790 N   0  0  0  0  0
   15.8860   -0.0490    9.2160 C   0  0  0  0  0
   16.7780    0.5950    8.5610 O   0  0  0  0  0
   21.0740   -1.5050    8.7300 C   0  0  0  0  0
   22.3460   -2.1160    8.6840 C   0  0  0  0  0
   23.1200   -1.2290    7.9730 N   0  0  0  0  0
   22.3530   -0.1360    7.6230 N   0  0  0  0  0
   21.0880   -0.2820    8.0510 C   0  0  0  0  0
   16.7050   -5.1990   12.1100 C   0  0  0  0  0
   16.3020   -5.1920   13.5420 C   0  0  0  0  0
   16.9060   -4.1800   14.4100 C   0  0  0  0  0
   16.3320   -4.4330   15.7530 N   0  3  0  0  0
   12.4770   -1.9660   11.2320 C   0  0  0  0  0
   11.3210   -2.3750   10.3750 C   0  0  0  0  0
   10.0630   -3.3100   12.3420 C   0  0  0  0  0
   11.1930   -2.9280   13.1230 C   0  0  0  0  0
   10.1100   -3.0050   10.9310 C   0  0  0  0  0
   12.4210   -2.2980   12.6300 C   0  0  0  0  0
   11.1560   -3.1890   14.2910 O   0  0  0  0  0
   20.9413   -3.8987   10.1221 H   0  0  0  0  0
   18.9652   -4.8772   11.3825 H   0  0  0  0  0
   18.5315   -0.4388    8.8494 H   0  0  0  0  0
   14.3411   -3.7155   11.7798 H   0  0  0  0  0
   12.5219    0.3947    9.9750 H   0  0  0  0  0
   14.4872    1.4080    8.8210 H   0  0  0  0  0
   22.6459   -3.0718    9.1136 H   0  0  0  0  0
   20.2538    0.4035    7.9017 H   0  0  0  0  0
   17.7783   -5.3859   12.0752 H   0  0  0  0  0
   16.1094   -5.9617   11.6083 H   0  0  0  0  0
   16.6261   -6.1526   13.9423 H   0  0  0  0  0
   15.2328   -4.9799   13.5445 H   0  0  0  0  0
   16.6902   -3.1696   14.0627 H   0  0  0  0  0
   17.9937   -4.2507   14.4161 H   0  0  0  0  0
   16.7120   -3.7579   16.4165 H   0  0  0  0  0
   15.3174   -4.3366   15.7115 H   0  0  0  0  0
   16.5730   -5.3780   16.0519 H   0  0  0  0  0
   11.3763   -2.2008    9.3004 H   0  0  0  0  0
    9.2201   -2.7458   12.7412 H   0  0  0  0  0
   10.0065   -4.3964   12.4106 H   0  0  0  0  0
    9.2621   -3.2374   10.2866 H   0  0  0  0  0
   13.2581   -2.0895   13.2962 H   0  0  0  0  0
  1  2  4  0  0  0
  4  1  4  0  0  0
  1 16  1  0  0  0
  3  2  4  0  0  0
  6  3  4  0  0  0
  5  4  4  0  0  0
  5  6  4  0  0  0
  9  5  4  0  0  0
  7  6  4  0  0  0
  8  7  4  0  0  0
  7 21  1  0  0  0
 10  8  4  0  0  0
 10  9  4  0  0  0
  9 14  1  0  0  0
 11 10  1  0  0  0
 11 12  2  0  0  0
 25 11  1  0  0  0
 12 13  1  0  0  0
 13 14  1  0  0  0
 14 15  2  0  0  0
 16 17  4  0  0  0
 16 20  4  0  0  0
 17 18  4  0  0  0
 19 18  4  0  0  0
 20 19  4  0  0  0
 21 22  1  0  0  0
 22 23  1  0  0  0
 23 24  1  0  0  0
 26 25  1  0  0  0
 25 30  2  0  0  0
 29 26  2  0  0  0
 27 28  1  0  0  0
 27 29  1  0  0  0
 28 30  1  0  0  0
 28 31  2  0  0  0
  2 32  1  0  0  0
  3 33  1  0  0  0
  4 34  1  0  0  0
  8 35  1  0  0  0
 12 36  1  0  0  0
 13 37  1  0  0  0
 17 38  1  0  0  0
 20 39  1  0  0  0
 21 40  1  0  0  0
 21 41  1  0  0  0
 22 42  1  0  0  0
 22 43  1  0  0  0
 23 44  1  0  0  0
 23 45  1  0  0  0
 24 46  1  0  0  0
 24 47  1  0  0  0
 24 48  1  0  0  0
 26 49  1  0  0  0
 27 50  1  0  0  0
 27 51  1  0  0  0
 29 52  1  0  0  0
 30 53  1  0  0  0
M  END
$$$$
