5j4n_ligand
  -I-interpret- 

 24 23  0  0  0  0  0  0  0  0999 V2000
   15.0370   22.4470  -34.9460 N   0  3  0  0  0
   15.9670   22.4960  -33.8470 C   0  0  0  0  0
   15.2420   22.6620  -32.5630 C   0  0  0  0  0
   16.1600   23.3920  -31.5600 C   0  0  0  0  0
   15.3400   23.7670  -30.2610 C   0  0  0  0  0
   16.2890   24.2610  -29.2640 N   0  0  0  0  0
   15.8490   24.7590  -27.9930 C   0  0  0  0  0
   14.5890   24.8000  -27.6680 N   0  0  0  0  0
   16.8520   25.2370  -27.0440 N   0  0  0  0  0
   15.5507   22.3328  -35.8197 H   0  0  0  0  0
   14.4023   21.6589  -34.8179 H   0  0  0  0  0
   14.5017   23.3148  -34.9758 H   0  0  0  0  0
   16.6385   23.3430  -33.9876 H   0  0  0  0  0
   16.5317   21.5642  -33.8180 H   0  0  0  0  0
   14.9672   21.6846  -32.1664 H   0  0  0  0  0
   14.3358   23.2458  -32.7248 H   0  0  0  0  0
   16.5448   24.3025  -32.0194 H   0  0  0  0  0
   16.9888   22.7386  -31.2876 H   0  0  0  0  0
   14.8107   22.8932  -29.8809 H   0  0  0  0  0
   14.5967   24.5311  -30.4888 H   0  0  0  0  0
   17.2864   24.2512  -29.4773 H   0  0  0  0  0
   14.3088   25.1637  -26.7572 H   0  0  0  0  0
   16.5627   25.5991  -26.1354 H   0  0  0  0  0
   17.8414   25.2086  -27.2902 H   0  0  0  0  0
  1  2  1  0  0  0
  2  3  1  0  0  0
  3  4  1  0  0  0
  4  5  1  0  0  0
  5  6  1  0  0  0
  6  7  1  0  0  0
  7  8  2  0  0  0
  7  9  1  0  0  0
  1 10  1  0  0  0
  1 11  1  0  0  0
  1 12  1  0  0  0
  2 13  1  0  0  0
  2 14  1  0  0  0
  3 15  1  0  0  0
  3 16  1  0  0  0
  4 17  1  0  0  0
  4 18  1  0  0  0
  5 19  1  0  0  0
  5 20  1  0  0  0
  6 21  1  0  0  0
  8 22  1  0  0  0
  9 23  1  0  0  0
  9 24  1  0  0  0
M  END
$$$$
