2o9a_ligand
  -I-interpret- 

 12 11  0  0  0  0  0  0  0  0999 V2000
    8.9790    0.6400  -34.5600 C   0  0  0  0  0
    9.6820    1.2200  -35.3980 O   0  0  0  0  0
    8.4970   -0.4880  -34.7690 O   0  0  0  0  0
    8.6510    1.3680  -33.2560 C   0  0  0  0  0
    9.4630    2.5480  -33.1830 O   0  0  0  0  0
    7.1270    1.5910  -33.0110 C   0  0  0  0  0
    7.9865   -0.7634  -34.0040 H   0  0  0  0  0
    8.9081    0.7275  -32.4124 H   0  0  0  0  0
   10.3799    2.3147  -33.3459 H   0  0  0  0  0
    6.9777    2.0088  -32.0154 H   0  0  0  0  0
    6.7374    2.2820  -33.7586 H   0  0  0  0  0
    6.6045    0.6375  -33.0884 H   0  0  0  0  0
  1  2  2  0  0  0
  1  3  1  0  0  0
  1  4  1  0  0  0
  4  5  1  0  0  0
  4  6  1  0  0  0
  3  7  1  0  0  0
  4  8  1  0  0  0
  5  9  1  0  0  0
  6 10  1  0  0  0
  6 11  1  0  0  0
  6 12  1  0  0  0
M  END
$$$$
