6cbh_ligand
  -I-interpret- 

 38 41  0  0  0  0  0  0  0  0999 V2000
  -40.7140   13.0460   -2.0630 C   0  0  0  0  0
  -41.8500   12.2470   -2.1180 C   0  0  0  0  0
  -42.4710   12.0110   -3.3500 C   0  0  0  0  0
  -41.9560   12.5740   -4.5210 C   0  0  0  0  0
  -34.8420   13.4730   -7.1890 C   0  0  0  0  0
  -34.9210   14.7270   -6.5940 C   0  0  0  0  0
  -36.1580   15.3590   -6.4600 C   0  0  0  0  0
  -37.3160   14.7430   -6.9320 C   0  0  0  0  0
  -37.2200   13.4670   -7.4990 C   0  0  0  0  0
  -35.9990   12.8430   -7.6310 C   0  0  0  0  0
  -33.5300   12.8060   -7.3160 C   0  0  0  0  0
  -32.2680   13.3740   -7.3660 C   0  0  0  0  0
  -31.3160   12.4040   -7.4480 N   0  0  0  0  0
  -31.9540   11.1630   -7.4250 N   0  0  0  0  0
  -33.2450   11.3680   -7.3350 C   0  0  0  0  0
  -38.4290   12.7540   -8.0240 C   0  0  0  0  0
  -38.6990   11.6140   -7.6210 O   0  0  0  0  0
  -39.1270   13.3430   -8.8690 O   0  0  0  0  0
  -38.5480   15.3360   -6.7190 O   0  0  0  0  0
  -39.1380   14.7810   -5.5820 C   0  0  0  0  0
  -40.2780   13.9530   -5.6400 C   0  0  0  0  0
  -40.8150   13.3800   -4.4730 C   0  0  0  0  0
  -40.2060   13.6050   -3.2390 C   0  0  0  0  0
  -39.0820   14.3980   -3.1810 C   0  0  0  0  0
  -38.5480   14.9760   -4.3290 C   0  0  0  0  0
  -34.1820   10.3450   -7.2940 F   0  0  0  0  0
  -40.2224   13.2354   -1.1088 H   0  0  0  0  0
  -42.2550   11.8067   -1.2068 H   0  0  0  0  0
  -43.3616   11.3843   -3.3964 H   0  0  0  0  0
  -42.4462   12.3837   -5.4758 H   0  0  0  0  0
  -34.0168   15.2165   -6.2322 H   0  0  0  0  0
  -36.2189   16.3379   -5.9845 H   0  0  0  0  0
  -35.9403   11.8529   -8.0831 H   0  0  0  0  0
  -32.0657   14.4448   -7.3430 H   0  0  0  0  0
  -38.7514   14.2087   -9.0454 H   0  0  0  0  0
  -40.7496   13.7543   -6.6024 H   0  0  0  0  0
  -38.6018   14.5763   -2.2189 H   0  0  0  0  0
  -37.6526   15.5926   -4.2500 H   0  0  0  0  0
  2  1  4  0  0  0
  1 23  4  0  0  0
  3  2  4  0  0  0
  4  3  4  0  0  0
 22  4  4  0  0  0
  6  5  4  0  0  0
 10  5  4  0  0  0
  5 11  1  0  0  0
  7  6  4  0  0  0
  8  7  4  0  0  0
  8  9  4  0  0  0
 19  8  1  0  0  0
  9 10  4  0  0  0
  9 16  1  0  0  0
 11 12  4  0  0  0
 11 15  4  0  0  0
 12 13  4  0  0  0
 14 13  4  0  0  0
 15 14  4  0  0  0
 15 26  1  0  0  0
 16 17  2  0  0  0
 16 18  1  0  0  0
 20 19  1  0  0  0
 21 20  4  0  0  0
 20 25  4  0  0  0
 21 22  4  0  0  0
 22 23  4  0  0  0
 23 24  4  0  0  0
 24 25  4  0  0  0
  1 27  1  0  0  0
  2 28  1  0  0  0
  3 29  1  0  0  0
  4 30  1  0  0  0
  6 31  1  0  0  0
  7 32  1  0  0  0
 10 33  1  0  0  0
 12 34  1  0  0  0
 18 35  1  0  0  0
 21 36  1  0  0  0
 24 37  1  0  0  0
 25 38  1  0  0  0
M  END
$$$$
