5qin_ligand
  -I-interpret- 

 43 46  0  0  0  0  0  0  0  0999 V2000
   15.7150   -3.2080   11.9720 C   0  0  0  0  0
   15.2260   -3.4710   10.6940 C   0  0  0  0  0
   13.0090   -2.1910    6.8200 C   0  0  0  0  0
   14.9030   -5.1770   12.7970 C   0  0  0  0  0
   14.3970   -5.5730   11.5390 C   0  0  0  0  0
   14.5480   -4.6780   10.4870 C   0  0  0  0  0
   11.7640   -1.6460    4.0800 C   0  0  0  0  0
   12.4580   -2.6030    9.1240 C   0  0  0  0  0
   11.1250   -2.6160    8.7480 C   0  0  0  0  0
   15.1560   -5.6600   15.1240 C   0  0  0  0  0
   16.9220   -1.9550    9.4380 C   0  0  0  0  0
   16.8720   -1.2050    8.2690 C   0  0  0  0  0
   18.0040   -0.5110    7.8460 C   0  0  0  0  0
   19.1560   -0.6090    8.6260 C   0  0  0  0  0
   19.1210   -1.4030    9.7740 C   0  0  0  0  0
   18.0330   -2.0630   10.1990 N   0  0  0  0  0
   15.6030   -2.5600    9.5890 C   0  0  0  0  0
   14.8410   -2.1380    8.5130 C   0  0  0  0  0
   15.6180   -1.3210    7.7100 N   0  0  0  0  0
   13.4280   -2.3650    8.1430 C   0  0  0  0  0
   10.6970   -2.3980    7.4830 N   0  0  0  0  0
   11.6270   -2.1960    6.5340 C   0  0  0  0  0
   15.5450   -4.0320   13.0280 N   0  0  0  0  0
   11.0930   -1.9410    5.2270 N   0  0  0  0  0
   12.9710   -1.5450    4.0030 O   0  0  0  0  0
   10.9070   -1.4360    2.8550 C   0  0  0  0  0
   14.7760   -6.0660   13.8030 O   0  0  0  0  0
   16.2678   -2.2817   12.1286 H   0  0  0  0  0
   13.7387   -2.0536    6.0220 H   0  0  0  0  0
   13.9097   -6.5380   11.3997 H   0  0  0  0  0
   14.1401   -4.9148    9.5043 H   0  0  0  0  0
   12.7456   -2.7744   10.1613 H   0  0  0  0  0
   10.3771   -2.8134    9.5160 H   0  0  0  0  0
   16.2098   -5.3814   15.1281 H   0  0  0  0  0
   14.5517   -4.8052   15.4279 H   0  0  0  0  0
   14.9944   -6.4856   15.8171 H   0  0  0  0  0
   17.9896    0.0885    6.9358 H   0  0  0  0  0
   20.0648   -0.0768    8.3452 H   0  0  0  0  0
   20.0347   -1.4922   10.3616 H   0  0  0  0  0
   10.0772   -1.9868    5.1468 H   0  0  0  0  0
   11.0628   -0.4272    2.4727 H   0  0  0  0  0
   11.1836   -2.1623    2.0908 H   0  0  0  0  0
    9.8579   -1.5674    3.1202 H   0  0  0  0  0
  2  1  4  0  0  0
  1 23  4  0  0  0
  2  6  4  0  0  0
 17  2  1  0  0  0
  3 20  4  0  0  0
 22  3  4  0  0  0
  5  4  4  0  0  0
 23  4  4  0  0  0
  4 27  1  0  0  0
  6  5  4  0  0  0
 24  7  1  0  0  0
  7 25  2  0  0  0
  7 26  1  0  0  0
  9  8  4  0  0  0
 20  8  4  0  0  0
 21  9  4  0  0  0
 27 10  1  0  0  0
 12 11  4  0  0  0
 11 16  4  0  0  0
 17 11  4  0  0  0
 12 13  4  0  0  0
 19 12  4  0  0  0
 13 14  4  0  0  0
 14 15  4  0  0  0
 16 15  4  0  0  0
 18 17  4  0  0  0
 18 19  4  0  0  0
 20 18  1  0  0  0
 22 21  4  0  0  0
 22 24  1  0  0  0
  1 28  1  0  0  0
  3 29  1  0  0  0
  5 30  1  0  0  0
  6 31  1  0  0  0
  8 32  1  0  0  0
  9 33  1  0  0  0
 10 34  1  0  0  0
 10 35  1  0  0  0
 10 36  1  0  0  0
 13 37  1  0  0  0
 14 38  1  0  0  0
 15 39  1  0  0  0
 24 40  1  0  0  0
 26 41  1  0  0  0
 26 42  1  0  0  0
 26 43  1  0  0  0
M  END
$$$$
