4e70_ligand
  -I-interpret- 

 25 25  0  0  0  0  0  0  0  0999 V2000
   12.3290  -19.4400  -42.2950 C   0  0  0  0  0
   14.0470  -17.7590  -46.9590 O   0  0  0  0  0
   15.8750  -16.6120  -40.0650 C   0  0  0  0  0
   12.9040  -18.9510  -38.6840 O   0  0  0  0  0
   12.1560  -19.5850  -40.9210 C   0  0  0  0  0
   14.7620  -17.3980  -39.6310 O   0  0  0  0  0
   13.0020  -18.8750  -40.0190 C   0  0  0  0  0
   14.0290  -18.0140  -40.5620 C   0  0  0  0  0
   14.1710  -17.8830  -41.9340 C   0  0  0  0  0
   13.3340  -18.6050  -42.8310 C   0  0  0  0  0
   13.5290  -18.4040  -44.3020 C   0  0  0  0  0
   13.0880  -19.1810  -45.2690 C   0  0  0  0  0
   13.2890  -18.9100  -46.7580 C   0  0  0  0  0
   11.6725  -19.9844  -42.9737 H   0  0  0  0  0
   14.1587  -17.6112  -47.9010 H   0  0  0  0  0
   16.5773  -17.2464  -40.6058 H   0  0  0  0  0
   15.5224  -15.8164  -40.7213 H   0  0  0  0  0
   16.3707  -16.1762  -39.1975 H   0  0  0  0  0
   13.5727  -18.3911  -38.2828 H   0  0  0  0  0
   11.3750  -20.2403  -40.5354 H   0  0  0  0  0
   14.9357  -17.2165  -42.3329 H   0  0  0  0  0
   14.0950  -17.5226  -44.6036 H   0  0  0  0  0
   12.5411  -20.0807  -44.9868 H   0  0  0  0  0
   13.8154  -19.7564  -47.1991 H   0  0  0  0  0
   12.3128  -18.7709  -47.2226 H   0  0  0  0  0
  1  5  4  0  0  0
 10  1  4  0  0  0
 13  2  1  0  0  0
  6  3  1  0  0  0
  7  4  1  0  0  0
  5  7  4  0  0  0
  8  6  1  0  0  0
  8  7  4  0  0  0
  9  8  4  0  0  0
 10  9  4  0  0  0
 11 10  1  0  0  0
 12 11  2  0  0  0
 12 13  1  0  0  0
  1 14  1  0  0  0
  2 15  1  0  0  0
  3 16  1  0  0  0
  3 17  1  0  0  0
  3 18  1  0  0  0
  4 19  1  0  0  0
  5 20  1  0  0  0
  9 21  1  0  0  0
 11 22  1  0  0  0
 12 23  1  0  0  0
 13 24  1  0  0  0
 13 25  1  0  0  0
M  END
$$$$
