4joh_ligand
  -I-interpret- 

 81 81  0  0  0  0  0  0  0  0999 V2000
   22.1280   26.3330   42.6190 N   0  3  0  0  0
   21.0100   26.8750   43.4010 C   0  0  0  0  0
   19.8070   25.9350   43.4400 C   0  0  0  0  0
   19.3770   25.4310   42.4080 O   0  0  0  0  0
   20.6540   28.1730   42.6620 C   0  0  0  0  0
   21.3680   28.1010   41.3450 C   0  0  0  0  0
   22.5880   27.2810   41.5930 C   0  0  0  0  0
   19.2740   25.7070   44.6340 N   0  0  0  0  0
   18.1480   24.7990   44.8060 C   0  0  0  0  0
   16.9620   25.5500   45.3770 C   0  0  0  0  0
   17.1050   26.3270   46.3300 O   0  0  0  0  0
   18.5030   23.6520   45.7680 C   0  0  0  0  0
   19.6020   22.9080   45.2330 O   0  0  0  0  0
   17.3170   22.7250   45.9520 C   0  0  0  0  0
   15.7930   25.3270   44.7890 N   0  0  0  0  0
   14.5550   25.8600   45.3310 C   0  0  0  0  0
   13.6670   24.7120   45.7420 C   0  0  0  0  0
   13.7850   23.6060   45.2190 O   0  0  0  0  0
   13.8280   26.7180   44.2930 C   0  0  0  0  0
   14.5870   27.8690   43.9890 O   0  0  0  0  0
   12.7860   24.9770   46.6940 N   0  0  0  0  0
   11.7610   24.0200   47.0660 C   0  0  0  0  0
   10.3980   24.6440   46.8080 C   0  0  0  0  0
   10.1770   25.8280   47.0880 O   0  0  0  0  0
   11.9170   23.5800   48.5360 C   0  0  0  0  0
   13.2850   22.9310   48.7190 C   0  0  0  0  0
   10.7840   22.6280   48.9360 C   0  0  0  0  0
   13.5790   22.4700   50.1440 C   0  0  0  0  0
    9.4970   23.8500   46.2420 N   0  0  0  0  0
    8.1600   24.3250   45.9010 C   0  0  0  0  0
    7.1230   23.3650   46.4420 C   0  0  0  0  0
    7.4860   22.2950   46.9400 O   0  0  0  0  0
    7.9820   24.4660   44.3820 C   0  0  0  0  0
    8.3290   23.1530   43.6780 C   0  0  0  0  0
    8.8790   25.5770   43.8500 C   0  0  0  0  0
    8.0740   23.1770   42.1790 C   0  0  0  0  0
    5.9300   23.6530   46.4000 O   0  0  0  0  0
   21.8100   25.4841   42.1513 H   0  0  0  0  0
   22.9037   26.1478   43.2549 H   0  0  0  0  0
   21.2828   27.0223   44.4460 H   0  0  0  0  0
   20.9594   29.0507   43.2317 H   0  0  0  0  0
   19.5769   28.2691   42.5249 H   0  0  0  0  0
   21.6243   29.0943   40.9765 H   0  0  0  0  0
   20.7385   27.6549   40.5750 H   0  0  0  0  0
   22.9640   26.7907   40.6950 H   0  0  0  0  0
   23.4450   27.8743   41.9119 H   0  0  0  0  0
   19.6622   26.1789   45.4507 H   0  0  0  0  0
   17.9032   24.3857   43.8275 H   0  0  0  0  0
   18.7726   24.0768   46.7349 H   0  0  0  0  0
   19.8243   22.1920   45.8326 H   0  0  0  0  0
   16.4790   23.2868   46.3646 H   0  0  0  0  0
   17.0338   22.3035   44.9875 H   0  0  0  0  0
   17.5887   21.9208   46.6357 H   0  0  0  0  0
   15.7632   24.7681   43.9363 H   0  0  0  0  0
   14.7887   26.4868   46.1916 H   0  0  0  0  0
   12.8636   27.0248   44.6979 H   0  0  0  0  0
   13.6886   26.1337   43.3835 H   0  0  0  0  0
   14.1191   28.3966   43.3376 H   0  0  0  0  0
   12.8288   25.8744   47.1769 H   0  0  0  0  0
   11.8625   23.1191   46.4608 H   0  0  0  0  0
   11.8522   24.4498   49.1897 H   0  0  0  0  0
   14.0322   23.6831   48.4657 H   0  0  0  0  0
   13.3056   22.0443   48.0854 H   0  0  0  0  0
    9.8264   23.1350   48.8177 H   0  0  0  0  0
   10.8105   21.7451   48.2973 H   0  0  0  0  0
   10.9124   22.3293   49.9764 H   0  0  0  0  0
   13.5404   23.3266   50.8169 H   0  0  0  0  0
   12.8343   21.7342   50.4474 H   0  0  0  0  0
   14.5716   22.0211   50.1818 H   0  0  0  0  0
    9.7461   22.8817   46.0400 H   0  0  0  0  0
    8.0297   25.3088   46.3518 H   0  0  0  0  0
    8.4425   22.2292   46.8921 H   0  0  0  0  0
    6.9397   24.7134   44.1809 H   0  0  0  0  0
    7.6935   22.3768   44.1043 H   0  0  0  0  0
    9.3946   22.9764   43.8245 H   0  0  0  0  0
    8.6131   26.5185   44.3307 H   0  0  0  0  0
    9.9198   25.3376   44.0679 H   0  0  0  0  0
    8.7435   25.6669   42.7722 H   0  0  0  0  0
    7.0183   23.3757   41.9945 H   0  0  0  0  0
    8.6779   23.9607   41.7215 H   0  0  0  0  0
    8.3437   22.2118   41.7504 H   0  0  0  0  0
  1  2  1  0  0  0
  1  7  1  0  0  0
  2  3  1  0  0  0
  2  5  1  0  0  0
  3  4  2  0  0  0
  3  8  1  0  0  0
  5  6  1  0  0  0
  6  7  1  0  0  0
  8  9  1  0  0  0
  9 10  1  0  0  0
  9 12  1  0  0  0
 10 11  2  0  0  0
 10 15  1  0  0  0
 12 13  1  0  0  0
 12 14  1  0  0  0
 15 16  1  0  0  0
 16 17  1  0  0  0
 16 19  1  0  0  0
 17 18  2  0  0  0
 17 21  1  0  0  0
 19 20  1  0  0  0
 21 22  1  0  0  0
 22 23  1  0  0  0
 22 25  1  0  0  0
 23 24  2  0  0  0
 23 29  1  0  0  0
 25 26  1  0  0  0
 25 27  1  0  0  0
 26 28  1  0  0  0
 29 30  1  0  0  0
 30 31  1  0  0  0
 30 33  1  0  0  0
 31 32  1  0  0  0
 31 37  2  0  0  0
 33 34  1  0  0  0
 33 35  1  0  0  0
 34 36  1  0  0  0
  1 38  1  0  0  0
  1 39  1  0  0  0
  2 40  1  0  0  0
  5 41  1  0  0  0
  5 42  1  0  0  0
  6 43  1  0  0  0
  6 44  1  0  0  0
  7 45  1  0  0  0
  7 46  1  0  0  0
  8 47  1  0  0  0
  9 48  1  0  0  0
 12 49  1  0  0  0
 13 50  1  0  0  0
 14 51  1  0  0  0
 14 52  1  0  0  0
 14 53  1  0  0  0
 15 54  1  0  0  0
 16 55  1  0  0  0
 19 56  1  0  0  0
 19 57  1  0  0  0
 20 58  1  0  0  0
 21 59  1  0  0  0
 22 60  1  0  0  0
 25 61  1  0  0  0
 26 62  1  0  0  0
 26 63  1  0  0  0
 27 64  1  0  0  0
 27 65  1  0  0  0
 27 66  1  0  0  0
 28 67  1  0  0  0
 28 68  1  0  0  0
 28 69  1  0  0  0
 29 70  1  0  0  0
 30 71  1  0  0  0
 32 72  1  0  0  0
 33 73  1  0  0  0
 34 74  1  0  0  0
 34 75  1  0  0  0
 35 76  1  0  0  0
 35 77  1  0  0  0
 35 78  1  0  0  0
 36 79  1  0  0  0
 36 80  1  0  0  0
 36 81  1  0  0  0
M  END
$$$$
