4owo_ligand
  -I-interpret- 

 17 17  0  0  0  0  0  0  0  0999 V2000
  -17.8650  -35.6140   18.1310 O   0  0  0  0  0
  -18.4870  -34.5290   18.0180 C   0  0  0  0  0
  -19.4570  -34.2940   18.7890 O   0  0  0  0  0
  -18.1340  -33.5950   17.0160 C   0  0  0  0  0
  -17.2190  -33.9240   16.0000 C   0  0  0  0  0
  -16.6230  -35.1220   15.9140 F   0  0  0  0  0
  -16.9170  -32.9930   15.0190 C   0  0  0  0  0
  -17.4680  -31.7230   15.0110 C   0  0  0  0  0
  -18.3570  -31.3760   16.0030 C   0  0  0  0  0
  -18.6880  -32.2980   16.9790 C   0  0  0  0  0
  -19.5490  -31.9580   17.9200 N   0  0  0  0  0
  -19.8275  -33.4329   18.5820 H   0  0  0  0  0
  -16.2218  -33.2701   14.2265 H   0  0  0  0  0
  -17.2021  -31.0091   14.2315 H   0  0  0  0  0
  -18.7979  -30.3793   16.0191 H   0  0  0  0  0
  -19.7980  -32.6265   18.6491 H   0  0  0  0  0
  -19.9653  -31.0268   17.9181 H   0  0  0  0  0
  1  2  2  0  0  0
  2  3  1  0  0  0
  2  4  1  0  0  0
  4  5  4  0  0  0
  4 10  4  0  0  0
  5  6  1  0  0  0
  5  7  4  0  0  0
  7  8  4  0  0  0
  8  9  4  0  0  0
  9 10  4  0  0  0
 10 11  1  0  0  0
  3 12  1  0  0  0
  7 13  1  0  0  0
  8 14  1  0  0  0
  9 15  1  0  0  0
 11 16  1  0  0  0
 11 17  1  0  0  0
M  END
$$$$
