### 
### Created by X-TOOL on Mon Sep 10 21:13:20 2018
### 

@<TRIPOS>MOLECULE
2mwo_ligand
  244   245     1     0     0
SMALL
GAST_HUCK


@<TRIPOS>ATOM
      1 N           1.5920  -16.8170   20.6810 N.4       1 ARG         0.2379
      2 CA          0.6730  -17.9050   20.2340 C.3       1 ARG         0.0651
      3 C           0.2110  -17.6520   18.7890 C.2       1 ARG         0.2267
      4 O           0.0610  -16.4990   18.3730 O.2       1 ARG        -0.3907
      5 CB         -0.5250  -18.0630   21.2100 C.3       1 ARG         0.0110
      6 CG         -1.4580  -19.2540   20.8930 C.3       1 ARG        -0.0125
      7 CD         -2.5640  -19.4280   21.9430 C.3       1 ARG         0.0629
      8 NE         -2.0260  -19.8400   23.2560 N.pl3     1 ARG        -0.2723
      9 CZ         -2.6920  -19.8290   24.4210 C.cat     1 ARG         0.2882
     10 NH1        -3.9690  -19.4580   24.4710 N.pl3     1 ARG        -0.2849
     11 NH2        -2.0680  -20.1900   25.5390 N.pl3     1 ARG        -0.2849
     12 N          -0.0460  -18.7280   18.0350 N.am      1 ALA        -0.2613
     13 CA         -0.6520  -18.7060   16.7060 C.3       1 ALA         0.1283
     14 C          -1.7030  -19.8220   16.6290 C.2       1 ALA         0.2037
     15 O          -1.8460  -20.6250   17.5570 O.2       1 ALA        -0.3944
     16 CB          0.4420  -18.8820   15.6400 C.3       1 ALA        -0.0244
     17 N          -2.4330  -19.8620   15.5160 N.am      1 HIS        -0.2625
     18 CA         -3.3380  -20.9520   15.1550 C.3       1 HIS         0.1369
     19 C          -2.5830  -22.2870   14.9980 C.2       1 HIS         0.2054
     20 O          -1.3490  -22.3570   15.0570 O.2       1 HIS        -0.3942
     21 CB         -4.0930  -20.5750   13.8680 C.3       1 HIS         0.0145
     22 CG         -3.1670  -20.0610   12.7940 C.2       1 HIS        -0.0027
     23 ND1        -3.1060  -18.7320   12.3600 N.2       1 HIS        -0.3252
     24 CD2        -2.2450  -20.8020   12.1100 C.2       1 HIS         0.0291
     25 CE1        -2.1220  -18.6990   11.4460 C.2       1 HIS         0.0907
     26 NE2        -1.5800  -19.9190   11.2960 N.pl3     1 HIS        -0.2752
     27 N          -3.3620  -23.3540   14.8080 N.am      1 SER        -0.2615
     28 CA         -2.9550  -24.7500   14.7010 C.3       1 SER         0.1539
     29 C          -1.9880  -25.0400   13.5370 C.2       1 SER         0.2062
     30 O          -1.6750  -24.1710   12.7220 O.2       1 SER        -0.3943
     31 CB         -4.2420  -25.5700   14.5480 C.3       1 SER         0.0843
     32 OG         -5.2230  -25.1420   15.4800 O.3       1 SER        -0.3903
     33 N          -1.5450  -26.2980   13.4360 N.am      1 SER        -0.2615
     34 CA         -0.5440  -26.7930   12.4920 C.3       1 SER         0.1539
     35 C          -0.8970  -26.6430   11.0020 C.2       1 SER         0.2063
     36 O          -0.0360  -26.9270   10.1630 O.2       1 SER        -0.3943
     37 CB         -0.3290  -28.2840   12.7860 C.3       1 SER         0.0843
     38 OG         -0.2300  -28.5410   14.1880 O.3       1 SER        -0.3903
     39 N          -2.1180  -26.2080   10.6550 N.am      1 HIS        -0.2624
     40 CA         -2.6410  -26.2490    9.2930 C.3       1 HIS         0.1369
     41 C          -2.4020  -27.6590    8.7520 C.2       1 HIS         0.2054
     42 O          -2.7150  -28.6480    9.4220 O.2       1 HIS        -0.3942
     43 CB         -2.0660  -25.1190    8.4120 C.3       1 HIS         0.0145
     44 CG         -2.8870  -24.8790    7.1700 C.2       1 HIS        -0.0027
     45 ND1        -4.2240  -24.4940    7.1780 N.2       1 HIS        -0.3252
     46 CD2        -2.4610  -24.9900    5.8740 C.2       1 HIS         0.0291
     47 CE1        -4.5650  -24.3310    5.8920 C.2       1 HIS         0.0907
     48 NE2        -3.5320  -24.6290    5.0840 N.pl3     1 HIS        -0.2752
     49 N          -1.8070  -27.7710    7.5720 N.am      1 LEU        -0.2636
     50 CA         -1.4030  -29.0110    6.9610 C.3       1 LEU         0.1312
     51 C           0.0900  -28.8870    6.7290 C.2       1 LEU         0.2039
     52 O           0.5350  -27.8360    6.2720 O.2       1 LEU        -0.3944
     53 CB         -2.1710  -29.1450    5.6490 C.3       1 LEU        -0.0101
     54 CG         -1.6860  -30.2910    4.7450 C.3       1 LEU        -0.0425
     55 CD1        -2.3150  -31.6160    5.1700 C.3       1 LEU        -0.0625
     56 CD2        -2.0690  -29.9570    3.3060 C.3       1 LEU        -0.0625
     57 N           0.8380  -29.9490    7.0110 N.am      1 MLY        -0.2637
     58 CA          2.2370  -30.1050    6.6670 C.3       1 MLY         0.1310
     59 CB          3.1640  -29.8270    7.8660 C.3       1 MLY        -0.0122
     60 CG          3.0130  -28.4030    8.4450 C.3       1 MLY        -0.0440
     61 CD          3.4060  -27.2750    7.4630 C.3       1 MLY        -0.0123
     62 CE          2.7210  -25.9480    7.8250 C.3       1 MLY        -0.0324
     63 NZ          2.7720  -24.9360    6.7300 N.4       1 MLY         0.2309
     64 CH1         4.1170  -24.4940    6.3050 C.3       1 MLY        -0.0433
     65 CH2         1.8570  -25.1600    5.5780 C.3       1 MLY        -0.0433
     66 C           2.3590  -31.5080    6.0940 C.2       1 MLY         0.2040
     67 O           2.5150  -32.4950    6.8110 O.2       1 MLY        -0.3944
     68 N           2.2160  -31.5400    4.7680 N.am      1 SER        -0.2616
     69 CA          2.1070  -32.6980    3.8760 C.3       1 SER         0.1539
     70 C           3.2450  -33.7260    4.0050 C.2       1 SER         0.2062
     71 O           3.1190  -34.8450    3.5040 O.2       1 SER        -0.3943
     72 CB          1.9860  -32.1730    2.4350 C.3       1 SER         0.0843
     73 OG          2.7960  -31.0060    2.2500 O.3       1 SER        -0.3903
     74 N           4.3470  -33.3750    4.6890 N.am      1 LYS        -0.2637
     75 CA          5.4590  -34.2900    4.9640 C.3       1 LYS         0.1310
     76 C           5.0170  -35.5640    5.6990 C.2       1 LYS         0.2039
     77 O           5.6850  -36.5940    5.5700 O.2       1 LYS        -0.3944
     78 CB          6.5930  -33.5610    5.7110 C.3       1 LYS        -0.0122
     79 CG          6.2180  -33.0620    7.1190 C.3       1 LYS        -0.0440
     80 CD          7.4300  -32.4310    7.8180 C.3       1 LYS        -0.0124
     81 CE          7.0340  -31.9200    9.2130 C.3       1 LYS        -0.0354
     82 NZ          8.1970  -31.3670    9.9590 N.4       1 LYS         0.2185
     83 N           3.9030  -35.5190    6.4390 N.am      1 LYS        -0.2637
     84 CA          3.2630  -36.6710    7.0810 C.3       1 LYS         0.1310
     85 C           1.7480  -36.5160    6.9220 C.2       1 LYS         0.2037
     86 O           1.2620  -35.4080    6.6760 O.2       1 LYS        -0.3944
     87 CB          3.6430  -36.7550    8.5730 C.3       1 LYS        -0.0122
     88 CG          5.1160  -37.1300    8.8040 C.3       1 LYS        -0.0440
     89 CD          5.4120  -37.3020   10.3040 C.3       1 LYS        -0.0124
     90 CE          6.8880  -37.6230   10.5900 C.3       1 LYS        -0.0354
     91 NZ          7.2930  -38.9830   10.1470 N.4       1 LYS         0.2185
     92 N           1.0040  -37.6170    7.0600 N.am      1 GLY        -0.2664
     93 CA         -0.4550  -37.5870    7.0790 C.3       1 GLY         0.1201
     94 C          -0.9680  -36.9980    8.3940 C.2       1 GLY         0.2007
     95 O          -0.2490  -36.9830    9.3960 O.2       1 GLY        -0.3947
     96 N          -2.2230  -36.5330    8.3930 N.am      1 GLN        -0.2638
     97 CA         -2.8840  -35.8990    9.5440 C.3       1 GLN         0.1330
     98 C          -4.2990  -36.4710    9.7820 C.2       1 GLN         0.2041
     99 O          -5.0350  -35.9320   10.6110 O.2       1 GLN        -0.3944
    100 CB         -2.8650  -34.3680    9.3490 C.3       1 GLN         0.0045
    101 CG         -1.4870  -33.7680    9.6860 C.3       1 GLN         0.0412
    102 CD         -1.4060  -32.2760    9.3650 C.2       1 GLN         0.1737
    103 OE1        -0.6320  -31.8570    8.5080 O.2       1 GLN        -0.3973
    104 NE2        -2.1870  -31.4420   10.0270 N.am      1 GLN        -0.3009
    105 N          -4.6450  -37.5750    9.1030 N.am      1 SER        -0.2616
    106 CA         -5.8300  -38.4120    9.3070 C.3       1 SER         0.1539
    107 C          -7.0970  -37.6450    9.7350 C.2       1 SER         0.2057
    108 O          -7.5540  -37.7650   10.8820 O.2       1 SER        -0.3943
    109 CB         -5.4640  -39.5490   10.2680 C.3       1 SER         0.0843
    110 OG         -4.2950  -40.2320    9.8210 O.3       1 SER        -0.3903
    111 N          -7.6520  -36.8520    8.8060 N.am      1 THR        -0.2669
    112 CA         -8.9560  -36.2120    8.9450 C.3       1 THR         0.1198
    113 C          -9.9960  -37.2430    9.4150 C.2       1 THR         0.0626
    114 O         -10.7470  -36.9520   10.3770 O.co2     1 THR        -0.5665
    115 CB         -9.3640  -35.5680    7.6060 C.3       1 THR         0.0869
    116 OG1        -8.2600  -34.9030    7.0140 O.3       1 THR        -0.3880
    117 CG2       -10.4950  -34.5470    7.7850 C.3       1 THR        -0.0352
    118 OXT       -10.0670  -38.3530    8.8300 O.co2     1 THR        -0.5665
    119 H           1.8871  -16.9945   21.6283 H         1 ARG         0.2015
    120 H           1.1107  -15.9323   20.6393 H         1 ARG         0.2015
    121 H           2.3988  -16.7895   20.0774 H         1 ARG         0.2015
    122 H           1.2366  -18.8496   20.2449 H         1 ARG         0.1098
    123 H          -1.1220  -17.1398   21.1733 H         1 ARG         0.0347
    124 H          -0.1250  -18.2009   22.2254 H         1 ARG         0.0347
    125 H          -0.8564  -20.1742   20.8582 H         1 ARG         0.0302
    126 H          -1.9260  -19.0845   19.9121 H         1 ARG         0.0302
    127 H          -3.2685  -20.1963   21.5918 H         1 ARG         0.0689
    128 H          -3.0939  -18.4714   22.0615 H         1 ARG         0.0689
    129 H          -1.0492  -20.1659   23.2793 H         1 ARG         0.2642
    130 H          -4.4692  -19.4538   25.3714 H         1 ARG         0.2615
    131 H          -4.4572  -19.1750   23.6093 H         1 ARG         0.2615
    132 H          -1.0797  -20.4782   25.5071 H         1 ARG         0.2615
    133 H          -2.5732  -20.1813   26.4366 H         1 ARG         0.2615
    134 H           0.1972  -19.6213   18.4131 H         1 ALA         0.1884
    135 H          -1.1479  -17.7371   16.5471 H         1 ALA         0.0797
    136 H          -0.0149  -18.8654   14.6395 H         1 ALA         0.0277
    137 H           0.9526  -19.8441   15.7939 H         1 ALA         0.0277
    138 H           1.1709  -18.0625   15.7238 H         1 ALA         0.0277
    139 H          -2.3568  -19.0921   14.8824 H         1 HIS         0.1885
    140 H          -4.0731  -21.0736   15.9642 H         1 HIS         0.0817
    141 H          -4.8290  -19.7927   14.1053 H         1 HIS         0.0420
    142 H          -4.6145  -21.4664   13.4892 H         1 HIS         0.0420
    143 H          -2.0729  -21.8741   12.1935 H         1 HIS         0.0729
    144 H          -1.8080  -17.8087   10.9032 H         1 HIS         0.1199
    145 H          -0.7944  -20.1534   10.6725 H         1 HIS         0.2361
    146 H          -4.3426  -23.1744   14.7296 H         1 SER         0.1884
    147 H          -2.4504  -25.0385   15.6349 H         1 SER         0.0823
    148 H          -4.0164  -26.6322   14.7234 H         1 SER         0.0606
    149 H          -4.6329  -25.4417   13.5278 H         1 SER         0.0606
    150 H          -6.0110  -25.6610   15.3694 H         1 SER         0.2097
    151 H          -1.9371  -26.9660   14.0685 H         1 SER         0.1884
    152 H           0.3924  -26.2448   12.6727 H         1 SER         0.0823
    153 H           0.6003  -28.6125   12.2976 H         1 SER         0.0606
    154 H          -1.1780  -28.8529   12.3792 H         1 SER         0.0606
    155 H          -0.0978  -29.4710   14.3298 H         1 SER         0.2097
    156 H          -2.7049  -25.8332   11.3727 H         1 HIS         0.1885
    157 H          -3.7285  -26.0905    9.3401 H         1 HIS         0.0817
    158 H          -1.0436  -25.3918    8.1115 H         1 HIS         0.0420
    159 H          -2.0395  -24.1909    9.0018 H         1 HIS         0.0420
    160 H          -1.4740  -25.3011    5.5347 H         1 HIS         0.0729
    161 H          -5.5447  -24.0022    5.5484 H         1 HIS         0.1199
    162 H          -3.5395  -24.5937    4.0546 H         1 HIS         0.2361
    163 H          -1.6244  -26.9277    7.0665 H         1 LEU         0.1883
    164 H          -1.6199  -29.8685    7.6149 H         1 LEU         0.0800
    165 H          -2.0699  -28.2014    5.0928 H         1 LEU         0.0315
    166 H          -3.2309  -29.3189    5.8866 H         1 LEU         0.0315
    167 H          -0.5919  -30.3761    4.8208 H         1 LEU         0.0298
    168 H          -1.9553  -32.4205    4.5116 H         1 LEU         0.0232
    169 H          -3.4100  -31.5429    5.0950 H         1 LEU         0.0232
    170 H          -2.0328  -31.8392    6.2095 H         1 LEU         0.0232
    171 H          -1.6083  -29.0010    3.0164 H         1 LEU         0.0232
    172 H          -3.1631  -29.8754    3.2273 H         1 LEU         0.0232
    173 H          -1.7116  -30.7537    2.6371 H         1 LEU         0.0232
    174 H           0.3992  -30.7023    7.5009 H         1 MLY         0.1883
    175 H           2.4953  -29.3815    5.8797 H         1 MLY         0.0800
    176 H           4.2057  -29.9611    7.5391 H         1 MLY         0.0312
    177 H           2.9327  -30.5520    8.6603 H         1 MLY         0.0312
    178 H           3.6530  -28.3232    9.3361 H         1 MLY         0.0269
    179 H           1.9617  -28.2578    8.7343 H         1 MLY         0.0269
    180 H           3.1056  -27.5662    6.4457 H         1 MLY         0.0317
    181 H           4.4965  -27.1351    7.4975 H         1 MLY         0.0317
    182 H           3.2202  -25.5284    8.7109 H         1 MLY         0.0814
    183 H           1.6664  -26.1532    8.0611 H         1 MLY         0.0814
    184 H           2.3887  -24.1158    7.1732 H         1 MLY         0.2028
    185 H           4.0213  -23.7529    5.4978 H         1 MLY         0.0777
    186 H           4.6898  -25.3600    5.9417 H         1 MLY         0.0777
    187 H           4.6408  -24.0401    7.1592 H         1 MLY         0.0777
    188 H           0.8740  -25.4862    5.9486 H         1 MLY         0.0777
    189 H           2.2773  -25.9360    4.9214 H         1 MLY         0.0777
    190 H           1.7432  -24.2234    5.0125 H         1 MLY         0.0777
    191 H           2.1777  -30.6473    4.3189 H         1 SER         0.1884
    192 H           1.1743  -33.2233    4.1294 H         1 SER         0.0823
    193 H           0.9354  -31.9191    2.2305 H         1 SER         0.0606
    194 H           2.3166  -32.9560    1.7367 H         1 SER         0.0606
    195 H           2.5115  -30.3261    2.8494 H         1 SER         0.2097
    196 H           4.4123  -32.4371    5.0296 H         1 LYS         0.1883
    197 H           5.8620  -34.6081    3.9912 H         1 LYS         0.0800
    198 H           6.8969  -32.6920    5.1090 H         1 LYS         0.0312
    199 H           7.4412  -34.2547    5.8078 H         1 LYS         0.0312
    200 H           5.8588  -33.9116    7.7183 H         1 LYS         0.0269
    201 H           5.4198  -32.3100    7.0337 H         1 LYS         0.0269
    202 H           7.7995  -31.5889    7.2144 H         1 LYS         0.0317
    203 H           8.2239  -33.1855    7.9197 H         1 LYS         0.0317
    204 H           6.6083  -32.7550    9.7887 H         1 LYS         0.0813
    205 H           6.2775  -31.1296    9.0994 H         1 LYS         0.0813
    206 H           7.8930  -31.0449   10.8645 H         1 LYS         0.1994
    207 H           8.5913  -30.5960    9.4431 H         1 LYS         0.1994
    208 H           8.8944  -32.0855   10.0748 H         1 LYS         0.1994
    209 H           3.4714  -34.6257    6.5644 H         1 LYS         0.1883
    210 H           3.5902  -37.5940    6.5801 H         1 LYS         0.0800
    211 H           3.0095  -37.5157    9.0526 H         1 LYS         0.0312
    212 H           3.4550  -35.7756    9.0371 H         1 LYS         0.0312
    213 H           5.7578  -36.3334    8.3997 H         1 LYS         0.0269
    214 H           5.3326  -38.0748    8.2839 H         1 LYS         0.0269
    215 H           4.7926  -38.1241   10.6919 H         1 LYS         0.0317
    216 H           5.1491  -36.3684   10.8229 H         1 LYS         0.0317
    217 H           7.0583  -37.5443   11.6739 H         1 LYS         0.0813
    218 H           7.5132  -36.8851   10.0660 H         1 LYS         0.0813
    219 H           8.2667  -39.1303   10.3621 H         1 LYS         0.1994
    220 H           7.1519  -39.0684    9.1526 H         1 LYS         0.1994
    221 H           6.7351  -39.6725   10.6260 H         1 LYS         0.1994
    222 H           1.4662  -38.4987    7.1542 H         1 GLY         0.1881
    223 H          -0.8385  -38.6121    6.9689 H         1 GLY         0.0763
    224 H          -0.8141  -36.9694    6.2426 H         1 GLY         0.0763
    225 H          -2.7499  -36.6232    7.5479 H         1 GLN         0.1883
    226 H          -2.2905  -36.1265   10.4417 H         1 GLN         0.0801
    227 H          -3.6214  -33.9154   10.0070 H         1 GLN         0.0337
    228 H          -3.1067  -34.1391    8.3006 H         1 GLN         0.0337
    229 H          -0.7192  -34.2969    9.1022 H         1 GLN         0.0504
    230 H          -1.2934  -33.9092   10.7596 H         1 GLN         0.0504
    231 H          -2.1502  -30.4617    9.8328 H         1 GLN         0.1814
    232 H          -2.8152  -31.7907   10.7225 H         1 GLN         0.1814
    233 H          -4.0226  -37.8593    8.3738 H         1 SER         0.1884
    234 H          -6.0673  -38.8708    8.3358 H         1 SER         0.0823
    235 H          -6.3006  -40.2614   10.3194 H         1 SER         0.0606
    236 H          -5.2770  -39.1303   11.2678 H         1 SER         0.0606
    237 H          -4.0860  -40.9311   10.4292 H         1 SER         0.2097
    238 H          -7.1386  -36.6889    7.9635 H         1 THR         0.1876
    239 H          -8.8831  -35.4199    9.7048 H         1 THR         0.0752
    240 H          -9.7085  -36.3644    6.9299 H         1 THR         0.0632
    241 H          -8.5308  -34.5131    6.1910 H         1 THR         0.2100
    242 H         -10.7548  -34.1126    6.8084 H         1 THR         0.0256
    243 H         -10.1638  -33.7484    8.4651 H         1 THR         0.0256
    244 H         -11.3774  -35.0479    8.2098 H         1 THR         0.0256
@<TRIPOS>BOND
     1    1    2 1  
     2    2    3 1  
     3    2    5 1  
     4    3    4 2  
     5    3   12 am 
     6    5    6 1  
     7    6    7 1  
     8    7    8 1  
     9    8    9 ar 
    10    9   10 ar 
    11    9   11 ar 
    12   12   13 1  
    13   13   14 1  
    14   13   16 1  
    15   14   15 2  
    16   14   17 am 
    17   17   18 1  
    18   18   19 1  
    19   18   21 1  
    20   19   20 2  
    21   19   27 am 
    22   21   22 1  
    23   22   23 1  
    24   22   24 2  
    25   23   25 2  
    26   24   26 1  
    27   25   26 1  
    28   27   28 1  
    29   28   29 1  
    30   28   31 1  
    31   29   30 2  
    32   29   33 am 
    33   31   32 1  
    34   33   34 1  
    35   34   35 1  
    36   34   37 1  
    37   35   36 2  
    38   35   39 am 
    39   37   38 1  
    40   39   40 1  
    41   40   41 1  
    42   40   43 1  
    43   41   42 2  
    44   41   49 am 
    45   43   44 1  
    46   44   45 1  
    47   44   46 2  
    48   45   47 2  
    49   46   48 1  
    50   47   48 1  
    51   49   50 1  
    52   50   51 1  
    53   50   53 1  
    54   51   52 2  
    55   51   57 am 
    56   53   54 1  
    57   54   55 1  
    58   54   56 1  
    59   57   58 1  
    60   58   59 1  
    61   58   66 1  
    62   59   60 1  
    63   60   61 1  
    64   61   62 1  
    65   62   63 1  
    66   63   64 1  
    67   63   65 1  
    68   66   67 2  
    69   66   68 am 
    70   68   69 1  
    71   69   70 1  
    72   69   72 1  
    73   70   71 2  
    74   70   74 am 
    75   72   73 1  
    76   74   75 1  
    77   75   76 1  
    78   75   78 1  
    79   76   77 2  
    80   76   83 am 
    81   78   79 1  
    82   79   80 1  
    83   80   81 1  
    84   81   82 1  
    85   83   84 1  
    86   84   85 1  
    87   84   87 1  
    88   85   86 2  
    89   85   92 am 
    90   87   88 1  
    91   88   89 1  
    92   89   90 1  
    93   90   91 1  
    94   92   93 1  
    95   93   94 1  
    96   94   95 2  
    97   94   96 am 
    98   96   97 1  
    99   97   98 1  
   100   97  100 1  
   101   98   99 2  
   102   98  105 am 
   103  100  101 1  
   104  101  102 1  
   105  102  103 2  
   106  102  104 am 
   107  105  106 1  
   108  106  107 1  
   109  106  109 1  
   110  107  108 2  
   111  107  111 am 
   112  109  110 1  
   113  111  112 1  
   114  112  113 1  
   115  112  115 1  
   116  113  114 ar 
   117  113  118 ar 
   118  115  116 1  
   119  115  117 1  
   120    1  119 1  
   121    1  120 1  
   122    1  121 1  
   123    2  122 1  
   124    5  123 1  
   125    5  124 1  
   126    6  125 1  
   127    6  126 1  
   128    7  127 1  
   129    7  128 1  
   130    8  129 1  
   131   10  130 1  
   132   10  131 1  
   133   11  132 1  
   134   11  133 1  
   135   12  134 1  
   136   13  135 1  
   137   16  136 1  
   138   16  137 1  
   139   16  138 1  
   140   17  139 1  
   141   18  140 1  
   142   21  141 1  
   143   21  142 1  
   144   24  143 1  
   145   25  144 1  
   146   26  145 1  
   147   27  146 1  
   148   28  147 1  
   149   31  148 1  
   150   31  149 1  
   151   32  150 1  
   152   33  151 1  
   153   34  152 1  
   154   37  153 1  
   155   37  154 1  
   156   38  155 1  
   157   39  156 1  
   158   40  157 1  
   159   43  158 1  
   160   43  159 1  
   161   46  160 1  
   162   47  161 1  
   163   48  162 1  
   164   49  163 1  
   165   50  164 1  
   166   53  165 1  
   167   53  166 1  
   168   54  167 1  
   169   55  168 1  
   170   55  169 1  
   171   55  170 1  
   172   56  171 1  
   173   56  172 1  
   174   56  173 1  
   175   57  174 1  
   176   58  175 1  
   177   59  176 1  
   178   59  177 1  
   179   60  178 1  
   180   60  179 1  
   181   61  180 1  
   182   61  181 1  
   183   62  182 1  
   184   62  183 1  
   185   63  184 1  
   186   64  185 1  
   187   64  186 1  
   188   64  187 1  
   189   65  188 1  
   190   65  189 1  
   191   65  190 1  
   192   68  191 1  
   193   69  192 1  
   194   72  193 1  
   195   72  194 1  
   196   73  195 1  
   197   74  196 1  
   198   75  197 1  
   199   78  198 1  
   200   78  199 1  
   201   79  200 1  
   202   79  201 1  
   203   80  202 1  
   204   80  203 1  
   205   81  204 1  
   206   81  205 1  
   207   82  206 1  
   208   82  207 1  
   209   82  208 1  
   210   83  209 1  
   211   84  210 1  
   212   87  211 1  
   213   87  212 1  
   214   88  213 1  
   215   88  214 1  
   216   89  215 1  
   217   89  216 1  
   218   90  217 1  
   219   90  218 1  
   220   91  219 1  
   221   91  220 1  
   222   91  221 1  
   223   92  222 1  
   224   93  223 1  
   225   93  224 1  
   226   96  225 1  
   227   97  226 1  
   228  100  227 1  
   229  100  228 1  
   230  101  229 1  
   231  101  230 1  
   232  104  231 1  
   233  104  232 1  
   234  105  233 1  
   235  106  234 1  
   236  109  235 1  
   237  109  236 1  
   238  110  237 1  
   239  111  238 1  
   240  112  239 1  
   241  115  240 1  
   242  116  241 1  
   243  117  242 1  
   244  117  243 1  
   245  117  244 1  
@<TRIPOS>SUBSTRUCTURE
     1 ARG         1

