2mwo_ligand
  -I-interpret- 

242243  0  0  0  0  0  0  0  0999 V2000
    1.5920  -16.8170   20.6810 N   0  3  0  0  0
    0.6730  -17.9050   20.2340 C   0  0  0  0  0
    0.2110  -17.6520   18.7890 C   0  0  0  0  0
    0.0610  -16.4990   18.3730 O   0  0  0  0  0
   -0.5250  -18.0630   21.2100 C   0  0  0  0  0
   -1.4580  -19.2540   20.8930 C   0  0  0  0  0
   -2.5640  -19.4280   21.9430 C   0  0  0  0  0
   -2.0260  -19.8400   23.2560 N   0  0  0  0  0
   -2.6920  -19.8290   24.4210 C   0  0  0  0  0
   -3.9690  -19.4580   24.4710 N   0  0  0  0  0
   -2.0680  -20.1900   25.5390 N   0  0  0  0  0
   -0.0460  -18.7280   18.0350 N   0  0  0  0  0
   -0.6520  -18.7060   16.7060 C   0  0  0  0  0
   -1.7030  -19.8220   16.6290 C   0  0  0  0  0
   -1.8460  -20.6250   17.5570 O   0  0  0  0  0
    0.4420  -18.8820   15.6400 C   0  0  0  0  0
   -2.4330  -19.8620   15.5160 N   0  0  0  0  0
   -3.3380  -20.9520   15.1550 C   0  0  0  0  0
   -2.5830  -22.2870   14.9980 C   0  0  0  0  0
   -1.3490  -22.3570   15.0570 O   0  0  0  0  0
   -4.0930  -20.5750   13.8680 C   0  0  0  0  0
   -3.1670  -20.0610   12.7940 C   0  0  0  0  0
   -3.1060  -18.7320   12.3600 N   0  0  0  0  0
   -2.2450  -20.8020   12.1100 C   0  0  0  0  0
   -2.1220  -18.6990   11.4460 C   0  0  0  0  0
   -1.5800  -19.9190   11.2960 N   0  0  0  0  0
   -3.3620  -23.3540   14.8080 N   0  0  0  0  0
   -2.9550  -24.7500   14.7010 C   0  0  0  0  0
   -1.9880  -25.0400   13.5370 C   0  0  0  0  0
   -1.6750  -24.1710   12.7220 O   0  0  0  0  0
   -4.2420  -25.5700   14.5480 C   0  0  0  0  0
   -5.2230  -25.1420   15.4800 O   0  0  0  0  0
   -1.5450  -26.2980   13.4360 N   0  0  0  0  0
   -0.5440  -26.7930   12.4920 C   0  0  0  0  0
   -0.8970  -26.6430   11.0020 C   0  0  0  0  0
   -0.0360  -26.9270   10.1630 O   0  0  0  0  0
   -0.3290  -28.2840   12.7860 C   0  0  0  0  0
   -0.2300  -28.5410   14.1880 O   0  0  0  0  0
   -2.1180  -26.2080   10.6550 N   0  0  0  0  0
   -2.6410  -26.2490    9.2930 C   0  0  0  0  0
   -2.4020  -27.6590    8.7520 C   0  0  0  0  0
   -2.7150  -28.6480    9.4220 O   0  0  0  0  0
   -2.0660  -25.1190    8.4120 C   0  0  0  0  0
   -2.8870  -24.8790    7.1700 C   0  0  0  0  0
   -4.2240  -24.4940    7.1780 N   0  0  0  0  0
   -2.4610  -24.9900    5.8740 C   0  0  0  0  0
   -4.5650  -24.3310    5.8920 C   0  0  0  0  0
   -3.5320  -24.6290    5.0840 N   0  0  0  0  0
   -1.8070  -27.7710    7.5720 N   0  0  0  0  0
   -1.4030  -29.0110    6.9610 C   0  0  0  0  0
    0.0900  -28.8870    6.7290 C   0  0  0  0  0
    0.5350  -27.8360    6.2720 O   0  0  0  0  0
   -2.1710  -29.1450    5.6490 C   0  0  0  0  0
   -1.6860  -30.2910    4.7450 C   0  0  0  0  0
   -2.3150  -31.6160    5.1700 C   0  0  0  0  0
   -2.0690  -29.9570    3.3060 C   0  0  0  0  0
    0.8380  -29.9490    7.0110 N   0  0  0  0  0
    2.2370  -30.1050    6.6670 C   0  0  0  0  0
    3.1640  -29.8270    7.8660 C   0  0  0  0  0
    3.0130  -28.4030    8.4450 C   0  0  0  0  0
    3.4060  -27.2750    7.4630 C   0  0  0  0  0
    2.7210  -25.9480    7.8250 C   0  0  0  0  0
    2.7720  -24.9360    6.7300 N   0  3  0  0  0
    4.1170  -24.4940    6.3050 C   0  0  0  0  0
    1.8570  -25.1600    5.5780 C   0  0  0  0  0
    2.3590  -31.5080    6.0940 C   0  0  0  0  0
    2.5150  -32.4950    6.8110 O   0  0  0  0  0
    2.2160  -31.5400    4.7680 N   0  0  0  0  0
    2.1070  -32.6980    3.8760 C   0  0  0  0  0
    3.2450  -33.7260    4.0050 C   0  0  0  0  0
    3.1190  -34.8450    3.5040 O   0  0  0  0  0
    1.9860  -32.1730    2.4350 C   0  0  0  0  0
    2.7960  -31.0060    2.2500 O   0  0  0  0  0
    4.3470  -33.3750    4.6890 N   0  0  0  0  0
    5.4590  -34.2900    4.9640 C   0  0  0  0  0
    5.0170  -35.5640    5.6990 C   0  0  0  0  0
    5.6850  -36.5940    5.5700 O   0  0  0  0  0
    6.5930  -33.5610    5.7110 C   0  0  0  0  0
    6.2180  -33.0620    7.1190 C   0  0  0  0  0
    7.4300  -32.4310    7.8180 C   0  0  0  0  0
    7.0340  -31.9200    9.2130 C   0  0  0  0  0
    8.1970  -31.3670    9.9590 N   0  3  0  0  0
    3.9030  -35.5190    6.4390 N   0  0  0  0  0
    3.2630  -36.6710    7.0810 C   0  0  0  0  0
    1.7480  -36.5160    6.9220 C   0  0  0  0  0
    1.2620  -35.4080    6.6760 O   0  0  0  0  0
    3.6430  -36.7550    8.5730 C   0  0  0  0  0
    5.1160  -37.1300    8.8040 C   0  0  0  0  0
    5.4120  -37.3020   10.3040 C   0  0  0  0  0
    6.8880  -37.6230   10.5900 C   0  0  0  0  0
    7.2930  -38.9830   10.1470 N   0  3  0  0  0
    1.0040  -37.6170    7.0600 N   0  0  0  0  0
   -0.4550  -37.5870    7.0790 C   0  0  0  0  0
   -0.9680  -36.9980    8.3940 C   0  0  0  0  0
   -0.2490  -36.9830    9.3960 O   0  0  0  0  0
   -2.2230  -36.5330    8.3930 N   0  0  0  0  0
   -2.8840  -35.8990    9.5440 C   0  0  0  0  0
   -4.2990  -36.4710    9.7820 C   0  0  0  0  0
   -5.0350  -35.9320   10.6110 O   0  0  0  0  0
   -2.8650  -34.3680    9.3490 C   0  0  0  0  0
   -1.4870  -33.7680    9.6860 C   0  0  0  0  0
   -1.4060  -32.2760    9.3650 C   0  0  0  0  0
   -0.6320  -31.8570    8.5080 O   0  0  0  0  0
   -2.1870  -31.4420   10.0270 N   0  0  0  0  0
   -4.6450  -37.5750    9.1030 N   0  0  0  0  0
   -5.8300  -38.4120    9.3070 C   0  0  0  0  0
   -7.0970  -37.6450    9.7350 C   0  0  0  0  0
   -7.5540  -37.7650   10.8820 O   0  0  0  0  0
   -5.4640  -39.5490   10.2680 C   0  0  0  0  0
   -4.2950  -40.2320    9.8210 O   0  0  0  0  0
   -7.6520  -36.8520    8.8060 N   0  0  0  0  0
   -8.9560  -36.2120    8.9450 C   0  0  0  0  0
   -9.9960  -37.2430    9.4150 C   0  0  0  0  0
  -10.7470  -36.9520   10.3770 O   0  0  0  0  0
   -9.3640  -35.5680    7.6060 C   0  0  0  0  0
   -8.2600  -34.9030    7.0140 O   0  0  0  0  0
  -10.4950  -34.5470    7.7850 C   0  0  0  0  0
  -10.0670  -38.3530    8.8300 O   0  0  0  0  0
    2.3670  -16.7364   20.0228 H   0  0  0  0  0
    1.0810  -15.9349   20.7160 H   0  0  0  0  0
    1.9537  -17.0388   21.6086 H   0  0  0  0  0
    1.2170  -18.8495   20.2480 H   0  0  0  0  0
   -1.1253  -17.1570   21.1272 H   0  0  0  0  0
   -0.1075  -18.2401   22.2012 H   0  0  0  0  0
   -0.8547  -20.1618   20.8856 H   0  0  0  0  0
   -1.9338  -19.0625   19.9312 H   0  0  0  0  0
   -3.2430  -20.2064   21.5950 H   0  0  0  0  0
   -3.0672  -18.4692   22.0680 H   0  0  0  0  0
   -1.0587  -20.1627   23.2791 H   0  0  0  0  0
   -4.4637  -19.4516   25.3630 H   0  0  0  0  0
   -4.4531  -19.1801   23.6173 H   0  0  0  0  0
   -1.0886  -20.4731   25.5078 H   0  0  0  0  0
    0.2020  -19.6391   18.4207 H   0  0  0  0  0
   -1.1442  -17.7513   16.5206 H   0  0  0  0  0
    1.1636  -18.0694   15.7242 H   0  0  0  0  0
    0.9471  -19.8356   15.7936 H   0  0  0  0  0
   -0.0119  -18.8653   14.6492 H   0  0  0  0  0
   -2.3553  -19.0767   14.8697 H   0  0  0  0  0
   -4.0582  -21.0972   15.9602 H   0  0  0  0  0
   -4.8030  -19.7843   14.1106 H   0  0  0  0  0
   -4.5869  -21.4701   13.4900 H   0  0  0  0  0
   -2.0727  -21.8750   12.1936 H   0  0  0  0  0
   -1.8077  -17.8079   10.9027 H   0  0  0  0  0
   -4.3622  -23.1708   14.7280 H   0  0  0  0  0
   -2.3934  -25.0185   15.5958 H   0  0  0  0  0
   -4.0149  -26.6200   14.7325 H   0  0  0  0  0
   -4.6303  -25.4315   13.5390 H   0  0  0  0  0
   -6.0193  -25.6665   15.3683 H   0  0  0  0  0
   -1.9449  -26.9793   14.0812 H   0  0  0  0  0
    0.3438  -26.1788   12.6426 H   0  0  0  0  0
    0.6034  -28.5946   12.3146 H   0  0  0  0  0
   -1.1843  -28.8362   12.3966 H   0  0  0  0  0
   -0.0964  -29.4808   14.3313 H   0  0  0  0  0
   -2.7166  -25.8257   11.3870 H   0  0  0  0  0
   -3.7132  -26.0530    9.2825 H   0  0  0  0  0
   -1.0637  -25.4130    8.1005 H   0  0  0  0  0
   -2.0690  -24.2007    8.9992 H   0  0  0  0  0
   -1.4731  -25.3014    5.5344 H   0  0  0  0  0
   -5.5456  -24.0019    5.5481 H   0  0  0  0  0
   -1.6208  -26.9108    7.0564 H   0  0  0  0  0
   -1.6103  -29.8925    7.5677 H   0  0  0  0  0
   -2.0252  -28.2170    5.0961 H   0  0  0  0  0
   -3.2091  -29.3565    5.9055 H   0  0  0  0  0
   -0.6045  -30.3974    4.8300 H   0  0  0  0  0
   -2.0346  -31.8360    6.2001 H   0  0  0  0  0
   -3.3999  -31.5422    5.0952 H   0  0  0  0  0
   -1.9578  -32.4123    4.5170 H   0  0  0  0  0
   -3.1518  -29.8546    3.2340 H   0  0  0  0  0
   -1.5939  -29.0208    3.0129 H   0  0  0  0  0
   -1.7339  -30.7579    2.6469 H   0  0  0  0  0
    0.3904  -30.7174    7.5107 H   0  0  0  0  0
    2.5644  -29.3721    5.9296 H   0  0  0  0  0
    4.1913  -29.9312    7.5167 H   0  0  0  0  0
    2.8991  -30.5310    8.6549 H   0  0  0  0  0
    3.6828  -28.3314    9.3020 H   0  0  0  0  0
    1.9596  -28.2648    8.6888 H   0  0  0  0  0
    3.0897  -27.5643    6.4608 H   0  0  0  0  0
    4.4852  -27.1318    7.5162 H   0  0  0  0  0
    3.2476  -25.5301    8.6830 H   0  0  0  0  0
    1.6713  -26.1640    8.0238 H   0  0  0  0  0
    2.3781  -24.1358    7.2249 H   0  0  0  0  0
    4.6349  -24.0445    7.1523 H   0  0  0  0  0
    4.6835  -25.3529    5.9453 H   0  0  0  0  0
    4.0209  -23.7597    5.5052 H   0  0  0  0  0
    2.0896  -26.1174    5.1117 H   0  0  0  0  0
    0.8257  -25.1673    5.9308 H   0  0  0  0  0
    1.9878  -24.3588    4.8506 H   0  0  0  0  0
    2.1770  -30.6295    4.3099 H   0  0  0  0  0
    1.2193  -33.2575    4.1710 H   0  0  0  0  0
    0.9453  -31.9132    2.2415 H   0  0  0  0  0
    2.3247  -32.9488    1.7483 H   0  0  0  0  0
    2.7060  -30.6954    1.3461 H   0  0  0  0  0
    4.4136  -32.4183    5.0364 H   0  0  0  0  0
    5.8448  -34.6224    4.0003 H   0  0  0  0  0
    6.8487  -32.6816    5.1200 H   0  0  0  0  0
    7.4047  -34.2780    5.8339 H   0  0  0  0  0
    5.8744  -33.9101    7.7112 H   0  0  0  0  0
    5.4355  -32.3088    7.0268 H   0  0  0  0  0
    7.7894  -31.5932    7.2206 H   0  0  0  0  0
    8.2121  -33.1830    7.9229 H   0  0  0  0  0
    6.6343  -32.7598    9.7814 H   0  0  0  0  0
    6.3012  -31.1229    9.0872 H   0  0  0  0  0
    7.8882  -31.0414   10.8750 H   0  0  0  0  0
    8.9020  -32.0949   10.0755 H   0  0  0  0  0
    8.5951  -30.5870    9.4360 H   0  0  0  0  0
    3.4628  -34.6078    6.5669 H   0  0  0  0  0
    3.6024  -37.5932    6.6093 H   0  0  0  0  0
    3.0294  -37.5336    9.0263 H   0  0  0  0  0
    3.4809  -35.7700    9.0106 H   0  0  0  0  0
    5.7459  -36.3313    8.4124 H   0  0  0  0  0
    5.3207  -38.0728    8.2967 H   0  0  0  0  0
    4.8133  -38.1371   10.6677 H   0  0  0  0  0
    5.1739  -36.3612   10.8002 H   0  0  0  0  0
    7.0321  -37.5725   11.6693 H   0  0  0  0  0
    7.4935  -36.9039   10.0383 H   0  0  0  0  0
    8.2784  -39.1310   10.3651 H   0  0  0  0  0
    6.7278  -39.6797   10.6323 H   0  0  0  0  0
    7.1498  -39.0682    9.1407 H   0  0  0  0  0
    1.4755  -38.5164    7.1561 H   0  0  0  0  0
   -0.8292  -38.6060    6.9802 H   0  0  0  0  0
   -0.8049  -36.9654    6.2548 H   0  0  0  0  0
   -2.7605  -36.6250    7.5310 H   0  0  0  0  0
   -2.3345  -36.1295   10.4567 H   0  0  0  0  0
   -3.6044  -33.9274   10.0178 H   0  0  0  0  0
   -3.0874  -34.1521    8.3040 H   0  0  0  0  0
   -0.7387  -34.2833    9.0838 H   0  0  0  0  0
   -1.3179  -33.8922   10.7556 H   0  0  0  0  0
   -2.1502  -30.4422    9.8282 H   0  0  0  0  0
   -2.8271  -31.7976   10.7372 H   0  0  0  0  0
   -4.0101  -37.8650    8.3592 H   0  0  0  0  0
   -6.1154  -38.8255    8.3397 H   0  0  0  0  0
   -6.2919  -40.2570   10.3069 H   0  0  0  0  0
   -5.2696  -39.1273   11.2541 H   0  0  0  0  0
   -4.0838  -40.9385   10.4357 H   0  0  0  0  0
   -7.1284  -36.6856    7.9466 H   0  0  0  0  0
   -8.9020  -35.4240    9.6962 H   0  0  0  0  0
   -9.7099  -36.3778    6.9636 H   0  0  0  0  0
   -8.5336  -34.5090    6.1824 H   0  0  0  0  0
  -11.3687  -35.0446    8.2060 H   0  0  0  0  0
  -10.1656  -33.7563    8.4591 H   0  0  0  0  0
  -10.7515  -34.1173    6.8167 H   0  0  0  0  0
   -9.4150  -38.3847    8.1261 H   0  0  0  0  0
  1  2  1  0  0  0
  2  3  1  0  0  0
  2  5  1  0  0  0
  3  4  2  0  0  0
  3 12  1  0  0  0
  5  6  1  0  0  0
  6  7  1  0  0  0
  7  8  1  0  0  0
  8  9  1  0  0  0
  9 10  1  0  0  0
  9 11  2  0  0  0
 12 13  1  0  0  0
 13 14  1  0  0  0
 13 16  1  0  0  0
 14 15  2  0  0  0
 14 17  1  0  0  0
 17 18  1  0  0  0
 18 19  1  0  0  0
 18 21  1  0  0  0
 19 20  2  0  0  0
 19 27  1  0  0  0
 21 22  1  0  0  0
 22 23  4  0  0  0
 22 24  4  0  0  0
 23 25  4  0  0  0
 24 26  4  0  0  0
 25 26  4  0  0  0
 27 28  1  0  0  0
 28 29  1  0  0  0
 28 31  1  0  0  0
 29 30  2  0  0  0
 29 33  1  0  0  0
 31 32  1  0  0  0
 33 34  1  0  0  0
 34 35  1  0  0  0
 34 37  1  0  0  0
 35 36  2  0  0  0
 35 39  1  0  0  0
 37 38  1  0  0  0
 39 40  1  0  0  0
 40 41  1  0  0  0
 40 43  1  0  0  0
 41 42  2  0  0  0
 41 49  1  0  0  0
 43 44  1  0  0  0
 44 45  4  0  0  0
 44 46  4  0  0  0
 45 47  4  0  0  0
 46 48  4  0  0  0
 47 48  4  0  0  0
 49 50  1  0  0  0
 50 51  1  0  0  0
 50 53  1  0  0  0
 51 52  2  0  0  0
 51 57  1  0  0  0
 53 54  1  0  0  0
 54 55  1  0  0  0
 54 56  1  0  0  0
 57 58  1  0  0  0
 58 59  1  0  0  0
 58 66  1  0  0  0
 59 60  1  0  0  0
 60 61  1  0  0  0
 61 62  1  0  0  0
 62 63  1  0  0  0
 63 64  1  0  0  0
 63 65  1  0  0  0
 66 67  2  0  0  0
 66 68  1  0  0  0
 68 69  1  0  0  0
 69 70  1  0  0  0
 69 72  1  0  0  0
 70 71  2  0  0  0
 70 74  1  0  0  0
 72 73  1  0  0  0
 74 75  1  0  0  0
 75 76  1  0  0  0
 75 78  1  0  0  0
 76 77  2  0  0  0
 76 83  1  0  0  0
 78 79  1  0  0  0
 79 80  1  0  0  0
 80 81  1  0  0  0
 81 82  1  0  0  0
 83 84  1  0  0  0
 84 85  1  0  0  0
 84 87  1  0  0  0
 85 86  2  0  0  0
 85 92  1  0  0  0
 87 88  1  0  0  0
 88 89  1  0  0  0
 89 90  1  0  0  0
 90 91  1  0  0  0
 92 93  1  0  0  0
 93 94  1  0  0  0
 94 95  2  0  0  0
 94 96  1  0  0  0
 96 97  1  0  0  0
 97 98  1  0  0  0
 97100  1  0  0  0
 98 99  2  0  0  0
 98105  1  0  0  0
100101  1  0  0  0
101102  1  0  0  0
102103  2  0  0  0
102104  1  0  0  0
105106  1  0  0  0
106107  1  0  0  0
106109  1  0  0  0
107108  2  0  0  0
107111  1  0  0  0
109110  1  0  0  0
111112  1  0  0  0
112113  1  0  0  0
112115  1  0  0  0
113114  2  0  0  0
113118  1  0  0  0
115116  1  0  0  0
115117  1  0  0  0
  1119  1  0  0  0
  1120  1  0  0  0
  1121  1  0  0  0
  2122  1  0  0  0
  5123  1  0  0  0
  5124  1  0  0  0
  6125  1  0  0  0
  6126  1  0  0  0
  7127  1  0  0  0
  7128  1  0  0  0
  8129  1  0  0  0
 10130  1  0  0  0
 10131  1  0  0  0
 11132  1  0  0  0
 12133  1  0  0  0
 13134  1  0  0  0
 16135  1  0  0  0
 16136  1  0  0  0
 16137  1  0  0  0
 17138  1  0  0  0
 18139  1  0  0  0
 21140  1  0  0  0
 21141  1  0  0  0
 24142  1  0  0  0
 25143  1  0  0  0
 27144  1  0  0  0
 28145  1  0  0  0
 31146  1  0  0  0
 31147  1  0  0  0
 32148  1  0  0  0
 33149  1  0  0  0
 34150  1  0  0  0
 37151  1  0  0  0
 37152  1  0  0  0
 38153  1  0  0  0
 39154  1  0  0  0
 40155  1  0  0  0
 43156  1  0  0  0
 43157  1  0  0  0
 46158  1  0  0  0
 47159  1  0  0  0
 49160  1  0  0  0
 50161  1  0  0  0
 53162  1  0  0  0
 53163  1  0  0  0
 54164  1  0  0  0
 55165  1  0  0  0
 55166  1  0  0  0
 55167  1  0  0  0
 56168  1  0  0  0
 56169  1  0  0  0
 56170  1  0  0  0
 57171  1  0  0  0
 58172  1  0  0  0
 59173  1  0  0  0
 59174  1  0  0  0
 60175  1  0  0  0
 60176  1  0  0  0
 61177  1  0  0  0
 61178  1  0  0  0
 62179  1  0  0  0
 62180  1  0  0  0
 63181  1  0  0  0
 64182  1  0  0  0
 64183  1  0  0  0
 64184  1  0  0  0
 65185  1  0  0  0
 65186  1  0  0  0
 65187  1  0  0  0
 68188  1  0  0  0
 69189  1  0  0  0
 72190  1  0  0  0
 72191  1  0  0  0
 73192  1  0  0  0
 74193  1  0  0  0
 75194  1  0  0  0
 78195  1  0  0  0
 78196  1  0  0  0
 79197  1  0  0  0
 79198  1  0  0  0
 80199  1  0  0  0
 80200  1  0  0  0
 81201  1  0  0  0
 81202  1  0  0  0
 82203  1  0  0  0
 82204  1  0  0  0
 82205  1  0  0  0
 83206  1  0  0  0
 84207  1  0  0  0
 87208  1  0  0  0
 87209  1  0  0  0
 88210  1  0  0  0
 88211  1  0  0  0
 89212  1  0  0  0
 89213  1  0  0  0
 90214  1  0  0  0
 90215  1  0  0  0
 91216  1  0  0  0
 91217  1  0  0  0
 91218  1  0  0  0
 92219  1  0  0  0
 93220  1  0  0  0
 93221  1  0  0  0
 96222  1  0  0  0
 97223  1  0  0  0
100224  1  0  0  0
100225  1  0  0  0
101226  1  0  0  0
101227  1  0  0  0
104228  1  0  0  0
104229  1  0  0  0
105230  1  0  0  0
106231  1  0  0  0
109232  1  0  0  0
109233  1  0  0  0
110234  1  0  0  0
111235  1  0  0  0
112236  1  0  0  0
115237  1  0  0  0
116238  1  0  0  0
117239  1  0  0  0
117240  1  0  0  0
117241  1  0  0  0
118242  1  0  0  0
M  END
$$$$
