3bgs_ligand
  -I-interpret- 

 35 37  0  0  0  0  0  0  0  0999 V2000
   17.4940   12.1340   59.8980 O   0  0  0  0  0
   16.7320   10.9600   60.1650 C   0  0  0  0  0
   15.3500   11.3370   60.7030 C   0  0  0  0  0
   14.4050   11.3140   59.5270 C   0  0  0  0  0
   15.2100   12.7530   61.2600 C   0  0  0  0  0
   14.1980   12.6870   62.3130 O   0  0  0  0  0
   14.7430   13.6140   60.0630 C   0  0  0  0  0
   14.6250   12.6590   58.9290 N   0  3  0  0  0
   13.6400   12.9170   57.8490 C   0  0  0  0  0
   14.2510   12.1500   56.6800 C   0  0  0  0  0
   15.3140   12.5680   55.8720 C   0  0  0  0  0
   15.6060   11.6060   54.9580 N   0  0  0  0  0
   14.7670   10.5260   55.1120 C   0  0  0  0  0
   14.5940    9.2850   54.4940 C   0  0  0  0  0
   15.3310    8.9110   53.5410 O   0  0  0  0  0
   13.6190    8.4360   54.9600 N   0  0  0  0  0
   12.8200    8.7810   55.9870 C   0  0  0  0  0
   12.9580    9.9320   56.6180 N   0  0  0  0  0
   13.9200   10.8040   56.1780 C   0  0  0  0  0
   18.3576   11.8839   59.5615 H   0  0  0  0  0
   17.2528   10.3588   60.9102 H   0  0  0  0  0
   16.6127   10.3946   59.2408 H   0  0  0  0  0
   15.1543   10.6343   61.5129 H   0  0  0  0  0
   13.3682   11.1307   59.8091 H   0  0  0  0  0
   14.5980   10.4957   58.8333 H   0  0  0  0  0
   16.1227   13.1728   61.6829 H   0  0  0  0  0
   14.5244   12.1457   63.0355 H   0  0  0  0  0
   15.4454   14.4183   59.8440 H   0  0  0  0  0
   13.7980   14.1164   60.2696 H   0  0  0  0  0
   15.4964   12.7635   58.4092 H   0  0  0  0  0
   13.4912   13.9767   57.6419 H   0  0  0  0  0
   12.6290   12.5946   58.0981 H   0  0  0  0  0
   15.8310   13.5233   55.9623 H   0  0  0  0  0
   13.4981    7.5247   54.5181 H   0  0  0  0  0
   12.0383    8.0915   56.3059 H   0  0  0  0  0
  1  2  1  0  0  0
  2  3  1  0  0  0
  3  4  1  0  0  0
  3  5  1  0  0  0
  4  8  1  0  0  0
  5  6  1  0  0  0
  5  7  1  0  0  0
  7  8  1  0  0  0
  8  9  1  0  0  0
  9 10  1  0  0  0
 10 11  4  0  0  0
 10 19  4  0  0  0
 11 12  4  0  0  0
 12 13  4  0  0  0
 13 14  1  0  0  0
 13 19  4  0  0  0
 14 15  2  0  0  0
 14 16  1  0  0  0
 16 17  1  0  0  0
 17 18  2  0  0  0
 18 19  1  0  0  0
  1 20  1  0  0  0
  2 21  1  0  0  0
  2 22  1  0  0  0
  3 23  1  0  0  0
  4 24  1  0  0  0
  4 25  1  0  0  0
  5 26  1  0  0  0
  6 27  1  0  0  0
  7 28  1  0  0  0
  7 29  1  0  0  0
  8 30  1  0  0  0
  9 31  1  0  0  0
  9 32  1  0  0  0
 11 33  1  0  0  0
 16 34  1  0  0  0
 17 35  1  0  0  0
M  END
$$$$
