4awf_ligand
  -I-interpret- 

 22 22  0  0  0  0  0  0  0  0999 V2000
   -9.3610    8.9600    3.4800 O   0  0  0  0  0
   -9.0570    8.2600    2.5790 C   0  0  0  0  0
   -9.6090    6.9270    2.6380 C   0  0  0  0  0
   -9.3820    6.1600    1.6710 O   0  0  0  0  0
  -10.3000    6.6470    3.6370 O   0  0  0  0  0
   -8.1920    8.5970    1.3790 C   0  0  0  0  0
   -7.5330    9.9500    1.2700 C   0  0  0  0  0
   -6.4340   10.0590    0.2560 C   0  0  0  0  0
   -6.4370    9.2470   -0.8680 C   0  0  0  0  0
   -5.4180    9.3400   -1.8000 C   0  0  0  0  0
   -4.3640   10.2310   -1.5920 C   0  0  0  0  0
   -4.3380   11.0280   -0.4440 C   0  0  0  0  0
   -5.3810   10.9360    0.4810 C   0  0  0  0  0
   -7.8120   10.9020    1.9700 O   0  0  0  0  0
   -8.8246    6.6095    1.0315 H   0  0  0  0  0
   -8.8789    8.5628    0.5334 H   0  0  0  0  0
   -7.3597    7.8960    1.4412 H   0  0  0  0  0
   -7.2458    8.5319   -1.0183 H   0  0  0  0  0
   -5.4386    8.7183   -2.6951 H   0  0  0  0  0
   -3.5608   10.3054   -2.3251 H   0  0  0  0  0
   -3.5103   11.7160   -0.2718 H   0  0  0  0  0
   -5.3682   11.5528    1.3796 H   0  0  0  0  0
  1  2  2  0  0  0
  2  3  1  0  0  0
  2  6  1  0  0  0
  3  4  1  0  0  0
  3  5  2  0  0  0
  6  7  1  0  0  0
  7  8  1  0  0  0
  7 14  2  0  0  0
  8  9  4  0  0  0
  8 13  4  0  0  0
  9 10  4  0  0  0
 10 11  4  0  0  0
 11 12  4  0  0  0
 12 13  4  0  0  0
  4 15  1  0  0  0
  6 16  1  0  0  0
  6 17  1  0  0  0
  9 18  1  0  0  0
 10 19  1  0  0  0
 11 20  1  0  0  0
 12 21  1  0  0  0
 13 22  1  0  0  0
M  END
$$$$
