3wf6_ligand
  -I-interpret- 

 38 42  0  0  0  0  0  0  0  0999 V2000
    7.2240  -13.3080   15.0940 N   0  0  0  0  0
    8.4280  -13.4240   15.6520 C   0  0  0  0  0
    9.6410  -13.2620   15.1040 N   0  0  0  0  0
    9.7020  -12.9480   13.8060 C   0  0  0  0  0
   10.9700  -12.7780   13.2230 N   0  0  0  0  0
   11.1550  -12.3820   11.7720 C   0  0  0  0  0
   12.3560  -11.5960   11.4690 C   0  0  0  0  0
   13.4760  -11.7070   12.1810 C   0  0  0  0  0
   14.6630  -10.9260   11.8970 C   0  0  0  0  0
   14.8490   -9.8060   11.0080 C   0  0  0  0  0
   14.0300   -9.0960   10.1160 C   0  0  0  0  0
   14.5500   -8.0450    9.3920 C   0  0  0  0  0
   15.8970   -7.6620    9.5170 C   0  0  0  0  0
   16.7430   -8.3380   10.3610 C   0  0  0  0  0
   16.2060   -9.4070   11.1010 C   0  0  0  0  0
   16.8290  -10.2400   12.0340 N   0  0  0  0  0
   15.8810  -11.1550   12.5050 C   0  0  0  0  0
   13.5230  -12.6770   13.3100 C   0  0  0  0  0
   12.1980  -12.8870   14.0330 C   0  0  0  0  0
    8.4990  -12.7930   13.0590 C   0  0  0  0  0
    8.0730  -12.5000   11.7280 C   0  0  0  0  0
    6.7310  -12.5070   11.6450 N   0  0  0  0  0
    6.2540  -12.8070   12.8840 N   0  0  0  0  0
    7.2840  -12.9950   13.7740 C   0  0  0  0  0
    8.4270  -13.6896   16.7092 H   0  0  0  0  0
   10.3035  -11.7518   11.5154 H   0  0  0  0  0
   11.2472  -13.3114   11.2101 H   0  0  0  0  0
   12.3309  -10.8974   10.6327 H   0  0  0  0  0
   12.9834   -9.3758    9.9961 H   0  0  0  0  0
   13.9022   -7.4982    8.7068 H   0  0  0  0  0
   16.2738   -6.8192    8.9375 H   0  0  0  0  0
   17.7920   -8.0567   10.4542 H   0  0  0  0  0
   16.0755  -11.9334   13.2428 H   0  0  0  0  0
   14.2214  -12.2735   14.0431 H   0  0  0  0  0
   13.8067  -13.6403   12.8861 H   0  0  0  0  0
   12.2202  -13.9116   14.4043 H   0  0  0  0  0
   12.1355  -12.0932   14.7773 H   0  0  0  0  0
    8.7441  -12.2982   10.8932 H   0  0  0  0  0
  1  2  4  0  0  0
  1 24  4  0  0  0
  2  3  4  0  0  0
  3  4  4  0  0  0
  4  5  1  0  0  0
  4 20  4  0  0  0
  5  6  1  0  0  0
  5 19  1  0  0  0
  6  7  1  0  0  0
  7  8  2  0  0  0
  8  9  1  0  0  0
  8 18  1  0  0  0
  9 10  4  0  0  0
  9 17  4  0  0  0
 10 11  4  0  0  0
 10 15  4  0  0  0
 11 12  4  0  0  0
 12 13  4  0  0  0
 13 14  4  0  0  0
 14 15  4  0  0  0
 15 16  4  0  0  0
 16 17  4  0  0  0
 18 19  1  0  0  0
 20 21  4  0  0  0
 20 24  4  0  0  0
 21 22  4  0  0  0
 22 23  4  0  0  0
 23 24  4  0  0  0
  2 25  1  0  0  0
  6 26  1  0  0  0
  6 27  1  0  0  0
  7 28  1  0  0  0
 11 29  1  0  0  0
 12 30  1  0  0  0
 13 31  1  0  0  0
 14 32  1  0  0  0
 17 33  1  0  0  0
 18 34  1  0  0  0
 18 35  1  0  0  0
 19 36  1  0  0  0
 19 37  1  0  0  0
 21 38  1  0  0  0
M  END
$$$$
