5t78_ligand
  -I-interpret- 

106108  0  0  0  0  0  0  0  0999 V2000
   24.6540   12.4840   23.1440 N   0  3  0  0  0
   24.5230   12.3210   24.5990 C   0  0  0  0  0
   23.5690   13.3340   25.2270 C   0  0  0  0  0
   22.6110   12.9530   25.9040 O   0  0  0  0  0
   25.9620   12.5040   25.1160 C   0  0  0  0  0
   26.7820   12.9900   23.9380 C   0  0  0  0  0
   25.8490   13.2650   22.7870 C   0  0  0  0  0
   23.8170   14.6180   24.9880 N   0  0  0  0  0
   22.9760   15.6580   25.5550 C   0  0  0  0  0
   21.8730   16.0830   24.6140 C   0  0  0  0  0
   20.8680   16.6390   25.0690 O   0  0  0  0  0
   23.8090   16.9060   25.8180 C   0  0  0  0  0
   24.6350   16.7990   27.0540 C   0  0  0  0  0
   24.3540   15.8800   27.8540 O   0  0  0  0  0
   25.5520   17.6420   27.2350 O   0  0  0  0  0
   22.0200   15.7840   23.3300 N   0  0  0  0  0
   21.0190   16.1550   22.3540 C   0  0  0  0  0
   19.7190   15.4150   22.6190 C   0  0  0  0  0
   19.7050   14.2840   23.1160 O   0  0  0  0  0
   21.5100   15.8310   20.9550 C   0  0  0  0  0
   21.8200   14.4380   20.8960 O   0  0  0  0  0
   22.7470   16.6210   20.6400 C   0  0  0  0  0
   18.6250   16.0920   22.3110 N   0  0  0  0  0
   17.3040   15.5030   22.4360 C   0  0  0  0  0
   17.1360   14.4000   21.4010 C   0  0  0  0  0
   17.3330   14.6510   20.2040 O   0  0  0  0  0
   16.2380   16.5720   22.2550 C   0  0  0  0  0
   14.8630   16.0440   22.4920 C   0  0  0  0  0
   13.8800   17.1320   22.8230 C   0  0  0  0  0
   13.4670   17.8510   21.6280 N   0  0  0  0  0
   13.4410   19.1650   21.4910 C   0  0  0  0  0
   13.7690   19.9810   22.4760 N   0  0  0  0  0
   13.0730   19.6720   20.3470 N   0  0  0  0  0
   16.7430   13.1870   21.7980 N   0  0  0  0  0
   16.6660   12.0930   20.8310 C   0  0  0  0  0
   15.5820   12.3210   19.8010 C   0  0  0  0  0
   14.6050   13.0420   20.0300 O   0  0  0  0  0
   16.3610   10.8590   21.6870 C   0  0  0  0  0
   15.7460   11.3640   22.8960 C   0  0  0  0  0
   16.3760   12.7270   23.1490 C   0  0  0  0  0
   15.7860   11.6910   18.6530 N   0  0  0  0  0
   14.8670   11.8210   17.5530 C   0  0  0  0  0
   13.5640   11.1050   17.8930 C   0  0  0  0  0
   13.5550   10.1610   18.6910 O   0  0  0  0  0
   15.4790   11.2380   16.2820 C   0  0  0  0  0
   12.4440   11.5520   17.3220 N   0  0  0  0  0
   11.1200   10.9880   17.6050 C   0  0  0  0  0
   11.0170    9.5000   17.3280 C   0  0  0  0  0
   11.4050    9.1610   16.2180 O   0  0  0  0  0
   10.2060   11.7610   16.6580 C   0  0  0  0  0
   10.9230   13.0140   16.3710 C   0  0  0  0  0
   12.3670   12.6840   16.3790 C   0  0  0  0  0
   10.5600    8.8410   18.2520 O   0  0  0  0  0
   23.8319   12.9814   22.8018 H   0  0  0  0  0
   24.7387   11.5583   22.7240 H   0  0  0  0  0
   24.0919   11.3549   24.8615 H   0  0  0  0  0
   26.3584   11.5675   25.5084 H   0  0  0  0  0
   25.9943   13.2204   25.9369 H   0  0  0  0  0
   27.5105   12.2309   23.6533 H   0  0  0  0  0
   27.3182   13.8998   24.2079 H   0  0  0  0  0
   25.6389   14.3264   22.6548 H   0  0  0  0  0
   26.2694   12.9811   21.8223 H   0  0  0  0  0
   24.6084   14.8764   24.3986 H   0  0  0  0  0
   22.5470   15.2410   26.4662 H   0  0  0  0  0
   23.1237   17.7440   25.9459 H   0  0  0  0  0
   24.4862   17.0393   24.9744 H   0  0  0  0  0
   25.5802   18.2473   26.4904 H   0  0  0  0  0
   22.8546   15.2831   23.0252 H   0  0  0  0  0
   20.8400   17.2271   22.4354 H   0  0  0  0  0
   20.7356   16.0852   20.2312 H   0  0  0  0  0
   22.1325   14.2179   20.0154 H   0  0  0  0  0
   22.5218   17.6858   20.7007 H   0  0  0  0  0
   23.5283   16.3720   21.3582 H   0  0  0  0  0
   23.0859   16.3768   19.6332 H   0  0  0  0  0
   18.7118   17.0520   21.9773 H   0  0  0  0  0
   17.1934   15.0715   23.4308 H   0  0  0  0  0
   16.2902   16.9319   21.2275 H   0  0  0  0  0
   16.4262   17.3642   22.9796 H   0  0  0  0  0
   14.9062   15.3596   23.3392 H   0  0  0  0  0
   14.5280   15.5537   21.5779 H   0  0  0  0  0
   14.3575   17.8361   23.5044 H   0  0  0  0  0
   12.9992   16.6780   23.2771 H   0  0  0  0  0
   13.1721   17.2929   20.8268 H   0  0  0  0  0
   13.7322   20.9906   22.3355 H   0  0  0  0  0
   14.0591   19.6017   23.3773 H   0  0  0  0  0
   12.8115   19.0565   19.5769 H   0  0  0  0  0
   17.5866   11.9930   20.2560 H   0  0  0  0  0
   17.2668   10.2941   21.9075 H   0  0  0  0  0
   15.7014   10.1659   21.1648 H   0  0  0  0  0
   15.9134   10.6895   23.7357 H   0  0  0  0  0
   14.6645   11.4431   22.7856 H   0  0  0  0  0
   15.6993   13.4143   23.6568 H   0  0  0  0  0
   17.2322   12.6752   23.8216 H   0  0  0  0  0
   16.6117   11.1016   18.5468 H   0  0  0  0  0
   14.6594   12.8769   17.3797 H   0  0  0  0  0
   16.3984   11.7732   16.0444 H   0  0  0  0  0
   15.7016   10.1825   16.4385 H   0  0  0  0  0
   14.7725   11.3434   15.4587 H   0  0  0  0  0
   10.8696   11.0833   18.6616 H   0  0  0  0  0
   11.7050    9.9346   15.7351 H   0  0  0  0  0
    9.2293   11.9486   17.1041 H   0  0  0  0  0
    9.9990   11.1975   15.7482 H   0  0  0  0  0
   10.6926   13.7749   17.1167 H   0  0  0  0  0
   10.6218   13.4238   15.4069 H   0  0  0  0  0
   12.7488   12.4354   15.3888 H   0  0  0  0  0
   12.9909   13.5261   16.6784 H   0  0  0  0  0
  1  2  1  0  0  0
  1  7  1  0  0  0
  2  3  1  0  0  0
  2  5  1  0  0  0
  3  4  2  0  0  0
  3  8  1  0  0  0
  5  6  1  0  0  0
  6  7  1  0  0  0
  8  9  1  0  0  0
  9 10  1  0  0  0
  9 12  1  0  0  0
 10 11  2  0  0  0
 10 16  1  0  0  0
 12 13  1  0  0  0
 13 14  2  0  0  0
 13 15  1  0  0  0
 16 17  1  0  0  0
 17 18  1  0  0  0
 17 20  1  0  0  0
 18 19  2  0  0  0
 18 23  1  0  0  0
 20 21  1  0  0  0
 20 22  1  0  0  0
 23 24  1  0  0  0
 24 25  1  0  0  0
 24 27  1  0  0  0
 25 26  2  0  0  0
 25 34  1  0  0  0
 27 28  1  0  0  0
 28 29  1  0  0  0
 29 30  1  0  0  0
 30 31  1  0  0  0
 31 32  1  0  0  0
 31 33  2  0  0  0
 34 35  1  0  0  0
 34 40  1  0  0  0
 35 36  1  0  0  0
 35 38  1  0  0  0
 36 37  2  0  0  0
 36 41  1  0  0  0
 38 39  1  0  0  0
 39 40  1  0  0  0
 41 42  1  0  0  0
 42 43  1  0  0  0
 42 45  1  0  0  0
 43 44  2  0  0  0
 43 46  1  0  0  0
 46 47  1  0  0  0
 46 52  1  0  0  0
 47 48  1  0  0  0
 47 50  1  0  0  0
 48 49  1  0  0  0
 48 53  2  0  0  0
 50 51  1  0  0  0
 51 52  1  0  0  0
  1 54  1  0  0  0
  1 55  1  0  0  0
  2 56  1  0  0  0
  5 57  1  0  0  0
  5 58  1  0  0  0
  6 59  1  0  0  0
  6 60  1  0  0  0
  7 61  1  0  0  0
  7 62  1  0  0  0
  8 63  1  0  0  0
  9 64  1  0  0  0
 12 65  1  0  0  0
 12 66  1  0  0  0
 15 67  1  0  0  0
 16 68  1  0  0  0
 17 69  1  0  0  0
 20 70  1  0  0  0
 21 71  1  0  0  0
 22 72  1  0  0  0
 22 73  1  0  0  0
 22 74  1  0  0  0
 23 75  1  0  0  0
 24 76  1  0  0  0
 27 77  1  0  0  0
 27 78  1  0  0  0
 28 79  1  0  0  0
 28 80  1  0  0  0
 29 81  1  0  0  0
 29 82  1  0  0  0
 30 83  1  0  0  0
 32 84  1  0  0  0
 32 85  1  0  0  0
 33 86  1  0  0  0
 35 87  1  0  0  0
 38 88  1  0  0  0
 38 89  1  0  0  0
 39 90  1  0  0  0
 39 91  1  0  0  0
 40 92  1  0  0  0
 40 93  1  0  0  0
 41 94  1  0  0  0
 42 95  1  0  0  0
 45 96  1  0  0  0
 45 97  1  0  0  0
 45 98  1  0  0  0
 47 99  1  0  0  0
 49100  1  0  0  0
 50101  1  0  0  0
 50102  1  0  0  0
 51103  1  0  0  0
 51104  1  0  0  0
 52105  1  0  0  0
 52106  1  0  0  0
M  END
$$$$
