2ovx_ligand
  -I-interpret- 

 57 61  0  0  0  0  0  0  0  0999 V2000
   24.3640    3.1140   51.6060 C   0  0  0  0  0
   23.3520    2.1920   51.8540 C   0  0  0  0  0
   23.3550    1.4510   53.0330 C   0  0  0  0  0
   24.3650    1.6440   53.9700 C   0  0  0  0  0
   25.3680    2.5780   53.7270 C   0  0  0  0  0
   25.3760    3.3110   52.5430 C   0  0  0  0  0
   26.4810    4.0500   52.2440 O   0  0  0  0  0
   26.2940    5.2850   51.7000 C   0  0  0  0  0
   27.3610    5.8710   51.0260 C   0  0  0  0  0
   27.2710    7.1840   50.5720 C   0  0  0  0  0
   25.1400    6.0340   51.9220 C   0  0  0  0  0
   25.0480    7.3430   51.4580 C   0  0  0  0  0
   26.1080    7.9250   50.7670 C   0  0  0  0  0
   25.8670    9.2010   49.9510 C   0  0  0  0  0
   25.3350    8.7180   48.5970 C   0  0  0  0  0
   24.1640    8.3490   48.5170 O   0  0  0  0  0
   26.1050    8.7850   47.4300 N   0  0  0  0  0
   27.3870    9.3460   47.4250 C   0  0  0  0  0
   28.0940    9.2320   46.4250 O   0  0  0  0  0
   27.9170    9.9130   48.5910 N   0  0  0  0  0
   27.1920    9.9560   49.7890 C   0  0  0  0  0
   27.7120   10.4750   50.7760 O   0  0  0  0  0
   24.8460   10.0420   50.6040 N   0  3  0  0  0
   25.2150   10.4270   51.9770 C   0  0  0  0  0
   24.0490   11.1690   52.6350 C   0  0  0  0  0
   24.4940   11.2250   49.7990 C   0  0  0  0  0
   23.3320   11.9760   50.4560 C   0  0  0  0  0
   23.7330   12.3530   51.8210 N   0  0  0  0  0
   22.8080   13.2840   52.4840 C   0  0  0  0  0
   22.9330   13.4980   53.8030 N   0  0  0  0  0
   22.3640   14.5350   54.3920 C   0  0  0  0  0
   21.6060   15.4270   53.6410 C   0  0  0  0  0
   21.4720   15.1730   52.2800 C   0  0  0  0  0
   22.0650   14.1210   51.7430 N   0  0  0  0  0
   24.3651    3.6834   50.6766 H   0  0  0  0  0
   22.5552    2.0494   51.1240 H   0  0  0  0  0
   22.5676    0.7212   53.2213 H   0  0  0  0  0
   24.3709    1.0646   54.8932 H   0  0  0  0  0
   26.1517    2.7366   54.4678 H   0  0  0  0  0
   28.2724    5.2988   50.8525 H   0  0  0  0  0
   28.1194    7.6367   50.0587 H   0  0  0  0  0
   24.3035    5.5916   52.4629 H   0  0  0  0  0
   24.1390    7.9173   51.6369 H   0  0  0  0  0
   25.7215    8.4151   46.5602 H   0  0  0  0  0
   28.8580   10.3059   48.5672 H   0  0  0  0  0
   24.0130    9.4572   50.6712 H   0  0  0  0  0
   26.0879   11.0791   51.9474 H   0  0  0  0  0
   25.4454    9.5315   52.5541 H   0  0  0  0  0
   24.3232   11.4734   53.6451 H   0  0  0  0  0
   23.1786   10.5158   52.6966 H   0  0  0  0  0
   24.1962   10.9047   48.8006 H   0  0  0  0  0
   25.3584   11.8859   49.7344 H   0  0  0  0  0
   22.4485   11.3386   50.4901 H   0  0  0  0  0
   23.0916   12.8687   49.8786 H   0  0  0  0  0
   22.4884   14.6909   55.4636 H   0  0  0  0  0
   21.1338   16.2942   54.1025 H   0  0  0  0  0
   20.8781   15.8414   51.6566 H   0  0  0  0  0
  1  2  4  0  0  0
  1  6  4  0  0  0
  2  3  4  0  0  0
  3  4  4  0  0  0
  4  5  4  0  0  0
  5  6  4  0  0  0
  6  7  1  0  0  0
  7  8  1  0  0  0
  8  9  4  0  0  0
  8 11  4  0  0  0
  9 10  4  0  0  0
 10 13  4  0  0  0
 11 12  4  0  0  0
 12 13  4  0  0  0
 13 14  1  0  0  0
 14 15  1  0  0  0
 14 21  1  0  0  0
 14 23  1  0  0  0
 15 16  2  0  0  0
 15 17  1  0  0  0
 17 18  1  0  0  0
 18 19  2  0  0  0
 18 20  1  0  0  0
 20 21  1  0  0  0
 21 22  2  0  0  0
 23 24  1  0  0  0
 23 26  1  0  0  0
 24 25  1  0  0  0
 25 28  1  0  0  0
 26 27  1  0  0  0
 27 28  1  0  0  0
 28 29  1  0  0  0
 29 30  4  0  0  0
 29 34  4  0  0  0
 30 31  4  0  0  0
 31 32  4  0  0  0
 32 33  4  0  0  0
 33 34  4  0  0  0
  1 35  1  0  0  0
  2 36  1  0  0  0
  3 37  1  0  0  0
  4 38  1  0  0  0
  5 39  1  0  0  0
  9 40  1  0  0  0
 10 41  1  0  0  0
 11 42  1  0  0  0
 12 43  1  0  0  0
 17 44  1  0  0  0
 20 45  1  0  0  0
 23 46  1  0  0  0
 24 47  1  0  0  0
 24 48  1  0  0  0
 25 49  1  0  0  0
 25 50  1  0  0  0
 26 51  1  0  0  0
 26 52  1  0  0  0
 27 53  1  0  0  0
 27 54  1  0  0  0
 31 55  1  0  0  0
 32 56  1  0  0  0
 33 57  1  0  0  0
M  END
$$$$
