1sme_ligand
  -I-interpret- 

111110  0  0  0  0  0  0  0  0999 V2000
   53.5200   70.8800   25.7180 C   0  0  0  0  0
   53.7210   71.0970   24.5220 O   0  0  0  0  0
   52.9550   71.6440   26.4560 O   0  0  0  0  0
   53.9880   69.5550   26.2460 C   0  0  0  0  0
   55.4410   69.5720   26.7170 C   0  0  0  0  0
   56.4300   70.1430   25.7290 O   0  0  0  0  0
   55.8390   68.1240   27.1890 C   0  0  0  0  0
   55.7760   67.1110   26.0940 N   0  0  0  0  0
   54.6050   66.5380   25.8280 C   0  0  0  0  0
   53.6450   66.6890   26.5800 O   0  0  0  0  0
   54.4730   65.7590   24.5200 C   0  0  0  0  0
   53.7450   64.5070   24.5850 N   0  0  0  0  0
   54.3870   63.3990   25.0330 C   0  0  0  0  0
   55.5330   63.3730   25.4960 O   0  0  0  0  0
   53.5510   62.1400   24.9610 C   0  0  0  0  0
   53.9450   61.2130   23.8010 C   0  0  0  0  0
   52.7970   60.3630   23.6930 O   0  0  0  0  0
   55.1590   60.3090   24.1610 C   0  0  0  0  0
   55.3820   59.2390   23.0920 C   0  0  0  0  0
   55.0270   59.5230   25.3810 N   0  0  0  0  0
   55.9920   59.2750   26.2730 C   0  0  0  0  0
   57.0720   59.8570   26.3580 O   0  0  0  0  0
   55.6770   58.1150   27.2010 C   0  0  0  0  0
   56.7370   57.1980   26.9180 N   0  0  0  0  0
   56.3990   56.0080   26.4680 C   0  0  0  0  0
   55.2870   55.4960   26.5140 O   0  0  0  0  0
   57.5840   55.2020   26.0000 C   0  0  0  0  0
   57.4650   54.0370   26.8890 N   0  0  0  0  0
   58.5740   53.7130   27.5300 C   0  0  0  0  0
   59.6490   54.3170   27.4650 O   0  0  0  0  0
   58.4290   52.4840   28.3790 C   0  0  0  0  0
   58.3060   52.8140   29.8670 C   0  0  0  0  0
   57.1520   53.7940   30.1240 C   0  0  0  0  0
   57.2610   68.1100   27.7710 C   0  0  0  0  0
   57.6600   66.7750   28.4270 C   0  0  0  0  0
   59.1130   66.8420   28.8860 C   0  0  0  0  0
   56.6320   66.4180   29.4920 C   0  0  0  0  0
   53.8380   66.6280   23.4500 C   0  0  0  0  0
   56.1270   59.6520   21.8370 C   0  0  0  0  0
   57.5460   59.9900   22.2170 C   0  0  0  0  0
   56.1950   58.4960   20.8880 C   0  0  0  0  0
   55.6650   58.6170   28.6700 C   0  0  0  0  0
   54.4330   59.4990   28.9160 C   0  0  0  0  0
   55.4490   57.4570   29.6180 C   0  0  0  0  0
   57.4500   54.8200   24.4890 C   0  0  0  0  0
   57.5930   56.0360   23.5910 C   0  0  0  0  0
   58.7450   54.1520   24.0040 C   0  0  0  0  0
   58.2600   51.4750   30.6280 C   0  0  0  0  0
   54.1865   70.3512   24.1364 H   0  0  0  0  0
   53.9131   68.8316   25.4341 H   0  0  0  0  0
   53.3659   69.3042   27.1052 H   0  0  0  0  0
   55.4958   70.2693   27.5530 H   0  0  0  0  0
   56.1491   71.0235   25.4692 H   0  0  0  0  0
   55.1064   67.8541   27.9496 H   0  0  0  0  0
   56.6108   66.8641   25.5625 H   0  0  0  0  0
   55.5012   65.4894   24.2787 H   0  0  0  0  0
   52.7671   64.4600   24.2989 H   0  0  0  0  0
   52.5153   62.4413   24.8041 H   0  0  0  0  0
   53.7049   61.5894   25.8890 H   0  0  0  0  0
   54.2175   61.7735   22.9067 H   0  0  0  0  0
   52.9344   59.7301   22.9844 H   0  0  0  0  0
   55.9624   61.0384   24.2645 H   0  0  0  0  0
   54.3870   58.9427   22.7598 H   0  0  0  0  0
   56.0006   58.4756   23.5639 H   0  0  0  0  0
   54.1087   59.1228   25.5734 H   0  0  0  0  0
   54.7004   57.6522   27.0586 H   0  0  0  0  0
   57.7140   57.4551   27.0589 H   0  0  0  0  0
   58.5472   55.7096   26.0514 H   0  0  0  0  0
   56.5937   53.5190   27.0022 H   0  0  0  0  0
   59.3209   51.8725   28.2420 H   0  0  0  0  0
   57.5195   51.9676   28.0720 H   0  0  0  0  0
   59.1666   53.3624   30.2499 H   0  0  0  0  0
   57.3332   54.7184   29.5757 H   0  0  0  0  0
   56.2163   53.3477   29.7873 H   0  0  0  0  0
   57.0904   54.0090   31.1908 H   0  0  0  0  0
   57.2989   68.8743   28.5472 H   0  0  0  0  0
   57.9495   68.2806   26.9434 H   0  0  0  0  0
   57.6374   65.9444   27.7215 H   0  0  0  0  0
   59.7561   67.0293   28.0261 H   0  0  0  0  0
   59.2273   67.6493   29.6094 H   0  0  0  0  0
   59.3903   65.8952   29.3494 H   0  0  0  0  0
   56.6039   67.2045   30.2462 H   0  0  0  0  0
   55.6499   66.3214   29.0292 H   0  0  0  0  0
   56.9089   65.4735   29.9603 H   0  0  0  0  0
   52.8474   66.9417   23.7791 H   0  0  0  0  0
   54.4608   67.5062   23.2801 H   0  0  0  0  0
   53.7513   66.0580   22.5250 H   0  0  0  0  0
   55.6158   60.4979   21.3774 H   0  0  0  0  0
   57.5429   60.8088   22.9365 H   0  0  0  0  0
   58.0198   59.1151   22.6622 H   0  0  0  0  0
   58.0978   60.2897   21.3260 H   0  0  0  0  0
   56.7189   57.6671   21.3640 H   0  0  0  0  0
   55.1844   58.1848   20.6235 H   0  0  0  0  0
   56.7310   58.7974   19.9880 H   0  0  0  0  0
   56.6098   59.1361   28.8309 H   0  0  0  0  0
   54.4620   60.3570   28.2444 H   0  0  0  0  0
   53.5293   58.9192   28.7281 H   0  0  0  0  0
   54.4359   59.8449   29.9497 H   0  0  0  0  0
   54.4941   56.9807   29.3956 H   0  0  0  0  0
   56.2549   56.7336   29.4945 H   0  0  0  0  0
   55.4430   57.8244   30.6442 H   0  0  0  0  0
   56.5149   54.2624   24.4353 H   0  0  0  0  0
   56.8147   56.7593   23.8343 H   0  0  0  0  0
   58.5725   56.4881   23.7470 H   0  0  0  0  0
   57.4941   55.7305   22.5494 H   0  0  0  0  0
   59.5780   54.8439   24.1288 H   0  0  0  0  0
   58.9287   53.2509   24.5891 H   0  0  0  0  0
   58.6443   53.8888   22.9511 H   0  0  0  0  0
   57.4003   50.8961   30.2906 H   0  0  0  0  0
   59.1752   50.9160   30.4329 H   0  0  0  0  0
   58.1721   51.6689   31.6970 H   0  0  0  0  0
  1  2  1  0  0  0
  1  3  2  0  0  0
  1  4  1  0  0  0
  4  5  1  0  0  0
  5  6  1  0  0  0
  5  7  1  0  0  0
  7  8  1  0  0  0
  7 34  1  0  0  0
  8  9  1  0  0  0
  9 10  2  0  0  0
  9 11  1  0  0  0
 11 12  1  0  0  0
 11 38  1  0  0  0
 12 13  1  0  0  0
 13 14  2  0  0  0
 13 15  1  0  0  0
 15 16  1  0  0  0
 16 17  1  0  0  0
 16 18  1  0  0  0
 18 19  1  0  0  0
 18 20  1  0  0  0
 19 39  1  0  0  0
 20 21  1  0  0  0
 21 22  2  0  0  0
 21 23  1  0  0  0
 23 24  1  0  0  0
 23 42  1  0  0  0
 24 25  1  0  0  0
 25 26  2  0  0  0
 25 27  1  0  0  0
 27 28  1  0  0  0
 27 45  1  0  0  0
 28 29  1  0  0  0
 29 30  2  0  0  0
 29 31  1  0  0  0
 31 32  1  0  0  0
 32 33  1  0  0  0
 32 48  1  0  0  0
 34 35  1  0  0  0
 35 36  1  0  0  0
 35 37  1  0  0  0
 39 40  1  0  0  0
 39 41  1  0  0  0
 42 43  1  0  0  0
 42 44  1  0  0  0
 45 46  1  0  0  0
 45 47  1  0  0  0
  2 49  1  0  0  0
  4 50  1  0  0  0
  4 51  1  0  0  0
  5 52  1  0  0  0
  6 53  1  0  0  0
  7 54  1  0  0  0
  8 55  1  0  0  0
 11 56  1  0  0  0
 12 57  1  0  0  0
 15 58  1  0  0  0
 15 59  1  0  0  0
 16 60  1  0  0  0
 17 61  1  0  0  0
 18 62  1  0  0  0
 19 63  1  0  0  0
 19 64  1  0  0  0
 20 65  1  0  0  0
 23 66  1  0  0  0
 24 67  1  0  0  0
 27 68  1  0  0  0
 28 69  1  0  0  0
 31 70  1  0  0  0
 31 71  1  0  0  0
 32 72  1  0  0  0
 33 73  1  0  0  0
 33 74  1  0  0  0
 33 75  1  0  0  0
 34 76  1  0  0  0
 34 77  1  0  0  0
 35 78  1  0  0  0
 36 79  1  0  0  0
 36 80  1  0  0  0
 36 81  1  0  0  0
 37 82  1  0  0  0
 37 83  1  0  0  0
 37 84  1  0  0  0
 38 85  1  0  0  0
 38 86  1  0  0  0
 38 87  1  0  0  0
 39 88  1  0  0  0
 40 89  1  0  0  0
 40 90  1  0  0  0
 40 91  1  0  0  0
 41 92  1  0  0  0
 41 93  1  0  0  0
 41 94  1  0  0  0
 42 95  1  0  0  0
 43 96  1  0  0  0
 43 97  1  0  0  0
 43 98  1  0  0  0
 44 99  1  0  0  0
 44100  1  0  0  0
 44101  1  0  0  0
 45102  1  0  0  0
 46103  1  0  0  0
 46104  1  0  0  0
 46105  1  0  0  0
 47106  1  0  0  0
 47107  1  0  0  0
 47108  1  0  0  0
 48109  1  0  0  0
 48110  1  0  0  0
 48111  1  0  0  0
M  END
$$$$
