### 
### Created by X-TOOL on Mon Sep 10 21:12:46 2018
### 

@<TRIPOS>MOLECULE
1sme_ligand
  110   109     1     0     0
SMALL
GAST_HUCK


@<TRIPOS>ATOM
      1 C1         53.5200   70.8800   25.7180 C.2       1 STA         0.0373
      2 O1         53.7210   71.0970   24.5220 O.co2     1 STA        -0.5689
      3 O2         52.9550   71.6440   26.4560 O.co2     1 STA        -0.5689
      4 C2         53.9880   69.5550   26.2460 C.3       1 STA         0.0284
      5 C3         55.4410   69.5720   26.7170 C.3       1 STA         0.0894
      6 O3         56.4300   70.1430   25.7290 O.3       1 STA        -0.3878
      7 C4         55.8390   68.1240   27.1890 C.3       1 STA         0.0697
      8 N5         55.7760   67.1110   26.0940 N.am      1 STA        -0.2794
      9 C6         54.6050   66.5380   25.8280 C.2       1 ALA         0.2017
     10 O6         53.6450   66.6890   26.5800 O.2       1 ALA        -0.3945
     11 C7         54.4730   65.7590   24.5200 C.3       1 ALA         0.1280
     12 N8         53.7450   64.5070   24.5850 N.am      1 ALA        -0.2658
     13 C9         54.3870   63.3990   25.0330 C.2       1 STA         0.1808
     14 O9         55.5330   63.3730   25.4960 O.2       1 STA        -0.3968
     15 C10        53.5510   62.1400   24.9610 C.3       1 STA         0.0655
     16 C11        53.9450   61.2130   23.8010 C.3       1 STA         0.0947
     17 O11        52.7970   60.3630   23.6930 O.3       1 STA        -0.3872
     18 C12        55.1590   60.3090   24.1610 C.3       1 STA         0.0703
     19 C13        55.3820   59.2390   23.0920 C.3       1 STA        -0.0250
     20 N14        55.0270   59.5230   25.3810 N.am      1 STA        -0.2793
     21 C15        55.9920   59.2750   26.2730 C.2       1 VAL         0.2022
     22 O15        57.0720   59.8570   26.3580 O.2       1 VAL        -0.3945
     23 C16        55.6770   58.1150   27.2010 C.3       1 VAL         0.1331
     24 N17        56.7370   57.1980   26.9180 N.am      1 VAL        -0.2635
     25 C18        56.3990   56.0080   26.4680 C.2       1 VAL         0.2042
     26 O18        55.2870   55.4960   26.5140 O.2       1 VAL        -0.3944
     27 C19        57.5840   55.2020   26.0000 C.3       1 VAL         0.1332
     28 N20        57.4650   54.0370   26.8890 N.am      1 VAL        -0.2654
     29 C21        58.5740   53.7130   27.5300 C.2       1 IVA         0.1785
     30 O21        59.6490   54.3170   27.4650 O.2       1 IVA        -0.3969
     31 C22        58.4290   52.4840   28.3790 C.3       1 IVA         0.0397
     32 C23        58.3060   52.8140   29.8670 C.3       1 IVA        -0.0298
     33 C24        57.1520   53.7940   30.1240 C.3       1 IVA        -0.0606
     34 C25        57.2610   68.1100   27.7710 C.3       1 STA        -0.0250
     35 C26        57.6600   66.7750   28.4270 C.3       1 STA        -0.0446
     36 C27        59.1130   66.8420   28.8860 C.3       1 STA        -0.0626
     37 C28        56.6320   66.4180   29.4920 C.3       1 STA        -0.0626
     38 C29        53.8380   66.6280   23.4500 C.3       1 ALA        -0.0244
     39 C30        56.1270   59.6520   21.8370 C.3       1 STA        -0.0446
     40 C31        57.5460   59.9900   22.2170 C.3       1 STA        -0.0626
     41 C32        56.1950   58.4960   20.8880 C.3       1 STA        -0.0626
     42 C33        55.6650   58.6170   28.6700 C.3       1 VAL        -0.0063
     43 C34        54.4330   59.4990   28.9160 C.3       1 VAL        -0.0584
     44 C35        55.4490   57.4570   29.6180 C.3       1 VAL        -0.0584
     45 C36        57.4500   54.8200   24.4890 C.3       1 VAL        -0.0063
     46 C37        57.5930   56.0360   23.5910 C.3       1 VAL        -0.0584
     47 C38        58.7450   54.1520   24.0040 C.3       1 VAL        -0.0584
     48 C39        58.2600   51.4750   30.6280 C.3       1 IVA        -0.0606
     49 H1         53.8887   68.8058   25.4468 H         1 STA         0.0456
     50 H2         53.3489   69.2720   27.0954 H         1 STA         0.0456
     51 H3         55.4801   70.2266   27.6001 H         1 STA         0.0635
     52 H4         57.3026   70.1141   26.1034 H         1 STA         0.2100
     53 H5         55.1327   67.8233   27.9769 H         1 STA         0.0583
     54 H6         56.5945   66.8689   25.5729 H         1 STA         0.1855
     55 H7         55.4962   65.5156   24.1980 H         1 ALA         0.0797
     56 H8         52.7863   64.4609   24.3045 H         1 ALA         0.1882
     57 H9         52.4969   62.4278   24.8349 H         1 STA         0.0529
     58 H10        53.6700   61.5877   25.9048 H         1 STA         0.0529
     59 H11        54.1425   61.7783   22.8783 H         1 STA         0.0642
     60 H12        52.6692   59.8997   24.5125 H         1 STA         0.2101
     61 H13        56.0445   60.9565   24.2417 H         1 STA         0.0583
     62 H14        54.3929   58.8704   22.7825 H         1 STA         0.0291
     63 H15        55.9492   58.4199   23.5581 H         1 STA         0.0291
     64 H16        54.1267   59.1307   25.5696 H         1 STA         0.1856
     65 H17        54.7020   57.6639   26.9646 H         1 VAL         0.0802
     66 H18        57.6948   57.4501   27.0561 H         1 VAL         0.1883
     67 H19        58.5319   55.7371   26.1585 H         1 VAL         0.0802
     68 H20        56.6107   53.5291   26.9999 H         1 VAL         0.1883
     69 H21        59.3127   51.8460   28.2307 H         1 IVA         0.0505
     70 H22        57.5268   51.9403   28.0621 H         1 IVA         0.0505
     71 H23        59.2249   53.3311   30.1804 H         1 IVA         0.0320
     72 H24        57.0887   54.0117   31.2004 H         1 IVA         0.0234
     73 H25        56.2070   53.3448   29.7847 H         1 IVA         0.0234
     74 H26        57.3336   54.7275   29.5712 H         1 IVA         0.0234
     75 H27        57.3309   68.9024   28.5307 H         1 STA         0.0291
     76 H28        57.9696   68.3196   26.9562 H         1 STA         0.0291
     77 H29        57.6080   65.9885   27.6597 H         1 STA         0.0296
     78 H30        59.3941   65.8870   29.3538 H         1 STA         0.0232
     79 H31        59.2297   67.6563   29.6162 H         1 STA         0.0232
     80 H32        59.7631   67.0309   28.0190 H         1 STA         0.0232
     81 H33        55.6284   66.4014   29.0419 H         1 STA         0.0232
     82 H34        56.6609   67.1684   30.2958 H         1 STA         0.0232
     83 H35        56.8639   65.4263   29.9077 H         1 STA         0.0232
     84 H36        54.3780   67.5842   23.3860 H         1 ALA         0.0277
     85 H37        52.7858   66.8178   23.7085 H         1 ALA         0.0277
     86 H38        53.8900   66.1120   22.4800 H         1 ALA         0.0277
     87 H39        55.6317   60.5129   21.3642 H         1 STA         0.0296
     88 H40        58.1040   60.2926   21.3186 H         1 STA         0.0232
     89 H41        58.0253   59.1078   22.6665 H         1 STA         0.0232
     90 H42        57.5443   60.8163   22.9431 H         1 STA         0.0232
     91 H43        55.1772   58.2127   20.5817 H         1 STA         0.0232
     92 H44        56.6795   57.6422   21.3842 H         1 STA         0.0232
     93 H45        56.7781   58.7837   20.0008 H         1 STA         0.0232
     94 H46        56.5984   59.1539   28.8946 H         1 VAL         0.0343
     95 H47        54.4348   59.8487   29.9589 H         1 VAL         0.0234
     96 H48        53.5202   58.9150   28.7267 H         1 VAL         0.0234
     97 H49        54.4611   60.3653   28.2388 H         1 VAL         0.0234
     98 H50        56.2853   56.7483   29.5267 H         1 VAL         0.0234
     99 H51        54.5074   56.9475   29.3655 H         1 VAL         0.0234
    100 H52        55.3974   57.8321   30.6508 H         1 VAL         0.0234
    101 H53        56.5380   54.2323   24.3076 H         1 VAL         0.0343
    102 H54        57.4934   55.7290   22.5394 H         1 VAL         0.0234
    103 H55        58.5812   56.4932   23.7474 H         1 VAL         0.0234
    104 H56        56.8080   56.7668   23.8355 H         1 VAL         0.0234
    105 H57        58.8841   53.1963   24.5307 H         1 VAL         0.0234
    106 H58        59.5990   54.8132   24.2125 H         1 VAL         0.0234
    107 H59        58.6795   53.9679   22.9215 H         1 VAL         0.0234
    108 H60        59.1371   50.8690   30.3570 H         1 IVA         0.0234
    109 H61        57.3419   50.9319   30.3593 H         1 IVA         0.0234
    110 H62        58.2682   51.6682   31.7109 H         1 IVA         0.0234
@<TRIPOS>BOND
     1    1    2 ar 
     2    1    3 ar 
     3    1    4 1  
     4    4    5 1  
     5    5    6 1  
     6    5    7 1  
     7    4   49 1  
     8    7    8 1  
     9    7   34 1  
    10    8    9 am 
    11    4   50 1  
    12    9   10 2  
    13    9   11 1  
    14   11   12 1  
    15   11   38 1  
    16   12   13 am 
    17    5   51 1  
    18   13   14 2  
    19   13   15 1  
    20   15   16 1  
    21   16   17 1  
    22   16   18 1  
    23    6   52 1  
    24   18   19 1  
    25   18   20 1  
    26   19   39 1  
    27   20   21 am 
    28    7   53 1  
    29   21   22 2  
    30   21   23 1  
    31   23   24 1  
    32   23   42 1  
    33   24   25 am 
    34    8   54 1  
    35   25   26 2  
    36   25   27 1  
    37   27   28 1  
    38   27   45 1  
    39   28   29 am 
    40   11   55 1  
    41   29   30 2  
    42   29   31 1  
    43   31   32 1  
    44   32   33 1  
    45   32   48 1  
    46   34   35 1  
    47   35   36 1  
    48   35   37 1  
    49   39   40 1  
    50   39   41 1  
    51   42   43 1  
    52   42   44 1  
    53   45   46 1  
    54   45   47 1  
    55   12   56 1  
    56   15   57 1  
    57   15   58 1  
    58   16   59 1  
    59   17   60 1  
    60   18   61 1  
    61   19   62 1  
    62   19   63 1  
    63   20   64 1  
    64   23   65 1  
    65   24   66 1  
    66   27   67 1  
    67   28   68 1  
    68   31   69 1  
    69   31   70 1  
    70   32   71 1  
    71   33   72 1  
    72   33   73 1  
    73   33   74 1  
    74   34   75 1  
    75   34   76 1  
    76   35   77 1  
    77   36   78 1  
    78   36   79 1  
    79   36   80 1  
    80   37   81 1  
    81   37   82 1  
    82   37   83 1  
    83   38   84 1  
    84   38   85 1  
    85   38   86 1  
    86   39   87 1  
    87   40   88 1  
    88   40   89 1  
    89   40   90 1  
    90   41   91 1  
    91   41   92 1  
    92   41   93 1  
    93   42   94 1  
    94   43   95 1  
    95   43   96 1  
    96   43   97 1  
    97   44   98 1  
    98   44   99 1  
    99   44  100 1  
   100   45  101 1  
   101   46  102 1  
   102   46  103 1  
   103   46  104 1  
   104   47  105 1  
   105   47  106 1  
   106   47  107 1  
   107   48  108 1  
   108   48  109 1  
   109   48  110 1  
@<TRIPOS>SUBSTRUCTURE
     1 STA         1

