2g78_ligand
  -I-interpret- 

 52 52  0  0  0  0  0  0  0  0999 V2000
   21.6270   29.3960   16.5110 C   0  0  0  0  0
   20.5360   30.0740   15.6790 C   0  0  0  0  0
   19.8510   29.1120   14.7310 C   0  0  0  0  0
   19.1600   27.9620   15.4160 C   0  0  0  0  0
   20.0480   27.3390   16.4260 C   0  0  0  0  0
   21.1140   28.0640   16.9900 C   0  0  0  0  0
   21.9100   27.5430   18.0670 C   0  0  0  0  0
   21.2650   26.8470   19.1450 C   0  0  0  0  0
   22.1110   26.1800   20.0880 C   0  0  0  0  0
   21.4310   25.2640   20.9460 C   0  0  0  0  0
   22.1430   24.7110   22.0350 C   0  0  0  0  0
   21.3270   23.7670   22.7880 C   0  0  0  0  0
   21.9120   23.0970   23.9240 C   0  0  0  0  0
   21.0020   22.2940   24.6310 C   0  0  0  0  0
   21.4340   21.5600   25.8120 C   0  0  0  0  0
   22.0600   30.2480   17.7000 C   0  0  0  0  0
   22.8920   29.1420   15.6960 C   0  0  0  0  0
   19.7050   25.9520   16.8200 C   0  0  0  0  0
   23.5870   26.3550   20.2110 C   0  0  0  0  0
   23.3450   23.2190   24.3400 C   0  0  0  0  0
   22.4630   20.8280   25.7930 O   0  0  0  0  0
   20.7930   21.7510   26.8620 O   0  0  0  0  0
   21.0042   30.8580   15.0838 H   0  0  0  0  0
   19.7838   30.4653   16.3640 H   0  0  0  0  0
   20.6224   28.6883   14.0880 H   0  0  0  0  0
   19.0865   29.6755   14.1960 H   0  0  0  0  0
   18.8995   27.2132   14.6680 H   0  0  0  0  0
   18.2674   28.3369   15.9169 H   0  0  0  0  0
   22.3584   28.4212   18.5316 H   0  0  0  0  0
   22.5549   26.7979   17.6011 H   0  0  0  0  0
   20.6664   26.0650   18.6778 H   0  0  0  0  0
   20.7300   27.6085   19.7124 H   0  0  0  0  0
   20.3894   24.9977   20.7661 H   0  0  0  0  0
   23.1752   24.9600   22.2812 H   0  0  0  0  0
   20.2946   23.5709   22.4985 H   0  0  0  0  0
   19.9680   22.2200   24.2941 H   0  0  0  0  0
   22.8034   29.7046   18.2832 H   0  0  0  0  0
   22.4913   31.1815   17.3385 H   0  0  0  0  0
   21.1935   30.4646   18.3249 H   0  0  0  0  0
   23.3092   30.0944   15.3687 H   0  0  0  0  0
   23.6212   28.6174   16.3134 H   0  0  0  0  0
   22.6460   28.5334   14.8258 H   0  0  0  0  0
   20.5556   25.2991   16.6242 H   0  0  0  0  0
   19.4630   25.9268   17.8825 H   0  0  0  0  0
   18.8450   25.6136   16.2420 H   0  0  0  0  0
   23.8279   26.7026   21.2156 H   0  0  0  0  0
   24.0813   25.4011   20.0269 H   0  0  0  0  0
   23.9268   27.0887   19.4800 H   0  0  0  0  0
   23.3953   23.6220   25.3515 H   0  0  0  0  0
   23.8141   22.2354   24.3156 H   0  0  0  0  0
   23.8653   23.8881   23.6546 H   0  0  0  0  0
   22.8186   20.8009   24.9017 H   0  0  0  0  0
  1  2  1  0  0  0
  1  6  1  0  0  0
  1 16  1  0  0  0
  1 17  1  0  0  0
  2  3  1  0  0  0
  3  4  1  0  0  0
  4  5  1  0  0  0
  5  6  2  0  0  0
  5 18  1  0  0  0
  6  7  1  0  0  0
  7  8  1  0  0  0
  8  9  1  0  0  0
  9 10  2  0  0  0
  9 19  1  0  0  0
 10 11  1  0  0  0
 11 12  2  0  0  0
 12 13  1  0  0  0
 13 14  2  0  0  0
 13 20  1  0  0  0
 14 15  1  0  0  0
 15 21  1  0  0  0
 15 22  2  0  0  0
  2 23  1  0  0  0
  2 24  1  0  0  0
  3 25  1  0  0  0
  3 26  1  0  0  0
  4 27  1  0  0  0
  4 28  1  0  0  0
  7 29  1  0  0  0
  7 30  1  0  0  0
  8 31  1  0  0  0
  8 32  1  0  0  0
 10 33  1  0  0  0
 11 34  1  0  0  0
 12 35  1  0  0  0
 14 36  1  0  0  0
 16 37  1  0  0  0
 16 38  1  0  0  0
 16 39  1  0  0  0
 17 40  1  0  0  0
 17 41  1  0  0  0
 17 42  1  0  0  0
 18 43  1  0  0  0
 18 44  1  0  0  0
 18 45  1  0  0  0
 19 46  1  0  0  0
 19 47  1  0  0  0
 19 48  1  0  0  0
 20 49  1  0  0  0
 20 50  1  0  0  0
 20 51  1  0  0  0
 21 52  1  0  0  0
M  END
$$$$
