5hrv_ligand
  -I-interpret- 

 25 27  0  0  0  0  0  0  0  0999 V2000
   21.4280   30.0940   10.5560 C   0  0  0  0  0
   20.8430   28.8380   10.4850 C   0  0  0  0  0
   21.3180   27.6860   11.2210 C   0  0  0  0  0
   20.6860   26.4330   11.1300 C   0  0  0  0  0
   19.5530   26.2850   10.3100 C   0  0  0  0  0
   19.0590   27.3700    9.5920 C   0  0  0  0  0
   19.6730   28.6500    9.7020 C   0  0  0  0  0
   19.1820   29.7790    8.9630 C   0  0  0  0  0
   18.1780   29.7380    8.2710 O   0  0  0  0  0
   19.7850   30.9890    9.0300 O   0  0  0  0  0
   20.8660   31.1350    9.8140 C   0  0  0  0  0
   21.5610   32.2270    9.9520 N   0  0  0  0  0
   22.6260   31.9660   10.8290 N   0  0  0  0  0
   22.5430   30.6710   11.1530 C   0  0  0  0  0
   23.5630   30.0540   12.1410 C   0  0  0  0  0
   24.4820   31.1600   12.6350 C   0  0  0  0  0
   22.1911   27.7926   11.8647 H   0  0  0  0  0
   21.0718   25.5820   11.6914 H   0  0  0  0  0
   19.0595   25.3159   10.2365 H   0  0  0  0  0
   18.1952   27.2389    8.9403 H   0  0  0  0  0
   24.1457   29.2805   11.6408 H   0  0  0  0  0
   23.0395   29.6003   12.9826 H   0  0  0  0  0
   25.0043   31.6026   11.7868 H   0  0  0  0  0
   23.8902   31.9247   13.1382 H   0  0  0  0  0
   25.2079   30.7428   13.3329 H   0  0  0  0  0
  1  2  1  0  0  0
  1 11  4  0  0  0
  1 14  4  0  0  0
  2  3  4  0  0  0
  2  7  4  0  0  0
  3  4  4  0  0  0
  4  5  4  0  0  0
  5  6  4  0  0  0
  6  7  4  0  0  0
  7  8  1  0  0  0
  8  9  2  0  0  0
  8 10  1  0  0  0
 10 11  1  0  0  0
 11 12  4  0  0  0
 12 13  4  0  0  0
 13 14  4  0  0  0
 14 15  1  0  0  0
 15 16  1  0  0  0
  3 17  1  0  0  0
  4 18  1  0  0  0
  5 19  1  0  0  0
  6 20  1  0  0  0
 15 21  1  0  0  0
 15 22  1  0  0  0
 16 23  1  0  0  0
 16 24  1  0  0  0
 16 25  1  0  0  0
M  END
$$$$
