4de5_ligand
  -I-interpret- 

 21 22  0  0  0  0  0  0  0  0999 V2000
   15.2280   12.9710    3.6940 O   0  0  0  0  0
   15.3800   11.8060    3.3390 C   0  0  0  0  0
   15.8230   11.4450    2.2320 O   0  0  0  0  0
   15.0580   10.7040    4.3430 C   0  0  0  0  0
   14.2590   11.1700    5.4440 O   0  0  0  0  0
   14.0760   10.1990    6.3820 C   0  0  0  0  0
   13.8250   10.5260    7.7170 C   0  0  0  0  0
   13.6270    9.5360    8.6710 C   0  0  0  0  0
   13.6890    8.2210    8.2310 C   0  0  0  0  0
   13.9110    7.8690    6.9060 C   0  0  0  0  0
   14.1070    8.8650    5.9650 C   0  0  0  0  0
   14.3430    8.5640    4.6360 O   0  0  0  0  0
   14.2560    9.6310    3.7000 C   0  0  0  0  0
   15.8466   10.4860    2.1953 H   0  0  0  0  0
   16.0252   10.3491    4.6989 H   0  0  0  0  0
   13.7839   11.5738    8.0144 H   0  0  0  0  0
   13.4322    9.7801    9.7153 H   0  0  0  0  0
   13.5567    7.4240    8.9627 H   0  0  0  0  0
   13.9307    6.8200    6.6104 H   0  0  0  0  0
   14.6284    9.3587    2.7125 H   0  0  0  0  0
   13.2286    9.9341    3.4984 H   0  0  0  0  0
  1  2  2  0  0  0
  2  3  1  0  0  0
  2  4  1  0  0  0
  4  5  1  0  0  0
  4 13  1  0  0  0
  5  6  1  0  0  0
  6  7  4  0  0  0
  6 11  4  0  0  0
  7  8  4  0  0  0
  8  9  4  0  0  0
  9 10  4  0  0  0
 10 11  4  0  0  0
 11 12  1  0  0  0
 12 13  1  0  0  0
  3 14  1  0  0  0
  4 15  1  0  0  0
  7 16  1  0  0  0
  8 17  1  0  0  0
  9 18  1  0  0  0
 10 19  1  0  0  0
 13 20  1  0  0  0
 13 21  1  0  0  0
M  END
$$$$
