2ykb_ligand
  -I-interpret- 

 48 52  0  0  0  0  0  0  0  0999 V2000
    8.2200   35.1260  -23.4230 C   0  0  0  0  0
    7.0120   35.7570  -22.8600 C   0  0  0  0  0
    5.8640   34.9580  -23.1320 C   0  0  0  0  0
    8.2580   33.9250  -24.2090 C   0  0  0  0  0
    6.9960   33.2260  -24.4240 C   0  0  0  0  0
    5.8490   33.7790  -23.8610 C   0  0  0  0  0
    4.6470   32.9740  -24.1270 C   0  0  0  0  0
    6.5690   31.9700  -25.1500 C   0  0  0  0  0
    5.2020   31.8060  -24.9920 C   0  0  0  0  0
    4.4060   30.7670  -25.5010 C   0  0  0  0  0
    5.0520   29.7250  -26.2950 C   0  0  0  0  0
    6.5000   29.9160  -26.4800 C   0  0  0  0  0
    7.2510   30.9760  -25.9230 C   0  0  0  0  0
    8.7520   30.9720  -26.1890 C   0  0  0  0  0
    9.6750   31.0700  -25.2800 N   0  0  0  0  0
    9.2610   30.8090  -27.5130 N   0  0  0  0  0
   10.5360   30.8030  -27.4640 C   0  0  0  0  0
   10.8100   30.9530  -26.0730 C   0  0  0  0  0
   12.2090   30.9840  -25.6030 C   0  0  0  0  0
   13.1580   30.8320  -26.4940 C   0  0  0  0  0
   12.8530   30.7030  -27.8620 N   0  0  0  0  0
   11.6090   30.6970  -28.3740 C   0  0  0  0  0
    3.4680   33.4420  -24.7570 N   0  0  0  0  0
    2.2520   33.6730  -24.1110 C   0  0  0  0  0
    1.0500   34.1750  -24.9400 C   0  0  0  0  0
    2.1630   33.4940  -22.8890 O   0  0  0  0  0
   -0.1400   34.6140  -24.1480 C   0  0  0  0  0
   -1.4250   34.4990  -24.8330 C   0  0  0  0  0
   -1.5400   34.7230  -26.1600 O   0  0  0  0  0
   -2.3200   34.0430  -24.1240 N   0  0  0  0  0
    9.1726   35.6169  -23.2240 H   0  0  0  0  0
    6.9991   36.7001  -22.3137 H   0  0  0  0  0
    4.9118   35.3051  -22.7307 H   0  0  0  0  0
    9.1921   33.5508  -24.6280 H   0  0  0  0  0
    4.2322   32.8198  -23.1309 H   0  0  0  0  0
    3.3335   30.7389  -25.3085 H   0  0  0  0  0
    4.5085   28.8785  -26.7146 H   0  0  0  0  0
    7.0318   29.1867  -27.0911 H   0  0  0  0  0
   12.4452   31.1287  -24.5488 H   0  0  0  0  0
   14.1987   30.8051  -26.1709 H   0  0  0  0  0
   11.4372   30.6137  -29.4471 H   0  0  0  0  0
    3.5105   33.6243  -25.7597 H   0  0  0  0  0
    0.7226   33.3346  -25.5521 H   0  0  0  0  0
    1.3963   35.0497  -25.4904 H   0  0  0  0  0
    0.0036   35.6725  -23.9310 H   0  0  0  0  0
   -0.1921   33.9613  -23.2766 H   0  0  0  0  0
   -3.2241   33.8066  -24.5329 H   0  0  0  0  0
   -2.1584   33.9011  -23.1269 H   0  0  0  0  0
  1  2  4  0  0  0
  1  4  4  0  0  0
  2  3  4  0  0  0
  3  6  4  0  0  0
  4  5  4  0  0  0
  5  6  4  0  0  0
  5  8  1  0  0  0
  6  7  1  0  0  0
  7  9  1  0  0  0
  7 23  1  0  0  0
  8  9  4  0  0  0
  8 13  4  0  0  0
  9 10  4  0  0  0
 10 11  4  0  0  0
 11 12  4  0  0  0
 12 13  4  0  0  0
 13 14  1  0  0  0
 14 15  4  0  0  0
 14 16  4  0  0  0
 15 18  4  0  0  0
 16 17  4  0  0  0
 17 18  4  0  0  0
 17 22  4  0  0  0
 18 19  4  0  0  0
 19 20  4  0  0  0
 20 21  4  0  0  0
 21 22  4  0  0  0
 23 24  1  0  0  0
 24 25  1  0  0  0
 24 26  2  0  0  0
 25 27  1  0  0  0
 27 28  1  0  0  0
 28 29  2  0  0  0
 28 30  1  0  0  0
  1 31  1  0  0  0
  2 32  1  0  0  0
  3 33  1  0  0  0
  4 34  1  0  0  0
  7 35  1  0  0  0
 10 36  1  0  0  0
 11 37  1  0  0  0
 12 38  1  0  0  0
 19 39  1  0  0  0
 20 40  1  0  0  0
 22 41  1  0  0  0
 23 42  1  0  0  0
 25 43  1  0  0  0
 25 44  1  0  0  0
 27 45  1  0  0  0
 27 46  1  0  0  0
 30 47  1  0  0  0
 30 48  1  0  0  0
M  END
$$$$
