3o56_ligand
  -I-interpret- 

 58 62  0  0  0  0  0  0  0  0999 V2000
   41.0690   45.3350   63.2400 C   0  0  0  0  0
   41.7110   46.7100   63.2070 C   0  0  0  0  0
   43.1400   46.5630   62.9740 N   0  0  0  0  0
   43.6450   46.1870   61.7900 N   0  0  0  0  0
   44.9880   46.1480   61.9030 C   0  0  0  0  0
   45.3860   46.5150   63.2590 C   0  0  0  0  0
   46.5530   46.6680   63.9970 C   0  0  0  0  0
   47.8370   46.4820   63.5420 N   0  0  0  0  0
   48.2050   46.0200   62.2230 C   0  0  0  0  0
   49.3170   44.9960   62.4410 C   0  0  0  0  0
   49.7820   44.4730   61.0910 C   0  0  0  0  0
   50.2150   45.5920   60.3410 O   0  0  0  0  0
   49.1600   46.4750   60.0070 C   0  0  0  0  0
   48.6390   47.1270   61.2830 C   0  0  0  0  0
   46.3990   47.0810   65.3490 C   0  0  0  0  0
   45.1130   47.3080   65.8540 C   0  0  0  0  0
   44.0060   47.1470   65.1410 N   0  0  0  0  0
   44.1240   46.7650   63.8520 C   0  0  0  0  0
   47.5340   47.3270   66.2420 C   0  0  0  0  0
   47.5200   47.6320   67.5620 O   0  0  0  0  0
   48.8670   47.7940   67.9440 N   0  0  0  0  0
   49.5750   47.5960   66.8250 C   0  0  0  0  0
   51.0910   47.6450   66.7620 C   0  0  0  0  0
   48.7970   47.3110   65.7780 N   0  0  0  0  0
   52.1540   45.8000   65.6030 N   0  0  0  0  0
   51.5590   46.1870   66.7630 C   0  0  0  0  0
   52.3480   46.7000   64.4710 C   0  0  0  0  0
   52.6590   44.4460   65.3970 C   0  0  0  0  0
   51.3770   45.4470   67.7260 O   0  0  0  0  0
   53.1010   45.8640   63.4260 C   0  0  0  0  0
   53.4980   44.5430   64.1150 C   0  0  0  0  0
   41.2360   44.8345   62.2862 H   0  0  0  0  0
   41.5135   44.7471   64.0431 H   0  0  0  0  0
   39.9981   45.4395   63.4143 H   0  0  0  0  0
   41.5447   47.2152   64.1584 H   0  0  0  0  0
   41.2680   47.3023   62.4064 H   0  0  0  0  0
   45.6755   45.8817   61.1002 H   0  0  0  0  0
   48.5958   46.6880   64.1918 H   0  0  0  0  0
   47.3372   45.5865   61.7259 H   0  0  0  0  0
   48.9420   44.1700   63.0453 H   0  0  0  0  0
   50.1523   45.4661   62.9600 H   0  0  0  0  0
   48.9717   43.9549   60.5781 H   0  0  0  0  0
   50.5921   43.7542   61.2140 H   0  0  0  0  0
   48.3562   45.9217   59.5213 H   0  0  0  0  0
   49.5239   47.2420   59.3234 H   0  0  0  0  0
   49.4188   47.7325   61.7449 H   0  0  0  0  0
   47.7988   47.7837   61.0573 H   0  0  0  0  0
   45.0162   47.6348   66.8893 H   0  0  0  0  0
   51.5044   48.1936   67.6083 H   0  0  0  0  0
   51.4329   48.1694   65.8697 H   0  0  0  0  0
   52.9064   47.5922   64.7543 H   0  0  0  0  0
   51.4000   47.0735   64.0838 H   0  0  0  0  0
   51.8532   43.7178   65.3051 H   0  0  0  0  0
   53.2462   44.0943   66.2453 H   0  0  0  0  0
   53.9830   46.3946   63.0674 H   0  0  0  0  0
   52.4728   45.6739   62.5557 H   0  0  0  0  0
   53.3091   43.6915   63.4613 H   0  0  0  0  0
   54.5633   44.5296   64.3455 H   0  0  0  0  0
  1  2  1  0  0  0
  2  3  1  0  0  0
  3  4  4  0  0  0
  3 18  4  0  0  0
  4  5  4  0  0  0
  5  6  4  0  0  0
  6  7  4  0  0  0
  6 18  4  0  0  0
  7  8  1  0  0  0
  7 15  4  0  0  0
  8  9  1  0  0  0
  9 10  1  0  0  0
  9 14  1  0  0  0
 10 11  1  0  0  0
 11 12  1  0  0  0
 12 13  1  0  0  0
 13 14  1  0  0  0
 15 16  4  0  0  0
 15 19  1  0  0  0
 16 17  4  0  0  0
 17 18  4  0  0  0
 19 20  4  0  0  0
 19 24  4  0  0  0
 20 21  4  0  0  0
 21 22  4  0  0  0
 22 23  1  0  0  0
 22 24  4  0  0  0
 23 26  1  0  0  0
 26 25  1  0  0  0
 25 27  1  0  0  0
 25 28  1  0  0  0
 26 29  2  0  0  0
 27 30  1  0  0  0
 28 31  1  0  0  0
 30 31  1  0  0  0
  1 32  1  0  0  0
  1 33  1  0  0  0
  1 34  1  0  0  0
  2 35  1  0  0  0
  2 36  1  0  0  0
  5 37  1  0  0  0
  8 38  1  0  0  0
  9 39  1  0  0  0
 10 40  1  0  0  0
 10 41  1  0  0  0
 11 42  1  0  0  0
 11 43  1  0  0  0
 13 44  1  0  0  0
 13 45  1  0  0  0
 14 46  1  0  0  0
 14 47  1  0  0  0
 16 48  1  0  0  0
 23 49  1  0  0  0
 23 50  1  0  0  0
 27 51  1  0  0  0
 27 52  1  0  0  0
 28 53  1  0  0  0
 28 54  1  0  0  0
 30 55  1  0  0  0
 30 56  1  0  0  0
 31 57  1  0  0  0
 31 58  1  0  0  0
M  END
$$$$
