3p2h_ligand
  -I-interpret- 

 40 40  0  0  0  0  0  0  0  0999 V2000
    0.2140   82.0400   52.3690 C   0  0  0  0  0
   -0.2360   83.1280   52.7140 O   0  0  0  0  0
   -0.6390   80.7780   52.3340 C   0  0  0  0  0
   -0.0970   79.5050   52.5560 C   0  0  0  0  0
    1.4400   79.3900   52.6220 C   0  0  0  0  0
    2.2210   80.4590   51.7590 C   0  0  0  0  0
    1.7210   81.9200   51.9800 C   0  0  0  0  0
   -0.8660   78.2790   52.7410 N   0  0  0  0  0
   -0.7680   76.9490   52.2540 C   0  0  0  0  0
    0.2460   76.2600   52.3080 O   0  0  0  0  0
   -2.0010   76.2790   51.6080 C   0  0  0  0  0
   -3.4030   76.9270   51.7470 C   0  0  0  0  0
   -4.4940   75.8230   51.6910 C   0  0  0  0  0
   -5.7450   76.2630   50.9100 C   0  0  0  0  0
   -6.8520   75.1890   50.9850 C   0  0  0  0  0
   -8.2570   75.8190   50.9430 C   0  0  0  0  0
   -9.3480   74.7560   50.7810 C   0  0  0  0  0
   -1.7058   80.8684   52.1296 H   0  0  0  0  0
    1.7018   78.4094   52.2245 H   0  0  0  0  0
    1.7255   79.5520   53.6614 H   0  0  0  0  0
    2.0619   80.2129   50.7091 H   0  0  0  0  0
    3.2682   80.4215   52.0592 H   0  0  0  0  0
    2.2970   82.3311   52.8090 H   0  0  0  0  0
    1.8479   82.4460   51.0338 H   0  0  0  0  0
   -1.6607   78.4076   53.3673 H   0  0  0  0  0
   -2.0918   75.3234   52.1245 H   0  0  0  0  0
   -1.7947   76.3064   50.5380 H   0  0  0  0  0
   -3.5589   77.6324   50.9308 H   0  0  0  0  0
   -3.4669   77.4518   52.7002 H   0  0  0  0  0
   -4.7988   75.6016   52.7138 H   0  0  0  0  0
   -4.0689   74.9580   51.1820 H   0  0  0  0  0
   -5.4708   76.4096   49.8653 H   0  0  0  0  0
   -6.1238   77.1862   51.3486 H   0  0  0  0  0
   -6.7447   74.6490   51.9257 H   0  0  0  0  0
   -6.7465   74.5251   50.1269 H   0  0  0  0  0
   -8.3056   76.4948   50.0892 H   0  0  0  0  0
   -8.4263   76.3454   51.8824 H   0  0  0  0  0
   -9.1871   74.2109   49.8509 H   0  0  0  0  0
   -9.3062   74.0633   51.6215 H   0  0  0  0  0
  -10.3243   75.2401   50.7557 H   0  0  0  0  0
  1  2  2  0  0  0
  1  3  1  0  0  0
  1  7  1  0  0  0
  3  4  2  0  0  0
  4  5  1  0  0  0
  4  8  1  0  0  0
  5  6  1  0  0  0
  6  7  1  0  0  0
  8  9  1  0  0  0
  9 10  2  0  0  0
  9 11  1  0  0  0
 11 12  1  0  0  0
 12 13  1  0  0  0
 13 14  1  0  0  0
 14 15  1  0  0  0
 15 16  1  0  0  0
 16 17  1  0  0  0
  3 18  1  0  0  0
  5 19  1  0  0  0
  5 20  1  0  0  0
  6 21  1  0  0  0
  6 22  1  0  0  0
  7 23  1  0  0  0
  7 24  1  0  0  0
  8 25  1  0  0  0
 11 26  1  0  0  0
 11 27  1  0  0  0
 12 28  1  0  0  0
 12 29  1  0  0  0
 13 30  1  0  0  0
 13 31  1  0  0  0
 14 32  1  0  0  0
 14 33  1  0  0  0
 15 34  1  0  0  0
 15 35  1  0  0  0
 16 36  1  0  0  0
 16 37  1  0  0  0
 17 38  1  0  0  0
 17 39  1  0  0  0
 17 40  1  0  0  0
M  END
$$$$
