1rtl_ligand
  -I-interpret- 

 70 73  0  0  0  0  0  0  0  0999 V2000
    4.8260   30.8300   12.2650 O   0  0  0  0  0
    6.6250   23.4690   16.7460 C   0  0  0  0  0
    5.3020   22.8850   16.3040 C   0  0  0  0  0
    6.5370   22.6110   15.4880 C   0  0  0  0  0
    5.8020   31.4630   11.7920 C   0  0  0  0  0
    6.2450   32.7490   11.9290 N   0  0  0  0  0
    6.0400   34.1040   12.4640 C   0  0  0  0  0
    7.2020   34.6780   13.4240 C   0  0  0  0  0
    8.1220   35.6180   12.6150 C   0  0  0  0  0
    7.4970   35.7500   11.2190 C   0  0  0  0  0
    6.0610   35.1680   11.3020 C   0  0  0  0  0
    6.6750   30.7830   10.9390 N   0  0  0  0  0
    6.8190   29.4480   10.4320 C   0  0  0  0  0
    7.6070   29.7190    9.1350 C   0  0  0  0  0
    8.5570   28.5730    8.7830 C   0  0  0  0  0
    6.5860   30.0850    8.0690 C   0  0  0  0  0
    7.5140   28.5430   11.4820 C   0  0  0  0  0
    8.2960   29.1290   12.2850 O   0  0  0  0  0
    7.2520   27.1940   11.5600 N   0  0  0  0  0
    7.8580   26.3970   12.5960 C   0  0  0  0  0
    6.7460   25.1940   12.6910 C   0  0  0  0  0
    5.7580   25.7870   12.0260 C   0  0  0  0  0
    6.4090   26.3280   10.7190 C   0  0  0  0  0
    6.2670   24.6760   14.0570 N   0  0  0  0  0
    6.8340   23.4070   14.2340 C   0  0  0  0  0
    7.6390   22.8180   13.4420 O   0  0  0  0  0
    9.2430   26.0840   12.8890 C   0  0  0  0  0
    9.5660   25.2840   14.1790 C   0  0  0  0  0
    9.8210   24.0930   13.6900 O   0  0  0  0  0
   10.4380   27.0010   12.9140 C   0  0  0  0  0
   10.9070   26.6140   11.5360 C   0  0  0  0  0
   10.0520   25.3670   11.7440 C   0  0  0  0  0
    7.2299   23.5439   17.6496 H   0  0  0  0  0
    7.0366   24.4282   17.0600 H   0  0  0  0  0
    4.2795   23.2247   16.1394 H   0  0  0  0  0
    4.4767   22.3227   16.7408 H   0  0  0  0  0
    6.9511   21.6828   15.0941 H   0  0  0  0  0
    7.1311   32.7866   11.4252 H   0  0  0  0  0
    5.1024   33.9858   13.0072 H   0  0  0  0  0
    7.7883   33.8488   13.8200 H   0  0  0  0  0
    6.7516   35.2316   14.2479 H   0  0  0  0  0
    9.1325   35.2141   12.5522 H   0  0  0  0  0
    8.2047   36.5917   13.0979 H   0  0  0  0  0
    8.0885   35.2083   10.4809 H   0  0  0  0  0
    7.4704   36.7942   10.9076 H   0  0  0  0  0
    5.3416   35.9619   11.5024 H   0  0  0  0  0
    5.7862   34.7013   10.3561 H   0  0  0  0  0
    7.4044   31.3997   10.5812 H   0  0  0  0  0
    5.9037   28.8915   10.2306 H   0  0  0  0  0
    8.2948   30.5574    9.2450 H   0  0  0  0  0
    9.2743   28.4358    9.5922 H   0  0  0  0  0
    7.9833   27.6565    8.6450 H   0  0  0  0  0
    9.0880   28.8129    7.8618 H   0  0  0  0  0
    5.8906   29.2565    7.9341 H   0  0  0  0  0
    6.0380   30.9736    8.3824 H   0  0  0  0  0
    7.1001   30.2863    7.1292 H   0  0  0  0  0
    8.1083   27.0897   13.3995 H   0  0  0  0  0
    7.1649   24.2574   12.3230 H   0  0  0  0  0
    5.3055   26.5883   12.6102 H   0  0  0  0  0
    4.9453   25.0929   11.8118 H   0  0  0  0  0
    6.8490   25.6520    9.9858 H   0  0  0  0  0
    5.8006   26.7416    9.9147 H   0  0  0  0  0
    5.6534   25.1633   14.7100 H   0  0  0  0  0
    9.5779   25.6214   15.2154 H   0  0  0  0  0
   11.1436   26.8869   13.7370 H   0  0  0  0  0
   10.2576   28.0586   13.1064 H   0  0  0  0  0
   11.9599   26.5721   11.2573 H   0  0  0  0  0
   10.8041   27.2664   10.6689 H   0  0  0  0  0
    9.5171   24.9355   10.8979 H   0  0  0  0  0
   10.5362   24.4116   11.9460 H   0  0  0  0  0
  5  1  2  0  0  0
  3  2  1  0  0  0
  4  2  1  0  0  0
  4  3  1  0  0  0
 25  4  1  0  0  0
  5  6  1  0  0  0
 12  5  1  0  0  0
  6  7  1  0  0  0
  7  8  1  0  0  0
  7 11  1  0  0  0
  8  9  1  0  0  0
 10  9  1  0  0  0
 11 10  1  0  0  0
 13 12  1  0  0  0
 13 14  1  0  0  0
 17 13  1  0  0  0
 14 15  1  0  0  0
 14 16  1  0  0  0
 17 18  2  0  0  0
 19 17  1  0  0  0
 20 19  1  0  0  0
 23 19  1  0  0  0
 21 20  1  0  0  0
 20 27  1  0  0  0
 21 22  1  0  0  0
 24 21  1  0  0  0
 22 23  1  0  0  0
 24 25  1  0  0  0
 25 26  2  0  0  0
 27 28  1  0  0  0
 27 30  1  0  0  0
 27 32  1  0  0  0
 28 29  2  0  0  0
 30 31  1  0  0  0
 31 32  1  0  0  0
  2 33  1  0  0  0
  2 34  1  0  0  0
  3 35  1  0  0  0
  3 36  1  0  0  0
  4 37  1  0  0  0
  6 38  1  0  0  0
  7 39  1  0  0  0
  8 40  1  0  0  0
  8 41  1  0  0  0
  9 42  1  0  0  0
  9 43  1  0  0  0
 10 44  1  0  0  0
 10 45  1  0  0  0
 11 46  1  0  0  0
 11 47  1  0  0  0
 12 48  1  0  0  0
 13 49  1  0  0  0
 14 50  1  0  0  0
 15 51  1  0  0  0
 15 52  1  0  0  0
 15 53  1  0  0  0
 16 54  1  0  0  0
 16 55  1  0  0  0
 16 56  1  0  0  0
 20 57  1  0  0  0
 21 58  1  0  0  0
 22 59  1  0  0  0
 22 60  1  0  0  0
 23 61  1  0  0  0
 23 62  1  0  0  0
 24 63  1  0  0  0
 28 64  1  0  0  0
 30 65  1  0  0  0
 30 66  1  0  0  0
 31 67  1  0  0  0
 31 68  1  0  0  0
 32 69  1  0  0  0
 32 70  1  0  0  0
M  END
$$$$
