3rwd_ligand
  -I-interpret- 

209215  0  0  0  0  0  0  0  0999 V2000
  -12.5610   15.0630    2.5080 N   0  3  0  0  0
  -12.0830   14.7720    1.1720 C   0  0  0  0  0
  -10.6590   15.2740    1.0740 C   0  0  0  0  0
  -10.0050   15.3780    2.0470 O   0  0  0  0  0
  -12.9650   15.4650    0.2150 C   0  0  0  0  0
  -13.6020   16.6390    0.8940 C   0  0  0  0  0
  -14.0810   14.6200   -0.0640 C   0  0  0  0  0
  -14.2250   17.4730   -0.0230 C   0  0  0  0  0
  -10.1580   15.5440   -0.0970 N   0  0  0  0  0
   -8.8200   16.1200   -0.1750 C   0  0  0  0  0
   -8.7230   17.4110    0.6310 C   0  0  0  0  0
   -9.7380   18.0050    0.9950 O   0  0  0  0  0
   -8.4280   16.3870   -1.6290 C   0  0  0  0  0
   -8.2610   15.1390   -2.4770 C   0  0  0  0  0
   -7.7220   15.4940   -3.8530 C   0  0  0  0  0
   -7.5110   14.3130   -4.6840 N   0  0  0  0  0
   -6.4020   13.5820   -4.6730 C   0  0  0  0  0
   -5.4010   13.9080   -3.8680 N   0  0  0  0  0
   -6.2930   12.5240   -5.4650 N   0  0  0  0  0
   -7.4970   17.8390    0.9090 N   0  0  0  0  0
   -7.2730   19.0800    1.6390 C   0  0  0  0  0
   -7.3730   20.2830    0.7100 C   0  0  0  0  0
   -6.6230   20.3880   -0.2600 O   0  0  0  0  0
   -5.9110   19.0660    2.3360 C   0  0  0  0  0
   -5.5770   20.3680    3.0310 C   0  0  0  0  0
   -6.0900   20.6570    4.2880 C   0  0  0  0  0
   -4.7510   21.3070    2.4280 C   0  0  0  0  0
   -5.7900   21.8460    4.9260 C   0  0  0  0  0
   -4.4440   22.4980    3.0590 C   0  0  0  0  0
   -4.9660   22.7620    4.3070 C   0  0  0  0  0
   -4.6640   23.9470    4.9390 O   0  0  0  0  0
   -8.3070   21.1950    1.0080 N   0  0  0  0  0
   -8.5090   22.4090    0.2120 C   0  0  0  0  0
   -7.4260   23.4460    0.4900 C   0  0  0  0  0
   -7.3240   23.9380    1.6130 O   0  0  0  0  0
   -9.8660   22.9170    0.7010 C   0  0  0  0  0
   -9.9540   22.4350    2.1080 C   0  0  0  0  0
   -9.2530   21.1040    2.1350 C   0  0  0  0  0
   -6.6250   23.7690   -0.5200 N   0  0  0  0  0
   -5.5660   24.7580   -0.3560 C   0  0  0  0  0
   -6.1350   26.1710   -0.3890 C   0  0  0  0  0
   -6.7200   26.5900   -1.3880 O   0  0  0  0  0
   -4.5030   24.6070   -1.4460 C   0  0  0  0  0
   -3.1990   25.3230   -1.1250 C   0  0  0  0  0
   -2.4400   25.7210   -2.3810 C   0  0  0  0  0
   -3.1300   26.8710   -3.0960 C   0  0  0  0  0
   -2.3290   27.3730   -4.2470 N   0  3  0  0  0
   -5.9620   26.9030    0.7070 N   0  0  0  0  0
   -6.4160   28.2880    0.7800 C   0  0  0  0  0
   -5.2520   29.2640    0.6440 C   0  0  0  0  0
   -5.3190   30.2170   -0.1300 O   0  0  0  0  0
   -7.1800   28.5710    2.0890 C   0  0  0  0  0
   -6.6060   27.8030    3.1530 O   0  0  0  0  0
   -8.6460   28.1970    1.9410 C   0  0  0  0  0
   -4.1870   29.0230    1.4010 N   0  0  0  0  0
   -2.9970   29.8610    1.3260 C   0  0  0  0  0
   -1.8280   29.0860    0.7360 C   0  0  0  0  0
   -0.9990   29.6440    0.0200 O   0  0  0  0  0
   -2.6210   30.3940    2.7080 C   0  0  0  0  0
   -1.3560   31.2010    2.7190 C   0  0  0  0  0
   -0.1520   30.6240    3.0870 C   0  0  0  0  0
   -1.3680   32.5350    2.3500 C   0  0  0  0  0
    1.0150   31.3650    3.0950 C   0  0  0  0  0
   -0.2060   33.2820    2.3560 C   0  0  0  0  0
    0.9880   32.6960    2.7280 C   0  0  0  0  0
   -1.7630   27.7960    1.0470 N   0  0  0  0  0
   -0.7040   26.9450    0.5370 C   0  0  0  0  0
    0.2550   26.4700    1.6130 C   0  0  0  0  0
    0.2620   26.9900    2.7280 O   0  0  0  0  0
    1.0690   25.4750    1.2770 N   0  0  0  0  0
    2.0500   24.9390    2.2140 C   0  0  0  0  0
    3.4370   24.8950    1.5770 C   0  0  0  0  0
    4.1300   23.8790    1.6320 O   0  0  0  0  0
    1.6300   23.5470    2.7010 C   0  0  0  0  0
    1.4100   22.5560    1.5940 C   0  0  0  0  0
    2.3360   21.7160    1.0430 C   0  0  0  0  0
    0.1840   22.3070    0.9010 C   0  0  0  0  0
    1.7610   20.9600    0.0510 N   0  0  0  0  0
    0.4390   21.3030   -0.0550 C   0  0  0  0  0
   -1.1050   22.8340    0.9970 C   0  0  0  0  0
   -0.5480   20.8180   -0.9080 C   0  0  0  0  0
   -2.0810   22.3530    0.1530 C   0  0  0  0  0
   -1.8000   21.3560   -0.7880 C   0  0  0  0  0
    3.8340   26.0090    0.9700 N   0  0  0  0  0
    5.1370   26.1060    0.3200 C   0  0  0  0  0
    6.2780   25.8250    1.2940 C   0  0  0  0  0
    6.2680   26.2960    2.4310 O   0  0  0  0  0
    5.3210   27.4920   -0.3020 C   0  0  0  0  0
    4.2740   27.9300   -1.3280 C   0  0  0  0  0
    4.5120   29.3720   -1.7520 C   0  0  0  0  0
    4.2790   27.0020   -2.5330 C   0  0  0  0  0
    7.2600   25.0530    0.8380 N   0  0  0  0  0
    8.4320   24.7480    1.6490 C   0  0  0  0  0
    9.3600   25.9530    1.7460 C   0  0  0  0  0
   10.1480   26.0740    2.6850 O   0  0  0  0  0
    9.1920   23.5490    1.0780 C   0  0  0  0  0
    8.4870   22.2400    1.2620 C   0  0  0  0  0
    7.2210   22.0500    1.7340 C   0  0  0  0  0
    9.0120   20.9360    0.9840 C   0  0  0  0  0
    6.9230   20.7090    1.7640 N   0  0  0  0  0
    8.0070   20.0040    1.3090 C   0  0  0  0  0
   10.2330   20.4670    0.4910 C   0  0  0  0  0
    8.1850   18.6300    1.1560 C   0  0  0  0  0
   10.4080   19.1030    0.3400 C   0  0  0  0  0
    9.3900   18.2010    0.6710 C   0  0  0  0  0
    9.3450   26.8330    0.8870 O   0  0  0  0  0
  -11.9658   14.5937    3.1905 H   0  0  0  0  0
  -12.5327   16.0703    2.6661 H   0  0  0  0  0
  -13.5200   14.7293    2.6049 H   0  0  0  0  0
  -12.0968   13.7049    0.9501 H   0  0  0  0  0
  -12.3762   15.7343   -0.6619 H   0  0  0  0  0
  -12.8261   17.2061    1.4083 H   0  0  0  0  0
  -14.3518   16.2707    1.5942 H   0  0  0  0  0
  -14.5737   14.3507    0.8702 H   0  0  0  0  0
  -14.7838   15.1492   -0.7075 H   0  0  0  0  0
  -13.7347   13.7172   -0.5670 H   0  0  0  0  0
  -13.4879   17.8415   -0.7364 H   0  0  0  0  0
  -14.9979   16.9158   -0.5524 H   0  0  0  0  0
  -14.6770   18.3146    0.5018 H   0  0  0  0  0
  -10.6920   15.3560   -0.9455 H   0  0  0  0  0
   -8.1279   15.3943    0.2522 H   0  0  0  0  0
   -7.4618   16.8913   -1.6109 H   0  0  0  0  0
   -9.2347   16.9691   -2.0745 H   0  0  0  0  0
   -9.2324   14.6580   -2.5919 H   0  0  0  0  0
   -7.5563   14.4693   -1.9841 H   0  0  0  0  0
   -6.7617   15.9929   -3.7227 H   0  0  0  0  0
   -8.4533   16.1317   -4.3495 H   0  0  0  0  0
   -8.2628   14.0311   -5.3131 H   0  0  0  0  0
   -5.4820   14.7204   -3.2566 H   0  0  0  0  0
   -5.4406   11.9639   -5.4534 H   0  0  0  0  0
   -7.0615   12.2703   -6.0858 H   0  0  0  0  0
   -6.6949   17.2871    0.6050 H   0  0  0  0  0
   -8.0504   19.1624    2.3985 H   0  0  0  0  0
   -5.1527   18.8983    1.5712 H   0  0  0  0  0
   -5.9396   18.2859    3.0967 H   0  0  0  0  0
   -6.7405   19.9341    4.7804 H   0  0  0  0  0
   -4.3377   21.1016    1.4405 H   0  0  0  0  0
   -6.2023   22.0582    5.9124 H   0  0  0  0  0
   -3.7929   23.2242    2.5724 H   0  0  0  0  0
   -4.0842   24.4684    4.3789 H   0  0  0  0  0
   -8.4686   22.2202   -0.8608 H   0  0  0  0  0
  -10.6879   22.5469    0.0882 H   0  0  0  0  0
   -9.9469   24.0019    0.6330 H   0  0  0  0  0
  -10.9914   22.3414    2.4291 H   0  0  0  0  0
   -9.4888   23.1402    2.7967 H   0  0  0  0  0
   -8.7555   20.9113    3.0855 H   0  0  0  0  0
   -9.9421   20.2651    2.0373 H   0  0  0  0  0
   -6.7531   23.3174   -1.4255 H   0  0  0  0  0
   -5.1016   24.5854    0.6149 H   0  0  0  0  0
   -4.9038   25.0491   -2.3581 H   0  0  0  0  0
   -4.2789   23.5445   -1.5403 H   0  0  0  0  0
   -2.5708   24.6431   -0.5495 H   0  0  0  0  0
   -3.4373   26.2305   -0.5702 H   0  0  0  0  0
   -2.4041   24.8637   -3.0532 H   0  0  0  0  0
   -1.4370   26.0388   -2.0964 H   0  0  0  0  0
   -3.2552   27.6881   -2.3856 H   0  0  0  0  0
   -4.0858   26.5113   -3.4769 H   0  0  0  0  0
   -2.8268   28.1413   -4.6967 H   0  0  0  0  0
   -1.4239   27.7027   -3.9117 H   0  0  0  0  0
   -2.1897   26.6175   -4.9180 H   0  0  0  0  0
   -5.5010   26.4868    1.5161 H   0  0  0  0  0
   -7.0985   28.4360   -0.0569 H   0  0  0  0  0
   -7.1050   29.6351    2.3132 H   0  0  0  0  0
   -7.0826   27.9802    3.9673 H   0  0  0  0  0
   -9.0900   28.7840    1.1370 H   0  0  0  0  0
   -8.7269   27.1359    1.7053 H   0  0  0  0  0
   -9.1685   28.4039    2.8750 H   0  0  0  0  0
   -4.2026   28.2349    2.0483 H   0  0  0  0  0
   -3.2239   30.7048    0.6744 H   0  0  0  0  0
   -2.4643   29.5331    3.3580 H   0  0  0  0  0
   -3.4284   31.0488    3.0357 H   0  0  0  0  0
   -0.1242   29.5728    3.3738 H   0  0  0  0  0
   -2.3063   33.0021    2.0509 H   0  0  0  0  0
    1.9552   30.8993    3.3906 H   0  0  0  0  0
   -0.2314   34.3328    2.0674 H   0  0  0  0  0
    1.9067   33.2826    2.7319 H   0  0  0  0  0
   -2.4739   27.3945    1.6584 H   0  0  0  0  0
   -0.1294   27.5291   -0.1819 H   0  0  0  0  0
   -1.1719   26.0629    0.1000 H   0  0  0  0  0
    1.0063   25.0760    0.3404 H   0  0  0  0  0
    2.0944   25.6019    3.0781 H   0  0  0  0  0
    0.6826   23.6600    3.2281 H   0  0  0  0  0
    2.4385   23.1636    3.3235 H   0  0  0  0  0
    3.3809   21.6547    1.3470 H   0  0  0  0  0
   -1.3346   23.6112    1.7259 H   0  0  0  0  0
   -0.3322   20.0413   -1.6416 H   0  0  0  0  0
   -3.0914   22.7564    0.2191 H   0  0  0  0  0
   -2.5972   20.9999   -1.4405 H   0  0  0  0  0
    3.2117   26.8171    0.9582 H   0  0  0  0  0
    5.1660   25.3483   -0.4631 H   0  0  0  0  0
    6.2696   27.4568   -0.8377 H   0  0  0  0  0
    5.2494   28.2023    0.5216 H   0  0  0  0  0
    3.2906   27.8704   -0.8616 H   0  0  0  0  0
    4.4461   30.0216   -0.8792 H   0  0  0  0  0
    5.5029   29.4595   -2.1976 H   0  0  0  0  0
    3.7569   29.6641   -2.4818 H   0  0  0  0  0
    5.2626   27.0232   -3.0022 H   0  0  0  0  0
    4.0515   25.9865   -2.2089 H   0  0  0  0  0
    3.5265   27.3336   -3.2485 H   0  0  0  0  0
    7.1914   24.6646   -0.1027 H   0  0  0  0  0
    8.0832   24.4977    2.6509 H   0  0  0  0  0
   10.0561   25.3239    3.2771 H   0  0  0  0  0
   10.1412   23.4836    1.6099 H   0  0  0  0  0
    9.2972   23.7127    0.0055 H   0  0  0  0  0
    6.5441   22.8466    2.0426 H   0  0  0  0  0
   11.0313   21.1621    0.2307 H   0  0  0  0  0
    7.3946   17.9247    1.4129 H   0  0  0  0  0
   11.3553   18.7240   -0.0435 H   0  0  0  0  0
    9.5613   17.1326    0.5393 H   0  0  0  0  0
  1  2  1  0  0  0
  2  3  1  0  0  0
  2  5  1  0  0  0
  3  4  2  0  0  0
  3  9  1  0  0  0
  5  6  1  0  0  0
  5  7  1  0  0  0
  6  8  1  0  0  0
  9 10  1  0  0  0
 10 11  1  0  0  0
 10 13  1  0  0  0
 11 12  2  0  0  0
 11 20  1  0  0  0
 13 14  1  0  0  0
 14 15  1  0  0  0
 15 16  1  0  0  0
 16 17  1  0  0  0
 17 18  2  0  0  0
 17 19  1  0  0  0
 20 21  1  0  0  0
 21 22  1  0  0  0
 21 24  1  0  0  0
 22 23  2  0  0  0
 22 32  1  0  0  0
 24 25  1  0  0  0
 25 26  4  0  0  0
 25 27  4  0  0  0
 26 28  4  0  0  0
 27 29  4  0  0  0
 28 30  4  0  0  0
 29 30  4  0  0  0
 30 31  1  0  0  0
 32 33  1  0  0  0
 32 38  1  0  0  0
 33 34  1  0  0  0
 33 36  1  0  0  0
 34 35  2  0  0  0
 34 39  1  0  0  0
 36 37  1  0  0  0
 37 38  1  0  0  0
 39 40  1  0  0  0
 40 41  1  0  0  0
 40 43  1  0  0  0
 41 42  2  0  0  0
 41 48  1  0  0  0
 43 44  1  0  0  0
 44 45  1  0  0  0
 45 46  1  0  0  0
 46 47  1  0  0  0
 48 49  1  0  0  0
 49 50  1  0  0  0
 49 52  1  0  0  0
 50 51  2  0  0  0
 50 55  1  0  0  0
 52 53  1  0  0  0
 52 54  1  0  0  0
 55 56  1  0  0  0
 56 57  1  0  0  0
 56 59  1  0  0  0
 57 58  2  0  0  0
 57 66  1  0  0  0
 59 60  1  0  0  0
 60 61  4  0  0  0
 60 62  4  0  0  0
 61 63  4  0  0  0
 62 64  4  0  0  0
 63 65  4  0  0  0
 64 65  4  0  0  0
 66 67  1  0  0  0
 67 68  1  0  0  0
 68 69  2  0  0  0
 68 70  1  0  0  0
 70 71  1  0  0  0
 71 72  1  0  0  0
 71 74  1  0  0  0
 72 73  2  0  0  0
 72 84  1  0  0  0
 74 75  1  0  0  0
 75 76  4  0  0  0
 75 77  4  0  0  0
 76 78  4  0  0  0
 77 79  4  0  0  0
 77 80  4  0  0  0
 78 79  4  0  0  0
 79 81  4  0  0  0
 80 82  4  0  0  0
 81 83  4  0  0  0
 82 83  4  0  0  0
 84 85  1  0  0  0
 85 86  1  0  0  0
 85 88  1  0  0  0
 86 87  2  0  0  0
 86 92  1  0  0  0
 88 89  1  0  0  0
 89 90  1  0  0  0
 89 91  1  0  0  0
 92 93  1  0  0  0
 93 94  1  0  0  0
 93 96  1  0  0  0
 94 95  1  0  0  0
 94106  2  0  0  0
 96 97  1  0  0  0
 97 98  4  0  0  0
 97 99  4  0  0  0
 98100  4  0  0  0
 99101  4  0  0  0
 99102  4  0  0  0
100101  4  0  0  0
101103  4  0  0  0
102104  4  0  0  0
103105  4  0  0  0
104105  4  0  0  0
  1107  1  0  0  0
  1108  1  0  0  0
  1109  1  0  0  0
  2110  1  0  0  0
  5111  1  0  0  0
  6112  1  0  0  0
  6113  1  0  0  0
  7114  1  0  0  0
  7115  1  0  0  0
  7116  1  0  0  0
  8117  1  0  0  0
  8118  1  0  0  0
  8119  1  0  0  0
  9120  1  0  0  0
 10121  1  0  0  0
 13122  1  0  0  0
 13123  1  0  0  0
 14124  1  0  0  0
 14125  1  0  0  0
 15126  1  0  0  0
 15127  1  0  0  0
 16128  1  0  0  0
 18129  1  0  0  0
 19130  1  0  0  0
 19131  1  0  0  0
 20132  1  0  0  0
 21133  1  0  0  0
 24134  1  0  0  0
 24135  1  0  0  0
 26136  1  0  0  0
 27137  1  0  0  0
 28138  1  0  0  0
 29139  1  0  0  0
 31140  1  0  0  0
 33141  1  0  0  0
 36142  1  0  0  0
 36143  1  0  0  0
 37144  1  0  0  0
 37145  1  0  0  0
 38146  1  0  0  0
 38147  1  0  0  0
 39148  1  0  0  0
 40149  1  0  0  0
 43150  1  0  0  0
 43151  1  0  0  0
 44152  1  0  0  0
 44153  1  0  0  0
 45154  1  0  0  0
 45155  1  0  0  0
 46156  1  0  0  0
 46157  1  0  0  0
 47158  1  0  0  0
 47159  1  0  0  0
 47160  1  0  0  0
 48161  1  0  0  0
 49162  1  0  0  0
 52163  1  0  0  0
 53164  1  0  0  0
 54165  1  0  0  0
 54166  1  0  0  0
 54167  1  0  0  0
 55168  1  0  0  0
 56169  1  0  0  0
 59170  1  0  0  0
 59171  1  0  0  0
 61172  1  0  0  0
 62173  1  0  0  0
 63174  1  0  0  0
 64175  1  0  0  0
 65176  1  0  0  0
 66177  1  0  0  0
 67178  1  0  0  0
 67179  1  0  0  0
 70180  1  0  0  0
 71181  1  0  0  0
 74182  1  0  0  0
 74183  1  0  0  0
 76184  1  0  0  0
 80185  1  0  0  0
 81186  1  0  0  0
 82187  1  0  0  0
 83188  1  0  0  0
 84189  1  0  0  0
 85190  1  0  0  0
 88191  1  0  0  0
 88192  1  0  0  0
 89193  1  0  0  0
 90194  1  0  0  0
 90195  1  0  0  0
 90196  1  0  0  0
 91197  1  0  0  0
 91198  1  0  0  0
 91199  1  0  0  0
 92200  1  0  0  0
 93201  1  0  0  0
 95202  1  0  0  0
 96203  1  0  0  0
 96204  1  0  0  0
 98205  1  0  0  0
102206  1  0  0  0
103207  1  0  0  0
104208  1  0  0  0
105209  1  0  0  0
M  END
$$$$
