### 
### Created by X-TOOL on Mon Sep 10 21:13:11 2018
### 

@<TRIPOS>MOLECULE
3rwd_ligand
  211   217     1     0     0
SMALL
GAST_HUCK


@<TRIPOS>ATOM
      1 N         -12.5610   15.0630    2.5080 N.4       1 ILE         0.2381
      2 CA        -12.0830   14.7720    1.1720 C.3       1 ILE         0.0676
      3 C         -10.6590   15.2740    1.0740 C.2       1 ILE         0.2270
      4 O         -10.0050   15.3780    2.0470 O.2       1 ILE        -0.3907
      5 CB        -12.9650   15.4650    0.2150 C.3       1 ILE         0.0164
      6 CG1       -13.6020   16.6390    0.8940 C.3       1 ILE        -0.0460
      7 CG2       -14.0810   14.6200   -0.0640 C.3       1 ILE        -0.0551
      8 CD1       -14.2250   17.4730   -0.0230 C.3       1 ILE        -0.0647
      9 N         -10.1580   15.5440   -0.0970 N.am      1 ARG        -0.2610
     10 CA         -8.8200   16.1200   -0.1750 C.3       1 ARG         0.1312
     11 C          -8.7230   17.4110    0.6310 C.2       1 ARG         0.2040
     12 O          -9.7380   18.0050    0.9950 O.2       1 ARG        -0.3944
     13 CB         -8.4280   16.3870   -1.6290 C.3       1 ARG        -0.0092
     14 CG         -8.2610   15.1390   -2.4770 C.3       1 ARG        -0.0156
     15 CD         -7.7220   15.4940   -3.8530 C.3       1 ARG         0.0627
     16 NE         -7.5110   14.3130   -4.6840 N.pl3     1 ARG        -0.2723
     17 CZ         -6.4020   13.5820   -4.6730 C.cat     1 ARG         0.2882
     18 NH1        -5.4010   13.9080   -3.8680 N.pl3     1 ARG        -0.2849
     19 NH2        -6.2930   12.5240   -5.4650 N.pl3     1 ARG        -0.2849
     20 N          -7.4970   17.8390    0.9090 N.am      1 TYR        -0.2621
     21 CA         -7.2730   19.0800    1.6390 C.3       1 TYR         0.1392
     22 C          -7.3730   20.2830    0.7100 C.2       1 TYR         0.2082
     23 O          -6.6230   20.3880   -0.2600 O.2       1 TYR        -0.3940
     24 CB         -5.9110   19.0660    2.3360 C.3       1 TYR         0.0164
     25 CG         -5.5770   20.3680    3.0310 C.ar      1 TYR        -0.0493
     26 CD1        -6.0900   20.6570    4.2880 C.ar      1 TYR        -0.0685
     27 CD2        -4.7510   21.3070    2.4280 C.ar      1 TYR        -0.0685
     28 CE1        -5.7900   21.8460    4.9260 C.ar      1 TYR        -0.0398
     29 CE2        -4.4440   22.4980    3.0590 C.ar      1 TYR        -0.0398
     30 CZ         -4.9660   22.7620    4.3070 C.ar      1 TYR         0.0805
     31 OH         -4.6640   23.9470    4.9390 O.3       1 TYR        -0.3376
     32 N          -8.3070   21.1950    1.0080 N.am      1 PRO        -0.2497
     33 CA         -8.5090   22.4090    0.2120 C.3       1 PRO         0.1338
     34 C          -7.4260   23.4460    0.4900 C.2       1 PRO         0.2041
     35 O          -7.3240   23.9380    1.6130 O.2       1 PRO        -0.3944
     36 CB         -9.8660   22.9170    0.7010 C.3       1 PRO        -0.0104
     37 CG         -9.9540   22.4350    2.1080 C.3       1 PRO        -0.0281
     38 CD         -9.2530   21.1040    2.1350 C.3       1 PRO         0.0369
     39 N          -6.6250   23.7690   -0.5200 N.am      1 LYS        -0.2637
     40 CA         -5.5660   24.7580   -0.3560 C.3       1 LYS         0.1310
     41 C          -6.1350   26.1710   -0.3890 C.2       1 LYS         0.2040
     42 O          -6.7200   26.5900   -1.3880 O.2       1 LYS        -0.3944
     43 CB         -4.5030   24.6070   -1.4460 C.3       1 LYS        -0.0122
     44 CG         -3.1990   25.3230   -1.1250 C.3       1 LYS        -0.0440
     45 CD         -2.4400   25.7210   -2.3810 C.3       1 LYS        -0.0124
     46 CE         -3.1300   26.8710   -3.0960 C.3       1 LYS        -0.0354
     47 NZ         -2.3290   27.3730   -4.2470 N.4       1 LYS         0.2185
     48 N          -5.9620   26.9030    0.7070 N.am      1 THR        -0.2613
     49 CA         -6.4160   28.2880    0.7800 C.3       1 THR         0.1565
     50 C          -5.2520   29.2640    0.6440 C.2       1 THR         0.2066
     51 O          -5.3190   30.2170   -0.1300 O.2       1 THR        -0.3943
     52 CB         -7.1800   28.5710    2.0890 C.3       1 THR         0.0924
     53 OG1        -6.6060   27.8030    3.1530 O.3       1 THR        -0.3874
     54 CG2        -8.6460   28.1970    1.9410 C.3       1 THR        -0.0346
     55 N          -4.1870   29.0230    1.4010 N.am      1 PHE        -0.2619
     56 CA         -2.9970   29.8610    1.3260 C.3       1 PHE         0.1404
     57 C          -1.8280   29.0860    0.7360 C.2       1 PHE         0.2058
     58 O          -0.9990   29.6440    0.0200 O.2       1 PHE        -0.3942
     59 CB         -2.6210   30.3940    2.7080 C.3       1 PHE         0.0214
     60 CG         -1.3560   31.2010    2.7190 C.ar      1 PHE        -0.0386
     61 CD1        -0.1520   30.6240    3.0870 C.ar      1 PHE        -0.0601
     62 CD2        -1.3680   32.5350    2.3500 C.ar      1 PHE        -0.0601
     63 CE1         1.0150   31.3650    3.0950 C.ar      1 PHE        -0.0686
     64 CE2        -0.2060   33.2820    2.3560 C.ar      1 PHE        -0.0686
     65 CZ          0.9880   32.6960    2.7280 C.ar      1 PHE        -0.0687
     66 N          -1.7630   27.7960    1.0470 N.am      1 GLY        -0.2663
     67 CA         -0.7040   26.9450    0.5370 C.3       1 GLY         0.1201
     68 C           0.2550   26.4700    1.6130 C.2       1 GLY         0.2008
     69 O           0.2620   26.9900    2.7280 O.2       1 GLY        -0.3947
     70 N           1.0690   25.4750    1.2770 N.am      1 TRP        -0.2629
     71 CA          2.0500   24.9390    2.2140 C.3       1 TRP         0.1352
     72 C           3.4370   24.8950    1.5770 C.2       1 TRP         0.2052
     73 O           4.1300   23.8790    1.6320 O.2       1 TRP        -0.3942
     74 CB          1.6300   23.5470    2.7010 C.3       1 TRP         0.0042
     75 CG          1.4100   22.5560    1.5940 C.2       1 TRP        -0.0418
     76 CD1         2.3360   21.7160    1.0430 C.2       1 TRP         0.0167
     77 CD2         0.1840   22.3070    0.9010 C.ar      1 TRP        -0.0214
     78 NE1         1.7610   20.9600    0.0510 N.pl3     1 TRP        -0.2890
     79 CE2         0.4390   21.3030   -0.0550 C.ar      1 TRP         0.0603
     80 CE3        -1.1050   22.8340    0.9970 C.ar      1 TRP        -0.0747
     81 CZ2        -0.5480   20.8180   -0.9080 C.ar      1 TRP        -0.0443
     82 CZ3        -2.0810   22.3530    0.1530 C.ar      1 TRP        -0.0792
     83 CH2        -1.8000   21.3560   -0.7880 C.ar      1 TRP        -0.0768
     84 N           3.8340   26.0090    0.9700 N.am      1 LEU        -0.2636
     85 CA          5.1370   26.1060    0.3200 C.3       1 LEU         0.1312
     86 C           6.2780   25.8250    1.2940 C.2       1 LEU         0.2034
     87 O           6.2680   26.2960    2.4310 O.2       1 LEU        -0.3944
     88 CB          5.3210   27.4920   -0.3020 C.3       1 LEU        -0.0101
     89 CG          4.2740   27.9300   -1.3280 C.3       1 LEU        -0.0425
     90 CD1         4.5120   29.3720   -1.7520 C.3       1 LEU        -0.0625
     91 CD2         4.2790   27.0020   -2.5330 C.3       1 LEU        -0.0625
     92 N           7.2600   25.0530    0.8380 N.am      1 TRP        -0.2684
     93 CA          8.4320   24.7480    1.6490 C.3       1 TRP         0.0986
     94 C           9.3600   25.9530    1.7460 C.2       1 TRP         0.0613
     95 O          10.1480   26.0740    2.6850 O.co2     1 TRP        -0.5665
     96 CB          9.1920   23.5490    1.0780 C.3       1 TRP        -0.0013
     97 CG          8.4870   22.2400    1.2620 C.2       1 TRP        -0.0424
     98 CD1         7.2210   22.0500    1.7340 C.2       1 TRP         0.0166
     99 CD2         9.0120   20.9360    0.9840 C.ar      1 TRP        -0.0214
    100 NE1         6.9230   20.7090    1.7640 N.pl3     1 TRP        -0.2891
    101 CE2         8.0070   20.0040    1.3090 C.ar      1 TRP         0.0603
    102 CE3        10.2330   20.4670    0.4910 C.ar      1 TRP        -0.0747
    103 CZ2         8.1850   18.6300    1.1560 C.ar      1 TRP        -0.0443
    104 CZ3        10.4080   19.1030    0.3400 C.ar      1 TRP        -0.0792
    105 CH2         9.3900   18.2010    0.6710 C.ar      1 TRP        -0.0768
    106 OXT         9.3450   26.8330    0.8870 O.co2     1 TRP        -0.5665
    107 H         -11.9658   14.5937    3.1905 H         1 ILE         0.2015
    108 H         -12.5327   16.0703    2.6661 H         1 ILE         0.2015
    109 H         -13.5200   14.7293    2.6049 H         1 ILE         0.2015
    110 H         -12.0968   13.7049    0.9501 H         1 ILE         0.1101
    111 H         -12.3762   15.7343   -0.6619 H         1 ILE         0.0378
    112 H         -12.8261   17.2061    1.4083 H         1 ILE         0.0269
    113 H         -14.3518   16.2707    1.5942 H         1 ILE         0.0269
    114 H         -14.5737   14.3507    0.8702 H         1 ILE         0.0236
    115 H         -14.7838   15.1492   -0.7075 H         1 ILE         0.0236
    116 H         -13.7347   13.7172   -0.5670 H         1 ILE         0.0236
    117 H         -13.4879   17.8415   -0.7364 H         1 ILE         0.0230
    118 H         -14.9979   16.9158   -0.5524 H         1 ILE         0.0230
    119 H         -14.6770   18.3146    0.5018 H         1 ILE         0.0230
    120 H         -10.6920   15.3560   -0.9455 H         1 ARG         0.1884
    121 H          -8.1279   15.3943    0.2522 H         1 ARG         0.0800
    122 H          -7.4618   16.8913   -1.6109 H         1 ARG         0.0313
    123 H          -9.2347   16.9691   -2.0745 H         1 ARG         0.0313
    124 H          -9.2324   14.6580   -2.5919 H         1 ARG         0.0301
    125 H          -7.5563   14.4693   -1.9841 H         1 ARG         0.0301
    126 H          -6.7617   15.9929   -3.7227 H         1 ARG         0.0689
    127 H          -8.4533   16.1317   -4.3495 H         1 ARG         0.0689
    128 H          -8.2628   14.0311   -5.3131 H         1 ARG         0.2642
    129 H          -5.4820   14.7204   -3.2566 H         1 ARG         0.2615
    130 H          -4.5495   13.3465   -3.8598 H         1 ARG         0.2615
    131 H          -7.0620   12.2696   -6.0849 H         1 ARG         0.2615
    132 H          -5.4401   11.9646   -5.4543 H         1 ARG         0.2615
    133 H          -6.6949   17.2871    0.6050 H         1 TYR         0.1885
    134 H          -8.0504   19.1624    2.3985 H         1 TYR         0.0821
    135 H          -5.1527   18.8983    1.5712 H         1 TYR         0.0453
    136 H          -5.9396   18.2859    3.0967 H         1 TYR         0.0453
    137 H          -6.7405   19.9341    4.7804 H         1 TYR         0.0530
    138 H          -4.3377   21.1016    1.4405 H         1 TYR         0.0530
    139 H          -6.2023   22.0582    5.9124 H         1 TYR         0.0525
    140 H          -3.7929   23.2242    2.5724 H         1 TYR         0.0525
    141 H          -4.9646   24.6819    4.3993 H         1 TYR         0.2458
    142 H          -8.4686   22.2202   -0.8608 H         1 PRO         0.0802
    143 H         -10.6879   22.5469    0.0882 H         1 PRO         0.0313
    144 H          -9.9469   24.0019    0.6330 H         1 PRO         0.0313
    145 H         -10.9914   22.3414    2.4291 H         1 PRO         0.0287
    146 H          -9.4888   23.1402    2.7967 H         1 PRO         0.0287
    147 H          -8.7555   20.9113    3.0855 H         1 PRO         0.0524
    148 H          -9.9421   20.2651    2.0373 H         1 PRO         0.0524
    149 H          -6.7531   23.3174   -1.4255 H         1 LYS         0.1883
    150 H          -5.1016   24.5854    0.6149 H         1 LYS         0.0800
    151 H          -4.9038   25.0491   -2.3581 H         1 LYS         0.0312
    152 H          -4.2789   23.5445   -1.5403 H         1 LYS         0.0312
    153 H          -2.5708   24.6431   -0.5495 H         1 LYS         0.0269
    154 H          -3.4373   26.2305   -0.5702 H         1 LYS         0.0269
    155 H          -2.4041   24.8637   -3.0532 H         1 LYS         0.0317
    156 H          -1.4370   26.0388   -2.0964 H         1 LYS         0.0317
    157 H          -3.2552   27.6881   -2.3856 H         1 LYS         0.0813
    158 H          -4.0858   26.5113   -3.4769 H         1 LYS         0.0813
    159 H          -2.8268   28.1413   -4.6967 H         1 LYS         0.1994
    160 H          -1.4239   27.7027   -3.9117 H         1 LYS         0.1994
    161 H          -2.1897   26.6175   -4.9180 H         1 LYS         0.1994
    162 H          -5.5010   26.4868    1.5161 H         1 THR         0.1884
    163 H          -7.0985   28.4360   -0.0569 H         1 THR         0.0826
    164 H          -7.1050   29.6351    2.3132 H         1 THR         0.0639
    165 H          -6.6681   26.8687    2.9414 H         1 THR         0.2101
    166 H          -9.0900   28.7840    1.1370 H         1 THR         0.0257
    167 H          -8.7269   27.1359    1.7053 H         1 THR         0.0257
    168 H          -9.1685   28.4039    2.8750 H         1 THR         0.0257
    169 H          -4.2026   28.2349    2.0483 H         1 PHE         0.1885
    170 H          -3.2239   30.7048    0.6744 H         1 PHE         0.0823
    171 H          -2.4643   29.5331    3.3580 H         1 PHE         0.0474
    172 H          -3.4284   31.0488    3.0357 H         1 PHE         0.0474
    173 H          -0.1242   29.5728    3.3738 H         1 PHE         0.0557
    174 H          -2.3063   33.0021    2.0509 H         1 PHE         0.0557
    175 H           1.9552   30.8993    3.3906 H         1 PHE         0.0599
    176 H          -0.2314   34.3328    2.0674 H         1 PHE         0.0599
    177 H           1.9067   33.2826    2.7319 H         1 PHE         0.0559
    178 H          -2.4739   27.3945    1.6584 H         1 GLY         0.1881
    179 H          -0.1294   27.5291   -0.1819 H         1 GLY         0.0763
    180 H          -1.1719   26.0629    0.1000 H         1 GLY         0.0763
    181 H           1.0063   25.0760    0.3404 H         1 TRP         0.1884
    182 H           2.0944   25.6019    3.0781 H         1 TRP         0.0815
    183 H           0.6826   23.6600    3.2281 H         1 TRP         0.0397
    184 H           2.4385   23.1636    3.3235 H         1 TRP         0.0397
    185 H           3.3809   21.6547    1.3470 H         1 TRP         0.0795
    186 H           2.2396   20.2585   -0.5139 H         1 TRP         0.2216
    187 H          -1.3346   23.6112    1.7259 H         1 TRP         0.0540
    188 H          -0.3322   20.0413   -1.6416 H         1 TRP         0.0541
    189 H          -3.0914   22.7564    0.2191 H         1 TRP         0.0510
    190 H          -2.5972   20.9999   -1.4405 H         1 TRP         0.0530
    191 H           3.2117   26.8171    0.9582 H         1 LEU         0.1883
    192 H           5.1660   25.3483   -0.4631 H         1 LEU         0.0800
    193 H           6.2696   27.4568   -0.8377 H         1 LEU         0.0315
    194 H           5.2494   28.2023    0.5216 H         1 LEU         0.0315
    195 H           3.2906   27.8704   -0.8616 H         1 LEU         0.0298
    196 H           4.4461   30.0216   -0.8792 H         1 LEU         0.0232
    197 H           5.5029   29.4595   -2.1976 H         1 LEU         0.0232
    198 H           3.7569   29.6641   -2.4818 H         1 LEU         0.0232
    199 H           5.2626   27.0232   -3.0022 H         1 LEU         0.0232
    200 H           4.0515   25.9865   -2.2089 H         1 LEU         0.0232
    201 H           3.5265   27.3336   -3.2485 H         1 LEU         0.0232
    202 H           7.1914   24.6646   -0.1027 H         1 TRP         0.1876
    203 H           8.0832   24.4977    2.6509 H         1 TRP         0.0741
    204 H          10.1412   23.4836    1.6099 H         1 TRP         0.0390
    205 H           9.2972   23.7127    0.0055 H         1 TRP         0.0390
    206 H           6.5441   22.8466    2.0426 H         1 TRP         0.0795
    207 H           6.0396   20.3043    2.0741 H         1 TRP         0.2216
    208 H          11.0313   21.1621    0.2307 H         1 TRP         0.0540
    209 H           7.3946   17.9247    1.4129 H         1 TRP         0.0541
    210 H          11.3553   18.7240   -0.0435 H         1 TRP         0.0510
    211 H           9.5613   17.1326    0.5393 H         1 TRP         0.0530
@<TRIPOS>BOND
     1    1    2 1  
     2    2    3 1  
     3    2    5 1  
     4    3    4 2  
     5    3    9 am 
     6    5    6 1  
     7    5    7 1  
     8    6    8 1  
     9    9   10 1  
    10   10   11 1  
    11   10   13 1  
    12   11   12 2  
    13   11   20 am 
    14   13   14 1  
    15   14   15 1  
    16   15   16 1  
    17   16   17 ar 
    18   17   18 ar 
    19   17   19 ar 
    20   20   21 1  
    21   21   22 1  
    22   21   24 1  
    23   22   23 2  
    24   22   32 am 
    25   24   25 1  
    26   25   26 ar 
    27   25   27 ar 
    28   26   28 ar 
    29   27   29 ar 
    30   28   30 ar 
    31   29   30 ar 
    32   30   31 1  
    33   32   33 1  
    34   32   38 1  
    35   33   34 1  
    36   33   36 1  
    37   34   35 2  
    38   34   39 am 
    39   36   37 1  
    40   37   38 1  
    41   39   40 1  
    42   40   41 1  
    43   40   43 1  
    44   41   42 2  
    45   41   48 am 
    46   43   44 1  
    47   44   45 1  
    48   45   46 1  
    49   46   47 1  
    50   48   49 1  
    51   49   50 1  
    52   49   52 1  
    53   50   51 2  
    54   50   55 am 
    55   52   53 1  
    56   52   54 1  
    57   55   56 1  
    58   56   57 1  
    59   56   59 1  
    60   57   58 2  
    61   57   66 am 
    62   59   60 1  
    63   60   61 ar 
    64   60   62 ar 
    65   61   63 ar 
    66   62   64 ar 
    67   63   65 ar 
    68   64   65 ar 
    69   66   67 1  
    70   67   68 1  
    71   68   69 2  
    72   68   70 am 
    73   70   71 1  
    74   71   72 1  
    75   71   74 1  
    76   72   73 2  
    77   72   84 am 
    78   74   75 1  
    79   75   76 2  
    80   75   77 1  
    81   76   78 1  
    82   77   79 ar 
    83   77   80 ar 
    84   78   79 1  
    85   79   81 ar 
    86   80   82 ar 
    87   81   83 ar 
    88   82   83 ar 
    89   84   85 1  
    90   85   86 1  
    91   85   88 1  
    92   86   87 2  
    93   86   92 am 
    94   88   89 1  
    95   89   90 1  
    96   89   91 1  
    97   92   93 1  
    98   93   94 1  
    99   93   96 1  
   100   94   95 ar 
   101   94  106 ar 
   102   96   97 1  
   103   97   98 2  
   104   97   99 1  
   105   98  100 1  
   106   99  101 ar 
   107   99  102 ar 
   108  100  101 1  
   109  101  103 ar 
   110  102  104 ar 
   111  103  105 ar 
   112  104  105 ar 
   113    1  107 1  
   114    1  108 1  
   115    1  109 1  
   116    2  110 1  
   117    5  111 1  
   118    6  112 1  
   119    6  113 1  
   120    7  114 1  
   121    7  115 1  
   122    7  116 1  
   123    8  117 1  
   124    8  118 1  
   125    8  119 1  
   126    9  120 1  
   127   10  121 1  
   128   13  122 1  
   129   13  123 1  
   130   14  124 1  
   131   14  125 1  
   132   15  126 1  
   133   15  127 1  
   134   16  128 1  
   135   18  129 1  
   136   18  130 1  
   137   19  131 1  
   138   19  132 1  
   139   20  133 1  
   140   21  134 1  
   141   24  135 1  
   142   24  136 1  
   143   26  137 1  
   144   27  138 1  
   145   28  139 1  
   146   29  140 1  
   147   31  141 1  
   148   33  142 1  
   149   36  143 1  
   150   36  144 1  
   151   37  145 1  
   152   37  146 1  
   153   38  147 1  
   154   38  148 1  
   155   39  149 1  
   156   40  150 1  
   157   43  151 1  
   158   43  152 1  
   159   44  153 1  
   160   44  154 1  
   161   45  155 1  
   162   45  156 1  
   163   46  157 1  
   164   46  158 1  
   165   47  159 1  
   166   47  160 1  
   167   47  161 1  
   168   48  162 1  
   169   49  163 1  
   170   52  164 1  
   171   53  165 1  
   172   54  166 1  
   173   54  167 1  
   174   54  168 1  
   175   55  169 1  
   176   56  170 1  
   177   59  171 1  
   178   59  172 1  
   179   61  173 1  
   180   62  174 1  
   181   63  175 1  
   182   64  176 1  
   183   65  177 1  
   184   66  178 1  
   185   67  179 1  
   186   67  180 1  
   187   70  181 1  
   188   71  182 1  
   189   74  183 1  
   190   74  184 1  
   191   76  185 1  
   192   78  186 1  
   193   80  187 1  
   194   81  188 1  
   195   82  189 1  
   196   83  190 1  
   197   84  191 1  
   198   85  192 1  
   199   88  193 1  
   200   88  194 1  
   201   89  195 1  
   202   90  196 1  
   203   90  197 1  
   204   90  198 1  
   205   91  199 1  
   206   91  200 1  
   207   91  201 1  
   208   92  202 1  
   209   93  203 1  
   210   96  204 1  
   211   96  205 1  
   212   98  206 1  
   213  100  207 1  
   214  102  208 1  
   215  103  209 1  
   216  104  210 1  
   217  105  211 1  
@<TRIPOS>SUBSTRUCTURE
     1 ILE         1

