1soj_ligand
  -I-interpret- 

 29 30  0  0  0  0  0  0  0  0999 V2000
  114.4950   -2.4400   13.2200 N   0  0  0  0  0
  114.3200   -1.8640   12.0120 C   0  0  0  0  0
  113.4190   -0.8650   11.9970 N   0  0  0  0  0
  112.9490   -0.7670   13.3580 C   0  0  0  0  0
  113.5620   -1.6960   14.0840 C   0  0  0  0  0
  113.2670   -1.8060   15.5430 N   0  0  0  0  0
  112.3230   -0.9710   16.1560 C   0  0  0  0  0
  111.7000   -0.0140   15.3480 N   0  0  0  0  0
  111.9440    0.1280   13.9820 C   0  0  0  0  0
  111.4190    0.9550   13.2310 O   0  0  0  0  0
  112.0830   -1.0680   17.3540 O   0  0  0  0  0
  110.7100    0.8770   16.0020 C   0  0  0  0  0
  113.9690   -2.8230   16.3440 C   0  0  0  0  0
  115.5020   -2.5450   16.3940 C   0  0  0  0  0
  116.2430   -3.5970   17.2330 C   0  0  0  0  0
  115.7970   -1.1140   16.9250 C   0  0  0  0  0
  114.8636   -2.1819   11.1223 H   0  0  0  0  0
  109.9032    0.2758   16.4211 H   0  0  0  0  0
  111.1985    1.4379   16.7988 H   0  0  0  0  0
  110.3036    1.5695   15.2648 H   0  0  0  0  0
  113.8079   -3.7984   15.8849 H   0  0  0  0  0
  113.5777   -2.7947   17.3610 H   0  0  0  0  0
  115.8739   -2.6135   15.3717 H   0  0  0  0  0
  115.8578   -3.5838   18.2526 H   0  0  0  0  0
  116.0866   -4.5836   16.7969 H   0  0  0  0  0
  117.3085   -3.3674   17.2428 H   0  0  0  0  0
  115.3313   -0.3805   16.2669 H   0  0  0  0  0
  115.3913   -1.0105   17.9314 H   0  0  0  0  0
  116.8745   -0.9513   16.9478 H   0  0  0  0  0
  1  2  4  0  0  0
  1  5  4  0  0  0
  2  3  4  0  0  0
  3  4  4  0  0  0
  4  5  4  0  0  0
  4  9  1  0  0  0
  5  6  1  0  0  0
  6  7  1  0  0  0
  6 13  1  0  0  0
  7  8  1  0  0  0
  7 11  2  0  0  0
  8  9  1  0  0  0
  8 12  1  0  0  0
  9 10  2  0  0  0
 13 14  1  0  0  0
 14 15  1  0  0  0
 14 16  1  0  0  0
  2 17  1  0  0  0
 12 18  1  0  0  0
 12 19  1  0  0  0
 12 20  1  0  0  0
 13 21  1  0  0  0
 13 22  1  0  0  0
 14 23  1  0  0  0
 15 24  1  0  0  0
 15 25  1  0  0  0
 15 26  1  0  0  0
 16 27  1  0  0  0
 16 28  1  0  0  0
 16 29  1  0  0  0
M  END
$$$$
