6d4u_ligand
  -I-interpret- 

 57 60  0  0  0  0  0  0  0  0999 V2000
   14.6820  -43.8860    3.0140 C   0  0  0  0  0
   18.0100  -39.6080    2.4760 C   0  0  0  0  0
   18.6890  -40.8790    2.4190 C   0  0  0  0  0
   19.7410  -41.0670    1.5190 C   0  0  0  0  0
   19.5110  -38.8620    0.6770 C   0  0  0  0  0
   17.7840  -37.3680    1.6100 C   0  0  0  0  0
   16.3140  -38.1140    3.3870 C   0  0  0  0  0
   11.4860  -46.0050   -5.4600 C   0  0  0  0  0
   10.7790  -46.1920   -4.2460 O   0  0  0  0  0
   11.4970  -45.8130   -3.0900 C   0  0  0  0  0
   10.9130  -45.9460   -1.8410 C   0  0  0  0  0
   11.6300  -45.5720   -0.6960 C   0  0  0  0  0
   12.9260  -45.0770   -0.8250 C   0  0  0  0  0
   13.7060  -44.6740    0.4370 C   0  0  0  0  0
   13.0160  -43.5830    1.2380 C   0  0  0  0  0
   12.0480  -43.0100    0.8220 O   0  0  0  0  0
   13.5340  -43.2610    2.4850 N   0  0  0  0  0
   12.9870  -42.2600    3.2890 C   0  0  0  0  0
   14.0000  -41.1400    3.3290 C   0  0  0  0  0
   15.2790  -41.6440    3.7720 N   0  0  0  0  0
   15.7730  -42.8560    3.1550 C   0  0  0  0  0
   16.3530  -40.5820    4.5390 S   0  0  0  0  0
   15.6550  -39.9250    5.6180 O   0  0  0  0  0
   17.3900  -41.3620    5.1950 O   0  0  0  0  0
   16.9390  -39.3520    3.3850 C   0  0  0  0  0
   20.1370  -40.0710    0.6640 N   0  0  0  0  0
   18.4210  -38.6270    1.6040 C   0  0  0  0  0
   16.7400  -37.1190    2.4940 C   0  0  0  0  0
   13.5250  -44.9470   -2.0820 C   0  0  0  0  0
   12.8190  -45.3130   -3.2120 C   0  0  0  0  0
   11.0510  -45.6970    0.6110 O   0  0  0  0  0
    9.6170  -45.9270    0.6300 C   0  0  0  0  0
   15.0099  -44.6829    2.3465 H   0  0  0  0  0
   14.4524  -44.3172    3.9884 H   0  0  0  0  0
   18.3819  -41.6918    3.0771 H   0  0  0  0  0
   20.2581  -42.0263    1.4961 H   0  0  0  0  0
   19.8278  -38.0742   -0.0064 H   0  0  0  0  0
   18.1108  -36.5895    0.9207 H   0  0  0  0  0
   15.4957  -37.9148    4.0790 H   0  0  0  0  0
   11.7392  -44.9508   -5.5728 H   0  0  0  0  0
   12.3994  -46.5995   -5.4423 H   0  0  0  0  0
   10.8612  -46.3213   -6.2953 H   0  0  0  0  0
    9.9007  -46.3396   -1.7489 H   0  0  0  0  0
   14.6756  -44.2903    0.1197 H   0  0  0  0  0
   13.7845  -45.5548    1.0743 H   0  0  0  0  0
   12.7797  -42.6345    4.2914 H   0  0  0  0  0
   12.0361  -41.9118    2.8857 H   0  0  0  0  0
   13.6578  -40.3725    4.0232 H   0  0  0  0  0
   14.1079  -40.7191    2.3294 H   0  0  0  0  0
   16.1475  -42.6105    2.1612 H   0  0  0  0  0
   16.5597  -43.2695    3.7860 H   0  0  0  0  0
   16.2498  -36.1455    2.4933 H   0  0  0  0  0
   14.5403  -44.5602   -2.1696 H   0  0  0  0  0
   13.2774  -45.2176   -4.1963 H   0  0  0  0  0
    9.1102  -45.0941    0.1426 H   0  0  0  0  0
    9.3916  -46.8519    0.0991 H   0  0  0  0  0
    9.2768  -46.0070    1.6625 H   0  0  0  0  0
  1 17  1  0  0  0
 21  1  1  0  0  0
  2  3  4  0  0  0
 25  2  4  0  0  0
  2 27  4  0  0  0
  3  4  4  0  0  0
  4 26  4  0  0  0
  5 26  4  0  0  0
 27  5  4  0  0  0
 27  6  4  0  0  0
 28  6  4  0  0  0
 25  7  4  0  0  0
  7 28  4  0  0  0
  9  8  1  0  0  0
 10  9  1  0  0  0
 11 10  4  0  0  0
 10 30  4  0  0  0
 12 11  4  0  0  0
 13 12  4  0  0  0
 12 31  1  0  0  0
 14 13  1  0  0  0
 13 29  4  0  0  0
 15 14  1  0  0  0
 15 16  2  0  0  0
 17 15  1  0  0  0
 18 17  1  0  0  0
 19 18  1  0  0  0
 20 19  1  0  0  0
 20 21  1  0  0  0
 22 20  1  0  0  0
 22 23  2  0  0  0
 22 24  2  0  0  0
 22 25  1  0  0  0
 29 30  4  0  0  0
 31 32  1  0  0  0
  1 33  1  0  0  0
  1 34  1  0  0  0
  3 35  1  0  0  0
  4 36  1  0  0  0
  5 37  1  0  0  0
  6 38  1  0  0  0
  7 39  1  0  0  0
  8 40  1  0  0  0
  8 41  1  0  0  0
  8 42  1  0  0  0
 11 43  1  0  0  0
 14 44  1  0  0  0
 14 45  1  0  0  0
 18 46  1  0  0  0
 18 47  1  0  0  0
 19 48  1  0  0  0
 19 49  1  0  0  0
 21 50  1  0  0  0
 21 51  1  0  0  0
 28 52  1  0  0  0
 29 53  1  0  0  0
 30 54  1  0  0  0
 32 55  1  0  0  0
 32 56  1  0  0  0
 32 57  1  0  0  0
M  END
$$$$
