6faf_ligand
  -I-interpret- 

 40 41  0  0  0  0  0  0  0  0999 V2000
   13.3960   33.4610   18.7310 C   0  0  0  0  0
   13.7620   34.4100   19.6730 C   0  0  0  0  0
   14.3660   35.5900   19.2580 C   0  0  0  0  0
   14.5930   35.8420   17.9100 C   0  0  0  0  0
   11.1060   35.6430   14.3340 C   0  0  0  0  0
   11.0330   36.3410   13.1230 C   0  0  0  0  0
   12.3220   35.6110   15.0720 N   0  0  0  0  0
   13.5800   35.3220   14.5910 C   0  0  0  0  0
   13.8680   35.3070   13.3960 O   0  0  0  0  0
   14.4940   35.0530   15.5820 N   0  0  0  0  0
   14.2370   34.8760   16.9630 C   0  0  0  0  0
   13.6350   33.6810   17.3770 C   0  0  0  0  0
    9.8530   36.4040   12.3940 C   0  0  0  0  0
    8.7310   35.7700   12.9130 C   0  0  0  0  0
    8.7870   35.0750   14.1090 C   0  0  0  0  0
    9.9690   34.9780   14.8430 C   0  0  0  0  0
   12.9970   32.9330   16.4350 O   0  0  0  0  0
   14.9290   36.7520   20.4670 S   0  0  0  0  0
   15.2620   36.0100   21.6430 O   0  0  0  0  0
   13.9450   37.7890   20.5620 O   0  0  0  0  0
   16.2850   37.4340   19.9360 N   0  0  0  0  0
   10.0220   34.1510   16.1020 C   0  0  0  0  0
    9.8020   37.1120   11.0620 C   0  0  0  0  0
   12.9177   32.5359   19.0526 H   0  0  0  0  0
   13.5770   34.2314   20.7322 H   0  0  0  0  0
   15.0438   36.7828   17.5941 H   0  0  0  0  0
   11.9216   36.8460   12.7441 H   0  0  0  0  0
   12.2548   35.8257   16.0669 H   0  0  0  0  0
   15.4677   34.9717   15.2892 H   0  0  0  0  0
    7.7884   35.8208   12.3680 H   0  0  0  0  0
    7.8856   34.5919   14.4861 H   0  0  0  0  0
   13.2763   33.2151   15.5609 H   0  0  0  0  0
   17.1606   37.2863   20.4379 H   0  0  0  0  0
   16.2695   38.0143   19.0973 H   0  0  0  0  0
   10.7401   33.3412   15.9733 H   0  0  0  0  0
   10.3290   34.7813   16.9366 H   0  0  0  0  0
    9.0350   33.7345   16.3034 H   0  0  0  0  0
   10.0745   38.1586   11.1976 H   0  0  0  0  0
   10.5024   36.6392   10.3736 H   0  0  0  0  0
    8.7924   37.0477   10.6562 H   0  0  0  0  0
  2  1  4  0  0  0
  1 12  4  0  0  0
  3  2  4  0  0  0
  4  3  4  0  0  0
  3 18  1  0  0  0
 11  4  4  0  0  0
  5  6  4  0  0  0
  7  5  1  0  0  0
  5 16  4  0  0  0
  6 13  4  0  0  0
  8  7  1  0  0  0
  8  9  2  0  0  0
 10  8  1  0  0  0
 10 11  1  0  0  0
 11 12  4  0  0  0
 12 17  1  0  0  0
 13 14  4  0  0  0
 13 23  1  0  0  0
 14 15  4  0  0  0
 15 16  4  0  0  0
 16 22  1  0  0  0
 18 19  2  0  0  0
 18 20  2  0  0  0
 18 21  1  0  0  0
  1 24  1  0  0  0
  2 25  1  0  0  0
  4 26  1  0  0  0
  6 27  1  0  0  0
  7 28  1  0  0  0
 10 29  1  0  0  0
 14 30  1  0  0  0
 15 31  1  0  0  0
 17 32  1  0  0  0
 21 33  1  0  0  0
 21 34  1  0  0  0
 22 35  1  0  0  0
 22 36  1  0  0  0
 22 37  1  0  0  0
 23 38  1  0  0  0
 23 39  1  0  0  0
 23 40  1  0  0  0
M  END
$$$$
