1b55_ligand
  -I-interpret- 

 44 44  0  0  0  0  0  0  0  0999 V2000
   -1.9790    4.5500   38.7310 C   0  0  0  0  0
   -3.3050    4.6200   39.4460 O   0  0  0  0  0
   -0.8500    5.4250   39.1840 C   0  0  0  0  0
   -1.0420    6.8380   38.8990 O   0  0  0  0  0
    0.3240    4.8690   38.4730 C   0  0  0  0  0
    1.5010    5.4200   39.0040 O   0  0  0  0  0
    0.1820    5.0170   36.9230 C   0  0  0  0  0
    1.3610    4.5130   36.3190 O   0  0  0  0  0
   -0.9050    4.1360   36.4760 C   0  0  0  0  0
   -1.1120    4.3720   35.0380 O   0  0  0  0  0
   -2.1860    4.5000   37.2100 C   0  0  0  0  0
   -3.0420    3.4270   36.9930 O   0  0  0  0  0
   -3.8130    3.6270   40.6700 P   0  0  0  0  0
   -4.9810    4.2240   41.3230 O   0  0  0  0  0
   -2.6980    3.4600   41.6390 O   0  0  0  0  0
   -4.0120    2.4480   39.7660 O   0  0  0  0  0
    2.6050    4.5510   39.6380 P   0  0  0  0  0
    3.4630    5.5730   40.0730 O   0  0  0  0  0
    1.8060    3.7860   40.5730 O   0  0  0  0  0
    3.0900    3.7480   38.5600 O   0  0  0  0  0
    2.3810    5.3220   35.5530 P   0  0  0  0  0
    1.8910    6.7140   35.6780 O   0  0  0  0  0
    3.6580    5.0400   36.2540 O   0  0  0  0  0
    2.2820    4.7790   34.2290 O   0  0  0  0  0
   -0.7220    3.4620   33.7510 P   0  0  0  0  0
    0.3140    4.2970   33.1410 O   0  0  0  0  0
   -0.3560    2.1590   34.2350 O   0  0  0  0  0
   -1.9840    3.4660   33.0630 O   0  0  0  0  0
   -1.5651    3.6006   39.0708 H   0  0  0  0  0
   -0.7472    5.4114   40.2691 H   0  0  0  0  0
   -1.8102    7.1583   39.3774 H   0  0  0  0  0
    0.3804    3.7932   38.6389 H   0  0  0  0  0
    0.0006    6.0601   36.6638 H   0  0  0  0  0
   -0.6517    3.0945   36.6740 H   0  0  0  0  0
   -2.5436    5.4691   36.8621 H   0  0  0  0  0
   -3.8787    3.5924   37.4336 H   0  0  0  0  0
   -1.9437    3.0682   41.1927 H   0  0  0  0  0
   -3.1634    2.1690   39.4143 H   0  0  0  0  0
    1.2867    3.1372   40.0924 H   0  0  0  0  0
    2.4346    3.0825   38.3382 H   0  0  0  0  0
    1.9891    7.0061   36.5872 H   0  0  0  0  0
    3.6371    5.4382   37.1273 H   0  0  0  0  0
    1.1190    4.2368   33.6606 H   0  0  0  0  0
    0.4907    2.2120   34.6844 H   0  0  0  0  0
  1 11  1  0  0  0
  1  3  1  0  0  0
  1  2  1  0  0  0
  2 13  1  0  0  0
 13 16  1  0  0  0
 13 15  1  0  0  0
 13 14  2  0  0  0
  3  5  1  0  0  0
  3  4  1  0  0  0
  5  7  1  0  0  0
  5  6  1  0  0  0
  6 17  1  0  0  0
 17 20  1  0  0  0
 17 19  1  0  0  0
 17 18  2  0  0  0
  7  9  1  0  0  0
  7  8  1  0  0  0
  8 21  1  0  0  0
 21 24  2  0  0  0
 21 23  1  0  0  0
 21 22  1  0  0  0
  9 11  1  0  0  0
  9 10  1  0  0  0
 10 25  1  0  0  0
 25 28  2  0  0  0
 25 27  1  0  0  0
 25 26  1  0  0  0
 11 12  1  0  0  0
  1 29  1  0  0  0
  3 30  1  0  0  0
  4 31  1  0  0  0
  5 32  1  0  0  0
  7 33  1  0  0  0
  9 34  1  0  0  0
 11 35  1  0  0  0
 12 36  1  0  0  0
 15 37  1  0  0  0
 16 38  1  0  0  0
 19 39  1  0  0  0
 20 40  1  0  0  0
 22 41  1  0  0  0
 23 42  1  0  0  0
 26 43  1  0  0  0
 27 44  1  0  0  0
M  END
$$$$
