5zoo_ligand
  -I-interpret- 

225227  0  0  0  0  0  0  0  0999 V2000
   36.3870   -1.4220  -11.6800 N   0  3  0  0  0
   36.9870   -2.6460  -12.2030 C   0  0  0  0  0
   38.1120   -3.1290  -11.2940 C   0  0  0  0  0
   38.1030   -2.8530  -10.0990 O   0  0  0  0  0
   37.5010   -2.4300  -13.6280 C   0  0  0  0  0
   38.3850   -1.2320  -13.7810 C   0  0  0  0  0
   38.8790   -0.5220  -12.7070 N   0  0  0  0  0
   38.8630   -0.6180  -14.8890 C   0  0  0  0  0
   39.6250    0.4750  -13.1480 C   0  0  0  0  0
   39.6280    0.4420  -14.4680 N   0  0  0  0  0
   39.0790   -3.8500  -11.8560 N   0  0  0  0  0
   40.1570   -4.4530  -11.0780 C   0  0  0  0  0
   41.4200   -3.6160  -11.2300 C   0  0  0  0  0
   41.8180   -3.2630  -12.3480 O   0  0  0  0  0
   40.4060   -5.9140  -11.4990 C   0  0  0  0  0
   41.6290   -6.4800  -10.7700 C   0  0  0  0  0
   40.5620   -6.0330  -13.0160 C   0  0  0  0  0
   41.4670   -6.5660   -9.2600 C   0  0  0  0  0
   42.0380   -3.2800  -10.1010 N   0  0  0  0  0
   43.3640   -2.6860  -10.0620 C   0  0  0  0  0
   44.1660   -3.4150   -8.9920 C   0  0  0  0  0
   43.6440   -4.2790   -8.2820 O   0  0  0  0  0
   43.2970   -1.1730   -9.8000 C   0  0  0  0  0
   42.9800   -0.7750   -8.3640 C   0  0  0  0  0
   42.7440    0.7320   -8.2540 C   0  0  0  0  0
   42.5430    1.1600   -6.8710 N   0  0  0  0  0
   42.0100    2.3260   -6.5150 C   0  0  0  0  0
   41.8680    2.6260   -5.2300 N   0  0  0  0  0
   41.6080    3.1880   -7.4400 N   0  0  0  0  0
   45.4460   -3.0800   -8.8810 N   0  0  0  0  0
   46.3090   -3.7710   -7.9420 C   0  0  0  0  0
   47.6000   -4.2230   -8.5860 C   0  0  0  0  0
   47.6140   -4.6150   -9.7580 O   0  0  0  0  0
   48.6920   -4.1830   -7.8270 N   0  0  0  0  0
   50.0200   -4.3670   -8.4050 C   0  0  0  0  0
   50.9930   -4.7170   -7.2960 C   0  0  0  0  0
   51.1680   -3.9250   -6.3640 O   0  0  0  0  0
   50.4670   -3.0980   -9.1250 C   0  0  0  0  0
   51.8690   -3.0870   -9.3070 O   0  0  0  0  0
   51.6370   -5.8830   -7.3940 N   0  0  0  0  0
   52.6570   -6.2020   -6.4000 C   0  0  0  0  0
   53.8970   -5.3380   -6.6180 C   0  0  0  0  0
   54.5650   -4.9480   -5.6540 O   0  0  0  0  0
   52.9830   -7.7100   -6.4100 C   0  0  0  0  0
   53.9300   -8.0730   -5.2570 C   0  0  0  0  0
   53.5610   -8.1490   -7.7560 C   0  0  0  0  0
   54.1010   -9.5820   -5.0460 C   0  0  0  0  0
   54.2060   -4.9930   -7.8730 N   0  0  0  0  0
   55.3560   -4.1350   -8.1430 C   0  0  0  0  0
   55.2090   -2.7690   -7.4790 C   0  0  0  0  0
   56.2030   -2.1840   -7.0320 O   0  0  0  0  0
   55.5430   -3.9810   -9.6590 C   0  0  0  0  0
   55.8330   -5.2640  -10.2330 O   0  0  0  0  0
   56.6820   -3.0350   -9.9710 C   0  0  0  0  0
   53.9890   -2.2460   -7.3960 N   0  0  0  0  0
   53.7550   -0.9380   -6.7990 C   0  0  0  0  0
   53.2580   -1.0150   -5.3600 C   0  0  0  0  0
   53.1130    0.0280   -4.7150 O   0  0  0  0  0
   52.7560   -0.1410   -7.6440 C   0  0  0  0  0
   53.2480    0.1690   -9.0580 C   0  0  0  0  0
   52.3560    1.1600   -9.7820 C   0  0  0  0  0
   52.7940    2.2510  -10.1510 O   0  0  0  0  0
   51.0970    0.7870   -9.9850 N   0  0  0  0  0
   53.0020   -2.2150   -4.8420 N   0  0  0  0  0
   52.4860   -2.3500   -3.4920 C   0  0  0  0  0
   51.0360   -1.9610   -3.3310 C   0  0  0  0  0
   50.6010   -1.6840   -2.2130 O   0  0  0  0  0
   50.2690   -1.9410   -4.4180 N   0  0  0  0  0
   48.8810   -1.4850   -4.3960 C   0  0  0  0  0
   47.9520   -2.6810   -4.2200 C   0  0  0  0  0
   48.0760   -3.6710   -4.9580 O   0  0  0  0  0
   48.5400   -0.7080   -5.6790 C   0  0  0  0  0
   49.3550    0.5810   -5.7590 C   0  0  0  0  0
   47.0520   -0.4040   -5.7480 C   0  0  0  0  0
   49.2590    1.2650   -7.1190 C   0  0  0  0  0
   47.0030   -2.6310   -3.2850 N   0  0  0  0  0
   46.1060   -3.7740   -3.0870 C   0  0  0  0  0
   45.1490   -3.9560   -4.2520 C   0  0  0  0  0
   44.8260   -3.0140   -4.9800 O   0  0  0  0  0
   45.3440   -3.4060   -1.8080 C   0  0  0  0  0
   45.3580   -1.9090   -1.7930 C   0  0  0  0  0
   46.7060   -1.5300   -2.3510 C   0  0  0  0  0
   44.6910   -5.1950   -4.4190 N   0  0  0  0  0
   43.6420   -5.4750   -5.3870 C   0  0  0  0  0
   42.3080   -4.9830   -4.8470 C   0  0  0  0  0
   41.9820   -5.1950   -3.6760 O   0  0  0  0  0
   43.5810   -6.9740   -5.6860 C   0  0  0  0  0
   44.8410   -7.5100   -6.3500 C   0  0  0  0  0
   44.8790   -9.0290   -6.3810 C   0  0  0  0  0
   43.7530   -9.6230   -7.1000 N   0  0  0  0  0
   43.7320   -9.8660   -8.4090 C   0  0  0  0  0
   44.7770   -9.5570   -9.1710 N   0  0  0  0  0
   42.6600  -10.4170   -8.9610 N   0  0  0  0  0
   41.5340   -4.3120   -5.6970 N   0  0  0  0  0
   40.2890   -3.7200   -5.2280 C   0  0  0  0  0
   39.2610   -3.6810   -6.3480 C   0  0  0  0  0
   39.6070   -3.6060   -7.5320 O   0  0  0  0  0
   40.5100   -2.3050   -4.6730 C   0  0  0  0  0
   41.0770   -1.4510   -5.6500 O   0  0  0  0  0
   37.9920   -3.7380   -5.9440 N   0  0  0  0  0
   36.8360   -3.5680   -6.8250 C   0  0  0  0  0
   36.8700   -4.5180   -8.0200 C   0  0  0  0  0
   36.5930   -5.7100   -7.8880 O   0  0  0  0  0
   36.7430   -2.1130   -7.3040 C   0  0  0  0  0
   36.4030   -1.1120   -6.2130 C   0  0  0  0  0
   37.3140   -0.8090   -5.2070 C   0  0  0  0  0
   35.1780   -0.4580   -6.2020 C   0  0  0  0  0
   37.0110    0.1060   -4.2160 C   0  0  0  0  0
   34.8650    0.4600   -5.2150 C   0  0  0  0  0
   35.7860    0.7380   -4.2250 C   0  0  0  0  0
   35.4790    1.6520   -3.2410 O   0  0  0  0  0
   37.1750   -4.1130   -9.1410 O   0  0  0  0  0
   36.0516   -1.5877  -10.7311 H   0  0  0  0  0
   37.0862   -0.6794  -11.6700 H   0  0  0  0  0
   35.6055   -1.1468  -12.2749 H   0  0  0  0  0
   36.2165   -3.4165  -12.2298 H   0  0  0  0  0
   36.6308   -2.2733  -14.2654 H   0  0  0  0  0
   38.0935   -3.3053  -13.8942 H   0  0  0  0  0
   38.6756   -0.9104  -15.9222 H   0  0  0  0  0
   40.1492    1.2017  -12.5274 H   0  0  0  0  0
   39.0665   -3.9862  -12.8668 H   0  0  0  0  0
   39.8644   -4.4698  -10.0282 H   0  0  0  0  0
   39.5356   -6.5045  -11.2130 H   0  0  0  0  0
   42.4625   -5.8058  -10.9671 H   0  0  0  0  0
   41.7816   -7.4952  -11.1363 H   0  0  0  0  0
   39.6525   -5.6803  -13.5023 H   0  0  0  0  0
   41.4078   -5.4275  -13.3416 H   0  0  0  0  0
   40.7365   -7.0757  -13.2813 H   0  0  0  0  0
   41.2859   -5.5692   -8.8579 H   0  0  0  0  0
   40.6230   -7.2137   -9.0227 H   0  0  0  0  0
   42.3764   -6.9765   -8.8211 H   0  0  0  0  0
   41.5567   -3.4478   -9.2175 H   0  0  0  0  0
   43.8546   -2.7969  -11.0290 H   0  0  0  0  0
   42.4873   -0.7846  -10.4178 H   0  0  0  0  0
   44.2860   -0.7732  -10.0239 H   0  0  0  0  0
   43.8256   -1.0442   -7.7311 H   0  0  0  0  0
   42.0758   -1.2951   -8.0479 H   0  0  0  0  0
   41.8443    0.9764   -8.8188 H   0  0  0  0  0
   43.6254    1.2425   -8.6422 H   0  0  0  0  0
   42.8306    0.5220   -6.1290 H   0  0  0  0  0
   41.4513    3.5161   -4.9571 H   0  0  0  0  0
   42.1756    1.9665   -4.5153 H   0  0  0  0  0
   41.7070    2.9580   -8.4288 H   0  0  0  0  0
   45.8253   -2.3311   -9.4604 H   0  0  0  0  0
   45.7814   -4.6535   -7.5802 H   0  0  0  0  0
   46.5543   -3.0819   -7.1339 H   0  0  0  0  0
   48.5998   -4.0210   -6.8242 H   0  0  0  0  0
   49.9921   -5.1762   -9.1348 H   0  0  0  0  0
   50.1856   -2.2353   -8.5211 H   0  0  0  0  0
   49.9868   -3.0627  -10.1029 H   0  0  0  0  0
   52.1253   -2.2809   -9.7609 H   0  0  0  0  0
   51.4207   -6.5362   -8.1470 H   0  0  0  0  0
   52.2692   -5.9714   -5.4078 H   0  0  0  0  0
   52.0485   -8.2515   -6.2635 H   0  0  0  0  0
   53.4996   -7.6643   -4.3428 H   0  0  0  0  0
   54.9111   -7.6666   -5.5028 H   0  0  0  0  0
   52.8362   -7.9467   -8.5446 H   0  0  0  0  0
   54.4789   -7.5955   -7.9537 H   0  0  0  0  0
   53.7784   -9.2167   -7.7258 H   0  0  0  0  0
   53.1322  -10.0283   -4.8216 H   0  0  0  0  0
   54.5079  -10.0305   -5.9523 H   0  0  0  0  0
   54.7840   -9.7562   -4.2146 H   0  0  0  0  0
   53.6342   -5.3318   -8.6467 H   0  0  0  0  0
   56.2405   -4.6083   -7.7167 H   0  0  0  0  0
   54.6237   -3.5737  -10.0798 H   0  0  0  0  0
   55.9503   -5.1700  -11.1812 H   0  0  0  0  0
   56.4669   -2.0558   -9.5433 H   0  0  0  0  0
   57.6048   -3.4255   -9.5420 H   0  0  0  0  0
   56.7919   -2.9446  -11.0517 H   0  0  0  0  0
   53.1963   -2.7747   -7.7600 H   0  0  0  0  0
   54.7204   -0.4323   -6.7785 H   0  0  0  0  0
   52.5945    0.8124   -7.1410 H   0  0  0  0  0
   51.8560   -0.7484   -7.7401 H   0  0  0  0  0
   53.2454   -0.7616   -9.6256 H   0  0  0  0  0
   54.2422    0.6086   -8.9783 H   0  0  0  0  0
   50.4502    1.4139  -10.4636 H   0  0  0  0  0
   50.7773   -0.1262   -9.6622 H   0  0  0  0  0
   53.1709   -3.0508   -5.4017 H   0  0  0  0  0
   53.0674   -1.6781   -2.8607 H   0  0  0  0  0
   52.5639   -3.4041   -3.2258 H   0  0  0  0  0
   50.6662   -2.2569   -5.3028 H   0  0  0  0  0
   48.7445   -0.8063   -3.5540 H   0  0  0  0  0
   48.7992   -1.3333   -6.5334 H   0  0  0  0  0
   50.4006    0.3232   -5.5906 H   0  0  0  0  0
   48.9597    1.2701   -5.0127 H   0  0  0  0  0
   46.4909   -1.3385   -5.7433 H   0  0  0  0  0
   46.7651    0.1979   -4.8857 H   0  0  0  0  0
   46.8369    0.1458   -6.6643 H   0  0  0  0  0
   49.6298    0.5903   -7.8906 H   0  0  0  0  0
   48.2188    1.5175   -7.3246 H   0  0  0  0  0
   49.8601    2.1743   -7.1102 H   0  0  0  0  0
   46.6466   -4.7178   -3.0155 H   0  0  0  0  0
   45.8050   -3.8315   -0.9166 H   0  0  0  0  0
   44.3312   -3.8088   -1.8012 H   0  0  0  0  0
   45.2087   -1.5122   -0.7888 H   0  0  0  0  0
   44.5427   -1.4900   -2.3827 H   0  0  0  0  0
   46.7015   -0.5545   -2.8374 H   0  0  0  0  0
   47.4656   -1.4172   -1.5775 H   0  0  0  0  0
   45.0799   -5.9560   -3.8622 H   0  0  0  0  0
   43.8628   -4.9519   -6.3174 H   0  0  0  0  0
   42.7518   -7.1381   -6.3742 H   0  0  0  0  0
   43.4642   -7.4940   -4.7352 H   0  0  0  0  0
   45.6990   -7.1631   -5.7742 H   0  0  0  0  0
   44.8582   -7.1514   -7.3792 H   0  0  0  0  0
   44.8328   -9.3801   -5.3501 H   0  0  0  0  0
   45.7919   -9.3245   -6.8981 H   0  0  0  0  0
   42.9235   -9.8691   -6.5598 H   0  0  0  0  0
   44.7504   -9.7441  -10.1733 H   0  0  0  0  0
   45.6052   -9.1328   -8.7532 H   0  0  0  0  0
   41.8535  -10.6539   -8.3832 H   0  0  0  0  0
   41.8120   -4.2129   -6.6734 H   0  0  0  0  0
   39.9143   -4.3470   -4.4190 H   0  0  0  0  0
   41.1950   -2.3673   -3.8274 H   0  0  0  0  0
   39.5454   -1.8958   -4.3727 H   0  0  0  0  0
   41.2029   -0.5764   -5.2747 H   0  0  0  0  0
   37.8149   -3.9117   -4.9546 H   0  0  0  0  0
   35.9482   -3.8158   -6.2431 H   0  0  0  0  0
   36.3758   -5.8871   -6.9698 H   0  0  0  0  0
   35.9392   -2.0696   -8.0390 H   0  0  0  0  0
   37.7247   -1.8412   -7.6920 H   0  0  0  0  0
   38.2858   -1.3025   -5.1997 H   0  0  0  0  0
   34.4501   -0.6716   -6.9847 H   0  0  0  0  0
   37.7361    0.3263   -3.4325 H   0  0  0  0  0
   33.8968    0.9607   -5.2192 H   0  0  0  0  0
   34.5960    1.9976   -3.3910 H   0  0  0  0  0
  1  2  1  0  0  0
  2  3  1  0  0  0
  2  5  1  0  0  0
  3  4  2  0  0  0
  3 11  1  0  0  0
  5  6  1  0  0  0
  6  7  4  0  0  0
  6  8  4  0  0  0
  7  9  4  0  0  0
  8 10  4  0  0  0
  9 10  4  0  0  0
 11 12  1  0  0  0
 12 13  1  0  0  0
 12 15  1  0  0  0
 13 14  2  0  0  0
 13 19  1  0  0  0
 15 16  1  0  0  0
 15 17  1  0  0  0
 16 18  1  0  0  0
 19 20  1  0  0  0
 20 21  1  0  0  0
 20 23  1  0  0  0
 21 22  2  0  0  0
 21 30  1  0  0  0
 23 24  1  0  0  0
 24 25  1  0  0  0
 25 26  1  0  0  0
 26 27  1  0  0  0
 27 28  1  0  0  0
 27 29  2  0  0  0
 30 31  1  0  0  0
 31 32  1  0  0  0
 32 33  2  0  0  0
 32 34  1  0  0  0
 34 35  1  0  0  0
 35 36  1  0  0  0
 35 38  1  0  0  0
 36 37  2  0  0  0
 36 40  1  0  0  0
 38 39  1  0  0  0
 40 41  1  0  0  0
 41 42  1  0  0  0
 41 44  1  0  0  0
 42 43  2  0  0  0
 42 48  1  0  0  0
 44 45  1  0  0  0
 44 46  1  0  0  0
 45 47  1  0  0  0
 48 49  1  0  0  0
 49 50  1  0  0  0
 49 52  1  0  0  0
 50 51  2  0  0  0
 50 55  1  0  0  0
 52 53  1  0  0  0
 52 54  1  0  0  0
 55 56  1  0  0  0
 56 57  1  0  0  0
 56 59  1  0  0  0
 57 58  2  0  0  0
 57 64  1  0  0  0
 59 60  1  0  0  0
 60 61  1  0  0  0
 61 62  2  0  0  0
 61 63  1  0  0  0
 64 65  1  0  0  0
 65 66  1  0  0  0
 66 67  2  0  0  0
 66 68  1  0  0  0
 68 69  1  0  0  0
 69 70  1  0  0  0
 69 72  1  0  0  0
 70 71  2  0  0  0
 70 76  1  0  0  0
 72 73  1  0  0  0
 72 74  1  0  0  0
 73 75  1  0  0  0
 76 77  1  0  0  0
 76 82  1  0  0  0
 77 78  1  0  0  0
 77 80  1  0  0  0
 78 79  2  0  0  0
 78 83  1  0  0  0
 80 81  1  0  0  0
 81 82  1  0  0  0
 83 84  1  0  0  0
 84 85  1  0  0  0
 84 87  1  0  0  0
 85 86  2  0  0  0
 85 94  1  0  0  0
 87 88  1  0  0  0
 88 89  1  0  0  0
 89 90  1  0  0  0
 90 91  1  0  0  0
 91 92  1  0  0  0
 91 93  2  0  0  0
 94 95  1  0  0  0
 95 96  1  0  0  0
 95 98  1  0  0  0
 96 97  2  0  0  0
 96100  1  0  0  0
 98 99  1  0  0  0
100101  1  0  0  0
101102  1  0  0  0
101104  1  0  0  0
102103  1  0  0  0
102112  2  0  0  0
104105  1  0  0  0
105106  4  0  0  0
105107  4  0  0  0
106108  4  0  0  0
107109  4  0  0  0
108110  4  0  0  0
109110  4  0  0  0
110111  1  0  0  0
  1113  1  0  0  0
  1114  1  0  0  0
  1115  1  0  0  0
  2116  1  0  0  0
  5117  1  0  0  0
  5118  1  0  0  0
  8119  1  0  0  0
  9120  1  0  0  0
 11121  1  0  0  0
 12122  1  0  0  0
 15123  1  0  0  0
 16124  1  0  0  0
 16125  1  0  0  0
 17126  1  0  0  0
 17127  1  0  0  0
 17128  1  0  0  0
 18129  1  0  0  0
 18130  1  0  0  0
 18131  1  0  0  0
 19132  1  0  0  0
 20133  1  0  0  0
 23134  1  0  0  0
 23135  1  0  0  0
 24136  1  0  0  0
 24137  1  0  0  0
 25138  1  0  0  0
 25139  1  0  0  0
 26140  1  0  0  0
 28141  1  0  0  0
 28142  1  0  0  0
 29143  1  0  0  0
 30144  1  0  0  0
 31145  1  0  0  0
 31146  1  0  0  0
 34147  1  0  0  0
 35148  1  0  0  0
 38149  1  0  0  0
 38150  1  0  0  0
 39151  1  0  0  0
 40152  1  0  0  0
 41153  1  0  0  0
 44154  1  0  0  0
 45155  1  0  0  0
 45156  1  0  0  0
 46157  1  0  0  0
 46158  1  0  0  0
 46159  1  0  0  0
 47160  1  0  0  0
 47161  1  0  0  0
 47162  1  0  0  0
 48163  1  0  0  0
 49164  1  0  0  0
 52165  1  0  0  0
 53166  1  0  0  0
 54167  1  0  0  0
 54168  1  0  0  0
 54169  1  0  0  0
 55170  1  0  0  0
 56171  1  0  0  0
 59172  1  0  0  0
 59173  1  0  0  0
 60174  1  0  0  0
 60175  1  0  0  0
 63176  1  0  0  0
 63177  1  0  0  0
 64178  1  0  0  0
 65179  1  0  0  0
 65180  1  0  0  0
 68181  1  0  0  0
 69182  1  0  0  0
 72183  1  0  0  0
 73184  1  0  0  0
 73185  1  0  0  0
 74186  1  0  0  0
 74187  1  0  0  0
 74188  1  0  0  0
 75189  1  0  0  0
 75190  1  0  0  0
 75191  1  0  0  0
 77192  1  0  0  0
 80193  1  0  0  0
 80194  1  0  0  0
 81195  1  0  0  0
 81196  1  0  0  0
 82197  1  0  0  0
 82198  1  0  0  0
 83199  1  0  0  0
 84200  1  0  0  0
 87201  1  0  0  0
 87202  1  0  0  0
 88203  1  0  0  0
 88204  1  0  0  0
 89205  1  0  0  0
 89206  1  0  0  0
 90207  1  0  0  0
 92208  1  0  0  0
 92209  1  0  0  0
 93210  1  0  0  0
 94211  1  0  0  0
 95212  1  0  0  0
 98213  1  0  0  0
 98214  1  0  0  0
 99215  1  0  0  0
100216  1  0  0  0
101217  1  0  0  0
103218  1  0  0  0
104219  1  0  0  0
104220  1  0  0  0
106221  1  0  0  0
107222  1  0  0  0
108223  1  0  0  0
109224  1  0  0  0
111225  1  0  0  0
M  END
$$$$
