### 
### Created by X-TOOL on Wed Jan  1 15:39:35 2020
### 

@<TRIPOS>MOLECULE
5zoo_ligand
  227   229     1     0     0
SMALL
GAST_HUCK


@<TRIPOS>ATOM
      1 N          36.3870   -1.4220  -11.6800 N.4       1 HIS         0.2390
      2 CA         36.9870   -2.6460  -12.2030 C.3       1 HIS         0.0708
      3 C          38.1120   -3.1290  -11.2940 C.2       1 HIS         0.2282
      4 O          38.1030   -2.8530  -10.0990 O.2       1 HIS        -0.3906
      5 CB         37.5010   -2.4300  -13.6280 C.3       1 HIS         0.0347
      6 CG         38.3850   -1.2320  -13.7810 C.2       1 HIS         0.0005
      7 ND1        38.8790   -0.5220  -12.7070 N.2       1 HIS        -0.3251
      8 CD2        38.8630   -0.6180  -14.8890 C.2       1 HIS         0.0293
      9 CE1        39.6250    0.4750  -13.1480 C.2       1 HIS         0.0907
     10 NE2        39.6280    0.4420  -14.4680 N.pl3     1 HIS        -0.2752
     11 N          39.0790   -3.8500  -11.8560 N.am      1 ILE        -0.2606
     12 CA         40.1570   -4.4530  -11.0780 C.3       1 ILE         0.1336
     13 C          41.4200   -3.6160  -11.2300 C.2       1 ILE         0.2042
     14 O          41.8180   -3.2630  -12.3480 O.2       1 ILE        -0.3944
     15 CB         40.4060   -5.9140  -11.4990 C.3       1 ILE        -0.0037
     16 CG1        41.6290   -6.4800  -10.7700 C.3       1 ILE        -0.0491
     17 CG2        40.5620   -6.0330  -13.0160 C.3       1 ILE        -0.0582
     18 CD1        41.4670   -6.5660   -9.2600 C.3       1 ILE        -0.0648
     19 N          42.0380   -3.2800  -10.1010 N.am      1 ARG        -0.2637
     20 CA         43.3640   -2.6860  -10.0620 C.3       1 ARG         0.1311
     21 C          44.1660   -3.4150   -8.9920 C.2       1 ARG         0.2037
     22 O          43.6440   -4.2790   -8.2820 O.2       1 ARG        -0.3944
     23 CB         43.2970   -1.1730   -9.8000 C.3       1 ARG        -0.0092
     24 CG         42.9800   -0.7750   -8.3640 C.3       1 ARG        -0.0156
     25 CD         42.7440    0.7320   -8.2540 C.3       1 ARG         0.0627
     26 NE         42.5430    1.1600   -6.8710 N.pl3     1 ARG        -0.2723
     27 CZ         42.0100    2.3260   -6.5150 C.cat     1 ARG         0.2882
     28 NH1        41.8680    2.6260   -5.2300 N.pl3     1 ARG        -0.2849
     29 NH2        41.6080    3.1880   -7.4400 N.pl3     1 ARG        -0.2849
     30 N          45.4460   -3.0800   -8.8810 N.am      1 GLY        -0.2664
     31 CA         46.3090   -3.7710   -7.9420 C.3       1 GLY         0.1201
     32 C          47.6000   -4.2230   -8.5860 C.2       1 GLY         0.2008
     33 O          47.6140   -4.6150   -9.7580 O.2       1 GLY        -0.3947
     34 N          48.6920   -4.1830   -7.8270 N.am      1 SER        -0.2618
     35 CA         50.0200   -4.3670   -8.4050 C.3       1 SER         0.1539
     36 C          50.9930   -4.7170   -7.2960 C.2       1 SER         0.2062
     37 O          51.1680   -3.9250   -6.3640 O.2       1 SER        -0.3943
     38 CB         50.4670   -3.0980   -9.1250 C.3       1 SER         0.0843
     39 OG         51.8690   -3.0870   -9.3070 O.3       1 SER        -0.3903
     40 N          51.6370   -5.8830   -7.3940 N.am      1 ILE        -0.2634
     41 CA         52.6570   -6.2020   -6.4000 C.3       1 ILE         0.1335
     42 C          53.8970   -5.3380   -6.6180 C.2       1 ILE         0.2042
     43 O          54.5650   -4.9480   -5.6540 O.2       1 ILE        -0.3944
     44 CB         52.9830   -7.7100   -6.4100 C.3       1 ILE        -0.0037
     45 CG1        53.9300   -8.0730   -5.2570 C.3       1 ILE        -0.0491
     46 CG2        53.5610   -8.1490   -7.7560 C.3       1 ILE        -0.0582
     47 CD1        54.1010   -9.5820   -5.0460 C.3       1 ILE        -0.0648
     48 N          54.2060   -4.9930   -7.8730 N.am      1 THR        -0.2613
     49 CA         55.3560   -4.1350   -8.1430 C.3       1 THR         0.1565
     50 C          55.2090   -2.7690   -7.4790 C.2       1 THR         0.2065
     51 O          56.2030   -2.1840   -7.0320 O.2       1 THR        -0.3943
     52 CB         55.5430   -3.9810   -9.6590 C.3       1 THR         0.0924
     53 OG1        55.8330   -5.2640  -10.2330 O.3       1 THR        -0.3874
     54 CG2        56.6820   -3.0350   -9.9710 C.3       1 THR        -0.0346
     55 N          53.9890   -2.2460   -7.3960 N.am      1 GLN        -0.2635
     56 CA         53.7550   -0.9380   -6.7990 C.3       1 GLN         0.1330
     57 C          53.2580   -1.0150   -5.3600 C.2       1 GLN         0.2038
     58 O          53.1130    0.0280   -4.7150 O.2       1 GLN        -0.3944
     59 CB         52.7560   -0.1410   -7.6440 C.3       1 GLN         0.0045
     60 CG         53.2480    0.1690   -9.0580 C.3       1 GLN         0.0412
     61 CD         52.3560    1.1600   -9.7820 C.2       1 GLN         0.1737
     62 OE1        52.7940    2.2510  -10.1510 O.2       1 GLN        -0.3973
     63 NE2        51.0970    0.7870   -9.9850 N.am      1 GLN        -0.3009
     64 N          53.0020   -2.2150   -4.8420 N.am      1 GLY        -0.2664
     65 CA         52.4860   -2.3500   -3.4920 C.3       1 GLY         0.1201
     66 C          51.0360   -1.9610   -3.3310 C.2       1 GLY         0.2008
     67 O          50.6010   -1.6840   -2.2130 O.2       1 GLY        -0.3947
     68 N          50.2690   -1.9410   -4.4180 N.am      1 ILE        -0.2637
     69 CA         48.8810   -1.4850   -4.3960 C.3       1 ILE         0.1337
     70 C          47.9520   -2.6810   -4.2200 C.2       1 ILE         0.2067
     71 O          48.0760   -3.6710   -4.9580 O.2       1 ILE        -0.3942
     72 CB         48.5400   -0.7080   -5.6790 C.3       1 ILE        -0.0037
     73 CG1        49.3550    0.5810   -5.7590 C.3       1 ILE        -0.0491
     74 CG2        47.0520   -0.4040   -5.7480 C.3       1 ILE        -0.0582
     75 CD1        49.2590    1.2650   -7.1190 C.3       1 ILE        -0.0648
     76 N          47.0030   -2.6310   -3.2850 N.am      1 PRO        -0.2498
     77 CA         46.1060   -3.7740   -3.0870 C.3       1 PRO         0.1338
     78 C          45.1490   -3.9560   -4.2520 C.2       1 PRO         0.2041
     79 O          44.8260   -3.0140   -4.9800 O.2       1 PRO        -0.3944
     80 CB         45.3440   -3.4060   -1.8080 C.3       1 PRO        -0.0104
     81 CG         45.3580   -1.9090   -1.7930 C.3       1 PRO        -0.0281
     82 CD         46.7060   -1.5300   -2.3510 C.3       1 PRO         0.0369
     83 N          44.6910   -5.1950   -4.4190 N.am      1 ARG        -0.2637
     84 CA         43.6420   -5.4750   -5.3870 C.3       1 ARG         0.1311
     85 C          42.3080   -4.9830   -4.8470 C.2       1 ARG         0.2040
     86 O          41.9820   -5.1950   -3.6760 O.2       1 ARG        -0.3944
     87 CB         43.5810   -6.9740   -5.6860 C.3       1 ARG        -0.0092
     88 CG         44.8410   -7.5100   -6.3500 C.3       1 ARG        -0.0156
     89 CD         44.8790   -9.0290   -6.3810 C.3       1 ARG         0.0627
     90 NE         43.7530   -9.6230   -7.1000 N.pl3     1 ARG        -0.2723
     91 CZ         43.7320   -9.8660   -8.4090 C.cat     1 ARG         0.2882
     92 NH1        44.7770   -9.5570   -9.1710 N.pl3     1 ARG        -0.2849
     93 NH2        42.6600  -10.4170   -8.9610 N.pl3     1 ARG        -0.2849
     94 N          41.5340   -4.3120   -5.6970 N.am      1 SER        -0.2616
     95 CA         40.2890   -3.7200   -5.2280 C.3       1 SER         0.1539
     96 C          39.2610   -3.6810   -6.3480 C.2       1 SER         0.2057
     97 O          39.6070   -3.6060   -7.5320 O.2       1 SER        -0.3943
     98 CB         40.5100   -2.3050   -4.6730 C.3       1 SER         0.0843
     99 OG         41.0770   -1.4510   -5.6500 O.3       1 SER        -0.3903
    100 N          37.9920   -3.7380   -5.9440 N.am      1 TYR        -0.2678
    101 CA         36.8360   -3.5680   -6.8250 C.3       1 TYR         0.1025
    102 C          36.8700   -4.5180   -8.0200 C.2       1 TYR         0.0619
    103 O          36.5930   -5.7100   -7.8880 O.co2     1 TYR        -0.5665
    104 CB         36.7430   -2.1130   -7.3040 C.3       1 TYR         0.0108
    105 CG         36.4030   -1.1120   -6.2130 C.ar      1 TYR        -0.0499
    106 CD1        37.3140   -0.8090   -5.2070 C.ar      1 TYR        -0.0686
    107 CD2        35.1780   -0.4580   -6.2020 C.ar      1 TYR        -0.0686
    108 CE1        37.0110    0.1060   -4.2160 C.ar      1 TYR        -0.0398
    109 CE2        34.8650    0.4600   -5.2150 C.ar      1 TYR        -0.0398
    110 CZ         35.7860    0.7380   -4.2250 C.ar      1 TYR         0.0805
    111 OH         35.4790    1.6520   -3.2410 O.3       1 TYR        -0.3376
    112 OXT        37.1750   -4.1130   -9.1410 O.co2     1 TYR        -0.5665
    113 H1         35.6473   -1.1210  -12.2951 H         1 HIS         0.2016
    114 H2         37.0896   -0.7016  -11.6219 H         1 HIS         0.2016
    115 H3         36.0098   -1.5983  -10.7620 H         1 HIS         0.2016
    116 H4         36.2102   -3.4242  -12.2317 H         1 HIS         0.1116
    117 H5         36.6339   -2.3073  -14.2937 H         1 HIS         0.0453
    118 H6         38.0711   -3.3213  -13.9289 H         1 HIS         0.0453
    119 H7         38.6758   -0.9101  -15.9213 H         1 HIS         0.0729
    120 H8         40.1488    1.2011  -12.5280 H         1 HIS         0.1199
    121 H9         40.1236    1.1038  -15.0822 H         1 HIS         0.2361
    122 H10        39.0668   -3.9836  -12.8470 H         1 ILE         0.1885
    123 H11        39.8631   -4.4496  -10.0180 H         1 ILE         0.0803
    124 H12        39.5287   -6.5076  -11.2026 H         1 ILE         0.0345
    125 H13        42.4915   -5.8332  -10.9886 H         1 ILE         0.0267
    126 H14        41.8228   -7.4921  -11.1548 H         1 ILE         0.0267
    127 H15        39.6704   -5.6193  -13.5098 H         1 ILE         0.0235
    128 H16        40.6752   -7.0920  -13.2910 H         1 ILE         0.0235
    129 H17        41.4525   -5.4732  -13.3381 H         1 ILE         0.0235
    130 H18        42.3842   -6.9802   -8.8159 H         1 ILE         0.0230
    131 H19        40.6156   -7.2195   -9.0192 H         1 ILE         0.0230
    132 H20        41.2842   -5.5606   -8.8530 H         1 ILE         0.0230
    133 H21        41.5662   -3.4445   -9.2348 H         1 ARG         0.1883
    134 H22        43.8513   -2.8408  -11.0359 H         1 ARG         0.0800
    135 H23        42.5172   -0.7496  -10.4501 H         1 ARG         0.0313
    136 H24        44.2719   -0.7384  -10.0658 H         1 ARG         0.0313
    137 H25        43.8250   -1.0551   -7.7179 H         1 ARG         0.0301
    138 H26        42.0748   -1.3061   -8.0347 H         1 ARG         0.0301
    139 H27        41.8504    0.9943   -8.8393 H         1 ARG         0.0689
    140 H28        43.6185    1.2584   -8.6641 H         1 ARG         0.0689
    141 H29        42.8335    0.5158   -6.1217 H         1 ARG         0.2642
    142 H30        41.4554    3.5286   -4.9544 H         1 ARG         0.2615
    143 H31        42.1704    1.9562   -4.5083 H         1 ARG         0.2615
    144 H32        41.7161    2.9596   -8.4385 H         1 ARG         0.2615
    145 H33        41.1878    4.0856   -7.1596 H         1 ARG         0.2615
    146 H34        45.8179   -2.3458   -9.4490 H         1 GLY         0.1881
    147 H35        45.7779   -4.6528   -7.5542 H         1 GLY         0.0763
    148 H36        46.5461   -3.0908   -7.1107 H         1 GLY         0.0763
    149 H37        48.6016   -4.0242   -6.8438 H         1 SER         0.1884
    150 H38        49.9867   -5.1936   -9.1299 H         1 SER         0.0823
    151 H39        50.1750   -2.2226   -8.5263 H         1 SER         0.0606
    152 H40        49.9761   -3.0501  -10.1082 H         1 SER         0.0606
    153 H41        52.1256   -3.8396   -9.8267 H         1 SER         0.2097
    154 H42        51.4250   -6.5234   -8.1322 H         1 ILE         0.1883
    155 H43        52.2508   -5.9577   -5.4074 H         1 ILE         0.0803
    156 H44        52.0412   -8.2572   -6.2565 H         1 ILE         0.0345
    157 H45        53.5302   -7.6367   -4.3298 H         1 ILE         0.0267
    158 H46        54.9179   -7.6389   -5.4703 H         1 ILE         0.0267
    159 H47        52.8628   -7.8766   -8.5612 H         1 ILE         0.0235
    160 H48        53.7101   -9.2388   -7.7531 H         1 ILE         0.0235
    161 H49        54.5257   -7.6473   -7.9220 H         1 ILE         0.0235
    162 H50        54.7901   -9.7591   -4.2071 H         1 ILE         0.0230
    163 H51        54.5117  -10.0358   -5.9600 H         1 ILE         0.0230
    164 H52        53.1239  -10.0336   -4.8194 H         1 ILE         0.0230
    165 H53        53.6454   -5.3251   -8.6316 H         1 THR         0.1884
    166 H54        56.2522   -4.6205   -7.7293 H         1 THR         0.0826
    167 H55        54.6151   -3.5846  -10.0970 H         1 THR         0.0639
    168 H56        55.9491   -5.1710  -11.1713 H         1 THR         0.2101
    169 H57        56.7939   -2.9430  -11.0614 H         1 THR         0.0257
    170 H58        57.6140   -3.4280   -9.5386 H         1 THR         0.0257
    171 H59        56.4661   -2.0463   -9.5399 H         1 THR         0.0257
    172 H60        53.2118   -2.7643   -7.7528 H         1 GLN         0.1883
    173 H61        54.7132   -0.3978   -6.7945 H         1 GLN         0.0801
    174 H62        52.5516    0.8110   -7.1322 H         1 GLN         0.0337
    175 H63        51.8258   -0.7231   -7.7210 H         1 GLN         0.0337
    176 H64        53.2751   -0.7673   -9.6348 H         1 GLN         0.0504
    177 H65        54.2623    0.5897   -8.9938 H         1 GLN         0.0504
    178 H66        50.4638    1.4002  -10.4572 H         1 GLN         0.1814
    179 H67        50.7827   -0.1070   -9.6656 H         1 GLN         0.1814
    180 H68        53.1676   -3.0344   -5.3908 H         1 GLY         0.1881
    181 H69        53.0881   -1.7112   -2.8292 H         1 GLY         0.0763
    182 H70        52.5950   -3.4011   -3.1866 H         1 GLY         0.0763
    183 H71        50.6584   -2.2507   -5.2855 H         1 ILE         0.1883
    184 H72        48.7480   -0.8098   -3.5379 H         1 ILE         0.0803
    185 H73        48.8032   -1.3368   -6.5423 H         1 ILE         0.0345
    186 H74        50.4102    0.3411   -5.5613 H         1 ILE         0.0267
    187 H75        48.9868    1.2765   -4.9904 H         1 ILE         0.0267
    188 H76        46.4827   -1.3434   -5.6890 H         1 ILE         0.0235
    189 H77        46.8250    0.1032   -6.6973 H         1 ILE         0.0235
    190 H78        46.7716    0.2480   -4.9077 H         1 ILE         0.0235
    191 H79        49.8652    2.1828   -7.1114 H         1 ILE         0.0230
    192 H80        48.2096    1.5204   -7.3277 H         1 ILE         0.0230
    193 H81        49.6330    0.5851   -7.8986 H         1 ILE         0.0230
    194 H82        46.6833   -4.6997   -2.9466 H         1 PRO         0.0802
    195 H83        45.8526   -3.8102   -0.9204 H         1 PRO         0.0313
    196 H84        44.3126   -3.7865   -1.8447 H         1 PRO         0.0313
    197 H85        45.2436   -1.5308   -0.7664 H         1 PRO         0.0287
    198 H86        44.5510   -1.5077   -2.4237 H         1 PRO         0.0287
    199 H87        46.6579   -0.5663   -2.8791 H         1 PRO         0.0524
    200 H88        47.4617   -1.4739   -1.5537 H         1 PRO         0.0524
    201 H89        45.0723   -5.9411   -3.8731 H         1 ARG         0.1883
    202 H90        43.8668   -4.9386   -6.3207 H         1 ARG         0.0800
    203 H91        42.7279   -7.1617   -6.3545 H         1 ARG         0.0313
    204 H92        43.4301   -7.5126   -4.7388 H         1 ARG         0.0313
    205 H93        45.7164   -7.1462   -5.7920 H         1 ARG         0.0301
    206 H94        44.8828   -7.1346   -7.3831 H         1 ARG         0.0301
    207 H95        44.8659   -9.3994   -5.3453 H         1 ARG         0.0689
    208 H96        45.8116   -9.3446   -6.8716 H         1 ARG         0.0689
    209 H97        42.9154   -9.8715   -6.5545 H         1 ARG         0.2642
    210 H98        44.7513   -9.7488  -10.1827 H         1 ARG         0.2615
    211 H99        45.6121   -9.1258   -8.7496 H         1 ARG         0.2615
    212 H100       41.8468  -10.6590   -8.3770 H         1 ARG         0.2615
    213 H101       42.6403  -10.6031   -9.9739 H         1 ARG         0.2615
    214 H102       41.8065   -4.2148   -6.6542 H         1 SER         0.1884
    215 H103       39.8956   -4.3501   -4.4167 H         1 SER         0.0823
    216 H104       41.1886   -2.3610   -3.8091 H         1 SER         0.0606
    217 H105       39.5426   -1.8906   -4.3531 H         1 SER         0.0606
    218 H106       41.9153   -1.8015   -5.9272 H         1 SER         0.2097
    219 H107       37.8184   -3.9083   -4.9740 H         1 TYR         0.1877
    220 H108       35.9322   -3.7957   -6.2408 H         1 TYR         0.0747
    221 H109       35.9639   -2.0552   -8.0784 H         1 TYR         0.0446
    222 H110       37.7135   -1.8314   -7.7385 H         1 TYR         0.0446
    223 H111       38.2805   -1.2998   -5.1997 H         1 TYR         0.0530
    224 H112       34.4541   -0.6704   -6.9804 H         1 TYR         0.0530
    225 H113       37.7321    0.3251   -3.4369 H         1 TYR         0.0525
    226 H114       33.9021    0.9580   -5.2192 H         1 TYR         0.0525
    227 H115       36.2121    1.7287   -2.6417 H         1 TYR         0.2458
@<TRIPOS>BOND
     1    1    2 1  
     2    2    3 1  
     3    2    5 1  
     4    3    4 2  
     5    3   11 am 
     6    5    6 1  
     7    6    7 1  
     8    6    8 2  
     9    7    9 2  
    10    8   10 1  
    11    9   10 1  
    12   11   12 1  
    13   12   13 1  
    14   12   15 1  
    15   13   14 2  
    16   13   19 am 
    17   15   16 1  
    18   15   17 1  
    19   16   18 1  
    20   19   20 1  
    21   20   21 1  
    22   20   23 1  
    23   21   22 2  
    24   21   30 am 
    25   23   24 1  
    26   24   25 1  
    27   25   26 1  
    28   26   27 ar 
    29   27   28 ar 
    30   27   29 ar 
    31   30   31 1  
    32   31   32 1  
    33   32   33 2  
    34   32   34 am 
    35   34   35 1  
    36   35   36 1  
    37   35   38 1  
    38   36   37 2  
    39   36   40 am 
    40   38   39 1  
    41   40   41 1  
    42   41   42 1  
    43   41   44 1  
    44   42   43 2  
    45   42   48 am 
    46   44   45 1  
    47   44   46 1  
    48   45   47 1  
    49   48   49 1  
    50   49   50 1  
    51   49   52 1  
    52   50   51 2  
    53   50   55 am 
    54   52   53 1  
    55   52   54 1  
    56   55   56 1  
    57   56   57 1  
    58   56   59 1  
    59   57   58 2  
    60   57   64 am 
    61   59   60 1  
    62   60   61 1  
    63   61   62 2  
    64   61   63 am 
    65   64   65 1  
    66   65   66 1  
    67   66   67 2  
    68   66   68 am 
    69   68   69 1  
    70   69   70 1  
    71   69   72 1  
    72   70   71 2  
    73   70   76 am 
    74   72   73 1  
    75   72   74 1  
    76   73   75 1  
    77   76   77 1  
    78   76   82 1  
    79   77   78 1  
    80   77   80 1  
    81   78   79 2  
    82   78   83 am 
    83   80   81 1  
    84   81   82 1  
    85   83   84 1  
    86   84   85 1  
    87   84   87 1  
    88   85   86 2  
    89   85   94 am 
    90   87   88 1  
    91   88   89 1  
    92   89   90 1  
    93   90   91 ar 
    94   91   92 ar 
    95   91   93 ar 
    96   94   95 1  
    97   95   96 1  
    98   95   98 1  
    99   96   97 2  
   100   96  100 am 
   101   98   99 1  
   102  100  101 1  
   103  101  102 1  
   104  101  104 1  
   105  102  103 ar 
   106  102  112 ar 
   107  104  105 1  
   108  105  106 ar 
   109  105  107 ar 
   110  106  108 ar 
   111  107  109 ar 
   112  108  110 ar 
   113  109  110 ar 
   114  110  111 1  
   115    1  113 1  
   116    1  114 1  
   117    1  115 1  
   118    2  116 1  
   119    5  117 1  
   120    5  118 1  
   121    8  119 1  
   122    9  120 1  
   123   10  121 1  
   124   11  122 1  
   125   12  123 1  
   126   15  124 1  
   127   16  125 1  
   128   16  126 1  
   129   17  127 1  
   130   17  128 1  
   131   17  129 1  
   132   18  130 1  
   133   18  131 1  
   134   18  132 1  
   135   19  133 1  
   136   20  134 1  
   137   23  135 1  
   138   23  136 1  
   139   24  137 1  
   140   24  138 1  
   141   25  139 1  
   142   25  140 1  
   143   26  141 1  
   144   28  142 1  
   145   28  143 1  
   146   29  144 1  
   147   29  145 1  
   148   30  146 1  
   149   31  147 1  
   150   31  148 1  
   151   34  149 1  
   152   35  150 1  
   153   38  151 1  
   154   38  152 1  
   155   39  153 1  
   156   40  154 1  
   157   41  155 1  
   158   44  156 1  
   159   45  157 1  
   160   45  158 1  
   161   46  159 1  
   162   46  160 1  
   163   46  161 1  
   164   47  162 1  
   165   47  163 1  
   166   47  164 1  
   167   48  165 1  
   168   49  166 1  
   169   52  167 1  
   170   53  168 1  
   171   54  169 1  
   172   54  170 1  
   173   54  171 1  
   174   55  172 1  
   175   56  173 1  
   176   59  174 1  
   177   59  175 1  
   178   60  176 1  
   179   60  177 1  
   180   63  178 1  
   181   63  179 1  
   182   64  180 1  
   183   65  181 1  
   184   65  182 1  
   185   68  183 1  
   186   69  184 1  
   187   72  185 1  
   188   73  186 1  
   189   73  187 1  
   190   74  188 1  
   191   74  189 1  
   192   74  190 1  
   193   75  191 1  
   194   75  192 1  
   195   75  193 1  
   196   77  194 1  
   197   80  195 1  
   198   80  196 1  
   199   81  197 1  
   200   81  198 1  
   201   82  199 1  
   202   82  200 1  
   203   83  201 1  
   204   84  202 1  
   205   87  203 1  
   206   87  204 1  
   207   88  205 1  
   208   88  206 1  
   209   89  207 1  
   210   89  208 1  
   211   90  209 1  
   212   92  210 1  
   213   92  211 1  
   214   93  212 1  
   215   93  213 1  
   216   94  214 1  
   217   95  215 1  
   218   98  216 1  
   219   98  217 1  
   220   99  218 1  
   221  100  219 1  
   222  101  220 1  
   223  104  221 1  
   224  104  222 1  
   225  106  223 1  
   226  107  224 1  
   227  108  225 1  
   228  109  226 1  
   229  111  227 1  
@<TRIPOS>SUBSTRUCTURE
     1 HIS         1

