6qmj_ligand
  -I-interpret- 

 64 67  0  0  0  0  0  0  0  0999 V2000
   13.6660   65.7330   22.9370 C   0  0  0  0  0
   13.8990   63.9800   24.5600 C   0  0  0  0  0
   15.8280   63.7500   26.0200 C   0  0  0  0  0
   15.2810   62.5630   26.5050 C   0  0  0  0  0
   14.0440   62.0880   26.0160 C   0  0  0  0  0
   11.1440   62.3070   23.9140 C   0  0  0  0  0
   13.3750   62.7800   25.0710 C   0  0  0  0  0
   17.1660   64.2230   26.5760 C   0  0  0  0  0
   17.7690   65.4010   25.8260 C   0  0  0  0  0
   18.0480   65.1140   24.3560 C   0  0  0  0  0
   18.6130   64.0470   24.0100 O   0  0  0  0  0
   18.1050   64.0310   28.8990 C   0  0  0  0  0
   16.9740   64.8860   30.8480 C   0  0  0  0  0
   16.9700   65.0840   32.3420 C   0  0  0  0  0
   15.9250   65.3360   30.0350 C   0  0  0  0  0
   14.7330   66.0450   30.6380 C   0  0  0  0  0
   13.2040   64.1260   30.3420 C   0  0  0  0  0
   10.4850   65.9080   31.1550 C   0  0  0  0  0
   11.8120   67.8940   31.3870 C   0  0  0  0  0
   15.9940   65.1190   28.6610 C   0  0  0  0  0
   13.1320   64.5910   23.6070 O   0  0  0  0  0
   15.1210   64.4510   25.0420 C   0  0  0  0  0
   13.3360   60.9710   26.3430 N   0  0  0  0  0
   12.2320   60.9480   25.6190 N   0  0  0  0  0
   12.2450   62.0560   24.8330 N   0  0  0  0  0
   17.6800   65.9960   23.5630 O   0  0  0  0  0
   17.0750   64.4690   28.0770 C   0  0  0  0  0
   18.0550   64.2360   30.2650 C   0  0  0  0  0
   13.7970   65.1000   31.2640 N   0  0  0  0  0
   12.8570   65.6190   32.4780 S   0  0  0  0  0
   12.2340   64.4770   33.0680 O   0  0  0  0  0
   13.6450   66.5090   33.2760 O   0  0  0  0  0
   11.6290   66.5420   31.6110 C   0  0  0  0  0
    9.5230   66.6250   30.4760 C   0  0  0  0  0
    9.7040   67.9820   30.2510 C   0  0  0  0  0
   10.8490   68.6160   30.7070 C   0  0  0  0  0
   13.8809   66.5134   23.6670 H   0  0  0  0  0
   14.5846   65.4534   22.4211 H   0  0  0  0  0
   12.9388   66.1010   22.2132 H   0  0  0  0  0
   15.8130   61.9960   27.2689 H   0  0  0  0  0
   10.6736   63.2581   24.1637 H   0  0  0  0  0
   11.5257   62.3457   22.8937 H   0  0  0  0  0
   10.4113   61.5045   23.9990 H   0  0  0  0  0
   17.8708   63.4082   26.4103 H   0  0  0  0  0
   18.7229   65.6344   26.2990 H   0  0  0  0  0
   17.0476   66.2171   25.8673 H   0  0  0  0  0
   18.8046   63.5204   24.7895 H   0  0  0  0  0
   18.9627   63.5197   28.4620 H   0  0  0  0  0
   16.9286   66.1500   32.5658 H   0  0  0  0  0
   16.0996   64.5874   32.7707 H   0  0  0  0  0
   17.8789   64.6574   32.7662 H   0  0  0  0  0
   14.2076   66.5714   29.8412 H   0  0  0  0  0
   15.0933   66.7303   31.4053 H   0  0  0  0  0
   12.9146   63.2329   30.8958 H   0  0  0  0  0
   12.3243   64.5634   29.8699 H   0  0  0  0  0
   13.9340   63.8603   29.5774 H   0  0  0  0  0
   10.3453   64.8418   31.3331 H   0  0  0  0  0
   12.7140   68.3897   31.7459 H   0  0  0  0  0
   15.1789   65.4680   28.0270 H   0  0  0  0  0
   15.5299   65.3815   24.6482 H   0  0  0  0  0
   18.8735   63.8835   30.8926 H   0  0  0  0  0
    8.6224   66.1270   30.1168 H   0  0  0  0  0
    8.9443   68.5506   29.7146 H   0  0  0  0  0
   10.9900   69.6822   30.5297 H   0  0  0  0  0
 21  1  1  0  0  0
  2  7  4  0  0  0
  2 21  1  0  0  0
 22  2  4  0  0  0
  3  4  4  0  0  0
  8  3  1  0  0  0
  3 22  4  0  0  0
  4  5  4  0  0  0
  5  7  4  0  0  0
  5 23  4  0  0  0
 25  6  1  0  0  0
  7 25  4  0  0  0
  8  9  1  0  0  0
 27  8  1  0  0  0
  9 10  1  0  0  0
 10 11  1  0  0  0
 10 26  2  0  0  0
 27 12  4  0  0  0
 28 12  4  0  0  0
 13 14  1  0  0  0
 15 13  4  0  0  0
 13 28  4  0  0  0
 16 15  1  0  0  0
 15 20  4  0  0  0
 29 16  1  0  0  0
 29 17  1  0  0  0
 33 18  4  0  0  0
 18 34  4  0  0  0
 33 19  4  0  0  0
 19 36  4  0  0  0
 20 27  4  0  0  0
 23 24  4  0  0  0
 25 24  4  0  0  0
 30 29  1  0  0  0
 30 31  2  0  0  0
 30 32  2  0  0  0
 30 33  1  0  0  0
 34 35  4  0  0  0
 35 36  4  0  0  0
  1 37  1  0  0  0
  1 38  1  0  0  0
  1 39  1  0  0  0
  4 40  1  0  0  0
  6 41  1  0  0  0
  6 42  1  0  0  0
  6 43  1  0  0  0
  8 44  1  0  0  0
  9 45  1  0  0  0
  9 46  1  0  0  0
 11 47  1  0  0  0
 12 48  1  0  0  0
 14 49  1  0  0  0
 14 50  1  0  0  0
 14 51  1  0  0  0
 16 52  1  0  0  0
 16 53  1  0  0  0
 17 54  1  0  0  0
 17 55  1  0  0  0
 17 56  1  0  0  0
 18 57  1  0  0  0
 19 58  1  0  0  0
 20 59  1  0  0  0
 22 60  1  0  0  0
 28 61  1  0  0  0
 34 62  1  0  0  0
 35 63  1  0  0  0
 36 64  1  0  0  0
M  END
$$$$
