### 
### Created by X-TOOL on Mon Sep 10 21:13:05 2018
### 

@<TRIPOS>MOLECULE
3tu9_ligand
   35    34     1     0     0
SMALL
GAST_HUCK


@<TRIPOS>ATOM
      1 C01         6.3660  -30.2430   52.5290 C.3       1 5MM         0.0370
      2 O02         5.2890  -31.0550   52.1170 O.3       1 5MM        -0.3745
      3 C03         4.0530  -30.4630   51.7420 C.3       1 5MM         0.1142
      4 C04         2.8910  -31.2170   52.4480 C.3       1 5MM         0.1070
      5 O05         1.6330  -30.7640   51.9920 O.3       1 5MM        -0.2734
      6 P06         0.2750  -30.8770   52.9460 P.3       1 5MM         0.2008
      7 O07        -0.7800  -30.0030   52.4210 O.co2     1 5MM        -0.5537
      8 O08        -0.2130  -32.4540   52.9560 O.co2     1 5MM        -0.5537
      9 O09         0.6270  -30.3860   54.4690 O.co2     1 5MM        -0.5537
     10 C10         3.9180  -30.4860   50.1860 C.3       1 5MM         0.1120
     11 O11         2.6620  -29.9740   49.8010 O.3       1 5MM        -0.3865
     12 C12         5.0550  -29.6570   49.5090 C.3       1 5MM         0.1118
     13 O13         4.9980  -28.3080   49.8760 O.3       1 5MM        -0.3865
     14 C14         5.0030  -29.7330   47.9570 C.3       1 5MM         0.1111
     15 O15         3.9120  -30.5090   47.5400 O.3       1 5MM        -0.3865
     16 C16         6.3190  -30.3960   47.4820 C.3       1 5MM         0.1068
     17 O17         6.6480  -31.4420   48.3680 O.3       1 5MM        -0.2734
     18 P18         7.4230  -32.7670   47.7420 P.3       1 5MM         0.2008
     19 O19         7.6580  -33.7800   48.7760 O.co2     1 5MM        -0.5537
     20 O20         8.8700  -32.2370   47.1650 O.co2     1 5MM        -0.5537
     21 O21         6.5110  -33.3820   46.5000 O.co2     1 5MM        -0.5537
     22 H1          7.2297  -30.8775   52.7769 H         1 5MM         0.0524
     23 H2          6.0701  -29.6637   53.4160 H         1 5MM         0.0524
     24 H3          6.6383  -29.5545   51.7155 H         1 5MM         0.0524
     25 H4          4.0413  -29.4150   52.0759 H         1 5MM         0.0649
     26 H5          2.9610  -31.0480   53.5327 H         1 5MM         0.0639
     27 H6          2.9820  -32.2929   52.2379 H         1 5MM         0.0639
     28 H7          3.9947  -31.5289   49.8448 H         1 5MM         0.0647
     29 H8          1.9738  -30.5067   50.1821 H         1 5MM         0.2100
     30 H9          6.0168  -30.0717   49.8452 H         1 5MM         0.0647
     31 H10         5.0922  -28.2331   50.8184 H         1 5MM         0.2100
     32 H11         4.9159  -28.7208   47.5353 H         1 5MM         0.0646
     33 H12         3.8949  -30.5452   46.5908 H         1 5MM         0.2100
     34 H13         7.1271  -29.6498   47.4752 H         1 5MM         0.0639
     35 H14         6.1841  -30.7997   46.4677 H         1 5MM         0.0639
@<TRIPOS>BOND
     1    1    2 1  
     2    2    3 1  
     3    3    4 1  
     4    3   10 1  
     5    4    5 1  
     6    5    6 1  
     7    6    7 ar 
     8    6    8 ar 
     9    6    9 ar 
    10   10   11 1  
    11   10   12 1  
    12   12   13 1  
    13   12   14 1  
    14   14   15 1  
    15   14   16 1  
    16   16   17 1  
    17   17   18 1  
    18   18   19 ar 
    19   18   20 ar 
    20   18   21 ar 
    21    1   22 1  
    22    1   23 1  
    23    1   24 1  
    24    3   25 1  
    25    4   26 1  
    26    4   27 1  
    27   10   28 1  
    28   11   29 1  
    29   12   30 1  
    30   13   31 1  
    31   14   32 1  
    32   15   33 1  
    33   16   34 1  
    34   16   35 1  
@<TRIPOS>SUBSTRUCTURE
     1 5MM         1

