3tu9_ligand
  -I-interpret- 

 39 38  0  0  0  0  0  0  0  0999 V2000
    6.3660  -30.2430   52.5290 C   0  0  0  0  0
    5.2890  -31.0550   52.1170 O   0  0  0  0  0
    4.0530  -30.4630   51.7420 C   0  0  0  0  0
    2.8910  -31.2170   52.4480 C   0  0  0  0  0
    1.6330  -30.7640   51.9920 O   0  0  0  0  0
    0.2750  -30.8770   52.9460 P   0  0  0  0  0
   -0.7800  -30.0030   52.4210 O   0  0  0  0  0
   -0.2130  -32.4540   52.9560 O   0  0  0  0  0
    0.6270  -30.3860   54.4690 O   0  0  0  0  0
    3.9180  -30.4860   50.1860 C   0  0  0  0  0
    2.6620  -29.9740   49.8010 O   0  0  0  0  0
    5.0550  -29.6570   49.5090 C   0  0  0  0  0
    4.9980  -28.3080   49.8760 O   0  0  0  0  0
    5.0030  -29.7330   47.9570 C   0  0  0  0  0
    3.9120  -30.5090   47.5400 O   0  0  0  0  0
    6.3190  -30.3960   47.4820 C   0  0  0  0  0
    6.6480  -31.4420   48.3680 O   0  0  0  0  0
    7.4230  -32.7670   47.7420 P   0  0  0  0  0
    7.6580  -33.7800   48.7760 O   0  0  0  0  0
    8.8700  -32.2370   47.1650 O   0  0  0  0  0
    6.5110  -33.3820   46.5000 O   0  0  0  0  0
    6.6348  -29.5613   51.7221 H   0  0  0  0  0
    6.0715  -29.6695   53.4079 H   0  0  0  0  0
    7.2211  -30.8728   52.7743 H   0  0  0  0  0
    4.0120  -29.4207   52.0583 H   0  0  0  0  0
    2.9584  -31.0324   53.5201 H   0  0  0  0  0
    2.9795  -32.2798   52.2227 H   0  0  0  0  0
    0.4931  -33.0041   53.3029 H   0  0  0  0  0
    1.3169  -30.9456   54.8330 H   0  0  0  0  0
    4.0049  -31.5213   49.8562 H   0  0  0  0  0
    1.9667  -30.4868   50.2196 H   0  0  0  0  0
    5.9857  -30.1029   49.8598 H   0  0  0  0  0
    5.7089  -27.8295   49.4432 H   0  0  0  0  0
    4.8901  -28.7343   47.5351 H   0  0  0  0  0
    3.8947  -30.5455   46.5809 H   0  0  0  0  0
    7.1205  -29.6574   47.4695 H   0  0  0  0  0
    6.1896  -30.7926   46.4750 H   0  0  0  0  0
    8.7195  -31.5735   46.4877 H   0  0  0  0  0
    6.3722  -32.7003   45.8384 H   0  0  0  0  0
  1  2  1  0  0  0
  2  3  1  0  0  0
  3  4  1  0  0  0
  3 10  1  0  0  0
  4  5  1  0  0  0
  5  6  1  0  0  0
  6  7  2  0  0  0
  6  8  1  0  0  0
  6  9  1  0  0  0
 10 11  1  0  0  0
 10 12  1  0  0  0
 12 13  1  0  0  0
 12 14  1  0  0  0
 14 15  1  0  0  0
 14 16  1  0  0  0
 16 17  1  0  0  0
 17 18  1  0  0  0
 18 19  2  0  0  0
 18 20  1  0  0  0
 18 21  1  0  0  0
  1 22  1  0  0  0
  1 23  1  0  0  0
  1 24  1  0  0  0
  3 25  1  0  0  0
  4 26  1  0  0  0
  4 27  1  0  0  0
  8 28  1  0  0  0
  9 29  1  0  0  0
 10 30  1  0  0  0
 11 31  1  0  0  0
 12 32  1  0  0  0
 13 33  1  0  0  0
 14 34  1  0  0  0
 15 35  1  0  0  0
 16 36  1  0  0  0
 16 37  1  0  0  0
 20 38  1  0  0  0
 21 39  1  0  0  0
M  END
$$$$
