6qzb_ligand
  -I-interpret- 

 53 56  0  0  0  0  0  0  0  0999 V2000
   -5.6750    0.5110    4.5110 N   0  0  0  0  0
   -4.9420   -0.6380    3.9280 C   0  0  0  0  0
   -5.2300   -1.9930    4.6540 C   0  0  0  0  0
   -8.0200    2.5720    4.6510 C   0  0  0  0  0
   -9.1790    2.4850    2.1020 C   0  0  0  0  0
   -9.3260    1.3840    2.9450 C   0  0  0  0  0
   -8.7590    1.4570    4.2090 C   0  0  0  0  0
   -8.4460    3.6140    2.5080 C   0  0  0  0  0
   -7.8550    3.6530    3.7770 C   0  0  0  0  0
   -7.0770    4.8460    4.2010 C   0  0  0  0  0
   -4.7790    0.5050    1.7850 C   0  0  0  0  0
   -2.9080    1.7960    0.9760 C   0  0  0  0  0
   -3.7490    2.8370    0.5740 C   0  0  0  0  0
   -5.1120    2.6970    0.7790 C   0  0  0  0  0
   -5.6270    1.5350    1.3970 C   0  0  0  0  0
   -7.4300    2.5790    6.0070 C   0  0  0  0  0
   -6.3600    1.7420    6.4400 C   0  0  0  0  0
   -7.9010    3.3490    7.0470 C   0  0  0  0  0
   -9.0560    4.3240    6.9440 C   0  0  0  0  0
   -9.9290    4.4000    8.1540 C   0  0  0  0  0
   -7.0540    3.1310    8.5080 S   0  0  0  0  0
   -6.0740    1.9640    7.7820 C   0  0  0  0  0
   -5.0400    1.3470    8.4190 N   0  0  0  0  0
   -4.2860    0.4760    7.7510 C   0  0  0  0  0
   -4.5160    0.1740    6.4770 N   0  0  0  0  0
   -5.5070    0.8170    5.7930 C   0  0  0  0  0
   -6.3320   -2.1250    5.2080 O   0  0  0  0  0
   -4.4060   -2.9330    4.5270 O   0  0  0  0  0
   -5.2940   -0.7670    2.4630 C   0  0  0  0  0
   -3.4230    0.6500    1.5730 C   0  0  0  0  0
   -6.3055    1.0642    3.9306 H   0  0  0  0  0
   -3.8795   -0.4322    4.0577 H   0  0  0  0  0
   -9.6390    2.4701    1.1139 H   0  0  0  0  0
   -9.8684    0.4956    2.6216 H   0  0  0  0  0
   -8.8909    0.6156    4.8893 H   0  0  0  0  0
   -8.3373    4.4624    1.8323 H   0  0  0  0  0
   -7.5443    5.2892    5.0804 H   0  0  0  0  0
   -6.0572    4.5462    4.4421 H   0  0  0  0  0
   -7.0609    5.5746    3.3904 H   0  0  0  0  0
   -1.8328    1.8832    0.8195 H   0  0  0  0  0
   -3.3430    3.7363    0.1109 H   0  0  0  0  0
   -5.7915    3.4880    0.4617 H   0  0  0  0  0
   -6.6994    1.4460    1.5709 H   0  0  0  0  0
   -9.6855    3.9801    6.1233 H   0  0  0  0  0
   -8.6206    5.3139    6.8078 H   0  0  0  0  0
  -10.3639    3.4197    8.3488 H   0  0  0  0  0
   -9.3327    4.7113    9.0117 H   0  0  0  0  0
  -10.7251    5.1242    7.9812 H   0  0  0  0  0
   -3.4537   -0.0046    8.2652 H   0  0  0  0  0
   -3.6243   -2.6124    4.0712 H   0  0  0  0  0
   -6.3698   -0.8767    2.3260 H   0  0  0  0  0
   -4.8387   -1.6561    2.0268 H   0  0  0  0  0
   -2.7445   -0.1465    1.8784 H   0  0  0  0  0
  1  2  1  0  0  0
 26  1  1  0  0  0
  2  3  1  0  0  0
  2 29  1  0  0  0
  3 27  2  0  0  0
  3 28  1  0  0  0
  4  7  4  0  0  0
  4  9  4  0  0  0
 16  4  1  0  0  0
  6  5  4  0  0  0
  8  5  4  0  0  0
  7  6  4  0  0  0
  9  8  4  0  0  0
  9 10  1  0  0  0
 11 15  4  0  0  0
 29 11  1  0  0  0
 11 30  4  0  0  0
 12 13  4  0  0  0
 30 12  4  0  0  0
 14 13  4  0  0  0
 15 14  4  0  0  0
 17 16  4  0  0  0
 16 18  4  0  0  0
 17 22  4  0  0  0
 17 26  4  0  0  0
 18 19  1  0  0  0
 18 21  4  0  0  0
 19 20  1  0  0  0
 21 22  4  0  0  0
 22 23  4  0  0  0
 23 24  4  0  0  0
 24 25  4  0  0  0
 25 26  4  0  0  0
  1 31  1  0  0  0
  2 32  1  0  0  0
  5 33  1  0  0  0
  6 34  1  0  0  0
  7 35  1  0  0  0
  8 36  1  0  0  0
 10 37  1  0  0  0
 10 38  1  0  0  0
 10 39  1  0  0  0
 12 40  1  0  0  0
 13 41  1  0  0  0
 14 42  1  0  0  0
 15 43  1  0  0  0
 19 44  1  0  0  0
 19 45  1  0  0  0
 20 46  1  0  0  0
 20 47  1  0  0  0
 20 48  1  0  0  0
 24 49  1  0  0  0
 28 50  1  0  0  0
 29 51  1  0  0  0
 29 52  1  0  0  0
 30 53  1  0  0  0
M  END
$$$$
