5v42_ligand
  -I-interpret- 

 51 54  0  0  0  0  0  0  0  0999 V2000
    6.2500   27.6320    6.4410 O   0  0  0  0  0
    5.7130   26.5330    6.3750 C   0  0  0  0  0
    6.0700   25.7050    5.3630 O   0  0  0  0  0
    7.3510   25.9660    4.7390 C   0  0  0  0  0
    7.5090   24.9970    3.5760 C   0  0  0  0  0
    4.4770   26.2370    7.1440 C   0  0  0  0  0
    3.4380   27.1930    7.6520 C   0  0  0  0  0
    3.2150   28.5840    7.6320 C   0  0  0  0  0
    2.0710   29.1010    8.2390 C   0  0  0  0  0
    1.8470   30.4440    8.2220 O   0  0  0  0  0
    1.1550   28.2810    8.8890 C   0  0  0  0  0
    1.3650   26.9150    8.9200 C   0  0  0  0  0
    2.4910   26.3730    8.3080 C   0  0  0  0  0
    2.9000   25.0940    8.2100 O   0  0  0  0  0
    4.0490   24.9680    7.5350 C   0  0  0  0  0
    4.6930   23.6440    7.3310 C   0  0  0  0  0
    6.0950   23.5090    7.2550 C   0  0  0  0  0
    6.6860   22.2710    7.0840 C   0  0  0  0  0
    5.8710   21.1490    7.0120 C   0  0  0  0  0
    4.4850   21.2490    7.1100 C   0  0  0  0  0
    3.8840   22.4880    7.2760 C   0  0  0  0  0
    4.1460   29.5940    6.9700 C   0  0  0  0  0
    5.3050   29.9420    7.8370 N   0  3  0  0  0
    6.2850   30.8080    7.1270 C   0  0  0  0  0
    6.6950   31.9300    8.1300 C   0  0  0  0  0
    6.1960   31.3990    9.5110 C   0  0  0  0  0
    4.9340   30.6230    9.0990 C   0  0  0  0  0
    8.1575   25.8273    5.4590 H   0  0  0  0  0
    7.3952   26.9951    4.3824 H   0  0  0  0  0
    7.4715   23.9737    3.9497 H   0  0  0  0  0
    6.7010   25.1541    2.8615 H   0  0  0  0  0
    8.4673   25.1717    3.0869 H   0  0  0  0  0
    1.0244   30.6359    8.6782 H   0  0  0  0  0
    0.2775   28.7124    9.3707 H   0  0  0  0  0
    0.6500   26.2638    9.4228 H   0  0  0  0  0
    6.7234   24.3963    7.3324 H   0  0  0  0  0
    7.7693   22.1775    7.0073 H   0  0  0  0  0
    6.3260   20.1679    6.8757 H   0  0  0  0  0
    3.8706   20.3503    7.0560 H   0  0  0  0  0
    2.8004   22.5683    7.3629 H   0  0  0  0  0
    3.5785   30.5051    6.7803 H   0  0  0  0  0
    4.5304   29.1501    6.0517 H   0  0  0  0  0
    5.7190   29.0391    8.0689 H   0  0  0  0  0
    5.8468   31.2334    6.2242 H   0  0  0  0  0
    7.1545   30.2329    6.8089 H   0  0  0  0  0
    6.2566   32.8946    7.8742 H   0  0  0  0  0
    7.7683   32.1201    8.1226 H   0  0  0  0  0
    6.0069   32.1866   10.2404 H   0  0  0  0  0
    6.9313   30.7908   10.0377 H   0  0  0  0  0
    4.6241   29.9143    9.8670 H   0  0  0  0  0
    4.0763   31.2827    8.9676 H   0  0  0  0  0
  1  2  2  0  0  0
  2  3  1  0  0  0
  2  6  1  0  0  0
  3  4  1  0  0  0
  4  5  1  0  0  0
  6  7  4  0  0  0
  6 15  4  0  0  0
  7  8  4  0  0  0
  7 13  4  0  0  0
  8  9  4  0  0  0
  8 22  1  0  0  0
  9 10  1  0  0  0
  9 11  4  0  0  0
 11 12  4  0  0  0
 12 13  4  0  0  0
 13 14  4  0  0  0
 14 15  4  0  0  0
 15 16  1  0  0  0
 16 17  4  0  0  0
 16 21  4  0  0  0
 17 18  4  0  0  0
 18 19  4  0  0  0
 19 20  4  0  0  0
 20 21  4  0  0  0
 22 23  1  0  0  0
 23 24  1  0  0  0
 23 27  1  0  0  0
 24 25  1  0  0  0
 25 26  1  0  0  0
 26 27  1  0  0  0
  4 28  1  0  0  0
  4 29  1  0  0  0
  5 30  1  0  0  0
  5 31  1  0  0  0
  5 32  1  0  0  0
 10 33  1  0  0  0
 11 34  1  0  0  0
 12 35  1  0  0  0
 17 36  1  0  0  0
 18 37  1  0  0  0
 19 38  1  0  0  0
 20 39  1  0  0  0
 21 40  1  0  0  0
 22 41  1  0  0  0
 22 42  1  0  0  0
 23 43  1  0  0  0
 24 44  1  0  0  0
 24 45  1  0  0  0
 25 46  1  0  0  0
 25 47  1  0  0  0
 26 48  1  0  0  0
 26 49  1  0  0  0
 27 50  1  0  0  0
 27 51  1  0  0  0
M  END
$$$$
