6q7w_ligand
  -I-interpret- 

 37 38  0  0  0  0  0  0  0  0999 V2000
   95.5460   45.6790   10.9730 C   0  0  0  0  0
   93.0560   43.8940    9.3130 C   0  0  0  0  0
   92.8680   46.2780    9.2090 C   0  0  0  0  0
   98.3880   49.5810    8.2440 C   0  0  0  0  0
   97.4670   49.1440    9.1810 C   0  0  0  0  0
   97.8730   48.3260   10.2240 C   0  0  0  0  0
   99.2030   47.9560   10.3320 C   0  0  0  0  0
  100.1230   48.3930    9.3960 C   0  0  0  0  0
   99.7160   49.2060    8.3520 C   0  0  0  0  0
   96.8740   47.8360   11.2690 C   0  0  0  0  0
   95.6300   47.1790   10.6790 C   0  0  0  0  0
   93.3530   45.1420    9.8400 C   0  0  0  0  0
   92.2810   43.8320    8.1640 C   0  0  0  0  0
   92.1030   46.1210    8.0640 C   0  0  0  0  0
   91.9400   42.4740    7.5550 C   0  0  0  0  0
  100.6260   49.6360    7.4320 F   0  0  0  0  0
   92.4090   41.4800    8.3610 F   0  0  0  0  0
   92.5210   42.3700    6.3240 F   0  0  0  0  0
   90.5860   42.3600    7.4260 F   0  0  0  0  0
   94.1570   45.2670   11.0510 N   0  0  0  0  0
   91.8310   44.9260    7.5750 N   0  0  0  0  0
   91.5900   47.3000    7.3880 N   0  0  0  0  0
   96.0361   45.4715   11.9242 H   0  0  0  0  0
   96.0396   45.1280   10.1725 H   0  0  0  0  0
   93.4223   42.9847    9.7896 H   0  0  0  0  0
   93.0834   47.2707    9.6043 H   0  0  0  0  0
   98.0673   50.2202    7.4214 H   0  0  0  0  0
   96.4222   49.4433    9.0985 H   0  0  0  0  0
   99.5255   47.3194   11.1559 H   0  0  0  0  0
  101.1687   48.0972    9.4805 H   0  0  0  0  0
   96.5423   48.7079   11.8328 H   0  0  0  0  0
   97.3811   47.0836   11.8730 H   0  0  0  0  0
   94.7590   47.6541   11.1303 H   0  0  0  0  0
   95.6720   47.3025    9.5968 H   0  0  0  0  0
   93.7396   45.0633   11.9591 H   0  0  0  0  0
   91.7942   48.2288    7.7570 H   0  0  0  0  0
   91.0256   47.1991    6.5444 H   0  0  0  0  0
  1 11  1  0  0  0
 20  1  1  0  0  0
 12  2  4  0  0  0
  2 13  4  0  0  0
 12  3  4  0  0  0
  3 14  4  0  0  0
  5  4  4  0  0  0
  4  9  4  0  0  0
  6  5  4  0  0  0
  6  7  4  0  0  0
 10  6  1  0  0  0
  7  8  4  0  0  0
  8  9  4  0  0  0
  9 16  1  0  0  0
 11 10  1  0  0  0
 12 20  1  0  0  0
 13 15  1  0  0  0
 13 21  4  0  0  0
 14 21  4  0  0  0
 14 22  1  0  0  0
 15 17  1  0  0  0
 15 18  1  0  0  0
 15 19  1  0  0  0
  1 23  1  0  0  0
  1 24  1  0  0  0
  2 25  1  0  0  0
  3 26  1  0  0  0
  4 27  1  0  0  0
  5 28  1  0  0  0
  7 29  1  0  0  0
  8 30  1  0  0  0
 10 31  1  0  0  0
 10 32  1  0  0  0
 11 33  1  0  0  0
 11 34  1  0  0  0
 20 35  1  0  0  0
 22 36  1  0  0  0
 22 37  1  0  0  0
M  END
$$$$
