### 
### Created by X-TOOL on Mon Sep 10 21:12:44 2018
### 

@<TRIPOS>MOLECULE
1hiv_ligand
  120   124     1     0     0
SMALL
GAST_HUCK


@<TRIPOS>ATOM
      1 C           3.9460    3.5200   10.8610 C.2       1 1ZK         0.2097
      2 CA          4.8560    4.2820    9.9310 C.3       1 1ZK         0.1610
      3 C1          6.3080    3.8240    8.0360 C.ar      1 1ZK         0.1075
      4 C2          6.7700    5.0990    8.0190 C.ar      1 1ZK        -0.0338
      5 C3          7.8050    5.4840    7.1420 C.ar      1 1ZK        -0.0744
      6 C4          8.3630    4.5900    6.2840 C.ar      1 1ZK        -0.0685
      7 C4A         7.8850    3.2770    6.2080 C.ar      1 1ZK        -0.0261
      8 C5          8.4690    2.3450    5.3180 C.ar      1 1ZK        -0.0587
      9 C6          7.9860    1.0720    5.3220 C.ar      1 1ZK        -0.0640
     10 C7          6.9490    0.6820    6.1900 C.ar      1 1ZK        -0.0633
     11 C8          6.3980    1.5480    7.0740 C.ar      1 1ZK        -0.0532
     12 C1A         6.8240    2.8820    7.1170 C.ar      1 1ZK         0.0180
     13 O           3.2240    4.2130   11.5650 O.2       1 1ZK        -0.3939
     14 O1          5.3310    3.4760    8.9040 O.3       1 1ZK        -0.2926
     15 N           3.8550    2.2010   10.7900 N.am      1 1ZK        -0.2615
     16 CA          3.0770    1.3460   11.6440 C.3       1 1ZK         0.1420
     17 C           4.0180    0.2690   12.1830 C.2       1 1ZK         0.2041
     18 O           4.2030   -0.8100   11.6510 O.2       1 1ZK        -0.3943
     19 CB          1.8560    0.7120   11.0490 C.3       1 1ZK         0.0427
     20 CG          1.0150    1.8450   10.5110 C.2       1 1ZK         0.0561
     21 ND1         1.4670    2.4390    9.3210 N.pl3     1 1ZK        -0.2623
     22 CD2        -0.1050    2.4790   10.8870 C.2       1 1ZK        -0.0276
     23 CE1         0.6380    3.4280    9.0020 C.2       1 1ZK         0.0875
     24 NE2        -0.3720    3.4610    9.8810 N.2       1 1ZK        -0.3437
     25 N           4.8140    0.7190   13.1730 N.am      1 1ZK        -0.2793
     26 CA          5.8810   -0.0010   13.8080 C.3       1 1ZK         0.0708
     27 CB          7.1400    0.8600   13.7430 C.3       1 1ZK        -0.0245
     28 CG          7.5030    1.3240   12.2990 C.3       1 1ZK        -0.0389
     29 CD1         8.1850    0.1420   11.5070 C.3       1 1ZK        -0.0501
     30 CD2         8.4200    2.5370   12.3250 C.3       1 1ZK        -0.0501
     31 CE1         8.3810    0.6890   10.0660 C.3       1 1ZK        -0.0528
     32 CE2         8.9070    2.9790   10.9220 C.3       1 1ZK        -0.0528
     33 CZ          9.4090    1.8070   10.0750 C.3       1 1ZK        -0.0530
     34 C           5.5920   -0.5110   15.2040 C.3       1 1ZK         0.1062
     35 O           5.2250    0.3770   16.2380 O.3       1 1ZK        -0.3868
     36 CB1         4.4260   -1.5430   15.1700 C.3       1 1ZK         0.1028
     37 CA'         4.4510   -2.7300   16.1520 C.3       1 1ZK         0.0794
     38 CB'         3.1240   -3.4410   16.2810 C.3       1 1ZK        -0.0245
     39 CG1         2.5530   -3.9860   14.9330 C.3       1 1ZK        -0.0602
     40 CG2         3.2040   -4.5860   17.3450 C.3       1 1ZK        -0.0602
     41 OB1         3.2490   -0.8750   15.1340 O.3       1 1ZK        -0.3865
     42 C'          5.6030   -3.6550   15.7820 C.2       1 1ZK         0.1841
     43 O'          5.7480   -4.0440   14.6120 O.2       1 1ZK        -0.3965
     44 N           6.4780   -3.9580   16.7510 N.am      1 1ZK        -0.2651
     45 CA          7.5920   -4.8670   16.6030 C.3       1 1ZK         0.1334
     46 C           7.2740   -5.9470   17.6910 C.2       1 1ZK         0.2040
     47 O           7.3110   -5.6670   18.8800 O.2       1 1ZK        -0.3944
     48 CB          8.9860   -4.3510   16.8030 C.3       1 1ZK        -0.0037
     49 CG1         9.4880   -3.1080   16.0160 C.3       1 1ZK        -0.0491
     50 CG2        10.0000   -5.4610   16.4720 C.3       1 1ZK        -0.0582
     51 CD1         9.0990   -3.2570   14.5710 C.3       1 1ZK        -0.0648
     52 N           6.8710   -7.1360   17.3320 N.am      1 1ZK        -0.2713
     53 CM          6.5870   -8.2860   18.1060 C.3       1 1ZK         0.0798
     54 C2          5.1260   -8.5570   18.1790 C.ar      1 1ZK         0.0502
     55 C3          4.4130   -7.8110   19.1170 C.ar      1 1ZK        -0.0304
     56 C4          3.0450   -7.9800   19.2870 C.ar      1 1ZK        -0.0488
     57 C5          2.4230   -8.9110   18.4560 C.ar      1 1ZK        -0.0410
     58 C6          3.1640   -9.6310   17.5180 C.ar      1 1ZK         0.0028
     59 N1          4.4970   -9.4590   17.3860 N.ar      1 1ZK        -0.2960
     60 H1          5.7107    4.6684   10.5056 H         1 1ZK         0.0864
     61 H2          4.2971    5.1231    9.4949 H         1 1ZK         0.0864
     62 H3          6.3373    5.8328    8.6893 H         1 1ZK         0.0499
     63 H4          8.1607    6.5079    7.1524 H         1 1ZK         0.0581
     64 H5          9.1877    4.8975    5.6513 H         1 1ZK         0.0493
     65 H6          9.2753    2.6352    4.6541 H         1 1ZK         0.0599
     66 H7          8.4097    0.3425    4.6413 H         1 1ZK         0.0614
     67 H8          6.5819   -0.3372    6.1501 H         1 1ZK         0.0591
     68 H9          5.6235    1.2071    7.7516 H         1 1ZK         0.0631
     69 H10         4.3820    1.7535   10.0675 H         1 1ZK         0.1885
     70 H11         2.7306    1.9611   12.4876 H         1 1ZK         0.0824
     71 H12         1.3005    0.1567   11.8191 H         1 1ZK         0.0491
     72 H13         2.1391    0.0274   10.2359 H         1 1ZK         0.0491
     73 H14         2.3003    2.1560    8.7858 H         1 1ZK         0.2386
     74 H15        -0.6950    2.2849   11.7815 H         1 1ZK         0.0324
     75 H16         0.7609    4.1053    8.1581 H         1 1ZK         0.1149
     76 H17         4.6440    1.6492   13.4983 H         1 1ZK         0.1856
     77 H18         6.0657   -0.8957   13.1953 H         1 1ZK         0.0582
     78 H19         7.9821    0.2761   14.1430 H         1 1ZK         0.0291
     79 H20         6.9838    1.7527   14.3665 H         1 1ZK         0.0291
     80 H21         6.5740    1.6033   11.7805 H         1 1ZK         0.0302
     81 H22         7.5346   -0.7451   11.4993 H         1 1ZK         0.0268
     82 H23         9.1542   -0.1178   11.9577 H         1 1ZK         0.0268
     83 H24         9.3006    2.2938   12.9377 H         1 1ZK         0.0268
     84 H25         7.8746    3.3751   12.7833 H         1 1ZK         0.0268
     85 H26         7.4231    1.0769    9.6893 H         1 1ZK         0.0265
     86 H27         8.7306   -0.1231    9.4116 H         1 1ZK         0.0265
     87 H28         8.0706    3.4614   10.3950 H         1 1ZK         0.0265
     88 H29         9.7277    3.7009   11.0456 H         1 1ZK         0.0265
     89 H30         9.5811    2.1509    9.0444 H         1 1ZK         0.0265
     90 H31        10.3519    1.4304   10.4982 H         1 1ZK         0.0265
     91 H32         6.5115   -1.0185   15.5310 H         1 1ZK         0.0644
     92 H33         4.3922    0.7817   16.0256 H         1 1ZK         0.2100
     93 H34         4.5167   -2.0253   14.1856 H         1 1ZK         0.0648
     94 H35         4.6749   -2.3189   17.1474 H         1 1ZK         0.0567
     95 H36         2.4033   -2.6974   16.6521 H         1 1ZK         0.0323
     96 H37         1.5908   -4.4860   15.1179 H         1 1ZK         0.0234
     97 H38         3.2625   -4.7055   14.4984 H         1 1ZK         0.0234
     98 H39         2.4035   -3.1503   14.2335 H         1 1ZK         0.0234
     99 H40         3.6076   -4.1844   18.2862 H         1 1ZK         0.0234
    100 H41         3.8631   -5.3851   16.9749 H         1 1ZK         0.0234
    101 H42         2.1976   -4.9932   17.5219 H         1 1ZK         0.0234
    102 H43         3.1723   -0.3288   15.9075 H         1 1ZK         0.2101
    103 H44         6.3507   -3.5230   17.6424 H         1 1ZK         0.1883
    104 H45         7.5514   -5.3088   15.5965 H         1 1ZK         0.0803
    105 H46         9.0638   -4.1021   17.8716 H         1 1ZK         0.0345
    106 H47        10.5826   -3.0361   16.0982 H         1 1ZK         0.0267
    107 H48         9.0286   -2.1984   16.4302 H         1 1ZK         0.0267
    108 H49         9.7150   -6.3858   16.9950 H         1 1ZK         0.0235
    109 H50        11.0035   -5.1500   16.7978 H         1 1ZK         0.0235
    110 H51        10.0060   -5.6405   15.3868 H         1 1ZK         0.0235
    111 H52         9.4499   -2.3817   14.0047 H         1 1ZK         0.0230
    112 H53         8.0043   -3.3302   14.4916 H         1 1ZK         0.0230
    113 H54         9.5583   -4.1680   14.1597 H         1 1ZK         0.0230
    114 H55         6.7417   -7.2532   16.3473 H         1 1ZK         0.1882
    115 H56         6.9719   -8.1331   19.1250 H         1 1ZK         0.0713
    116 H57         7.0875   -9.1536   17.6513 H         1 1ZK         0.0713
    117 H58         4.9376   -7.0839   19.7263 H         1 1ZK         0.0652
    118 H59         2.4892   -7.4168   20.0279 H         1 1ZK         0.0719
    119 H60         1.3550   -9.0769   18.5393 H         1 1ZK         0.0652
    120 H61         2.6573  -10.3458   16.8797 H         1 1ZK         0.0803
@<TRIPOS>BOND
     1    1   13 2  
     2    1    2 1  
     3    2   14 1  
     4   14    3 1  
     5    3   12 ar 
     6    3    4 ar 
     7    4    5 ar 
     8    5    6 ar 
     9    7    6 ar 
    10   12    7 ar 
    11    7    8 ar 
    12    8    9 ar 
    13   10    9 ar 
    14   11   10 ar 
    15   12   11 ar 
    16   17   16 1  
    17   16   19 1  
    18   16   15 1  
    19   19   20 1  
    20   20   22 2  
    21   20   21 1  
    22   21   23 1  
    23   23   24 2  
    24   22   24 1  
    25   17   18 2  
    26   26   25 1  
    27   34   26 1  
    28   26   27 1  
    29   27   28 1  
    30   28   30 1  
    31   28   29 1  
    32   29   31 1  
    33   31   33 1  
    34   32   33 1  
    35   30   32 1  
    36   36   34 1  
    37   34   35 1  
    38   36   41 1  
    39   37   36 1  
    40   42   37 1  
    41   37   38 1  
    42   38   40 1  
    43   38   39 1  
    44   42   43 2  
    45   46   45 1  
    46   45   48 1  
    47   45   44 1  
    48   48   49 1  
    49   48   50 1  
    50   49   51 1  
    51   46   47 2  
    52   52   53 1  
    53   53   54 1  
    54   54   59 ar 
    55   54   55 ar 
    56   55   56 ar 
    57   56   57 ar 
    58   58   57 ar 
    59   59   58 ar 
    60   15    1 am 
    61   25   17 am 
    62   44   42 am 
    63   46   52 am 
    64    2   60 1  
    65    2   61 1  
    66    4   62 1  
    67    5   63 1  
    68    6   64 1  
    69    8   65 1  
    70    9   66 1  
    71   10   67 1  
    72   11   68 1  
    73   15   69 1  
    74   16   70 1  
    75   19   71 1  
    76   19   72 1  
    77   21   73 1  
    78   22   74 1  
    79   23   75 1  
    80   25   76 1  
    81   26   77 1  
    82   27   78 1  
    83   27   79 1  
    84   28   80 1  
    85   29   81 1  
    86   29   82 1  
    87   30   83 1  
    88   30   84 1  
    89   31   85 1  
    90   31   86 1  
    91   32   87 1  
    92   32   88 1  
    93   33   89 1  
    94   33   90 1  
    95   34   91 1  
    96   35   92 1  
    97   36   93 1  
    98   37   94 1  
    99   38   95 1  
   100   39   96 1  
   101   39   97 1  
   102   39   98 1  
   103   40   99 1  
   104   40  100 1  
   105   40  101 1  
   106   41  102 1  
   107   44  103 1  
   108   45  104 1  
   109   48  105 1  
   110   49  106 1  
   111   49  107 1  
   112   50  108 1  
   113   50  109 1  
   114   50  110 1  
   115   51  111 1  
   116   51  112 1  
   117   51  113 1  
   118   52  114 1  
   119   53  115 1  
   120   53  116 1  
   121   55  117 1  
   122   56  118 1  
   123   57  119 1  
   124   58  120 1  
@<TRIPOS>SUBSTRUCTURE
     1 1ZK         1

