1hiv_ligand
  -I-interpret- 

119123  0  0  0  0  0  0  0  0999 V2000
    3.9460    3.5200   10.8610 C   0  0  0  0  0
    4.8560    4.2820    9.9310 C   0  0  0  0  0
    6.3080    3.8240    8.0360 C   0  0  0  0  0
    6.7700    5.0990    8.0190 C   0  0  0  0  0
    7.8050    5.4840    7.1420 C   0  0  0  0  0
    8.3630    4.5900    6.2840 C   0  0  0  0  0
    7.8850    3.2770    6.2080 C   0  0  0  0  0
    8.4690    2.3450    5.3180 C   0  0  0  0  0
    7.9860    1.0720    5.3220 C   0  0  0  0  0
    6.9490    0.6820    6.1900 C   0  0  0  0  0
    6.3980    1.5480    7.0740 C   0  0  0  0  0
    6.8240    2.8820    7.1170 C   0  0  0  0  0
    3.2240    4.2130   11.5650 O   0  0  0  0  0
    5.3310    3.4760    8.9040 O   0  0  0  0  0
    3.8550    2.2010   10.7900 N   0  0  0  0  0
    3.0770    1.3460   11.6440 C   0  0  0  0  0
    4.0180    0.2690   12.1830 C   0  0  0  0  0
    4.2030   -0.8100   11.6510 O   0  0  0  0  0
    1.8560    0.7120   11.0490 C   0  0  0  0  0
    1.0150    1.8450   10.5110 C   0  0  0  0  0
    1.4670    2.4390    9.3210 N   0  0  0  0  0
   -0.1050    2.4790   10.8870 C   0  0  0  0  0
    0.6380    3.4280    9.0020 C   0  0  0  0  0
   -0.3720    3.4610    9.8810 N   0  0  0  0  0
    4.8140    0.7190   13.1730 N   0  0  0  0  0
    5.8810   -0.0010   13.8080 C   0  0  0  0  0
    7.1400    0.8600   13.7430 C   0  0  0  0  0
    7.5030    1.3240   12.2990 C   0  0  0  0  0
    8.1850    0.1420   11.5070 C   0  0  0  0  0
    8.4200    2.5370   12.3250 C   0  0  0  0  0
    8.3810    0.6890   10.0660 C   0  0  0  0  0
    8.9070    2.9790   10.9220 C   0  0  0  0  0
    9.4090    1.8070   10.0750 C   0  0  0  0  0
    5.5920   -0.5110   15.2040 C   0  0  0  0  0
    5.2250    0.3770   16.2380 O   0  0  0  0  0
    4.4260   -1.5430   15.1700 C   0  0  0  0  0
    4.4510   -2.7300   16.1520 C   0  0  0  0  0
    3.1240   -3.4410   16.2810 C   0  0  0  0  0
    2.5530   -3.9860   14.9330 C   0  0  0  0  0
    3.2040   -4.5860   17.3450 C   0  0  0  0  0
    3.2490   -0.8750   15.1340 O   0  0  0  0  0
    5.6030   -3.6550   15.7820 C   0  0  0  0  0
    5.7480   -4.0440   14.6120 O   0  0  0  0  0
    6.4780   -3.9580   16.7510 N   0  0  0  0  0
    7.5920   -4.8670   16.6030 C   0  0  0  0  0
    7.2740   -5.9470   17.6910 C   0  0  0  0  0
    7.3110   -5.6670   18.8800 O   0  0  0  0  0
    8.9860   -4.3510   16.8030 C   0  0  0  0  0
    9.4880   -3.1080   16.0160 C   0  0  0  0  0
   10.0000   -5.4610   16.4720 C   0  0  0  0  0
    9.0990   -3.2570   14.5710 C   0  0  0  0  0
    6.8710   -7.1360   17.3320 N   0  0  0  0  0
    6.5870   -8.2860   18.1060 C   0  0  0  0  0
    5.1260   -8.5570   18.1790 C   0  0  0  0  0
    4.4130   -7.8110   19.1170 C   0  0  0  0  0
    3.0450   -7.9800   19.2870 C   0  0  0  0  0
    2.4230   -8.9110   18.4560 C   0  0  0  0  0
    3.1640   -9.6310   17.5180 C   0  0  0  0  0
    4.4970   -9.4590   17.3860 N   0  0  0  0  0
    5.7083    4.6453   10.5052 H   0  0  0  0  0
    4.2888    5.1019    9.4903 H   0  0  0  0  0
    6.3350    5.8369    8.6931 H   0  0  0  0  0
    8.1626    6.5136    7.1525 H   0  0  0  0  0
    9.1923    4.8992    5.6478 H   0  0  0  0  0
    9.2797    2.6368    4.6504 H   0  0  0  0  0
    8.4120    0.3384    4.6376 H   0  0  0  0  0
    6.5799   -0.3428    6.1499 H   0  0  0  0  0
    5.6193    1.2052    7.7553 H   0  0  0  0  0
    4.3926    1.7445   10.0531 H   0  0  0  0  0
    2.6620    1.9917   12.4179 H   0  0  0  0  0
    1.3088    0.1353   11.7947 H   0  0  0  0  0
    2.1223    0.0099   10.2589 H   0  0  0  0  0
   -0.6956    2.2847   11.7823 H   0  0  0  0  0
    0.7610    4.1059    8.1574 H   0  0  0  0  0
    4.6406    1.6678   13.5048 H   0  0  0  0  0
    6.0204   -0.9281   13.2520 H   0  0  0  0  0
    7.9692    0.2558   14.1110 H   0  0  0  0  0
    6.9560    1.7546   14.3379 H   0  0  0  0  0
    6.5813    1.6101   11.7924 H   0  0  0  0  0
    7.5729   -0.7598   11.5184 H   0  0  0  0  0
    9.1307   -0.1565   11.9594 H   0  0  0  0  0
    9.3017    2.2669   12.9062 H   0  0  0  0  0
    7.8529    3.3655   12.7494 H   0  0  0  0  0
    7.4317    1.0755    9.6952 H   0  0  0  0  0
    8.7301   -0.1161    9.4194 H   0  0  0  0  0
    8.0626    3.4308   10.4015 H   0  0  0  0  0
    9.7365    3.6727   11.0587 H   0  0  0  0  0
    9.5731    2.1494    9.0533 H   0  0  0  0  0
   10.3402    1.4324   10.5001 H   0  0  0  0  0
    6.5852   -0.8794   15.4606 H   0  0  0  0  0
    5.0815   -0.1183   17.0477 H   0  0  0  0  0
    4.5783   -2.1048   14.2484 H   0  0  0  0  0
    4.6253   -2.3418   17.1555 H   0  0  0  0  0
    2.4200   -2.6794   16.6163 H   0  0  0  0  0
    2.4054   -3.1570   14.2408 H   0  0  0  0  0
    3.2569   -4.6988   14.5034 H   0  0  0  0  0
    1.5996   -4.4812   15.1175 H   0  0  0  0  0
    3.9614   -5.3091   17.0424 H   0  0  0  0  0
    3.4705   -4.1624   18.3133 H   0  0  0  0  0
    2.2356   -5.0810   17.4177 H   0  0  0  0  0
    2.5252   -1.5053   15.1129 H   0  0  0  0  0
    6.3481   -3.5143   17.6602 H   0  0  0  0  0
    7.6417   -5.1839   15.5613 H   0  0  0  0  0
    8.9226   -4.0282   17.8422 H   0  0  0  0  0
   10.5721   -3.0318   16.0999 H   0  0  0  0  0
    9.0379   -2.2046   16.4276 H   0  0  0  0  0
    9.8309   -6.3137   17.1296 H   0  0  0  0  0
    9.8728   -5.7699   15.4344 H   0  0  0  0  0
   11.0117   -5.0826   16.6184 H   0  0  0  0  0
    9.5546   -4.1600   14.1647 H   0  0  0  0  0
    8.0142   -3.3295   14.4937 H   0  0  0  0  0
    9.4472   -2.3891   14.0110 H   0  0  0  0  0
    6.7391   -7.2556   16.3277 H   0  0  0  0  0
    6.9547   -8.1168   19.1181 H   0  0  0  0  0
    7.0710   -9.1425   17.6367 H   0  0  0  0  0
    4.9405   -7.0799   19.7296 H   0  0  0  0  0
    2.4861   -7.4137   20.0320 H   0  0  0  0  0
    1.3491   -9.0778   18.5397 H   0  0  0  0  0
    2.6545  -10.3498   16.8762 H   0  0  0  0  0
  1 13  2  0  0  0
  1  2  1  0  0  0
  2 14  1  0  0  0
 14  3  1  0  0  0
  3 12  4  0  0  0
  3  4  4  0  0  0
  4  5  4  0  0  0
  5  6  4  0  0  0
  7  6  4  0  0  0
 12  7  4  0  0  0
  7  8  4  0  0  0
  8  9  4  0  0  0
 10  9  4  0  0  0
 11 10  4  0  0  0
 12 11  4  0  0  0
 17 16  1  0  0  0
 16 19  1  0  0  0
 16 15  1  0  0  0
 19 20  1  0  0  0
 20 22  4  0  0  0
 20 21  4  0  0  0
 21 23  4  0  0  0
 23 24  4  0  0  0
 22 24  4  0  0  0
 17 18  2  0  0  0
 26 25  1  0  0  0
 34 26  1  0  0  0
 26 27  1  0  0  0
 27 28  1  0  0  0
 28 30  1  0  0  0
 28 29  1  0  0  0
 29 31  1  0  0  0
 31 33  1  0  0  0
 32 33  1  0  0  0
 30 32  1  0  0  0
 36 34  1  0  0  0
 34 35  1  0  0  0
 36 41  1  0  0  0
 37 36  1  0  0  0
 42 37  1  0  0  0
 37 38  1  0  0  0
 38 40  1  0  0  0
 38 39  1  0  0  0
 42 43  2  0  0  0
 46 45  1  0  0  0
 45 48  1  0  0  0
 45 44  1  0  0  0
 48 49  1  0  0  0
 48 50  1  0  0  0
 49 51  1  0  0  0
 46 47  2  0  0  0
 52 53  1  0  0  0
 53 54  1  0  0  0
 54 59  4  0  0  0
 54 55  4  0  0  0
 55 56  4  0  0  0
 56 57  4  0  0  0
 58 57  4  0  0  0
 59 58  4  0  0  0
 15  1  1  0  0  0
 25 17  1  0  0  0
 44 42  1  0  0  0
 46 52  1  0  0  0
  2 60  1  0  0  0
  2 61  1  0  0  0
  4 62  1  0  0  0
  5 63  1  0  0  0
  6 64  1  0  0  0
  8 65  1  0  0  0
  9 66  1  0  0  0
 10 67  1  0  0  0
 11 68  1  0  0  0
 15 69  1  0  0  0
 16 70  1  0  0  0
 19 71  1  0  0  0
 19 72  1  0  0  0
 22 73  1  0  0  0
 23 74  1  0  0  0
 25 75  1  0  0  0
 26 76  1  0  0  0
 27 77  1  0  0  0
 27 78  1  0  0  0
 28 79  1  0  0  0
 29 80  1  0  0  0
 29 81  1  0  0  0
 30 82  1  0  0  0
 30 83  1  0  0  0
 31 84  1  0  0  0
 31 85  1  0  0  0
 32 86  1  0  0  0
 32 87  1  0  0  0
 33 88  1  0  0  0
 33 89  1  0  0  0
 34 90  1  0  0  0
 35 91  1  0  0  0
 36 92  1  0  0  0
 37 93  1  0  0  0
 38 94  1  0  0  0
 39 95  1  0  0  0
 39 96  1  0  0  0
 39 97  1  0  0  0
 40 98  1  0  0  0
 40 99  1  0  0  0
 40100  1  0  0  0
 41101  1  0  0  0
 44102  1  0  0  0
 45103  1  0  0  0
 48104  1  0  0  0
 49105  1  0  0  0
 49106  1  0  0  0
 50107  1  0  0  0
 50108  1  0  0  0
 50109  1  0  0  0
 51110  1  0  0  0
 51111  1  0  0  0
 51112  1  0  0  0
 52113  1  0  0  0
 53114  1  0  0  0
 53115  1  0  0  0
 55116  1  0  0  0
 56117  1  0  0  0
 57118  1  0  0  0
 58119  1  0  0  0
M  END
$$$$
