4ght_ligand
  -I-interpret- 

 84 86  0  0  0  0  0  0  0  0999 V2000
   10.6610   -7.3660   -0.0600 C   0  0  0  0  0
    9.3640   -6.6440   -0.3770 C   0  0  0  0  0
   11.0820   -8.2520   -0.7970 O   0  0  0  0  0
    8.7620   -7.0080   -1.7410 C   0  0  0  0  0
    7.6540   -6.0240   -2.0550 C   0  0  0  0  0
    6.5050   -6.0550   -1.0350 C   0  0  0  0  0
    5.7350   -7.1750   -0.7880 C   0  0  0  0  0
    4.6640   -7.1640    0.1550 C   0  0  0  0  0
    4.3690   -5.9860    0.8550 C   0  0  0  0  0
    5.1330   -4.8560    0.5940 C   0  0  0  0  0
    6.1900   -4.8960   -0.3240 C   0  0  0  0  0
    9.7740   -7.9030   -3.7120 N   0  0  0  0  0
   10.6070   -7.9090   -4.9220 C   0  0  0  0  0
   11.6590   -9.0330   -4.8980 C   0  0  0  0  0
   12.6860   -8.7800   -3.8100 C   0  0  0  0  0
   13.8920   -9.7150   -3.8720 C   0  0  0  0  0
   14.8760   -9.1350   -3.3660 N   0  0  0  0  0
   13.8910  -10.8320   -4.3590 O   0  0  0  0  0
    9.6410   -8.0320   -6.1170 C   0  0  0  0  0
    8.7660   -6.7830   -6.2190 C   0  0  0  0  0
    9.5900   -5.5740   -6.6540 C   0  0  0  0  0
    9.3050   -4.3110   -6.0810 O   0  0  0  0  0
   10.4900   -5.6700   -7.4650 O   0  0  0  0  0
    9.7250   -6.9090   -2.8990 C   0  0  0  0  0
   10.3650   -5.8730   -3.0020 O   0  0  0  0  0
   10.1700   -3.1860   -6.2350 C   0  0  0  0  0
   10.9110   -2.9540   -4.9330 C   0  0  0  0  0
   11.3980   -6.9180    1.2100 C   0  0  0  0  0
   11.9510   -8.0800    1.8990 N   0  0  0  0  0
   11.5110   -8.4350    3.0970 C   0  0  0  0  0
   10.6730   -7.7950    3.7410 O   0  0  0  0  0
   12.5900   -5.9510    1.0540 C   0  0  0  0  0
   12.3960   -4.8870   -0.0090 C   0  0  0  0  0
    3.3340   -5.8910    1.7470 F   0  0  0  0  0
   12.9200   -5.2880    2.4000 C   0  0  0  0  0
   14.7430   -7.6810   -3.2210 C   0  0  0  0  0
   13.3330   -7.3930   -3.7750 C   0  0  0  0  0
   12.2030   -9.6230    3.6520 C   0  0  0  0  0
   11.9600  -10.2490    4.8780 C   0  0  0  0  0
   12.9060  -11.2470    4.9170 C   0  0  0  0  0
   13.6630  -11.2440    3.7980 O   0  0  0  0  0
   13.2490  -10.2350    3.0010 N   0  0  0  0  0
   13.0850  -12.2390    6.0350 C   0  0  0  0  0
    9.5852   -5.5768   -0.3963 H   0  0  0  0  0
    8.6390   -6.9342    0.3835 H   0  0  0  0  0
    8.4369   -8.0442   -1.6477 H   0  0  0  0  0
    7.2393   -6.2943   -3.0261 H   0  0  0  0  0
    8.0864   -5.0237   -2.0333 H   0  0  0  0  0
    5.9522   -8.0954   -1.3300 H   0  0  0  0  0
    4.0786   -8.0667    0.3300 H   0  0  0  0  0
    4.9066   -3.9238    1.1115 H   0  0  0  0  0
    6.7834   -3.9965   -0.4878 H   0  0  0  0  0
    9.2079   -8.7265   -3.5075 H   0  0  0  0  0
   11.1890   -6.9903   -4.9950 H   0  0  0  0  0
   12.1661   -9.0628   -5.8624 H   0  0  0  0  0
   11.1589   -9.9807   -4.6982 H   0  0  0  0  0
   12.0502   -8.9309   -2.9376 H   0  0  0  0  0
   15.7141   -9.6376   -3.0738 H   0  0  0  0  0
    9.0030   -8.9038   -5.9718 H   0  0  0  0  0
   10.2200   -8.1380   -7.0344 H   0  0  0  0  0
    8.3329   -6.5778   -5.2400 H   0  0  0  0  0
    7.9867   -6.9608   -6.9601 H   0  0  0  0  0
    9.5838   -2.3025   -6.4877 H   0  0  0  0  0
   10.8840   -3.3773   -7.0361 H   0  0  0  0  0
   10.1922   -2.7604   -4.1368 H   0  0  0  0  0
   11.4974   -3.8394   -4.6874 H   0  0  0  0  0
   11.5744   -2.0960   -5.0419 H   0  0  0  0  0
   10.6142   -6.3797    1.7428 H   0  0  0  0  0
   12.6869   -8.6265    1.4515 H   0  0  0  0  0
   13.4241   -6.5670    0.7179 H   0  0  0  0  0
   12.2441   -5.3653   -0.9766 H   0  0  0  0  0
   11.5242   -4.2818    0.2394 H   0  0  0  0  0
   13.2808   -4.2518   -0.0512 H   0  0  0  0  0
   12.0522   -4.7296    2.7510 H   0  0  0  0  0
   13.1781   -6.0566    3.1286 H   0  0  0  0  0
   13.7631   -4.6091    2.2721 H   0  0  0  0  0
   15.5214   -7.1346   -3.7536 H   0  0  0  0  0
   14.8625   -7.3509   -2.1891 H   0  0  0  0  0
   12.7762   -6.6828   -3.1637 H   0  0  0  0  0
   13.3538   -6.9121   -4.7530 H   0  0  0  0  0
   11.2032  -10.0051    5.6236 H   0  0  0  0  0
   13.3063  -11.7062    6.9598 H   0  0  0  0  0
   12.1684  -12.8162    6.1571 H   0  0  0  0  0
   13.9094  -12.9104    5.7948 H   0  0  0  0  0
  2  1  1  0  0  0
  1  3  2  0  0  0
  1 28  1  0  0  0
  4  2  1  0  0  0
  4  5  1  0  0  0
 24  4  1  0  0  0
  5  6  1  0  0  0
  6  7  4  0  0  0
  6 11  4  0  0  0
  7  8  4  0  0  0
  8  9  4  0  0  0
 10  9  4  0  0  0
  9 34  1  0  0  0
 11 10  4  0  0  0
 12 13  1  0  0  0
 12 24  1  0  0  0
 13 14  1  0  0  0
 13 19  1  0  0  0
 14 15  1  0  0  0
 15 16  1  0  0  0
 15 37  1  0  0  0
 16 17  1  0  0  0
 16 18  2  0  0  0
 17 36  1  0  0  0
 19 20  1  0  0  0
 20 21  1  0  0  0
 21 22  1  0  0  0
 21 23  2  0  0  0
 22 26  1  0  0  0
 24 25  2  0  0  0
 26 27  1  0  0  0
 28 29  1  0  0  0
 28 32  1  0  0  0
 29 30  1  0  0  0
 30 31  2  0  0  0
 30 38  1  0  0  0
 32 33  1  0  0  0
 32 35  1  0  0  0
 36 37  1  0  0  0
 38 39  4  0  0  0
 38 42  4  0  0  0
 39 40  4  0  0  0
 40 41  4  0  0  0
 40 43  1  0  0  0
 41 42  4  0  0  0
  2 44  1  0  0  0
  2 45  1  0  0  0
  4 46  1  0  0  0
  5 47  1  0  0  0
  5 48  1  0  0  0
  7 49  1  0  0  0
  8 50  1  0  0  0
 10 51  1  0  0  0
 11 52  1  0  0  0
 12 53  1  0  0  0
 13 54  1  0  0  0
 14 55  1  0  0  0
 14 56  1  0  0  0
 15 57  1  0  0  0
 17 58  1  0  0  0
 19 59  1  0  0  0
 19 60  1  0  0  0
 20 61  1  0  0  0
 20 62  1  0  0  0
 26 63  1  0  0  0
 26 64  1  0  0  0
 27 65  1  0  0  0
 27 66  1  0  0  0
 27 67  1  0  0  0
 28 68  1  0  0  0
 29 69  1  0  0  0
 32 70  1  0  0  0
 33 71  1  0  0  0
 33 72  1  0  0  0
 33 73  1  0  0  0
 35 74  1  0  0  0
 35 75  1  0  0  0
 35 76  1  0  0  0
 36 77  1  0  0  0
 36 78  1  0  0  0
 37 79  1  0  0  0
 37 80  1  0  0  0
 39 81  1  0  0  0
 43 82  1  0  0  0
 43 83  1  0  0  0
 43 84  1  0  0  0
M  END
$$$$
