4mg9_ligand
  -I-interpret- 

 28 28  0  0  0  0  0  0  0  0999 V2000
   -7.5780   -5.2640   24.0420 C   0  0  0  0  0
   -6.7740   -4.2740   23.1940 C   0  0  0  0  0
   -6.5280   -3.0140   24.0250 C   0  0  0  0  0
   -5.7450   -1.9350   23.2600 C   0  0  0  0  0
   -4.4060   -2.2860   22.8320 O   0  0  0  0  0
   -4.2460   -2.9380   21.6410 C   0  0  0  0  0
   -5.1520   -3.4460   20.9790 O   0  0  0  0  0
   -2.9120   -2.9920   21.2390 C   0  0  0  0  0
   -2.5040   -3.5280   20.0170 C   0  0  0  0  0
   -1.1520   -3.5100   19.6730 C   0  0  0  0  0
   -0.2390   -2.9380   20.5580 C   0  0  0  0  0
    1.0840   -2.8850   20.2760 O   0  0  0  0  0
   -0.6470   -2.3960   21.7640 C   0  0  0  0  0
   -1.9840   -2.4120   22.0910 C   0  0  0  0  0
   -7.0130   -5.5136   24.9401 H   0  0  0  0  0
   -8.5286   -4.8110   24.3234 H   0  0  0  0  0
   -7.7625   -6.1694   23.4639 H   0  0  0  0  0
   -7.3281   -4.0219   22.2899 H   0  0  0  0  0
   -5.8230   -4.7196   22.9023 H   0  0  0  0  0
   -5.9369   -3.2997   24.8951 H   0  0  0  0  0
   -7.4990   -2.5954   24.2897 H   0  0  0  0  0
   -5.6309   -1.0994   23.9506 H   0  0  0  0  0
   -6.3111   -1.7414   22.3489 H   0  0  0  0  0
   -3.2374   -3.9583   19.3350 H   0  0  0  0  0
   -0.8151   -3.9361   18.7280 H   0  0  0  0  0
    1.5476   -2.4582   21.0003 H   0  0  0  0  0
    0.0823   -1.9612   22.4475 H   0  0  0  0  0
   -2.3163   -1.9649   23.0279 H   0  0  0  0  0
  1  2  1  0  0  0
  2  3  1  0  0  0
  3  4  1  0  0  0
  4  5  1  0  0  0
  5  6  1  0  0  0
  6  7  2  0  0  0
  6  8  1  0  0  0
  8  9  4  0  0  0
  8 14  4  0  0  0
  9 10  4  0  0  0
 10 11  4  0  0  0
 11 12  1  0  0  0
 11 13  4  0  0  0
 13 14  4  0  0  0
  1 15  1  0  0  0
  1 16  1  0  0  0
  1 17  1  0  0  0
  2 18  1  0  0  0
  2 19  1  0  0  0
  3 20  1  0  0  0
  3 21  1  0  0  0
  4 22  1  0  0  0
  4 23  1  0  0  0
  9 24  1  0  0  0
 10 25  1  0  0  0
 12 26  1  0  0  0
 13 27  1  0  0  0
 14 28  1  0  0  0
M  END
$$$$
