4j59_ligand
  -I-interpret- 

 56 59  0  0  0  0  0  0  0  0999 V2000
    1.9430   16.6910   20.5920 C   0  0  0  0  0
    1.7720   16.2290   21.8930 C   0  0  0  0  0
    0.6950   15.4120   22.2060 C   0  0  0  0  0
    0.5400   14.9780   23.4580 N   0  0  0  0  0
   -0.2150   15.0590   21.2130 C   0  0  0  0  0
   -0.0440   15.5220   19.9100 C   0  0  0  0  0
    1.0410   16.3360   19.5940 C   0  0  0  0  0
    1.2360   16.8190   18.2870 C   0  0  0  0  0
    1.6590   18.2190   18.3820 N   0  0  0  0  0
    2.7940   18.7230   17.8550 C   0  0  0  0  0
    3.5660   18.0360   17.1840 O   0  0  0  0  0
    3.0040   20.0430   18.0530 N   0  0  0  0  0
    4.1810   20.7730   17.5540 C   0  0  0  0  0
    5.2770   20.7090   18.6220 C   0  0  0  0  0
    5.0110   20.3160   19.7550 O   0  0  0  0  0
    6.5240   20.9950   18.1920 N   0  0  0  0  0
    7.7690   20.8800   18.9380 C   0  0  0  0  0
    8.8020   21.8290   18.3030 C   0  0  0  0  0
    8.6030   21.0830   17.0460 C   0  0  0  0  0
    7.0270   21.3700   16.8400 C   0  0  0  0  0
    6.7760   22.7760   16.7040 C   0  0  0  0  0
    6.8650   23.3060   15.3970 C   0  0  0  0  0
    7.1870   22.4840   14.3090 C   0  0  0  0  0
    7.2860   22.9920   13.0110 C   0  0  0  0  0
    7.0670   24.3440   12.7760 C   0  0  0  0  0
    6.7410   25.1670   13.8500 C   0  0  0  0  0
    6.6430   24.6570   15.1450 C   0  0  0  0  0
    6.3160   25.5160   16.1910 C   0  0  0  0  0
    6.2030   25.0180   17.4820 C   0  0  0  0  0
    6.4170   23.6660   17.7260 C   0  0  0  0  0
    2.7891   17.3353   20.3530 H   0  0  0  0  0
    2.4854   16.5093   22.6680 H   0  0  0  0  0
    1.2108   15.2470   24.1778 H   0  0  0  0  0
   -0.2493   14.3771   23.6955 H   0  0  0  0  0
   -1.0632   14.4189   21.4556 H   0  0  0  0  0
   -0.7608   15.2466   19.1364 H   0  0  0  0  0
    0.3116   16.7422   17.7145 H   0  0  0  0  0
    1.9969   16.2288   17.7763 H   0  0  0  0  0
    1.0480   18.8620   18.8855 H   0  0  0  0  0
    2.3044   20.5655   18.5803 H   0  0  0  0  0
    3.9179   21.8111   17.3508 H   0  0  0  0  0
    4.5356   20.3210   16.6277 H   0  0  0  0  0
    8.1329   19.8532   18.9024 H   0  0  0  0  0
    7.6059   21.1490   19.9816 H   0  0  0  0  0
    9.7928   21.9689   18.7352 H   0  0  0  0  0
    8.6895   22.9122   18.3501 H   0  0  0  0  0
    8.8807   20.0297   17.0838 H   0  0  0  0  0
    9.2418   21.3914   16.2184 H   0  0  0  0  0
    6.6003   20.8629   15.9746 H   0  0  0  0  0
    7.3646   21.4221   14.4793 H   0  0  0  0  0
    7.5349   22.3280   12.1832 H   0  0  0  0  0
    7.1490   24.7525   11.7688 H   0  0  0  0  0
    6.5592   26.2276   13.6765 H   0  0  0  0  0
    6.1494   26.5756   15.9969 H   0  0  0  0  0
    5.9467   25.6865   18.3039 H   0  0  0  0  0
    6.3023   23.2870   18.7415 H   0  0  0  0  0
  1  2  4  0  0  0
  1  7  4  0  0  0
  2  3  4  0  0  0
  3  4  1  0  0  0
  3  5  4  0  0  0
  5  6  4  0  0  0
  6  7  4  0  0  0
  7  8  1  0  0  0
  8  9  1  0  0  0
  9 10  1  0  0  0
 10 11  2  0  0  0
 10 12  1  0  0  0
 12 13  1  0  0  0
 13 14  1  0  0  0
 14 15  2  0  0  0
 14 16  1  0  0  0
 16 17  1  0  0  0
 16 20  1  0  0  0
 17 18  1  0  0  0
 18 19  1  0  0  0
 19 20  1  0  0  0
 20 21  1  0  0  0
 21 22  4  0  0  0
 21 30  4  0  0  0
 22 23  4  0  0  0
 22 27  4  0  0  0
 23 24  4  0  0  0
 24 25  4  0  0  0
 25 26  4  0  0  0
 26 27  4  0  0  0
 27 28  4  0  0  0
 28 29  4  0  0  0
 29 30  4  0  0  0
  1 31  1  0  0  0
  2 32  1  0  0  0
  4 33  1  0  0  0
  4 34  1  0  0  0
  5 35  1  0  0  0
  6 36  1  0  0  0
  8 37  1  0  0  0
  8 38  1  0  0  0
  9 39  1  0  0  0
 12 40  1  0  0  0
 13 41  1  0  0  0
 13 42  1  0  0  0
 17 43  1  0  0  0
 17 44  1  0  0  0
 18 45  1  0  0  0
 18 46  1  0  0  0
 19 47  1  0  0  0
 19 48  1  0  0  0
 20 49  1  0  0  0
 23 50  1  0  0  0
 24 51  1  0  0  0
 25 52  1  0  0  0
 26 53  1  0  0  0
 28 54  1  0  0  0
 29 55  1  0  0  0
 30 56  1  0  0  0
M  END
$$$$
