3ni5_ligand
  -I-interpret- 

 45 46  0  0  0  0  0  0  0  0999 V2000
    4.0640    9.9060   11.7140 O   0  0  0  0  0
    3.0920    9.3570   12.5580 N   0  0  0  0  0
   -2.9470    9.1130    8.2640 O   0  0  0  0  0
   -6.5740    5.2820   12.7820 O   0  0  0  0  0
    2.0860    8.6000   12.0180 O   0  0  0  0  0
    1.0010    8.0460   12.7800 C   0  0  0  0  0
   -0.0090    9.1060   13.2270 C   0  0  0  0  0
   -1.2860    9.0800   12.3900 C   0  0  0  0  0
   -1.0090    9.2470   10.8910 C   0  0  0  0  0
   -2.0820    9.9450   10.2570 O   0  0  0  0  0
   -3.0980    9.2360    9.4760 C   0  0  0  0  0
   -4.3300    8.6600   10.1360 C   0  0  0  0  0
   -4.2130    7.6810   11.1460 C   0  0  0  0  0
   -5.3540    7.1230   11.7410 C   0  0  0  0  0
   -5.3510    6.0170   12.9260 S   0  0  0  0  0
   -4.1910    5.0330   13.1930 N   0  0  0  0  0
   -4.3150    3.9260   14.0450 C   0  0  0  0  0
   -3.3090    3.0360   14.3480 N   0  0  0  0  0
   -3.7040    1.9880   15.2520 N   0  0  0  0  0
   -5.3160    1.0230   18.1240 O   0  0  0  0  0
   -5.5950    9.0980    9.7130 C   0  0  0  0  0
   -6.7400    8.5660   10.2950 C   0  0  0  0  0
   -6.6040    7.6050   11.3040 C   0  0  0  0  0
   -5.4790    6.7900   14.1280 O   0  0  0  0  0
   -5.7530    3.4660   14.8880 S   0  0  0  0  0
   -5.0120    2.1020   15.6590 C   0  0  0  0  0
   -5.8430    1.0660   16.7120 S   0  0  0  0  0
   -5.7120   -0.3010   16.1660 N   0  0  0  0  0
   -7.2570    1.5060   16.7620 O   0  0  0  0  0
    3.1630    9.5750   13.7630 O   0  0  0  0  0
    1.4210    7.5858   13.6744 H   0  0  0  0  0
    0.4771    7.3312   12.1454 H   0  0  0  0  0
    0.4538   10.0856   13.1071 H   0  0  0  0  0
   -0.2794    8.8997   14.2626 H   0  0  0  0  0
   -1.9151    9.9105   12.7104 H   0  0  0  0  0
   -1.7653    8.1122   12.5377 H   0  0  0  0  0
   -0.9120    8.2606   10.4374 H   0  0  0  0  0
   -0.0903    9.8195   10.7629 H   0  0  0  0  0
   -3.2239    7.3546   11.4675 H   0  0  0  0  0
   -3.2967    5.1951   12.7300 H   0  0  0  0  0
   -5.6791    9.8526    8.9309 H   0  0  0  0  0
   -7.7283    8.8920    9.9708 H   0  0  0  0  0
   -7.5060    7.2118   11.7729 H   0  0  0  0  0
   -5.3207   -1.0454   16.7432 H   0  0  0  0  0
   -6.0129   -0.5001   15.2119 H   0  0  0  0  0
  2  1  2  0  0  0
  5  2  1  0  0  0
  2 30  2  0  0  0
 11  3  2  0  0  0
 15  4  2  0  0  0
  6  5  1  0  0  0
  7  6  1  0  0  0
  8  7  1  0  0  0
  9  8  1  0  0  0
 10  9  1  0  0  0
 11 10  1  0  0  0
 12 11  1  0  0  0
 13 12  4  0  0  0
 12 21  4  0  0  0
 14 13  4  0  0  0
 15 14  1  0  0  0
 14 23  4  0  0  0
 16 15  1  0  0  0
 15 24  2  0  0  0
 17 16  1  0  0  0
 17 18  4  0  0  0
 25 17  4  0  0  0
 19 18  4  0  0  0
 26 19  4  0  0  0
 27 20  2  0  0  0
 22 21  4  0  0  0
 23 22  4  0  0  0
 26 25  4  0  0  0
 26 27  1  0  0  0
 27 28  1  0  0  0
 27 29  2  0  0  0
  6 31  1  0  0  0
  6 32  1  0  0  0
  7 33  1  0  0  0
  7 34  1  0  0  0
  8 35  1  0  0  0
  8 36  1  0  0  0
  9 37  1  0  0  0
  9 38  1  0  0  0
 13 39  1  0  0  0
 16 40  1  0  0  0
 21 41  1  0  0  0
 22 42  1  0  0  0
 23 43  1  0  0  0
 28 44  1  0  0  0
 28 45  1  0  0  0
M  END
$$$$
