4ui8_ligand
  -I-interpret- 

 31 33  0  0  0  0  0  0  0  0999 V2000
  -55.1650  -43.4630   19.5920 C   0  0  0  0  0
  -54.8950  -43.3930   20.9600 C   0  0  0  0  0
  -53.7800  -42.7100   21.4740 C   0  0  0  0  0
  -53.5080  -42.6350   22.8930 C   0  0  0  0  0
  -54.1310  -43.6070   23.5880 F   0  0  0  0  0
  -53.8990  -41.4130   23.4560 F   0  0  0  0  0
  -52.2060  -42.7710   23.1000 F   0  0  0  0  0
  -52.9370  -42.0870   20.5440 C   0  0  0  0  0
  -53.1990  -42.1550   19.1860 C   0  0  0  0  0
  -54.3340  -42.8270   18.6730 C   0  0  0  0  0
  -54.5810  -42.9160   17.2800 C   0  0  0  0  0
  -55.4970  -43.7920   16.7810 N   0  0  0  0  0
  -55.7300  -43.8890   15.4530 C   0  0  0  0  0
  -56.6910  -44.7950   14.9620 C   0  0  0  0  0
  -57.3840  -45.5110   15.8680 O   0  0  0  0  0
  -56.9330  -44.9470   13.5980 C   0  0  0  0  0
  -56.1970  -44.1760   12.7050 C   0  0  0  0  0
  -55.2460  -43.2620   13.1750 C   0  0  0  0  0
  -55.0010  -43.1110   14.5320 C   0  0  0  0  0
  -54.0390  -42.1870   15.0140 C   0  0  0  0  0
  -53.3850  -41.4370   14.2980 O   0  0  0  0  0
  -53.8420  -42.1000   16.3780 N   0  0  0  0  0
  -56.0334  -44.0200   19.2403 H   0  0  0  0  0
  -55.5744  -43.8865   21.6550 H   0  0  0  0  0
  -52.0616  -41.5405   20.8950 H   0  0  0  0  0
  -52.5097  -41.6761   18.4906 H   0  0  0  0  0
  -58.0026  -46.0873   15.4133 H   0  0  0  0  0
  -57.6816  -45.6536   13.2396 H   0  0  0  0  0
  -56.3613  -44.2838   11.6329 H   0  0  0  0  0
  -54.6873  -42.6573   12.4606 H   0  0  0  0  0
  -53.1559  -41.4404   16.7449 H   0  0  0  0  0
  1  2  4  0  0  0
  1 10  4  0  0  0
  2  3  4  0  0  0
  3  4  1  0  0  0
  3  8  4  0  0  0
  4  5  1  0  0  0
  4  6  1  0  0  0
  4  7  1  0  0  0
  8  9  4  0  0  0
  9 10  4  0  0  0
 10 11  1  0  0  0
 11 12  2  0  0  0
 11 22  1  0  0  0
 12 13  1  0  0  0
 13 14  4  0  0  0
 13 19  4  0  0  0
 14 15  1  0  0  0
 14 16  4  0  0  0
 16 17  4  0  0  0
 17 18  4  0  0  0
 18 19  4  0  0  0
 19 20  1  0  0  0
 20 21  2  0  0  0
 20 22  1  0  0  0
  1 23  1  0  0  0
  2 24  1  0  0  0
  8 25  1  0  0  0
  9 26  1  0  0  0
 15 27  1  0  0  0
 16 28  1  0  0  0
 17 29  1  0  0  0
 18 30  1  0  0  0
 22 31  1  0  0  0
M  END
$$$$
