1jvp_ligand
  -I-interpret- 

 28 31  0  0  0  0  0  0  0  0999 V2000
    1.8030   32.3060    7.3120 N   0  0  0  0  0
    0.6450   32.7880    7.8810 N   0  0  0  0  0
    0.1680   31.8990    8.6100 C   0  0  0  0  0
    0.8640   30.8420    8.6180 C   0  0  0  0  0
    1.9070   31.0640    7.8160 C   0  0  0  0  0
    3.0170   30.0830    7.5160 C   0  0  0  0  0
    3.0440   28.8320    8.1300 C   0  0  0  0  0
    4.0860   27.9470    7.8380 C   0  0  0  0  0
    5.0630   28.2930    6.9650 N   0  0  0  0  0
    5.0550   29.5040    6.3640 C   0  0  0  0  0
    4.0340   30.4220    6.6250 C   0  0  0  0  0
    0.3180   29.7090    9.5020 C   0  0  0  0  0
   -0.9730   30.5370   10.0070 C   0  0  0  0  0
   -1.0230   31.8100    9.4680 C   0  0  0  0  0
   -2.0320   32.7270    9.7390 C   0  0  0  0  0
   -3.0390   32.3040   10.6240 C   0  0  0  0  0
   -3.0060   31.0070   11.1870 C   0  0  0  0  0
   -1.9670   30.1050   10.8820 C   0  0  0  0  0
    2.2600   28.5464    8.8313 H   0  0  0  0  0
    4.1129   26.9685    8.3175 H   0  0  0  0  0
    5.8526   29.7670    5.6691 H   0  0  0  0  0
    4.0330   31.3959    6.1354 H   0  0  0  0  0
    0.9837   29.3089   10.2668 H   0  0  0  0  0
    0.1367   28.7468    9.0231 H   0  0  0  0  0
   -2.0418   33.7200    9.2897 H   0  0  0  0  0
   -3.8533   32.9823   10.8788 H   0  0  0  0  0
   -3.7986   30.6995   11.8692 H   0  0  0  0  0
   -1.9421   29.1051   11.3153 H   0  0  0  0  0
  1  2  4  0  0  0
  1  5  4  0  0  0
  2  3  4  0  0  0
  3  4  4  0  0  0
  3 14  1  0  0  0
  4  5  4  0  0  0
  4 12  1  0  0  0
  5  6  1  0  0  0
  6  7  4  0  0  0
  6 11  4  0  0  0
  7  8  4  0  0  0
  8  9  4  0  0  0
  9 10  4  0  0  0
 10 11  4  0  0  0
 12 13  1  0  0  0
 13 14  4  0  0  0
 13 18  4  0  0  0
 14 15  4  0  0  0
 15 16  4  0  0  0
 16 17  4  0  0  0
 17 18  4  0  0  0
  7 19  1  0  0  0
  8 20  1  0  0  0
 10 21  1  0  0  0
 11 22  1  0  0  0
 12 23  1  0  0  0
 12 24  1  0  0  0
 15 25  1  0  0  0
 16 26  1  0  0  0
 17 27  1  0  0  0
 18 28  1  0  0  0
M  END
$$$$
