2hoc_ligand
  -I-interpret- 

 29 30  0  0  0  0  0  0  0  0999 V2000
   -5.7200    0.8180   16.6140 S   0  0  0  0  0
   -7.1140    0.9350   16.5620 O   0  0  0  0  0
   -5.2540    1.0250   17.9420 O   0  0  0  0  0
   -5.2880   -0.6130   16.1320 N   0  0  0  0  0
   -3.7220    2.3480   15.4350 N   0  0  0  0  0
   -3.5280    3.4480   14.6020 N   0  0  0  0  0
   -5.9640    3.3760   15.0470 S   0  0  0  0  0
   -5.0080    2.0370   15.5080 C   0  0  0  0  0
   -4.6940    3.9880   14.2070 C   0  0  0  0  0
   -4.9220    5.2840   13.9070 N   0  0  0  0  0
   -4.4080    6.0460   12.8690 S   0  0  0  0  0
   -5.4360    6.7450   12.2210 O   0  0  0  0  0
   -3.7210    5.1780   11.9160 O   0  0  0  0  0
   -3.0410    7.3160   14.9540 C   0  0  0  0  0
   -2.3750    8.0070   12.6680 C   0  0  0  0  0
   -2.2490    8.3410   15.5060 C   0  0  0  0  0
   -1.4530    9.1750   14.6500 C   0  0  0  0  0
   -1.5770    9.0420   13.2100 C   0  0  0  0  0
   -3.1560    7.1570   13.5310 C   0  0  0  0  0
   -2.1650    8.4320   16.8040 F   0  0  0  0  0
   -0.7470    9.9220   12.2730 Cl  0  0  0  0  0
   -0.6150   10.1360   15.2440 N   0  0  0  0  0
   -5.9952   -1.2889   15.8430 H   0  0  0  0  0
   -4.3003   -0.8665   16.1079 H   0  0  0  0  0
   -5.5632    5.7719   14.5324 H   0  0  0  0  0
   -3.5743    6.6336   15.6158 H   0  0  0  0  0
   -2.3993    7.8513   11.5895 H   0  0  0  0  0
   -0.5834   10.2273   16.2594 H   0  0  0  0  0
   -0.0389   10.7415   14.6593 H   0  0  0  0  0
  1  2  2  0  0  0
  1  3  2  0  0  0
  1  4  1  0  0  0
  8  1  1  0  0  0
  6  5  4  0  0  0
  8  5  4  0  0  0
  9  6  4  0  0  0
  7  8  4  0  0  0
  9  7  4  0  0  0
 10  9  1  0  0  0
 11 10  1  0  0  0
 11 12  2  0  0  0
 11 13  2  0  0  0
 19 11  1  0  0  0
 14 16  4  0  0  0
 19 14  4  0  0  0
 15 18  4  0  0  0
 15 19  4  0  0  0
 16 17  4  0  0  0
 16 20  1  0  0  0
 17 18  4  0  0  0
 17 22  1  0  0  0
 18 21  1  0  0  0
  4 23  1  0  0  0
  4 24  1  0  0  0
 10 25  1  0  0  0
 14 26  1  0  0  0
 15 27  1  0  0  0
 22 28  1  0  0  0
 22 29  1  0  0  0
M  END
$$$$
