4jnc_ligand
  -I-interpret- 

 52 54  0  0  0  0  0  0  0  0999 V2000
  -13.9560   24.1020  -11.9650 N   0  0  0  0  0
  -10.1360   26.3950  -13.9430 C   0  0  0  0  0
  -16.3840   24.2060  -11.3790 C   0  0  0  0  0
  -17.8940   24.8920  -13.1780 C   0  0  0  0  0
  -18.7710   24.4510  -10.9590 C   0  0  0  0  0
   -6.9660   30.6950  -15.7960 C   0  0  0  0  0
   -8.3790   30.8360  -15.4030 N   0  0  0  0  0
   -9.3370   29.9620  -15.9610 C   0  0  0  0  0
   -9.9710   30.2850  -17.1030 N   0  0  0  0  0
  -10.8780   29.4510  -17.6310 C   0  0  0  0  0
  -11.5870   29.8190  -18.9130 C   0  0  0  0  0
  -11.1510   28.2880  -17.0180 N   0  0  0  0  0
  -10.5180   27.9670  -15.8730 C   0  0  0  0  0
   -9.6100   28.8030  -15.3450 N   0  0  0  0  0
  -10.7890   26.7470  -15.2180 N   0  0  0  0  0
  -11.9060   25.8700  -15.6070 C   0  0  0  0  0
  -12.9600   25.7920  -14.4890 C   0  0  0  0  0
  -12.2810   25.3740  -13.1680 C   0  0  0  0  0
  -11.1360   26.3300  -12.7740 C   0  0  0  0  0
  -13.3120   25.2600  -12.0750 C   0  0  0  0  0
  -13.5410   26.2060  -11.3190 O   0  0  0  0  0
  -14.9680   23.8740  -10.9340 C   0  0  0  0  0
  -16.6060   24.5830  -12.7180 C   0  0  0  0  0
  -18.9790   24.8240  -12.2960 C   0  0  0  0  0
  -17.4790   24.1350  -10.4840 C   0  0  0  0  0
  -17.2860   23.7400   -9.0240 C   0  0  0  0  0
  -16.5090   24.6470   -8.4410 F   0  0  0  0  0
  -16.7170   22.5360   -8.9120 F   0  0  0  0  0
  -18.4410   23.7150   -8.3740 F   0  0  0  0  0
  -13.7378   23.3503  -12.6191 H   0  0  0  0  0
   -9.3993   27.1656  -13.7159 H   0  0  0  0  0
   -9.6823   25.4103  -14.0555 H   0  0  0  0  0
  -18.0496   25.1836  -14.2167 H   0  0  0  0  0
  -19.6198   24.4045  -10.2767 H   0  0  0  0  0
   -6.6140   29.6982  -15.5303 H   0  0  0  0  0
   -6.8734   30.8394  -16.8724 H   0  0  0  0  0
   -6.3689   31.4434  -15.2750 H   0  0  0  0  0
   -8.6611   31.5552  -14.7370 H   0  0  0  0  0
  -12.1363   30.7493  -18.7687 H   0  0  0  0  0
  -10.8530   29.9485  -19.7083 H   0  0  0  0  0
  -12.2815   29.0237  -19.1838 H   0  0  0  0  0
  -11.5169   24.8687  -15.7915 H   0  0  0  0  0
  -12.3753   26.2774  -16.5025 H   0  0  0  0  0
  -13.7182   25.0558  -14.7560 H   0  0  0  0  0
  -13.4282   26.7682  -14.3631 H   0  0  0  0  0
  -11.8226   24.3964  -13.3175 H   0  0  0  0  0
  -11.5334   27.3235  -12.5665 H   0  0  0  0  0
  -10.6376   25.9659  -11.8756 H   0  0  0  0  0
  -14.7296   24.5273  -10.0947 H   0  0  0  0  0
  -14.9458   22.8128  -10.6860 H   0  0  0  0  0
  -15.7633   24.6353  -13.4073 H   0  0  0  0  0
  -19.9835   25.0603  -12.6469 H   0  0  0  0  0
 20  1  1  0  0  0
  1 22  1  0  0  0
  2 15  1  0  0  0
 19  2  1  0  0  0
 22  3  1  0  0  0
  3 23  4  0  0  0
  3 25  4  0  0  0
 23  4  4  0  0  0
  4 24  4  0  0  0
  5 24  4  0  0  0
 25  5  4  0  0  0
  7  6  1  0  0  0
  8  7  1  0  0  0
  8  9  4  0  0  0
 14  8  4  0  0  0
 10  9  4  0  0  0
 10 11  1  0  0  0
 12 10  4  0  0  0
 13 12  4  0  0  0
 13 14  4  0  0  0
 15 13  1  0  0  0
 16 15  1  0  0  0
 17 16  1  0  0  0
 18 17  1  0  0  0
 18 19  1  0  0  0
 18 20  1  0  0  0
 20 21  2  0  0  0
 25 26  1  0  0  0
 26 27  1  0  0  0
 26 28  1  0  0  0
 26 29  1  0  0  0
  1 30  1  0  0  0
  2 31  1  0  0  0
  2 32  1  0  0  0
  4 33  1  0  0  0
  5 34  1  0  0  0
  6 35  1  0  0  0
  6 36  1  0  0  0
  6 37  1  0  0  0
  7 38  1  0  0  0
 11 39  1  0  0  0
 11 40  1  0  0  0
 11 41  1  0  0  0
 16 42  1  0  0  0
 16 43  1  0  0  0
 17 44  1  0  0  0
 17 45  1  0  0  0
 18 46  1  0  0  0
 19 47  1  0  0  0
 19 48  1  0  0  0
 22 49  1  0  0  0
 22 50  1  0  0  0
 23 51  1  0  0  0
 24 52  1  0  0  0
M  END
$$$$
