5u7k_ligand
  -I-interpret- 

 49 52  0  0  0  0  0  0  0  0999 V2000
  -11.7350   19.7940  -26.0230 N   0  0  0  0  0
  -10.9940   19.1440  -26.9570 C   0  0  0  0  0
  -12.8910   19.4120  -23.0470 C   0  0  0  0  0
  -13.1210   20.6550  -27.7500 C   0  0  0  0  0
   -8.2870   22.9930  -22.8650 C   0  0  0  0  0
   -7.2840   22.4480  -22.0720 C   0  0  0  0  0
   -8.7640   20.6630  -21.4640 C   0  0  0  0  0
   -7.5350   21.2890  -21.3520 C   0  0  0  0  0
   -6.1610   24.3400  -21.0510 C   0  0  0  0  0
  -12.8730   24.2620  -24.1090 C   0  0  0  0  0
  -14.0410   23.3900  -24.4880 C   0  0  0  0  0
  -13.7580   22.6350  -25.7680 C   0  0  0  0  0
  -13.5210   21.2550  -25.5040 O   0  0  0  0  0
  -12.7780   20.5620  -26.4140 C   0  0  0  0  0
  -12.3740   20.0080  -28.6520 N   0  0  0  0  0
  -11.3310   19.2490  -28.3070 C   0  0  0  0  0
   -9.9910   18.4630  -26.3490 N   0  0  0  0  0
  -10.1120   18.6840  -24.9580 N   0  0  0  0  0
  -11.1570   19.5270  -24.8270 C   0  0  0  0  0
  -11.6610   19.9230  -23.4370 C   0  0  0  0  0
  -13.1100   19.8030  -21.7620 N   0  0  0  0  0
  -11.9620   20.4990  -21.3890 N   0  0  0  0  0
  -11.9930   21.0090  -20.0060 C   0  0  0  0  0
  -11.0440   20.5430  -22.3570 C   0  0  0  0  0
   -9.7470   21.2110  -22.2600 C   0  0  0  0  0
   -9.5330   22.3800  -22.9690 C   0  0  0  0  0
   -5.9470   23.1370  -21.9570 C   0  0  0  0  0
  -13.5602   18.8072  -23.6589 H   0  0  0  0  0
  -13.9833   21.2440  -28.0625 H   0  0  0  0  0
   -8.0952   23.9148  -23.4142 H   0  0  0  0  0
   -8.9548   19.7364  -20.9227 H   0  0  0  0  0
   -6.7667   20.8729  -20.7003 H   0  0  0  0  0
   -6.9046   25.0009  -21.4964 H   0  0  0  0  0
   -6.5116   24.0012  -20.0761 H   0  0  0  0  0
   -5.2197   24.8768  -20.9336 H   0  0  0  0  0
  -11.9898   23.6404  -23.9619 H   0  0  0  0  0
  -12.6842   24.9810  -24.9062 H   0  0  0  0  0
  -13.1026   24.7935  -23.1855 H   0  0  0  0  0
  -14.9157   24.0223  -24.6401 H   0  0  0  0  0
  -14.2155   22.6706  -23.6879 H   0  0  0  0  0
  -12.8697   23.0595  -26.2357 H   0  0  0  0  0
  -14.6237   22.7222  -26.4245 H   0  0  0  0  0
  -10.7535   18.7212  -29.0659 H   0  0  0  0  0
  -12.8354   21.6910  -19.8904 H   0  0  0  0  0
  -12.1026   20.1736  -19.3144 H   0  0  0  0  0
  -11.0638   21.5381  -19.7943 H   0  0  0  0  0
  -10.3181   22.8091  -23.5916 H   0  0  0  0  0
   -5.5799   23.4448  -22.9361 H   0  0  0  0  0
   -5.1947   22.4650  -21.5441 H   0  0  0  0  0
  1  2  4  0  0  0
  1 14  4  0  0  0
 19  1  4  0  0  0
  2 16  4  0  0  0
 17  2  4  0  0  0
 20  3  4  0  0  0
 21  3  4  0  0  0
 14  4  4  0  0  0
  4 15  4  0  0  0
  6  5  4  0  0  0
  5 26  4  0  0  0
  8  6  4  0  0  0
  6 27  1  0  0  0
  7  8  4  0  0  0
 25  7  4  0  0  0
 27  9  1  0  0  0
 11 10  1  0  0  0
 12 11  1  0  0  0
 13 12  1  0  0  0
 14 13  1  0  0  0
 16 15  4  0  0  0
 18 17  4  0  0  0
 19 18  4  0  0  0
 20 19  1  0  0  0
 24 20  4  0  0  0
 22 21  4  0  0  0
 22 23  1  0  0  0
 24 22  4  0  0  0
 24 25  1  0  0  0
 25 26  4  0  0  0
  3 28  1  0  0  0
  4 29  1  0  0  0
  5 30  1  0  0  0
  7 31  1  0  0  0
  8 32  1  0  0  0
  9 33  1  0  0  0
  9 34  1  0  0  0
  9 35  1  0  0  0
 10 36  1  0  0  0
 10 37  1  0  0  0
 10 38  1  0  0  0
 11 39  1  0  0  0
 11 40  1  0  0  0
 12 41  1  0  0  0
 12 42  1  0  0  0
 16 43  1  0  0  0
 23 44  1  0  0  0
 23 45  1  0  0  0
 23 46  1  0  0  0
 26 47  1  0  0  0
 27 48  1  0  0  0
 27 49  1  0  0  0
M  END
$$$$
