6bqg_ligand
  -I-interpret- 

 78 85  0  0  0  0  0  0  0  0999 V2000
   23.0040   35.8990   49.5800 C   0  0  0  0  0
   22.7170   37.1920   49.8450 N   0  0  0  0  0
   21.3260   32.8330   56.9360 O   0  0  0  0  0
   21.6890   36.8210   53.8300 C   0  0  0  0  0
   21.6090   38.1420   53.3250 C   0  0  0  0  0
   21.9420   38.3970   51.9530 C   0  0  0  0  0
   22.3270   37.3460   51.1770 C   0  0  0  0  0
   22.4060   36.0400   51.6810 C   0  0  0  0  0
   21.9610   30.7550   51.9580 C   0  0  0  0  0
   22.3050   32.2340   56.5340 C   0  0  0  0  0
   22.6570   30.8430   58.6000 C   0  0  0  0  0
   22.2800   31.9620   59.5280 C   0  0  0  0  0
   20.2660   32.5530   60.7920 C   0  0  0  0  0
   22.6460   31.8410   52.7070 N   0  3  0  0  0
   22.8250   35.1320   50.6890 C   0  0  0  0  0
   21.5180   29.9780   58.6350 O   0  0  0  0  0
   19.3630   31.6760   61.6790 C   0  0  0  0  0
   18.4300   29.4290   62.2130 C   0  0  0  0  0
   18.0310   28.3030   61.2830 C   0  0  0  0  0
   18.9540   28.4280   60.0360 C   0  0  0  0  0
   19.8810   29.5900   60.4270 C   0  0  0  0  0
   20.3890   30.5120   59.3230 C   0  0  0  0  0
   23.9410   30.1680   59.0560 C   0  0  0  0  0
   19.4230   33.6120   60.1290 C   0  0  0  0  0
   18.8460   34.6710   61.0520 C   0  0  0  0  0
   19.7350   35.4720   61.8020 C   0  0  0  0  0
   22.9880   33.6690   50.9920 C   0  0  0  0  0
   22.9760   31.2990   57.2440 N   0  0  0  0  0
   22.9990   32.8800   59.8620 O   0  0  0  0  0
   19.2510   36.4650   62.6740 C   0  0  0  0  0
   17.8680   36.6580   62.7980 C   0  0  0  0  0
   16.9830   35.8590   62.0500 C   0  0  0  0  0
   17.4580   34.8650   61.1760 C   0  0  0  0  0
   22.1980   33.2330   52.2830 C   0  0  0  0  0
   21.0110   31.7090   59.8820 N   0  0  0  0  0
   18.7320   32.1810   62.6240 O   0  0  0  0  0
   22.4150   31.4620   54.1460 C   0  0  0  0  0
   19.2410   30.3760   61.4590 N   0  0  0  0  0
   19.3880   30.8460   58.4190 O   0  0  0  0  0
   22.8530   32.5400   55.1140 C   0  0  0  0  0
   22.5410   33.9450   54.6770 C   0  0  0  0  0
   22.2230   34.2670   53.4260 C   0  0  0  0  0
   22.0870   35.7330   53.0310 C   0  0  0  0  0
   23.3334   35.5224   48.6116 H   0  0  0  0  0
   21.4333   36.6408   54.8742 H   0  0  0  0  0
   21.2964   38.9596   53.9746 H   0  0  0  0  0
   21.8883   39.4053   51.5425 H   0  0  0  0  0
   20.8860   30.8220   52.1254 H   0  0  0  0  0
   22.1716   30.8606   50.8938 H   0  0  0  0  0
   22.3249   29.7888   52.3076 H   0  0  0  0  0
   21.0151   33.0871   61.3766 H   0  0  0  0  0
   23.6453   31.9158   52.5165 H   0  0  0  0  0
   18.9990   29.0356   63.0554 H   0  0  0  0  0
   17.5416   29.9246   62.6043 H   0  0  0  0  0
   16.9797   28.3752   61.0045 H   0  0  0  0  0
   18.1487   27.3326   61.7652 H   0  0  0  0  0
   18.4040   28.6112   59.1129 H   0  0  0  0  0
   19.4930   27.5083   59.8085 H   0  0  0  0  0
   20.7892   29.0906   60.7644 H   0  0  0  0  0
   24.7492   30.8993   59.0701 H   0  0  0  0  0
   23.8002   29.7609   60.0573 H   0  0  0  0  0
   24.1908   29.3617   58.3664 H   0  0  0  0  0
   18.5728   33.0949   59.6842 H   0  0  0  0  0
   20.0777   34.1349   59.4318 H   0  0  0  0  0
   20.8098   35.3192   61.7043 H   0  0  0  0  0
   24.0470   33.4754   51.1626 H   0  0  0  0  0
   22.5939   33.1033   50.1477 H   0  0  0  0  0
   23.7829   30.8691   56.7918 H   0  0  0  0  0
   19.9454   37.0786   63.2479 H   0  0  0  0  0
   17.4799   37.4231   63.4704 H   0  0  0  0  0
   15.9087   36.0137   62.1501 H   0  0  0  0  0
   16.7609   34.2537   60.6029 H   0  0  0  0  0
   21.1406   33.1896   52.0221 H   0  0  0  0  0
   23.0024   30.5677   54.3541 H   0  0  0  0  0
   21.3449   31.3056   54.2824 H   0  0  0  0  0
   18.6349   31.2038   58.8949 H   0  0  0  0  0
   23.9424   32.5082   55.1338 H   0  0  0  0  0
   22.5773   34.7392   55.4227 H   0  0  0  0  0
  1  2  4  0  0  0
 15  1  4  0  0  0
  7  2  4  0  0  0
 10  3  2  0  0  0
  4  5  4  0  0  0
 43  4  4  0  0  0
  6  5  4  0  0  0
  7  6  4  0  0  0
  8  7  4  0  0  0
 15  8  4  0  0  0
  8 43  4  0  0  0
 14  9  1  0  0  0
 10 28  1  0  0  0
 40 10  1  0  0  0
 11 12  1  0  0  0
 11 16  1  0  0  0
 11 23  1  0  0  0
 28 11  1  0  0  0
 12 29  2  0  0  0
 12 35  1  0  0  0
 13 17  1  0  0  0
 13 24  1  0  0  0
 35 13  1  0  0  0
 14 34  1  0  0  0
 37 14  1  0  0  0
 27 15  1  0  0  0
 16 22  1  0  0  0
 17 36  2  0  0  0
 38 17  1  0  0  0
 18 19  1  0  0  0
 38 18  1  0  0  0
 20 19  1  0  0  0
 21 20  1  0  0  0
 22 21  1  0  0  0
 21 38  1  0  0  0
 22 35  1  0  0  0
 22 39  1  0  0  0
 24 25  1  0  0  0
 25 26  4  0  0  0
 25 33  4  0  0  0
 26 30  4  0  0  0
 34 27  1  0  0  0
 30 31  4  0  0  0
 32 31  4  0  0  0
 33 32  4  0  0  0
 34 42  1  0  0  0
 37 40  1  0  0  0
 40 41  1  0  0  0
 41 42  2  0  0  0
 42 43  1  0  0  0
  1 44  1  0  0  0
  4 45  1  0  0  0
  5 46  1  0  0  0
  6 47  1  0  0  0
  9 48  1  0  0  0
  9 49  1  0  0  0
  9 50  1  0  0  0
 13 51  1  0  0  0
 14 52  1  0  0  0
 18 53  1  0  0  0
 18 54  1  0  0  0
 19 55  1  0  0  0
 19 56  1  0  0  0
 20 57  1  0  0  0
 20 58  1  0  0  0
 21 59  1  0  0  0
 23 60  1  0  0  0
 23 61  1  0  0  0
 23 62  1  0  0  0
 24 63  1  0  0  0
 24 64  1  0  0  0
 26 65  1  0  0  0
 27 66  1  0  0  0
 27 67  1  0  0  0
 28 68  1  0  0  0
 30 69  1  0  0  0
 31 70  1  0  0  0
 32 71  1  0  0  0
 33 72  1  0  0  0
 34 73  1  0  0  0
 37 74  1  0  0  0
 37 75  1  0  0  0
 39 76  1  0  0  0
 40 77  1  0  0  0
 41 78  1  0  0  0
M  END
$$$$
