4g55_ligand
  -I-interpret- 

 41 44  0  0  0  0  0  0  0  0999 V2000
   47.8060   -5.4140   23.6060 C   0  0  0  0  0
   47.8210   -4.1760   24.3060 C   0  0  0  0  0
   47.8760   -2.9210   23.6620 C   0  0  0  0  0
   47.9700   -2.9430   22.2610 C   0  0  0  0  0
   47.9880   -4.1530   21.5460 C   0  0  0  0  0
   47.8610   -5.4010   22.1860 C   0  0  0  0  0
   47.8660   -6.5990   21.4590 C   0  0  0  0  0
   47.8050   -7.8390   22.0920 C   0  0  0  0  0
   47.7130   -7.8710   23.4800 C   0  0  0  0  0
   47.6950   -6.6860   24.2280 C   0  0  0  0  0
   47.6230   -6.8910   25.9720 S   0  0  0  0  0
   46.6250   -5.9120   26.4900 O   0  0  0  0  0
   47.1820   -8.3380   26.3270 O   0  0  0  0  0
   49.1290   -6.4930   26.6050 N   0  0  0  0  0
   50.1280   -7.3110   26.5680 C   0  0  0  0  0
   50.0480   -9.0220   26.1350 S   0  0  0  0  0
   51.3780   -6.9290   26.8670 N   0  0  0  0  0
   52.2550   -7.9340   26.7580 C   0  0  0  0  0
   53.4430   -7.7070   26.9920 O   0  0  0  0  0
   51.7920   -9.1540   26.3770 C   0  0  0  0  0
   52.6000  -10.2520   26.2510 C   0  0  0  0  0
   52.1410  -11.5420   25.9420 C   0  0  0  0  0
   50.8950  -11.9940   26.3750 C   0  0  0  0  0
   50.4790  -13.2680   26.0780 C   0  0  0  0  0
   51.2790  -14.0800   25.3530 C   0  0  0  0  0
   50.6940  -15.9160   24.8860 Br  0  0  0  0  0
   52.5540  -13.7080   24.9280 C   0  0  0  0  0
   52.9650  -12.4050   25.2280 C   0  0  0  0  0
   47.7884   -4.1974   25.3953 H   0  0  0  0  0
   47.8471   -1.9860   24.2216 H   0  0  0  0  0
   48.0303   -2.0010   21.7160 H   0  0  0  0  0
   48.1039   -4.1245   20.4625 H   0  0  0  0  0
   47.9189   -6.5600   20.3710 H   0  0  0  0  0
   47.8288   -8.7624   21.5132 H   0  0  0  0  0
   47.6541   -8.8311   23.9927 H   0  0  0  0  0
   51.6314   -5.9811   27.1456 H   0  0  0  0  0
   53.6710  -10.1154   26.4006 H   0  0  0  0  0
   50.2484  -11.3328   26.9519 H   0  0  0  0  0
   49.5085  -13.6225   26.4252 H   0  0  0  0  0
   53.1999  -14.3999   24.3875 H   0  0  0  0  0
   53.9451  -12.0613   24.8974 H   0  0  0  0  0
  1  2  4  0  0  0
  1  6  4  0  0  0
  1 10  4  0  0  0
  2  3  4  0  0  0
  3  4  4  0  0  0
  4  5  4  0  0  0
  5  6  4  0  0  0
  6  7  4  0  0  0
  7  8  4  0  0  0
  8  9  4  0  0  0
  9 10  4  0  0  0
 10 11  1  0  0  0
 11 12  2  0  0  0
 11 13  2  0  0  0
 11 14  1  0  0  0
 14 15  2  0  0  0
 15 16  1  0  0  0
 15 17  1  0  0  0
 16 20  1  0  0  0
 17 18  1  0  0  0
 18 19  2  0  0  0
 18 20  1  0  0  0
 20 21  2  0  0  0
 21 22  1  0  0  0
 22 23  4  0  0  0
 22 28  4  0  0  0
 23 24  4  0  0  0
 24 25  4  0  0  0
 25 26  1  0  0  0
 25 27  4  0  0  0
 27 28  4  0  0  0
  2 29  1  0  0  0
  3 30  1  0  0  0
  4 31  1  0  0  0
  5 32  1  0  0  0
  7 33  1  0  0  0
  8 34  1  0  0  0
  9 35  1  0  0  0
 17 36  1  0  0  0
 21 37  1  0  0  0
 23 38  1  0  0  0
 24 39  1  0  0  0
 27 40  1  0  0  0
 28 41  1  0  0  0
M  END
$$$$
