1u6q_ligand
  -I-interpret- 

 40 43  0  0  0  0  0  0  0  0999 V2000
   23.0250   15.7430   33.2780 C   0  0  0  0  0
   21.7010   15.7210   32.7100 C   0  0  0  0  0
   20.7990   16.7990   32.9850 C   0  0  0  0  0
   21.2670   17.9470   33.7650 C   0  0  0  0  0
   22.6430   17.9910   34.2100 C   0  0  0  0  0
   23.5350   16.9180   33.9280 C   0  0  0  0  0
   19.4440   16.7860   32.5130 C   0  0  0  0  0
   18.5540   17.8310   32.8520 C   0  0  0  0  0
   18.9810   18.9290   33.6570 C   0  0  0  0  0
   20.3580   18.9930   34.0530 C   0  0  0  0  0
   18.0710   20.0100   34.0050 C   0  0  0  0  0
   16.7930   19.7920   33.9730 N   0  0  0  0  0
   18.4780   21.2580   34.2300 N   0  0  0  0  0
   23.9560   14.6350   33.4210 C   0  0  0  0  0
   24.8640   14.8000   32.0590 C   0  0  0  0  0
   25.9450   14.1780   31.1900 C   0  0  0  0  0
   26.7970   14.7920   30.2100 C   0  0  0  0  0
   27.5160   13.9460   29.3030 C   0  0  0  0  0
   27.4080   12.5500   29.4060 C   0  0  0  0  0
   26.8100   11.9720   30.5180 C   0  0  0  0  0
   26.0970   12.7820   31.3880 C   0  0  0  0  0
   25.4190   14.3480   33.3900 C   0  0  0  0  0
   21.3885   14.8910   32.0764 H   0  0  0  0  0
   23.0010   18.8562   34.7679 H   0  0  0  0  0
   24.5880   16.9869   34.2009 H   0  0  0  0  0
   19.0978   15.9632   31.8875 H   0  0  0  0  0
   17.5255   17.7973   32.4927 H   0  0  0  0  0
   20.7144   19.8716   34.5907 H   0  0  0  0  0
   16.4389   18.8733   33.7067 H   0  0  0  0  0
   17.7928   22.0006   34.3695 H   0  0  0  0  0
   19.4749   21.4712   34.2628 H   0  0  0  0  0
   23.2911   14.1363   34.1262 H   0  0  0  0  0
   24.4791   15.3911   31.2280 H   0  0  0  0  0
   26.8946   15.8763   30.1571 H   0  0  0  0  0
   28.1476   14.3874   28.5321 H   0  0  0  0  0
   27.7958   11.9162   28.6085 H   0  0  0  0  0
   26.8996   10.9016   30.7032 H   0  0  0  0  0
   25.6329   12.3260   32.2625 H   0  0  0  0  0
   26.0394   13.5122   33.7135 H   0  0  0  0  0
   26.2683   14.6480   34.0038 H   0  0  0  0  0
  1  2  4  0  0  0
  1  6  4  0  0  0
  1 14  1  0  0  0
  2  3  4  0  0  0
  3  4  4  0  0  0
  3  7  4  0  0  0
  4  5  4  0  0  0
  4 10  4  0  0  0
  5  6  4  0  0  0
  7  8  4  0  0  0
  8  9  4  0  0  0
  9 10  4  0  0  0
  9 11  1  0  0  0
 11 12  2  0  0  0
 11 13  1  0  0  0
 14 15  1  0  0  0
 14 22  1  0  0  0
 15 16  1  0  0  0
 15 22  1  0  0  0
 16 17  4  0  0  0
 16 21  4  0  0  0
 17 18  4  0  0  0
 18 19  4  0  0  0
 19 20  4  0  0  0
 20 21  4  0  0  0
  2 23  1  0  0  0
  5 24  1  0  0  0
  6 25  1  0  0  0
  7 26  1  0  0  0
  8 27  1  0  0  0
 10 28  1  0  0  0
 12 29  1  0  0  0
 13 30  1  0  0  0
 13 31  1  0  0  0
 14 32  1  0  0  0
 15 33  1  0  0  0
 17 34  1  0  0  0
 18 35  1  0  0  0
 19 36  1  0  0  0
 20 37  1  0  0  0
 21 38  1  0  0  0
 22 39  1  0  0  0
 22 40  1  0  0  0
M  END
$$$$
