4cxw_ligand
  -I-interpret- 

 41 42  0  0  0  0  0  0  0  0999 V2000
   34.3770   -6.8860  -23.3940 O   0  0  0  0  0
   34.1040   -7.4030  -24.4970 C   0  0  0  0  0
   34.3600   -8.5610  -24.8990 O   0  0  0  0  0
   33.3640   -6.5710  -25.4450 C   0  0  0  0  0
   32.4830   -7.4830  -26.2180 C   0  0  0  0  0
   31.6050   -6.7290  -27.1480 C   0  0  0  0  0
   31.5850   -5.5130  -27.2260 O   0  0  0  0  0
   30.7470   -7.4440  -27.9830 N   0  0  0  0  0
   29.9010   -6.8390  -28.8900 N   0  0  0  0  0
   28.6940   -7.4690  -29.2070 C   0  0  0  0  0
   28.4230   -8.5330  -28.6660 O   0  0  0  0  0
   27.7290   -6.8860  -30.2490 C   0  0  0  0  0
   26.3330   -6.6220  -30.0030 C   0  0  0  0  0
   25.4740   -6.1100  -30.9470 N   0  0  0  0  0
   25.9920   -5.8360  -32.2060 C   0  0  0  0  0
   27.3530   -6.0620  -32.5290 C   0  0  0  0  0
   28.2220   -6.6070  -31.5300 C   0  0  0  0  0
   29.6600   -6.8960  -31.7690 C   0  0  0  0  0
   30.2790   -7.0330  -33.1000 C   0  0  0  0  0
   30.7350   -8.2810  -33.5880 C   0  0  0  0  0
   31.3540   -8.3780  -34.8570 C   0  0  0  0  0
   31.5300   -7.2300  -35.6520 C   0  0  0  0  0
   31.0810   -5.9790  -35.1590 C   0  0  0  0  0
   30.4700   -5.8900  -33.8990 C   0  0  0  0  0
   34.0253   -8.6698  -25.7922 H   0  0  0  0  0
   34.0458   -6.0369  -26.1069 H   0  0  0  0  0
   32.7773   -5.8155  -24.9224 H   0  0  0  0  0
   31.8542   -8.0328  -25.5176 H   0  0  0  0  0
   33.1097   -8.1562  -26.8030 H   0  0  0  0  0
   30.7446   -8.4621  -27.9204 H   0  0  0  0  0
   30.1516   -5.9491  -29.3209 H   0  0  0  0  0
   25.9357   -6.8408  -29.0118 H   0  0  0  0  0
   25.3290   -5.4334  -32.9718 H   0  0  0  0  0
   27.7326   -5.8246  -33.5228 H   0  0  0  0  0
   29.7698   -7.8983  -31.3549 H   0  0  0  0  0
   30.1472   -6.0044  -31.3743 H   0  0  0  0  0
   30.6081   -9.1767  -32.9800 H   0  0  0  0  0
   31.6962   -9.3469  -35.2206 H   0  0  0  0  0
   32.0039   -7.3017  -36.6310 H   0  0  0  0  0
   31.2112   -5.0807  -35.7625 H   0  0  0  0  0
   30.1375   -4.9188  -33.5325 H   0  0  0  0  0
  1  2  2  0  0  0
  2  3  1  0  0  0
  2  4  1  0  0  0
  4  5  1  0  0  0
  5  6  1  0  0  0
  6  7  2  0  0  0
  6  8  1  0  0  0
  8  9  1  0  0  0
  9 10  1  0  0  0
 10 11  2  0  0  0
 10 12  1  0  0  0
 12 13  4  0  0  0
 12 17  4  0  0  0
 13 14  4  0  0  0
 14 15  4  0  0  0
 15 16  4  0  0  0
 16 17  4  0  0  0
 17 18  1  0  0  0
 18 19  1  0  0  0
 19 20  4  0  0  0
 19 24  4  0  0  0
 20 21  4  0  0  0
 21 22  4  0  0  0
 22 23  4  0  0  0
 23 24  4  0  0  0
  3 25  1  0  0  0
  4 26  1  0  0  0
  4 27  1  0  0  0
  5 28  1  0  0  0
  5 29  1  0  0  0
  8 30  1  0  0  0
  9 31  1  0  0  0
 13 32  1  0  0  0
 15 33  1  0  0  0
 16 34  1  0  0  0
 18 35  1  0  0  0
 18 36  1  0  0  0
 20 37  1  0  0  0
 21 38  1  0  0  0
 22 39  1  0  0  0
 23 40  1  0  0  0
 24 41  1  0  0  0
M  END
$$$$
