2wez_ligand
  -I-interpret- 

 80 84  0  0  0  0  0  0  0  0999 V2000
   30.1980   -2.3490   35.3960 C   0  0  0  0  0
   30.0150   -1.1550   34.6390 C   0  0  0  0  0
   30.4940    0.1280   35.1710 C   0  0  0  0  0
   31.1310    0.1510   36.4470 C   0  0  0  0  0
   31.3180   -1.0590   37.2180 C   0  0  0  0  0
   30.8280   -2.3720   36.6710 C   0  0  0  0  0
   30.3130    1.3550   34.3740 C   0  0  0  0  0
   29.1330    1.4490   33.6960 N   0  0  0  0  0
   31.2950    2.1260   34.2290 O   0  0  0  0  0
   28.8460    2.4470   32.6370 C   0  0  0  0  0
   28.1310    1.6760   31.5020 C   0  0  0  0  0
   27.9930    3.6920   33.0700 C   0  0  0  0  0
   27.7430    4.6030   32.0050 O   0  0  0  0  0
   28.9450    0.4240   31.1420 C   0  0  0  0  0
   28.6940    4.4700   34.1970 C   0  0  0  0  0
   27.9740    5.6700   34.6730 N   0  3  0  0  0
   28.6600    6.8710   35.3010 C   0  0  0  0  0
   28.1310   -0.7990   31.0000 C   0  0  0  0  0
   28.7610   -2.0990   30.6790 C   0  0  0  0  0
   30.2260   -2.1920   30.5000 C   0  0  0  0  0
   31.0730   -0.9710   30.6370 C   0  0  0  0  0
   30.4520    0.3320   30.9540 C   0  0  0  0  0
   29.8280   -3.6580   35.0920 N   0  0  0  0  0
   33.6710   -0.6600   40.0750 C   0  0  0  0  0
   32.3520   -1.0340   40.7850 C   0  0  0  0  0
   31.3260   -1.2140   39.6780 C   0  0  0  0  0
   31.9730   -0.9770   38.5010 N   0  0  0  0  0
   33.3810   -0.6360   38.5910 C   0  0  0  0  0
   30.1130   -1.5240   39.7940 O   0  0  0  0  0
   30.2330   -4.4400   36.1540 C   0  0  0  0  0
   30.8630   -3.6870   37.1670 C   0  0  0  0  0
   27.6150   -3.8760   33.9080 C   0  0  0  0  0
   29.1340   -4.0950   33.8530 C   0  0  0  0  0
   30.6680    8.4080   32.2950 C   0  0  0  0  0
   32.0230    8.2580   32.8080 C   0  0  0  0  0
   32.2670    7.6750   34.0920 C   0  0  0  0  0
   31.1710    7.2260   34.9010 C   0  0  0  0  0
   29.8110    7.3560   34.4280 C   0  0  0  0  0
   29.5670    7.9450   33.1340 C   0  0  0  0  0
   30.3390    8.9780   31.0320 O   0  0  0  0  0
   28.9900    9.1080   30.5700 C   0  0  0  0  0
   29.5210   -1.1938   33.6681 H   0  0  0  0  0
   31.4844    1.1002   36.8498 H   0  0  0  0  0
   28.3956    0.7858   33.9343 H   0  0  0  0  0
   29.7959    2.8895   32.3372 H   0  0  0  0  0
   28.0444    2.3177   30.6252 H   0  0  0  0  0
   27.1363    1.3795   31.8347 H   0  0  0  0  0
   27.0402    3.2839   33.4071 H   0  0  0  0  0
   27.2198    5.3389   32.3311 H   0  0  0  0  0
   29.6466    4.8148   33.7947 H   0  0  0  0  0
   28.7690    3.7916   35.0468 H   0  0  0  0  0
   27.4077    5.3058   35.4392 H   0  0  0  0  0
   27.5829    6.0558   33.8136 H   0  0  0  0  0
   29.0558    6.5801   36.2740 H   0  0  0  0  0
   27.9331    7.6768   35.4031 H   0  0  0  0  0
   27.0506   -0.7439   31.1335 H   0  0  0  0  0
   28.1432   -2.9909   30.5742 H   0  0  0  0  0
   30.6870   -3.1521   30.2681 H   0  0  0  0  0
   32.1525   -1.0404   30.5029 H   0  0  0  0  0
   31.0712    1.2236   31.0527 H   0  0  0  0  0
   34.4521   -1.3849   40.3042 H   0  0  0  0  0
   34.0302    0.3116   40.4141 H   0  0  0  0  0
   32.0459   -0.2600   41.4888 H   0  0  0  0  0
   32.4626   -1.9430   41.3763 H   0  0  0  0  0
   34.0103   -1.3321   38.0364 H   0  0  0  0  0
   33.6000    0.3335   38.1435 H   0  0  0  0  0
   30.0830   -5.5184   36.2046 H   0  0  0  0  0
   31.2784   -4.0408   38.1106 H   0  0  0  0  0
   27.1974   -4.4429   34.7401 H   0  0  0  0  0
   27.4070   -2.8153   34.0486 H   0  0  0  0  0
   27.1663   -4.2149   32.9742 H   0  0  0  0  0
   29.3115   -5.1636   33.7319 H   0  0  0  0  0
   29.5255   -3.5024   33.0262 H   0  0  0  0  0
   32.8652    8.5954   32.2039 H   0  0  0  0  0
   33.2891    7.5718   34.4564 H   0  0  0  0  0
   31.3646    6.7841   35.8784 H   0  0  0  0  0
   28.5423    8.0461   32.7764 H   0  0  0  0  0
   28.5306    8.1213   30.5117 H   0  0  0  0  0
   28.4277    9.7315   31.2652 H   0  0  0  0  0
   28.9883    9.5699   29.5827 H   0  0  0  0  0
  2  1  4  0  0  0
  1  6  4  0  0  0
  1 23  4  0  0  0
  3  2  4  0  0  0
  3  4  4  0  0  0
  7  3  1  0  0  0
  4  5  4  0  0  0
  5  6  4  0  0  0
  5 27  1  0  0  0
  6 31  4  0  0  0
  8  7  1  0  0  0
  7  9  2  0  0  0
 10  8  1  0  0  0
 10 11  1  0  0  0
 12 10  1  0  0  0
 11 14  1  0  0  0
 12 13  1  0  0  0
 15 12  1  0  0  0
 14 18  4  0  0  0
 14 22  4  0  0  0
 16 15  1  0  0  0
 17 16  1  0  0  0
 38 17  1  0  0  0
 18 19  4  0  0  0
 19 20  4  0  0  0
 21 20  4  0  0  0
 22 21  4  0  0  0
 23 30  4  0  0  0
 23 33  1  0  0  0
 24 25  1  0  0  0
 28 24  1  0  0  0
 26 25  1  0  0  0
 27 26  1  0  0  0
 26 29  2  0  0  0
 27 28  1  0  0  0
 31 30  4  0  0  0
 33 32  1  0  0  0
 35 34  4  0  0  0
 34 39  4  0  0  0
 34 40  1  0  0  0
 36 35  4  0  0  0
 37 36  4  0  0  0
 37 38  4  0  0  0
 38 39  4  0  0  0
 40 41  1  0  0  0
  2 42  1  0  0  0
  4 43  1  0  0  0
  8 44  1  0  0  0
 10 45  1  0  0  0
 11 46  1  0  0  0
 11 47  1  0  0  0
 12 48  1  0  0  0
 13 49  1  0  0  0
 15 50  1  0  0  0
 15 51  1  0  0  0
 16 52  1  0  0  0
 16 53  1  0  0  0
 17 54  1  0  0  0
 17 55  1  0  0  0
 18 56  1  0  0  0
 19 57  1  0  0  0
 20 58  1  0  0  0
 21 59  1  0  0  0
 22 60  1  0  0  0
 24 61  1  0  0  0
 24 62  1  0  0  0
 25 63  1  0  0  0
 25 64  1  0  0  0
 28 65  1  0  0  0
 28 66  1  0  0  0
 30 67  1  0  0  0
 31 68  1  0  0  0
 32 69  1  0  0  0
 32 70  1  0  0  0
 32 71  1  0  0  0
 33 72  1  0  0  0
 33 73  1  0  0  0
 35 74  1  0  0  0
 36 75  1  0  0  0
 37 76  1  0  0  0
 39 77  1  0  0  0
 41 78  1  0  0  0
 41 79  1  0  0  0
 41 80  1  0  0  0
M  END
$$$$
