3c6u_ligand
  -I-interpret- 

 40 43  0  0  0  0  0  0  0  0999 V2000
   10.2220   12.1760   16.3280 C   0  0  0  0  0
   11.0370   12.2340   15.2130 C   0  0  0  0  0
   10.5850   12.6410   13.9790 C   0  0  0  0  0
    9.2740   12.9930   13.8310 C   0  0  0  0  0
    8.4010   12.9310   14.9020 C   0  0  0  0  0
    8.8610   12.5280   16.1720 C   0  0  0  0  0
   10.5620   13.6430   18.9790 C   0  0  0  0  0
   10.5360   12.2800   18.7490 C   0  0  0  0  0
   10.2260   11.4130   19.8190 C   0  0  0  0  0
    9.9500   11.9270   21.1190 C   0  0  0  0  0
    9.9840   13.3180   21.3340 C   0  0  0  0  0
   10.2950   14.1400   20.2480 C   0  0  0  0  0
   10.8210   11.7310   17.5110 O   0  0  0  0  0
   10.3540   15.8300   20.4450 Cl  0  0  0  0  0
    7.0990   13.3410   14.8110 O   0  0  0  0  0
    5.9190   12.5830   14.6400 C   0  0  0  0  0
    6.1320   11.1960   14.1930 C   0  0  0  0  0
    6.6050   10.9030   12.9660 N   0  0  0  0  0
    6.6320    9.5570   12.9860 N   0  0  0  0  0
    5.8620   10.0550   14.9800 C   0  0  0  0  0
    6.2010    9.0030   14.1670 C   0  0  0  0  0
    6.0810    7.7000   14.5970 C   0  0  0  0  0
    5.6070    7.4910   15.9080 C   0  0  0  0  0
    5.2490    8.5400   16.7550 C   0  0  0  0  0
    5.3750    9.8460   16.2880 C   0  0  0  0  0
   12.6740   11.7940   15.3270 Cl  0  0  0  0  0
    9.6540   11.0470   22.2260 C   0  0  0  0  0
    9.4090   10.3340   23.1160 N   0  0  0  0  0
   11.2659   12.6820   13.1288 H   0  0  0  0  0
    8.9116   13.3264   12.8585 H   0  0  0  0  0
    8.1783   12.4882   17.0208 H   0  0  0  0  0
   10.7923   14.3284   18.1633 H   0  0  0  0  0
   10.1974   10.3368   19.6486 H   0  0  0  0  0
    9.7743   13.7403   22.3168 H   0  0  0  0  0
    5.3355   13.0784   13.8640 H   0  0  0  0  0
    5.4345   12.5293   15.6149 H   0  0  0  0  0
    6.3423    6.8634   13.9490 H   0  0  0  0  0
    5.5166    6.4685   16.2747 H   0  0  0  0  0
    4.8786    8.3418   17.7608 H   0  0  0  0  0
    5.1026   10.6907   16.9207 H   0  0  0  0  0
  1  2  4  0  0  0
  1  6  4  0  0  0
 13  1  1  0  0  0
  2  3  4  0  0  0
  2 26  1  0  0  0
  3  4  4  0  0  0
  5  4  4  0  0  0
  6  5  4  0  0  0
  5 15  1  0  0  0
  8  7  4  0  0  0
  7 12  4  0  0  0
  8  9  4  0  0  0
  8 13  1  0  0  0
  9 10  4  0  0  0
 10 11  4  0  0  0
 10 27  1  0  0  0
 11 12  4  0  0  0
 12 14  1  0  0  0
 15 16  1  0  0  0
 16 17  1  0  0  0
 17 18  4  0  0  0
 17 20  4  0  0  0
 18 19  4  0  0  0
 19 21  4  0  0  0
 20 21  4  0  0  0
 20 25  4  0  0  0
 21 22  4  0  0  0
 22 23  4  0  0  0
 23 24  4  0  0  0
 24 25  4  0  0  0
 27 28  3  0  0  0
  3 29  1  0  0  0
  4 30  1  0  0  0
  6 31  1  0  0  0
  7 32  1  0  0  0
  9 33  1  0  0  0
 11 34  1  0  0  0
 16 35  1  0  0  0
 16 36  1  0  0  0
 22 37  1  0  0  0
 23 38  1  0  0  0
 24 39  1  0  0  0
 25 40  1  0  0  0
M  END
$$$$
