5kya_ligand
  -I-interpret- 

 55 58  0  0  0  0  0  0  0  0999 V2000
   10.9960  -41.1420   12.0360 N   0  0  0  0  0
    9.6410  -41.1850   12.0700 C   0  0  0  0  0
    9.0020  -39.9100   15.3840 N   0  0  0  0  0
    9.4870  -39.4250   18.8970 C   0  0  0  0  0
    8.6480  -39.8790   16.7220 C   0  0  0  0  0
    7.2700  -40.3090   18.5010 C   0  0  0  0  0
    8.1870  -40.3140   14.2070 C   0  0  0  0  0
    9.3370  -40.6650   13.3100 C   0  0  0  0  0
    8.2960  -39.8370   19.4690 C   0  0  0  0  0
    8.1060  -39.8130   20.9910 C   0  0  0  0  0
    9.6280  -39.4770   17.5730 N   0  0  0  0  0
    7.4660  -40.3220   17.1630 N   0  0  0  0  0
   10.5950  -40.3440   13.8980 C   0  0  0  0  0
   11.7410  -41.5020   10.9980 C   0  0  0  0  0
    9.8800  -37.3960   14.2740 C   0  0  0  0  0
   12.0020  -44.9650    8.0270 O   0  0  0  0  0
   11.2610  -42.3550   10.0250 C   0  0  0  0  0
   11.4500  -37.7220   16.1840 C   0  0  0  0  0
   10.9160  -38.3100   14.9080 C   0  0  0  0  0
   10.4450  -39.7290   15.1620 C   0  0  0  0  0
   12.0140  -42.6840    8.9150 C   0  0  0  0  0
    9.7830  -43.8160    8.0500 C   0  0  0  0  0
    5.9710  -40.7860   18.9820 C   0  0  0  0  0
   13.0330  -40.9910   10.8140 C   0  0  0  0  0
   13.7980  -41.3290    9.7200 C   0  0  0  0  0
   13.2840  -42.1730    8.7450 C   0  0  0  0  0
    5.4210  -39.8180   19.7060 F   0  0  0  0  0
    6.2610  -41.8720   19.7000 F   0  0  0  0  0
    5.2490  -41.0410   17.8930 F   0  0  0  0  0
    8.8100  -38.7380   21.6580 O   0  0  0  0  0
   11.6380  -40.5960   13.1340 N   0  0  0  0  0
   11.4050  -43.6650    7.8260 S   0  0  0  0  0
   11.7650  -43.1320    6.5510 O   0  0  0  0  0
    8.9567  -41.5444   11.3015 H   0  0  0  0  0
   10.3017  -39.0616   19.5234 H   0  0  0  0  0
    7.4892  -39.5684   13.8258 H   0  0  0  0  0
    7.4520  -41.1006   14.3775 H   0  0  0  0  0
    8.5045  -40.7498   21.3804 H   0  0  0  0  0
    7.0424  -39.6685   21.1809 H   0  0  0  0  0
    9.0503  -37.2539   14.9665 H   0  0  0  0  0
   10.3366  -36.4321   14.0494 H   0  0  0  0  0
    9.5128  -37.8489   13.3530 H   0  0  0  0  0
   10.2631  -42.7794   10.1353 H   0  0  0  0  0
   11.9168  -36.7601   15.9719 H   0  0  0  0  0
   10.6305  -37.5820   16.8889 H   0  0  0  0  0
   12.1886  -38.3989   16.6133 H   0  0  0  0  0
   11.7081  -38.3807   14.1625 H   0  0  0  0  0
   10.9864  -40.0913   16.0359 H   0  0  0  0  0
    9.3833  -44.5314    7.3313 H   0  0  0  0  0
    9.5887  -44.1693    9.0627 H   0  0  0  0  0
    9.3056  -42.8470    7.9040 H   0  0  0  0  0
   13.4435  -40.3074   11.5571 H   0  0  0  0  0
   14.8086  -40.9333    9.6195 H   0  0  0  0  0
   13.8720  -42.4268    7.8630 H   0  0  0  0  0
    8.6451  -38.7866   22.6025 H   0  0  0  0  0
  1  2  4  0  0  0
 14  1  1  0  0  0
  1 31  4  0  0  0
  2  8  4  0  0  0
  3  5  1  0  0  0
  7  3  1  0  0  0
 20  3  1  0  0  0
  4  9  4  0  0  0
 11  4  4  0  0  0
  5 11  4  0  0  0
  5 12  4  0  0  0
  6  9  4  0  0  0
 12  6  4  0  0  0
  6 23  1  0  0  0
  8  7  1  0  0  0
 13  8  4  0  0  0
  9 10  1  0  0  0
 10 30  1  0  0  0
 13 20  1  0  0  0
 31 13  4  0  0  0
 17 14  4  0  0  0
 14 24  4  0  0  0
 19 15  1  0  0  0
 32 16  2  0  0  0
 21 17  4  0  0  0
 19 18  1  0  0  0
 20 19  1  0  0  0
 21 26  4  0  0  0
 21 32  1  0  0  0
 32 22  1  0  0  0
 23 27  1  0  0  0
 23 28  1  0  0  0
 23 29  1  0  0  0
 24 25  4  0  0  0
 25 26  4  0  0  0
 32 33  2  0  0  0
  2 34  1  0  0  0
  4 35  1  0  0  0
  7 36  1  0  0  0
  7 37  1  0  0  0
 10 38  1  0  0  0
 10 39  1  0  0  0
 15 40  1  0  0  0
 15 41  1  0  0  0
 15 42  1  0  0  0
 17 43  1  0  0  0
 18 44  1  0  0  0
 18 45  1  0  0  0
 18 46  1  0  0  0
 19 47  1  0  0  0
 20 48  1  0  0  0
 22 49  1  0  0  0
 22 50  1  0  0  0
 22 51  1  0  0  0
 24 52  1  0  0  0
 25 53  1  0  0  0
 26 54  1  0  0  0
 30 55  1  0  0  0
M  END
$$$$
