5lvl_ligand
  -I-interpret- 

 24 27  0  0  0  0  0  0  0  0999 V2000
  -14.3780   -7.9830   -9.3630 C   0  0  0  0  0
  -13.5780   -7.0370   -8.7460 C   0  0  0  0  0
  -14.0670   -5.7800   -8.5110 C   0  0  0  0  0
  -15.4450   -5.4050   -8.8990 C   0  0  0  0  0
  -16.1990   -6.3990   -9.5040 C   0  0  0  0  0
  -15.6570   -7.6470   -9.7260 C   0  0  0  0  0
  -13.8610   -3.4650   -7.6460 C   0  0  0  0  0
  -12.9290   -2.6010   -6.9800 C   0  0  0  0  0
  -13.2890   -1.2950   -6.6390 C   0  0  0  0  0
  -14.6000   -0.9150   -7.0180 C   0  0  0  0  0
  -15.4890   -1.7720   -7.6640 C   0  0  0  0  0
  -15.1300   -3.0600   -7.9880 C   0  0  0  0  0
  -15.9830   -4.0480   -8.6390 C   0  0  0  0  0
  -13.3340   -4.7720   -7.8970 C   0  0  0  0  0
  -17.1520   -3.7150   -8.9890 O   0  0  0  0  0
  -12.0770   -4.7310   -7.3930 N   0  0  0  0  0
  -11.8700   -3.4420   -6.8150 N   0  0  0  0  0
  -13.9954   -8.9848   -9.5584 H   0  0  0  0  0
  -12.5611   -7.2921   -8.4479 H   0  0  0  0  0
  -17.2259   -6.1925   -9.8057 H   0  0  0  0  0
  -16.2741   -8.4021  -10.2129 H   0  0  0  0  0
  -12.6109   -0.6180   -6.1194 H   0  0  0  0  0
  -14.9302    0.0991   -6.7929 H   0  0  0  0  0
  -16.4873   -1.4152   -7.9173 H   0  0  0  0  0
  2  1  4  0  0  0
  1  6  4  0  0  0
  3  2  4  0  0  0
  3  4  4  0  0  0
 14  3  1  0  0  0
  4  5  4  0  0  0
  4 13  1  0  0  0
  5  6  4  0  0  0
  7  8  4  0  0  0
  7 12  4  0  0  0
  7 14  4  0  0  0
  8  9  4  0  0  0
  8 17  4  0  0  0
  9 10  4  0  0  0
 10 11  4  0  0  0
 11 12  4  0  0  0
 12 13  1  0  0  0
 13 15  2  0  0  0
 14 16  4  0  0  0
 16 17  4  0  0  0
  1 18  1  0  0  0
  2 19  1  0  0  0
  5 20  1  0  0  0
  6 21  1  0  0  0
  9 22  1  0  0  0
 10 23  1  0  0  0
 11 24  1  0  0  0
M  END
$$$$
