1w2k_ligand
  -I-interpret- 

 57 59  0  0  0  0  0  0  0  0999 V2000
   30.3400    6.7100   15.0520 C   0  0  0  0  0
   29.3360    7.3050   15.7410 N   0  0  0  0  0
   31.0110    5.8030   15.7980 N   0  0  0  0  0
   30.5660    6.8970   13.6060 C   0  0  0  0  0
   29.7360    7.7560   12.8270 C   0  0  0  0  0
   29.7840    7.7520   11.4310 C   0  0  0  0  0
   30.6720    6.8820   10.7800 C   0  0  0  0  0
   30.9540    6.9830    9.3970 N   0  0  0  0  0
   32.1720    6.2720    8.8890 C   0  0  0  0  0
   32.0320    5.8400    7.4840 C   0  0  0  0  0
   31.6530    6.7080    6.5150 N   0  0  0  0  0
   31.8630    6.0460    5.1950 C   0  0  0  0  0
   33.0760    6.6070    4.5110 C   0  0  0  0  0
   32.8430    7.7450    3.7500 C   0  0  0  0  0
   33.8150    8.7260    3.6590 C   0  0  0  0  0
   35.0290    8.5640    4.3200 C   0  0  0  0  0
   35.2950    7.3990    5.0330 C   0  0  0  0  0
   34.3150    6.4170    5.1120 C   0  0  0  0  0
   32.3920    4.7420    7.0860 O   0  0  0  0  0
   33.5420    6.9460    9.1030 C   0  0  0  0  0
   33.8560    8.2680    8.7430 C   0  0  0  0  0
   35.1750    8.7390    8.8960 C   0  0  0  0  0
   35.5840    9.9840    8.4470 O   0  0  0  0  0
   34.6260   10.8800    7.8900 C   0  0  0  0  0
   36.1770    7.9160    9.4180 C   0  0  0  0  0
   37.3910    8.5160    9.7640 O   0  0  0  0  0
   38.3870    7.8460   10.5560 C   0  0  0  0  0
   34.5650    6.1410    9.6010 C   0  0  0  0  0
   35.8680    6.6030    9.7650 C   0  0  0  0  0
   31.5080    6.0460   11.5460 C   0  0  0  0  0
   31.4620    6.0530   12.9360 C   0  0  0  0  0
   29.1622    7.0481   16.7127 H   0  0  0  0  0
   28.7542    8.0097   15.2878 H   0  0  0  0  0
   31.7142    5.2054   15.3636 H   0  0  0  0  0
   29.0473    8.4323   13.3333 H   0  0  0  0  0
   29.1399    8.4162   10.8547 H   0  0  0  0  0
   30.3525    7.5182    8.7708 H   0  0  0  0  0
   32.1982    5.4068    9.5514 H   0  0  0  0  0
   31.2881    7.6490    6.6624 H   0  0  0  0  0
   30.9895    6.2232    4.5675 H   0  0  0  0  0
   32.0093    4.9777    5.3544 H   0  0  0  0  0
   31.8955    7.8655    3.2248 H   0  0  0  0  0
   33.6299    9.6245    3.0703 H   0  0  0  0  0
   35.7771    9.3557    4.2789 H   0  0  0  0  0
   36.2586    7.2587    5.5227 H   0  0  0  0  0
   34.5193    5.4908    5.6492 H   0  0  0  0  0
   33.0823    8.9259    8.3472 H   0  0  0  0  0
   34.1631   10.4186    7.0177 H   0  0  0  0  0
   33.8612   11.1010    8.6345 H   0  0  0  0  0
   35.1235   11.8033    7.5933 H   0  0  0  0  0
   37.9638    7.5869   11.5265 H   0  0  0  0  0
   38.7068    6.9386   10.0437 H   0  0  0  0  0
   39.2427    8.5065   10.6960 H   0  0  0  0  0
   34.3361    5.1104    9.8724 H   0  0  0  0  0
   36.6396    5.9430   10.1615 H   0  0  0  0  0
   32.2056    5.3796   11.0386 H   0  0  0  0  0
   32.1241    5.4008   13.5054 H   0  0  0  0  0
  1  2  1  0  0  0
  1  3  2  0  0  0
  1  4  1  0  0  0
  4  5  4  0  0  0
  4 31  4  0  0  0
  5  6  4  0  0  0
  6  7  4  0  0  0
  7  8  1  0  0  0
  7 30  4  0  0  0
  8  9  1  0  0  0
  9 10  1  0  0  0
  9 20  1  0  0  0
 10 11  1  0  0  0
 10 19  2  0  0  0
 11 12  1  0  0  0
 12 13  1  0  0  0
 13 14  4  0  0  0
 13 18  4  0  0  0
 14 15  4  0  0  0
 15 16  4  0  0  0
 16 17  4  0  0  0
 17 18  4  0  0  0
 20 21  4  0  0  0
 20 28  4  0  0  0
 21 22  4  0  0  0
 22 23  1  0  0  0
 22 25  4  0  0  0
 23 24  1  0  0  0
 25 26  1  0  0  0
 25 29  4  0  0  0
 26 27  1  0  0  0
 28 29  4  0  0  0
 30 31  4  0  0  0
  2 32  1  0  0  0
  2 33  1  0  0  0
  3 34  1  0  0  0
  5 35  1  0  0  0
  6 36  1  0  0  0
  8 37  1  0  0  0
  9 38  1  0  0  0
 11 39  1  0  0  0
 12 40  1  0  0  0
 12 41  1  0  0  0
 14 42  1  0  0  0
 15 43  1  0  0  0
 16 44  1  0  0  0
 17 45  1  0  0  0
 18 46  1  0  0  0
 21 47  1  0  0  0
 24 48  1  0  0  0
 24 49  1  0  0  0
 24 50  1  0  0  0
 27 51  1  0  0  0
 27 52  1  0  0  0
 27 53  1  0  0  0
 28 54  1  0  0  0
 29 55  1  0  0  0
 30 56  1  0  0  0
 31 57  1  0  0  0
M  END
$$$$
