6fpu_ligand
  -I-interpret- 

 48 53  0  0  0  0  0  0  0  0999 V2000
   18.4500   17.6180   11.2590 C   0  0  0  0  0
   16.6170   20.5140   12.1290 C   0  0  0  0  0
   17.1670   21.0810   13.4150 C   0  0  0  0  0
   16.4290   19.2780   14.7860 C   0  0  0  0  0
   15.8270   16.7330   21.5700 C   0  0  0  0  0
   15.0420   16.5450   23.7620 C   0  0  0  0  0
   17.0740   17.9450   15.1850 C   0  0  0  0  0
   17.6020   17.8120   17.5740 C   0  0  0  0  0
   16.4420   17.2740   17.9130 N   0  0  0  0  0
   18.3320   17.8140   23.9200 O   0  0  0  0  0
   17.2940   17.3730   23.4450 C   0  0  0  0  0
   16.2290   17.0200   24.2430 N   0  0  0  0  0
   14.0870   16.2500   24.6490 N   0  0  0  0  0
   14.8140   16.3750   22.4620 N   0  0  0  0  0
   17.0620   17.2310   22.0090 C   0  0  0  0  0
   15.5520   16.6720   20.2010 C   0  0  0  0  0
   18.0330   17.6640   21.1090 C   0  0  0  0  0
   17.7310   17.6200   19.7590 C   0  0  0  0  0
   16.5030   17.1420   19.2990 C   0  0  0  0  0
   18.4220   18.0310   18.6270 N   0  0  0  0  0
   17.9490   18.1470   16.3290 N   0  0  0  0  0
   17.5360   19.9800   14.2520 O   0  0  0  0  0
   15.2340   19.1930   13.8290 C   0  0  0  0  0
   14.3980   20.2690   14.2410 O   0  0  0  0  0
   14.5880   20.4610   15.6450 C   0  0  0  0  0
   15.9150   19.9670   15.9170 O   0  0  0  0  0
   15.5890   19.4020   12.3640 C   0  0  0  0  0
   17.6800   19.8880   11.3920 O   0  0  0  0  0
   16.2370   18.2170   11.9150 O   0  0  0  0  0
   17.2970   18.5610   11.0260 C   0  0  0  0  0
   19.3008   17.9297   10.6531 H   0  0  0  0  0
   18.7264   17.6376   12.3132 H   0  0  0  0  0
   18.1535   16.6073   10.9786 H   0  0  0  0  0
   16.1555   21.3506   11.6044 H   0  0  0  0  0
   16.4171   21.6989   13.9089 H   0  0  0  0  0
   18.0331   21.7110   13.2125 H   0  0  0  0  0
   17.6566   17.5606   14.3478 H   0  0  0  0  0
   16.2940   17.2306   15.4483 H   0  0  0  0  0
   14.2584   16.3820   25.6458 H   0  0  0  0  0
   13.9281   15.9955   22.1280 H   0  0  0  0  0
   14.6068   16.2625   19.8446 H   0  0  0  0  0
   19.0004   18.0261   21.4570 H   0  0  0  0  0
   18.8674   18.5625   16.1735 H   0  0  0  0  0
   14.7885   18.1995   13.8804 H   0  0  0  0  0
   13.8344   19.9328   16.2291 H   0  0  0  0  0
   14.4833   21.5090   15.9257 H   0  0  0  0  0
   14.6614   19.6558   11.8509 H   0  0  0  0  0
   17.0039   18.4982    9.9780 H   0  0  0  0  0
 30  1  1  0  0  0
  2  3  1  0  0  0
  2 27  1  0  0  0
 28  2  1  0  0  0
  3 22  1  0  0  0
  4  7  1  0  0  0
 22  4  1  0  0  0
 23  4  1  0  0  0
  4 26  1  0  0  0
  5 14  1  0  0  0
 15  5  4  0  0  0
 16  5  4  0  0  0
 12  6  4  0  0  0
  6 13  2  0  0  0
 14  6  1  0  0  0
  7 21  1  0  0  0
  8  9  4  0  0  0
  8 20  4  0  0  0
 21  8  1  0  0  0
  9 19  4  0  0  0
 11 10  2  0  0  0
 11 12  1  0  0  0
 15 11  1  0  0  0
 17 15  4  0  0  0
 19 16  4  0  0  0
 18 17  4  0  0  0
 18 19  4  0  0  0
 20 18  4  0  0  0
 23 24  1  0  0  0
 27 23  1  0  0  0
 24 25  1  0  0  0
 25 26  1  0  0  0
 27 29  1  0  0  0
 28 30  1  0  0  0
 29 30  1  0  0  0
  1 31  1  0  0  0
  1 32  1  0  0  0
  1 33  1  0  0  0
  2 34  1  0  0  0
  3 35  1  0  0  0
  3 36  1  0  0  0
  7 37  1  0  0  0
  7 38  1  0  0  0
 13 39  1  0  0  0
 14 40  1  0  0  0
 16 41  1  0  0  0
 17 42  1  0  0  0
 21 43  1  0  0  0
 23 44  1  0  0  0
 25 45  1  0  0  0
 25 46  1  0  0  0
 27 47  1  0  0  0
 30 48  1  0  0  0
M  END
$$$$
