6hm1_ligand
  -I-interpret- 

 85 88  0  0  0  0  0  0  0  0999 V2000
   22.8340   -4.0980  -13.7940 C   0  0  0  0  0
   24.2570   -4.4550  -13.4310 C   0  0  0  0  0
   25.2160   -3.5360  -14.2200 C   0  0  0  0  0
   24.8790   -3.4710  -15.6890 C   0  0  0  0  0
   23.3860   -3.2330  -15.9410 C   0  0  0  0  0
   22.9540   -3.5790  -17.4200 C   0  0  0  0  0
   24.5390   -5.4860  -11.2570 C   0  0  0  0  0
   24.7820   -5.3350   -9.7720 C   0  0  0  0  0
   24.4740   -4.4040  -11.9990 N   0  0  0  0  0
   25.1000   -2.2550  -13.6700 O   0  0  0  0  0
   25.7340   -2.4730  -16.2580 O   0  0  0  0  0
   22.6110   -4.1110  -15.1770 O   0  0  0  0  0
   23.3560   -4.9280  -17.9360 O   0  0  0  0  0
   24.4160   -6.5610  -11.6790 O   0  0  0  0  0
   18.1000   -5.7540  -12.3890 C   0  0  0  0  0
   18.4070   -5.8770  -13.8630 C   0  0  0  0  0
   19.9110   -5.9010  -14.0010 C   0  0  0  0  0
   20.6020   -4.7540  -13.2710 C   0  0  0  0  0
   20.0790   -4.6320  -11.8450 C   0  0  0  0  0
   20.5470   -3.4060  -11.0970 C   0  0  0  0  0
   16.7500   -6.9510  -15.2200 C   0  0  0  0  0
   16.1540   -8.2520  -15.6520 C   0  0  0  0  0
   17.7860   -7.0640  -14.3850 N   0  0  0  0  0
   20.3620   -7.0950  -13.4500 O   0  0  0  0  0
   21.9910   -5.0580  -13.2260 O   0  0  0  0  0
   18.6840   -4.5970  -11.8600 O   0  0  0  0  0
   20.0940   -3.3640   -9.7830 O   0  0  0  0  0
   16.2920   -5.9550  -15.6230 O   0  0  0  0  0
   14.1890   -6.4580   -9.8150 C   0  0  0  0  0
   15.1320   -5.6050   -8.9390 C   0  0  0  0  0
   16.0120   -4.9140   -9.9700 C   0  0  0  0  0
   16.1510   -5.9710  -11.0520 C   0  0  0  0  0
   14.7180   -6.4410  -11.2280 C   0  0  0  0  0
   14.5240   -7.7710  -11.9520 C   0  0  0  0  0
   13.0190   -4.8570   -8.7180 C   0  0  0  0  0
   12.0490   -3.3330   -7.1800 C   0  0  0  0  0
   10.6460   -4.4030   -8.8140 C   0  0  0  0  0
   14.1760   -4.7150   -8.2740 N   0  0  0  0  0
   11.9700   -4.2340   -8.2790 N   0  0  0  0  0
   17.2690   -4.5850   -9.4290 O   0  0  0  0  0
   16.7180   -5.6490  -12.2910 O   0  0  0  0  0
   15.1920   -8.8180  -11.3360 O   0  0  0  0  0
   12.9370   -5.8650   -9.7240 O   0  0  0  0  0
   22.6401   -3.0906  -13.4257 H   0  0  0  0  0
   24.4609   -5.4877  -13.7138 H   0  0  0  0  0
   26.2281   -3.9333  -14.1437 H   0  0  0  0  0
   25.0609   -4.4287  -16.1767 H   0  0  0  0  0
   23.2324   -2.1803  -15.7039 H   0  0  0  0  0
   23.4534   -2.8504  -18.0586 H   0  0  0  0  0
   21.8641   -3.5656  -17.4271 H   0  0  0  0  0
   23.9439   -5.7637   -9.2225 H   0  0  0  0  0
   25.7004   -5.8556   -9.5006 H   0  0  0  0  0
   24.8762   -4.2772   -9.5263 H   0  0  0  0  0
   24.5802   -3.4940  -11.5506 H   0  0  0  0  0
   25.3132   -2.2891  -12.7346 H   0  0  0  0  0
   26.6489   -2.6868  -16.0608 H   0  0  0  0  0
   23.0437   -5.0304  -18.8380 H   0  0  0  0  0
   18.4904   -6.6102  -11.8389 H   0  0  0  0  0
   18.0099   -5.0399  -14.4372 H   0  0  0  0  0
   20.1501   -5.8014  -15.0598 H   0  0  0  0  0
   20.4110   -3.8145  -13.7895 H   0  0  0  0  0
   20.4780   -5.5031  -11.3253 H   0  0  0  0  0
   20.1503   -2.5314  -11.6126 H   0  0  0  0  0
   21.6365   -3.4288  -11.0716 H   0  0  0  0  0
   15.1079   -8.2897  -15.3481 H   0  0  0  0  0
   16.2220   -8.3391  -16.7364 H   0  0  0  0  0
   16.6990   -9.0726  -15.1854 H   0  0  0  0  0
   18.1341   -7.9853  -14.1196 H   0  0  0  0  0
   21.3182   -7.1390  -13.5234 H   0  0  0  0  0
   20.4205   -2.5673   -9.3584 H   0  0  0  0  0
   14.1265   -7.4985   -9.4962 H   0  0  0  0  0
   15.7733   -6.0818   -8.1977 H   0  0  0  0  0
   15.5949   -3.9732  -10.3291 H   0  0  0  0  0
   16.8917   -6.6952  -10.7129 H   0  0  0  0  0
   14.1763   -5.7752  -11.8999 H   0  0  0  0  0
   14.9252   -7.6650  -12.9599 H   0  0  0  0  0
   13.4591   -8.0034  -11.9453 H   0  0  0  0  0
   12.4102   -3.8657   -6.3003 H   0  0  0  0  0
   12.7370   -2.5236   -7.4241 H   0  0  0  0  0
   11.0601   -2.9221   -6.9769 H   0  0  0  0  0
   10.6433   -4.1255   -9.8681 H   0  0  0  0  0
   10.3440   -5.4452   -8.7105 H   0  0  0  0  0
    9.9506   -3.7659   -8.2675 H   0  0  0  0  0
   17.8014   -4.1515  -10.1000 H   0  0  0  0  0
   15.0384   -9.6278  -11.8282 H   0  0  0  0  0
  1  2  1  0  0  0
  1 12  1  0  0  0
 25  1  1  0  0  0
  2  3  1  0  0  0
  2  9  1  0  0  0
  3  4  1  0  0  0
  3 10  1  0  0  0
  5  4  1  0  0  0
  4 11  1  0  0  0
  5  6  1  0  0  0
 12  5  1  0  0  0
  6 13  1  0  0  0
  7  8  1  0  0  0
  9  7  1  0  0  0
  7 14  2  0  0  0
 15 16  1  0  0  0
 15 26  1  0  0  0
 41 15  1  0  0  0
 16 17  1  0  0  0
 16 23  1  0  0  0
 17 18  1  0  0  0
 17 24  1  0  0  0
 19 18  1  0  0  0
 18 25  1  0  0  0
 19 20  1  0  0  0
 26 19  1  0  0  0
 20 27  1  0  0  0
 21 22  1  0  0  0
 23 21  1  0  0  0
 21 28  2  0  0  0
 29 30  1  0  0  0
 33 29  1  0  0  0
 29 43  1  0  0  0
 31 30  1  0  0  0
 30 38  1  0  0  0
 32 31  1  0  0  0
 31 40  1  0  0  0
 32 33  1  0  0  0
 32 41  1  0  0  0
 33 34  1  0  0  0
 34 42  1  0  0  0
 38 35  2  0  0  0
 35 39  1  0  0  0
 35 43  1  0  0  0
 39 36  1  0  0  0
 39 37  1  0  0  0
  1 44  1  0  0  0
  2 45  1  0  0  0
  3 46  1  0  0  0
  4 47  1  0  0  0
  5 48  1  0  0  0
  6 49  1  0  0  0
  6 50  1  0  0  0
  8 51  1  0  0  0
  8 52  1  0  0  0
  8 53  1  0  0  0
  9 54  1  0  0  0
 10 55  1  0  0  0
 11 56  1  0  0  0
 13 57  1  0  0  0
 15 58  1  0  0  0
 16 59  1  0  0  0
 17 60  1  0  0  0
 18 61  1  0  0  0
 19 62  1  0  0  0
 20 63  1  0  0  0
 20 64  1  0  0  0
 22 65  1  0  0  0
 22 66  1  0  0  0
 22 67  1  0  0  0
 23 68  1  0  0  0
 24 69  1  0  0  0
 27 70  1  0  0  0
 29 71  1  0  0  0
 30 72  1  0  0  0
 31 73  1  0  0  0
 32 74  1  0  0  0
 33 75  1  0  0  0
 34 76  1  0  0  0
 34 77  1  0  0  0
 36 78  1  0  0  0
 36 79  1  0  0  0
 36 80  1  0  0  0
 37 81  1  0  0  0
 37 82  1  0  0  0
 37 83  1  0  0  0
 40 84  1  0  0  0
 42 85  1  0  0  0
M  END
$$$$
