4zx6_ligand
  -I-interpret- 

 52 53  0  0  0  0  0  0  0  0999 V2000
   93.4650  117.2830   11.2420 C   0  0  0  0  0
   92.0210  117.5190   10.7980 C   0  0  0  0  0
   91.1490  116.3370   11.2280 C   0  0  0  0  0
   91.9800  117.6580    9.2730 C   0  0  0  0  0
   91.4940  118.8120   11.4230 C   0  0  0  0  0
   92.2380  119.7770   11.5910 O   0  0  0  0  0
   90.1950  118.8150   11.7500 N   0  0  0  0  0
   89.5650  120.0180   12.3150 C   0  0  0  0  0
   88.5220  120.5220   11.3130 C   0  0  0  0  0
   87.4570  119.9290   11.1480 O   0  0  0  0  0
   88.8870  121.6180   10.6340 N   0  0  0  0  0
   87.9550  122.1400    9.6650 O   0  0  0  0  0
   88.9860  119.7880   13.5650 C   0  0  0  0  0
   88.2330  120.7990   14.1530 C   0  0  0  0  0
   87.6500  120.6090   15.4000 C   0  0  0  0  0
   89.1620  118.5830   14.2370 C   0  0  0  0  0
   88.5790  118.3920   15.4880 C   0  0  0  0  0
   87.8200  119.4030   16.0700 C   0  0  0  0  0
   87.2400  119.2240   17.3240 C   0  0  0  0  0
   87.6760  118.1990   18.1560 C   0  0  0  0  0
   86.2340  120.0810   17.7560 C   0  0  0  0  0
   85.6580  119.9080   19.0120 C   0  0  0  0  0
   86.0930  118.8800   19.8400 C   0  0  0  0  0
   87.1020  118.0250   19.4120 C   0  0  0  0  0
   87.5380  116.9970   20.2420 C   0  0  0  0  0
   87.0810  116.9550   21.4910 N   0  0  0  0  0
   88.4110  116.1080   19.7520 N   0  0  0  0  0
   88.8530  115.0490   20.6520 O   0  0  0  0  0
   94.0844  118.1197   10.9191 H   0  0  0  0  0
   93.5009  117.2007   12.3283 H   0  0  0  0  0
   93.8354  116.3609   10.7941 H   0  0  0  0  0
   91.1717  116.2465   12.3140 H   0  0  0  0  0
   90.1239  116.5042   10.8974 H   0  0  0  0  0
   91.5326  115.4214   10.7778 H   0  0  0  0  0
   90.9528  117.8327    8.9529 H   0  0  0  0  0
   92.6045  118.4981    8.9691 H   0  0  0  0  0
   92.3536  116.7418    8.8158 H   0  0  0  0  0
   89.6366  117.9737   11.6056 H   0  0  0  0  0
   90.3347  120.7719   12.4804 H   0  0  0  0  0
   89.7890  122.0658   10.7962 H   0  0  0  0  0
   88.3303  122.9198    9.2494 H   0  0  0  0  0
   88.0993  121.7470   13.6319 H   0  0  0  0  0
   87.0595  121.4055   15.8527 H   0  0  0  0  0
   89.7558  117.7884   13.7851 H   0  0  0  0  0
   88.7179  117.4469   16.0130 H   0  0  0  0  0
   88.4696  117.5298   17.8237 H   0  0  0  0  0
   85.8952  120.8907   17.1097 H   0  0  0  0  0
   84.8662  120.5787   19.3456 H   0  0  0  0  0
   85.6435  118.7444   20.8237 H   0  0  0  0  0
   86.4271  117.6658   21.8190 H   0  0  0  0  0
   88.7516  116.1687   18.7925 H   0  0  0  0  0
   89.4725  114.4776   20.1922 H   0  0  0  0  0
  1  2  1  0  0  0
  2  3  1  0  0  0
  2  4  1  0  0  0
  2  5  1  0  0  0
  5  6  2  0  0  0
  5  7  1  0  0  0
  7  8  1  0  0  0
  8  9  1  0  0  0
  8 13  1  0  0  0
  9 10  2  0  0  0
  9 11  1  0  0  0
 11 12  1  0  0  0
 13 14  4  0  0  0
 13 16  4  0  0  0
 14 15  4  0  0  0
 15 18  4  0  0  0
 16 17  4  0  0  0
 17 18  4  0  0  0
 18 19  1  0  0  0
 19 20  4  0  0  0
 19 21  4  0  0  0
 20 24  4  0  0  0
 21 22  4  0  0  0
 22 23  4  0  0  0
 23 24  4  0  0  0
 24 25  1  0  0  0
 25 26  2  0  0  0
 25 27  1  0  0  0
 27 28  1  0  0  0
  1 29  1  0  0  0
  1 30  1  0  0  0
  1 31  1  0  0  0
  3 32  1  0  0  0
  3 33  1  0  0  0
  3 34  1  0  0  0
  4 35  1  0  0  0
  4 36  1  0  0  0
  4 37  1  0  0  0
  7 38  1  0  0  0
  8 39  1  0  0  0
 11 40  1  0  0  0
 12 41  1  0  0  0
 14 42  1  0  0  0
 15 43  1  0  0  0
 16 44  1  0  0  0
 17 45  1  0  0  0
 20 46  1  0  0  0
 21 47  1  0  0  0
 22 48  1  0  0  0
 23 49  1  0  0  0
 26 50  1  0  0  0
 27 51  1  0  0  0
 28 52  1  0  0  0
M  END
$$$$
