2bes_ligand
  -I-interpret- 

 24 23  0  0  0  0  0  0  0  0999 V2000
   30.5130  -11.4690   16.4630 O   0  0  0  0  0
   29.2420  -12.2410   16.2280 P   0  0  0  0  0
   28.8470  -13.1710   17.3450 O   0  0  0  0  0
   29.1700  -12.8640   14.8550 O   0  0  0  0  0
   28.0880  -11.1230   16.2340 O   0  0  0  0  0
   28.0510  -10.1170   15.2250 C   0  0  0  0  0
   26.6670   -9.4860   15.2190 C   0  0  0  0  0
   26.4600   -8.7970   16.4440 O   0  0  0  0  0
   26.4800   -8.5020   14.0680 C   0  0  0  0  0
   26.8220   -9.1040   12.8270 O   0  0  0  0  0
   25.0430   -8.0730   14.0590 C   0  0  0  0  0
   24.1510   -8.9040   13.9880 O   0  0  0  0  0
   24.8010   -6.7720   14.1530 N   0  0  0  0  0
   23.4690   -6.3490   14.1590 O   0  0  0  0  0
   28.0307  -13.6197   17.1128 H   0  0  0  0  0
   28.3416  -13.3406   14.7641 H   0  0  0  0  0
   28.2610  -10.5600   14.2515 H   0  0  0  0  0
   28.8045   -9.3568   15.4312 H   0  0  0  0  0
   25.9439  -10.2918   15.0929 H   0  0  0  0  0
   26.5752   -9.4069   17.1763 H   0  0  0  0  0
   27.1345   -7.6413   14.2054 H   0  0  0  0  0
   26.6969   -8.4680   12.1189 H   0  0  0  0  0
   25.5652   -6.0997   14.2190 H   0  0  0  0  0
   23.4386   -5.3922   14.2310 H   0  0  0  0  0
  1  2  2  0  0  0
  2  3  1  0  0  0
  2  4  1  0  0  0
  2  5  1  0  0  0
  5  6  1  0  0  0
  6  7  1  0  0  0
  7  8  1  0  0  0
  7  9  1  0  0  0
  9 10  1  0  0  0
  9 11  1  0  0  0
 11 12  2  0  0  0
 11 13  1  0  0  0
 13 14  1  0  0  0
  3 15  1  0  0  0
  4 16  1  0  0  0
  6 17  1  0  0  0
  6 18  1  0  0  0
  7 19  1  0  0  0
  8 20  1  0  0  0
  9 21  1  0  0  0
 10 22  1  0  0  0
 13 23  1  0  0  0
 14 24  1  0  0  0
M  END
$$$$
