1f4e_ligand
  -I-interpret- 

 33 34  0  0  0  0  0  0  0  0999 V2000
   38.0050   61.0350   78.5880 C   0  0  0  0  0
   38.3900   59.9010   77.8630 C   0  0  0  0  0
   38.3030   58.6360   78.4640 C   0  0  0  0  0
   37.8390   58.4910   79.7770 C   0  0  0  0  0
   37.4760   59.6340   80.4790 C   0  0  0  0  0
   37.5440   60.8970   79.8990 C   0  0  0  0  0
   38.9080   60.0060   76.4330 C   0  0  0  0  0
   36.8630   59.5010   82.1190 S   0  0  0  0  0
   37.4950   60.6150   83.0490 O   0  0  0  0  0
   37.2030   58.0690   82.7100 O   0  0  0  0  0
   35.1210   59.7520   82.1440 N   0  0  0  0  0
   34.5120   60.0170   80.8280 C   0  0  0  0  0
   33.4720   58.9200   80.6770 C   0  0  0  0  0
   33.0440   58.6100   82.1100 C   0  0  0  0  0
   34.2970   58.8680   82.9760 C   0  0  0  0  0
   34.0590   59.4180   84.3980 C   0  0  0  0  0
   33.8350   58.6810   85.3640 O   0  0  0  0  0
   34.1160   60.7720   84.5760 O   0  0  0  0  0
   38.0649   62.0226   78.1307 H   0  0  0  0  0
   38.6013   57.7524   77.8998 H   0  0  0  0  0
   37.7643   57.5058   80.2372 H   0  0  0  0  0
   37.2383   61.7761   80.4663 H   0  0  0  0  0
   38.1412   60.4557   75.8023 H   0  0  0  0  0
   39.8036   60.6271   76.4170 H   0  0  0  0  0
   39.1483   59.0100   76.0609 H   0  0  0  0  0
   35.2464   60.0039   80.0226 H   0  0  0  0  0
   34.0735   61.0131   80.7686 H   0  0  0  0  0
   33.8705   58.0426   80.1677 H   0  0  0  0  0
   32.6327   59.2316   80.0552 H   0  0  0  0  0
   32.6924   57.5831   82.2099 H   0  0  0  0  0
   32.2061   59.2336   82.4217 H   0  0  0  0  0
   34.7792   57.9220   83.2222 H   0  0  0  0  0
   34.2968   61.1969   83.7344 H   0  0  0  0  0
  6  1  4  0  0  0
  1  2  4  0  0  0
  2  7  1  0  0  0
  2  3  4  0  0  0
  3  4  4  0  0  0
  4  5  4  0  0  0
  5  8  1  0  0  0
  5  6  4  0  0  0
  8 11  1  0  0  0
  8 10  2  0  0  0
  8  9  2  0  0  0
 11 15  1  0  0  0
 11 12  1  0  0  0
 12 13  1  0  0  0
 13 14  1  0  0  0
 14 15  1  0  0  0
 15 16  1  0  0  0
 16 18  1  0  0  0
 16 17  2  0  0  0
  1 19  1  0  0  0
  3 20  1  0  0  0
  4 21  1  0  0  0
  6 22  1  0  0  0
  7 23  1  0  0  0
  7 24  1  0  0  0
  7 25  1  0  0  0
 12 26  1  0  0  0
 12 27  1  0  0  0
 13 28  1  0  0  0
 13 29  1  0  0  0
 14 30  1  0  0  0
 14 31  1  0  0  0
 15 32  1  0  0  0
 18 33  1  0  0  0
M  END
$$$$
