5jss_ligand
  -I-interpret- 

 69 69  0  0  0  0  0  0  0  0999 V2000
   16.2450   41.3290  -10.6690 C   0  0  0  0  0
   17.5040   40.9890  -11.1670 C   0  0  0  0  0
   17.6000   40.4470  -12.4540 C   0  0  0  0  0
   13.7080   41.5580  -10.8330 C   0  0  0  0  0
   12.6700   40.8590   -8.7950 C   0  0  0  0  0
   11.9870   40.0840   -6.6390 C   0  0  0  0  0
    9.3260   37.9270   -1.1540 C   0  0  0  0  0
    9.5930   38.3230    0.3020 C   0  0  0  0  0
    9.1860   36.4180   -1.3080 C   0  0  0  0  0
    8.8870   39.2570   -3.8550 C   0  0  0  0  0
    8.4460   42.6890   -2.0630 C   0  0  0  0  0
   11.3000   38.8690   -4.2390 N   0  0  0  0  0
   10.1020   38.3940   -3.5700 C   0  0  0  0  0
    9.1030   40.5580   -4.0400 N   0  0  0  0  0
    7.9970   41.4770   -4.2730 C   0  0  0  0  0
    8.2290   42.8250   -3.5820 C   0  0  0  0  0
    7.0880   43.8390   -3.9540 C   0  0  0  0  0
    5.7290   43.4070   -3.3440 C   0  0  0  0  0
    6.8410   43.8920   -5.4950 C   0  0  0  0  0
    7.4330   45.2590   -3.4600 C   0  0  0  0  0
    7.7640   38.7490   -3.8570 O   0  0  0  0  0
   10.4260   38.4590   -2.0690 C   0  0  0  0  0
   11.5170   38.4810   -5.9290 P   0  0  0  0  0
   15.0680   41.1570  -11.4260 C   0  0  0  0  0
   15.1610   40.6300  -12.6990 C   0  0  0  0  0
   16.4240   40.2820  -13.2030 C   0  0  0  0  0
   10.1790   38.0580   -6.4940 O   0  0  0  0  0
   12.5920   37.4680   -6.1500 O   0  0  0  0  0
   12.7420   39.9390   -7.8550 N   0  0  0  0  0
   13.5360   40.5550   -9.7690 O   0  0  0  0  0
   12.0200   41.8900   -8.7400 O   0  0  0  0  0
   16.1694   41.7407   -9.6626 H   0  0  0  0  0
   18.3983   41.1432  -10.5632 H   0  0  0  0  0
   18.5672   40.1591  -12.8660 H   0  0  0  0  0
   12.8993   41.5578  -11.5638 H   0  0  0  0  0
   13.6795   42.5851  -10.4693 H   0  0  0  0  0
   12.6098   40.6070   -5.9133 H   0  0  0  0  0
   11.0744   40.6335   -6.8698 H   0  0  0  0  0
    8.3791   38.3795   -1.4485 H   0  0  0  0  0
    8.7644   37.9882    0.9260 H   0  0  0  0  0
   10.5171   37.8547    0.6409 H   0  0  0  0  0
    9.6868   39.4068    0.3711 H   0  0  0  0  0
   10.1067   35.9339   -0.9824 H   0  0  0  0  0
    8.3540   36.0674   -0.6973 H   0  0  0  0  0
    8.9975   36.1768   -2.3541 H   0  0  0  0  0
    7.5665   42.2301   -1.6113 H   0  0  0  0  0
    9.3196   42.0644   -1.8766 H   0  0  0  0  0
    8.6049   43.6767   -1.6301 H   0  0  0  0  0
   11.9979   39.4159   -3.7348 H   0  0  0  0  0
    9.8511   37.3927   -3.9201 H   0  0  0  0  0
   10.0577   40.9165   -4.0182 H   0  0  0  0  0
    7.0886   41.0330   -3.8659 H   0  0  0  0  0
    7.9129   41.6498   -5.3459 H   0  0  0  0  0
    9.1652   43.2348   -3.9612 H   0  0  0  0  0
    5.4572   42.4229   -3.7259 H   0  0  0  0  0
    5.8163   43.3654   -2.2583 H   0  0  0  0  0
    4.9618   44.1301   -3.6206 H   0  0  0  0  0
    7.7560   44.2051   -5.9978 H   0  0  0  0  0
    6.5504   42.9030   -5.8493 H   0  0  0  0  0
    6.0448   44.6047   -5.7097 H   0  0  0  0  0
    7.5526   45.2464   -2.3767 H   0  0  0  0  0
    8.3618   45.5886   -3.9256 H   0  0  0  0  0
    6.6275   45.9419   -3.7299 H   0  0  0  0  0
   11.3033   37.8328   -1.9069 H   0  0  0  0  0
   10.5639   39.5112   -1.8200 H   0  0  0  0  0
   14.2659   40.4862  -13.3042 H   0  0  0  0  0
   16.4941   39.8698  -14.2096 H   0  0  0  0  0
    9.5296   38.7441   -6.3235 H   0  0  0  0  0
   13.3355   39.1205   -7.9898 H   0  0  0  0  0
  1  2  4  0  0  0
 24  1  4  0  0  0
  2  3  4  0  0  0
  3 26  4  0  0  0
  4 24  1  0  0  0
 30  4  1  0  0  0
 29  5  1  0  0  0
  5 30  1  0  0  0
  5 31  2  0  0  0
 23  6  1  0  0  0
  6 29  1  0  0  0
  7  8  1  0  0  0
  7  9  1  0  0  0
 22  7  1  0  0  0
 10 13  1  0  0  0
 14 10  1  0  0  0
 10 21  2  0  0  0
 16 11  1  0  0  0
 13 12  1  0  0  0
 12 23  1  0  0  0
 13 22  1  0  0  0
 15 14  1  0  0  0
 15 16  1  0  0  0
 16 17  1  0  0  0
 17 18  1  0  0  0
 17 19  1  0  0  0
 17 20  1  0  0  0
 23 27  1  0  0  0
 23 28  2  0  0  0
 24 25  4  0  0  0
 25 26  4  0  0  0
  1 32  1  0  0  0
  2 33  1  0  0  0
  3 34  1  0  0  0
  4 35  1  0  0  0
  4 36  1  0  0  0
  6 37  1  0  0  0
  6 38  1  0  0  0
  7 39  1  0  0  0
  8 40  1  0  0  0
  8 41  1  0  0  0
  8 42  1  0  0  0
  9 43  1  0  0  0
  9 44  1  0  0  0
  9 45  1  0  0  0
 11 46  1  0  0  0
 11 47  1  0  0  0
 11 48  1  0  0  0
 12 49  1  0  0  0
 13 50  1  0  0  0
 14 51  1  0  0  0
 15 52  1  0  0  0
 15 53  1  0  0  0
 16 54  1  0  0  0
 18 55  1  0  0  0
 18 56  1  0  0  0
 18 57  1  0  0  0
 19 58  1  0  0  0
 19 59  1  0  0  0
 19 60  1  0  0  0
 20 61  1  0  0  0
 20 62  1  0  0  0
 20 63  1  0  0  0
 22 64  1  0  0  0
 22 65  1  0  0  0
 25 66  1  0  0  0
 26 67  1  0  0  0
 27 68  1  0  0  0
 29 69  1  0  0  0
M  END
$$$$
