1yhm_ligand
  -I-interpret- 

 28 27  0  0  0  0  0  0  0  0999 V2000
   47.0230   51.2700  203.1580 C   0  0  0  0  0
   45.9150   51.7140  204.1540 C   0  0  0  0  0
   47.8500   49.9690  203.4470 C   0  0  0  0  0
   48.5620   49.5930  204.6830 C   0  0  0  0  0
   50.8780   48.8260  203.2870 O   0  0  0  0  0
   49.7640   48.3130  204.1400 P   0  0  0  0  0
   49.0010   47.2870  203.2250 O   0  0  0  0  0
   50.2800   47.5420  205.3730 O   0  0  0  0  0
   49.4940   50.8860  205.5950 P   0  0  0  0  0
   50.3460   51.2240  204.4480 O   0  0  0  0  0
   50.1900   50.3130  206.7770 O   0  0  0  0  0
   48.4420   52.1010  205.5440 O   0  0  0  0  0
   47.7810   49.0060  205.5000 O   0  0  0  0  0
   45.0170   52.7030  203.5480 N   0  3  0  0  0
   47.7573   52.0751  203.1861 H   0  0  0  0  0
   46.4908   51.0578  202.2307 H   0  0  0  0  0
   46.3918   52.1659  205.0238 H   0  0  0  0  0
   45.3286   50.8385  204.4328 H   0  0  0  0  0
   48.6849   50.0972  202.7581 H   0  0  0  0  0
   47.0637   49.2145  203.4234 H   0  0  0  0  0
   48.2634   46.9124  203.7121 H   0  0  0  0  0
   49.5333   47.2317  205.8905 H   0  0  0  0  0
   49.5481   50.1283  207.4665 H   0  0  0  0  0
   47.8081   52.0041  206.2584 H   0  0  0  0  0
   47.2866   48.3263  205.0361 H   0  0  0  0  0
   44.3036   52.9728  204.2253 H   0  0  0  0  0
   45.5546   53.5250  203.2729 H   0  0  0  0  0
   44.5706   52.2964  202.7259 H   0  0  0  0  0
  1  2  1  0  0  0
  1  3  1  0  0  0
  2 14  1  0  0  0
  3  4  1  0  0  0
  4  6  1  0  0  0
  4  9  1  0  0  0
  4 13  1  0  0  0
  6  5  2  0  0  0
  6  7  1  0  0  0
  6  8  1  0  0  0
  9 10  2  0  0  0
  9 11  1  0  0  0
  9 12  1  0  0  0
  1 15  1  0  0  0
  1 16  1  0  0  0
  2 17  1  0  0  0
  2 18  1  0  0  0
  3 19  1  0  0  0
  3 20  1  0  0  0
  7 21  1  0  0  0
  8 22  1  0  0  0
 11 23  1  0  0  0
 12 24  1  0  0  0
 13 25  1  0  0  0
 14 26  1  0  0  0
 14 27  1  0  0  0
 14 28  1  0  0  0
M  END
$$$$
