### 
### Created by X-TOOL on Mon Sep 10 21:12:53 2018
### 

@<TRIPOS>MOLECULE
1yhm_ligand
   24    23     1     0     0
SMALL
GAST_HUCK


@<TRIPOS>ATOM
      1 C2         47.0230   51.2700  203.1580 C.3       1 AHD        -0.0072
      2 C3         45.9150   51.7140  204.1540 C.3       1 AHD        -0.0352
      3 C7         47.8500   49.9690  203.4470 C.3       1 AHD         0.0157
      4 C8         48.5620   49.5930  204.6830 C.3       1 AHD         0.2436
      5 O12        50.8780   48.8260  203.2870 O.2       1 AHD        -0.4430
      6 P9         49.7640   48.3130  204.1400 P.3       1 AHD         0.2385
      7 O10        49.0010   47.2870  203.2250 O.co2     1 AHD        -0.4430
      8 O11        50.2800   47.5420  205.3730 O.co2     1 AHD        -0.4430
      9 P14        49.4940   50.8860  205.5950 P.3       1 AHD         0.2385
     10 O15        50.3460   51.2240  204.4480 O.2       1 AHD        -0.4430
     11 O16        50.1900   50.3130  206.7770 O.co2     1 AHD        -0.4430
     12 O17        48.4420   52.1010  205.5440 O.co2     1 AHD        -0.4430
     13 O13        47.7810   49.0060  205.5000 O.3       1 AHD        -0.3571
     14 N4         45.0170   52.7030  203.5480 N.4       1 AHD         0.2185
     15 H1         47.7438   52.0983  203.0922 H         1 AHD         0.0319
     16 H2         46.5366   51.1287  202.1816 H         1 AHD         0.0319
     17 H3         46.3887   52.1574  205.0423 H         1 AHD         0.0813
     18 H4         45.3280   50.8330  204.4527 H         1 AHD         0.0813
     19 H5         48.6246   49.9543  202.6661 H         1 AHD         0.0325
     20 H6         47.1405   49.1462  203.2752 H         1 AHD         0.0325
     21 H7         48.2846   48.6708  206.2325 H         1 AHD         0.2134
     22 H8         44.3115   52.9704  204.2165 H         1 AHD         0.1994
     23 H9         44.5752   52.3023  202.7354 H         1 AHD         0.1994
     24 H10        45.5471   53.5159  203.2757 H         1 AHD         0.1994
@<TRIPOS>BOND
     1    1    2 1  
     2    1    3 1  
     3    2   14 1  
     4    3    4 1  
     5    4    6 1  
     6    4    9 1  
     7    4   13 1  
     8    6    5 2  
     9    6    7 ar 
    10    6    8 ar 
    11    9   10 2  
    12    9   11 ar 
    13    9   12 ar 
    14    1   15 1  
    15    1   16 1  
    16    2   17 1  
    17    2   18 1  
    18    3   19 1  
    19    3   20 1  
    20   13   21 1  
    21   14   22 1  
    22   14   23 1  
    23   14   24 1  
@<TRIPOS>SUBSTRUCTURE
     1 AHD         1

