5two_ligand
  -I-interpret- 

 46 49  0  0  0  0  0  0  0  0999 V2000
  -21.3150  -20.4530   14.3660 C   0  0  0  0  0
  -21.4820  -23.7640   12.4660 C   0  0  0  0  0
  -20.1820  -24.2340   12.6410 C   0  0  0  0  0
  -20.9290  -21.7840   13.7490 C   0  0  0  0  0
  -21.8590  -22.5490   13.0110 C   0  0  0  0  0
  -19.6310  -22.2670   13.9260 C   0  0  0  0  0
  -27.7170  -17.9580    8.5290 C   0  0  0  0  0
  -25.6870  -16.6820    8.6830 C   0  0  0  0  0
  -27.5950  -19.1520    7.6430 C   0  0  0  0  0
  -26.3690  -20.4120    5.9920 C   0  0  0  0  0
  -26.4680  -19.3040    6.8100 C   0  0  0  0  0
  -27.3960  -21.3850    5.9810 C   0  0  0  0  0
  -28.6260  -20.1310    7.6230 C   0  0  0  0  0
  -24.5410  -16.6330    9.4930 C   0  0  0  0  0
  -26.4030  -19.3510   11.0250 C   0  0  0  0  0
  -19.2520  -23.4760   13.3810 C   0  0  0  0  0
  -28.5280  -21.2330    6.8060 C   0  0  0  0  0
  -23.5350  -19.7070   13.5820 C   0  0  0  0  0
  -24.4060  -19.2010   12.3720 C   0  0  0  0  0
  -25.6350  -19.8020   12.0940 C   0  0  0  0  0
  -23.9300  -18.1260   11.5750 C   0  0  0  0  0
  -24.7110  -17.6720   10.4870 C   0  0  0  0  0
  -25.9240  -18.2620   10.2080 C   0  0  0  0  0
  -27.2230  -22.8040    4.8990 Cl  0  0  0  0  0
  -25.3320  -20.5760    5.2140 F   0  0  0  0  0
  -24.0970  -20.1580   14.5560 O   0  0  0  0  0
  -22.1020  -19.6430   13.5170 N   0  0  0  0  0
  -26.4760  -17.6370    9.1150 N   0  0  0  0  0
  -20.3933  -19.9096   14.5739 H   0  0  0  0  0
  -21.9069  -20.6649   15.2564 H   0  0  0  0  0
  -22.2026  -24.3537   11.8994 H   0  0  0  0  0
  -19.8842  -25.1879   12.2057 H   0  0  0  0  0
  -22.8756  -22.1818   12.8704 H   0  0  0  0  0
  -18.9110  -21.6836   14.4998 H   0  0  0  0  0
  -28.4313  -18.1813    9.3215 H   0  0  0  0  0
  -28.0516  -17.1105    7.9307 H   0  0  0  0  0
  -25.8886  -16.0312    7.8321 H   0  0  0  0  0
  -25.6795  -18.5514    6.8116 H   0  0  0  0  0
  -29.5014  -20.0071    8.2605 H   0  0  0  0  0
  -23.6959  -15.9518    9.3937 H   0  0  0  0  0
  -27.3629  -19.8185   10.8054 H   0  0  0  0  0
  -18.2359  -23.8444   13.5221 H   0  0  0  0  0
  -29.3194  -21.9825    6.7968 H   0  0  0  0  0
  -25.9927  -20.6240   12.7140 H   0  0  0  0  0
  -22.9726  -17.6558   11.7997 H   0  0  0  0  0
  -21.6508  -19.0108   12.8558 H   0  0  0  0  0
  1  4  1  0  0  0
 27  1  1  0  0  0
  2  3  4  0  0  0
  5  2  4  0  0  0
 16  3  4  0  0  0
  4  5  4  0  0  0
  4  6  4  0  0  0
  6 16  4  0  0  0
  7  9  1  0  0  0
 28  7  1  0  0  0
 14  8  4  0  0  0
  8 28  4  0  0  0
  9 11  4  0  0  0
  9 13  4  0  0  0
 11 10  4  0  0  0
 10 12  4  0  0  0
 10 25  1  0  0  0
 17 12  4  0  0  0
 12 24  1  0  0  0
 13 17  4  0  0  0
 22 14  4  0  0  0
 20 15  4  0  0  0
 15 23  4  0  0  0
 19 18  1  0  0  0
 18 26  2  0  0  0
 18 27  1  0  0  0
 19 20  4  0  0  0
 21 19  4  0  0  0
 21 22  4  0  0  0
 22 23  4  0  0  0
 23 28  4  0  0  0
  1 29  1  0  0  0
  1 30  1  0  0  0
  2 31  1  0  0  0
  3 32  1  0  0  0
  5 33  1  0  0  0
  6 34  1  0  0  0
  7 35  1  0  0  0
  7 36  1  0  0  0
  8 37  1  0  0  0
 11 38  1  0  0  0
 13 39  1  0  0  0
 14 40  1  0  0  0
 15 41  1  0  0  0
 16 42  1  0  0  0
 17 43  1  0  0  0
 20 44  1  0  0  0
 21 45  1  0  0  0
 27 46  1  0  0  0
M  END
$$$$
