6hm6_ligand
  -I-interpret- 

 37 39  0  0  0  0  0  0  0  0999 V2000
   22.8720  -42.3290   39.8680 N   0  0  0  0  0
   20.9400  -40.9300   38.0660 C   0  0  0  0  0
   22.3230  -40.9390   37.9640 C   0  0  0  0  0
   22.9580  -39.8810   37.3030 C   0  0  0  0  0
   22.2130  -38.8390   36.7500 C   0  0  0  0  0
   23.1240  -42.0540   38.5570 C   0  0  0  0  0
   24.5300  -44.0640   39.7920 C   0  0  0  0  0
   25.4820  -42.5740   35.8640 C   0  0  0  0  0
   24.3910  -41.1820   34.0390 C   0  0  0  0  0
   25.6280  -40.7210   32.0520 C   0  0  0  0  0
   20.0060  -37.7240   36.2590 C   0  0  0  0  0
   20.8210  -38.8400   36.8550 C   0  0  0  0  0
   20.1880  -39.8870   37.5160 C   0  0  0  0  0
   24.0830  -42.7580   37.8260 C   0  0  0  0  0
   24.7970  -43.7900   38.4510 C   0  0  0  0  0
   23.5650  -43.3180   40.4710 C   0  0  0  0  0
   24.2340  -42.3980   36.5060 O   0  0  0  0  0
   25.4910  -41.9140   34.5140 C   0  0  0  0  0
   26.6350  -42.0430   33.7870 N   0  0  0  0  0
   26.6930  -41.4470   32.5780 C   0  0  0  0  0
   24.4620  -40.5880   32.7890 C   0  0  0  0  0
   20.4329  -41.7458   38.5811 H   0  0  0  0  0
   24.0448  -39.8711   37.2195 H   0  0  0  0  0
   22.7190  -38.0224   36.2349 H   0  0  0  0  0
   25.0721  -44.8568   40.3075 H   0  0  0  0  0
   25.6602  -43.6413   35.7326 H   0  0  0  0  0
   26.2590  -42.1211   36.4798 H   0  0  0  0  0
   23.4915  -41.0821   34.6465 H   0  0  0  0  0
   25.7107  -40.2605   31.0675 H   0  0  0  0  0
   20.2982  -36.7784   36.7157 H   0  0  0  0  0
   20.1834  -37.6801   35.1844 H   0  0  0  0  0
   18.9482  -37.9080   36.4467 H   0  0  0  0  0
   19.1017  -39.8948   37.6058 H   0  0  0  0  0
   25.5430  -44.3645   37.9019 H   0  0  0  0  0
   23.3652  -43.5407   41.5191 H   0  0  0  0  0
   27.6073  -41.5373   31.9915 H   0  0  0  0  0
   23.6161  -40.0264   32.3927 H   0  0  0  0  0
  6  1  4  0  0  0
  1 16  4  0  0  0
  3  2  4  0  0  0
  2 13  4  0  0  0
  3  4  4  0  0  0
  6  3  1  0  0  0
  4  5  4  0  0  0
  5 12  4  0  0  0
 14  6  4  0  0  0
 15  7  4  0  0  0
  7 16  4  0  0  0
 17  8  1  0  0  0
  8 18  1  0  0  0
 18  9  4  0  0  0
  9 21  4  0  0  0
 10 20  4  0  0  0
 21 10  4  0  0  0
 12 11  1  0  0  0
 13 12  4  0  0  0
 14 15  4  0  0  0
 14 17  1  0  0  0
 18 19  4  0  0  0
 19 20  4  0  0  0
  2 22  1  0  0  0
  4 23  1  0  0  0
  5 24  1  0  0  0
  7 25  1  0  0  0
  8 26  1  0  0  0
  8 27  1  0  0  0
  9 28  1  0  0  0
 10 29  1  0  0  0
 11 30  1  0  0  0
 11 31  1  0  0  0
 11 32  1  0  0  0
 13 33  1  0  0  0
 15 34  1  0  0  0
 16 35  1  0  0  0
 20 36  1  0  0  0
 21 37  1  0  0  0
M  END
$$$$
