6hdq_ligand
  -I-interpret- 

 76 81  0  0  0  0  0  0  0  0999 V2000
   25.2380    5.9950    6.0140 C   0  0  0  0  0
   25.0700    6.0480    1.8350 C   0  0  0  0  0
   25.7340    5.8400   -0.6340 C   0  0  0  0  0
   26.7460    4.7320   -0.3690 C   0  0  0  0  0
   24.5960    3.7520   10.9060 C   0  0  0  0  0
   24.6480    5.1250   10.2870 C   0  0  0  0  0
   24.8160    6.2600   11.0580 C   0  0  0  0  0
   24.8740    7.4990   10.5580 N   0  0  0  0  0
   24.7650    7.6400    9.2320 C   0  0  0  0  0
   24.5900    6.5790    8.3530 C   0  0  0  0  0
   24.5330    5.3070    8.9170 C   0  0  0  0  0
   24.4710    6.7650    6.8750 C   0  0  0  0  0
   25.2070    6.0580    4.6720 N   0  0  0  0  0
   24.3710    6.9190    4.0670 C   0  0  0  0  0
   24.3610    6.9520    2.7190 N   0  0  0  0  0
   25.5330    6.7600    0.5640 C   0  0  0  0  0
   25.9330    3.5570    0.1730 C   0  0  0  0  0
   24.5010    4.1050    0.2020 C   0  0  0  0  0
   24.5230    5.0680   -0.9140 N   0  3  0  0  0
   24.1640    4.8290    1.5190 C   0  0  0  0  0
   24.0890    3.8100    2.6610 C   0  0  0  0  0
   22.7370    3.6670    3.3590 C   0  0  0  0  0
   22.6870    2.6330    4.4880 C   0  0  0  0  0
   23.8990    2.7530    5.4050 C   0  0  0  0  0
   23.8760    1.7280    6.5330 C   0  0  0  0  0
   22.5810    1.7400    7.2850 C   0  0  0  0  0
   22.5580    0.6910    8.1680 F   0  0  0  0  0
   22.5270    2.8560    8.0820 F   0  0  0  0  0
   21.3620    1.6880    6.4160 C   0  0  0  0  0
   21.4180    2.7520    5.3190 C   0  0  0  0  0
   23.5630    7.7460    4.8760 C   0  0  0  0  0
   22.7010    8.6420    4.2620 N   0  0  0  0  0
   21.8680    9.4850    4.9000 C   0  0  0  0  0
   21.1620   10.2380    4.2290 O   0  0  0  0  0
   21.8790    9.4410    6.3570 C   0  0  0  0  0
   20.9650   10.3680    7.1060 C   0  0  0  0  0
   22.7050    8.5730    6.9890 C   0  0  0  0  0
   23.5890    7.6870    6.2820 C   0  0  0  0  0
   25.9244    5.2777    6.4639 H   0  0  0  0  0
   25.9720    5.6924    2.3331 H   0  0  0  0  0
   26.0408    6.5159   -1.4322 H   0  0  0  0  0
   27.5097    5.0502    0.3407 H   0  0  0  0  0
   27.2861    4.4593   -1.2757 H   0  0  0  0  0
   25.5292    3.5576   11.4347 H   0  0  0  0  0
   23.7627    3.7021   11.6068 H   0  0  0  0  0
   24.4587    3.0066   10.1226 H   0  0  0  0  0
   24.9066    6.1379   12.1373 H   0  0  0  0  0
   24.8166    8.6467    8.8172 H   0  0  0  0  0
   24.3957    4.4400    8.2709 H   0  0  0  0  0
   23.8012    7.6827    2.2795 H   0  0  0  0  0
   26.4991    7.2137    0.7850 H   0  0  0  0  0
   24.7532    7.4720    0.2937 H   0  0  0  0  0
   26.2760    3.2250    1.1529 H   0  0  0  0  0
   26.0280    2.6614   -0.4410 H   0  0  0  0  0
   23.7511    3.3181    0.1207 H   0  0  0  0  0
   24.5346    4.6206   -1.8306 H   0  0  0  0  0
   23.6824    5.6435   -0.9648 H   0  0  0  0  0
   23.1812    5.2843    1.3966 H   0  0  0  0  0
   24.7867    4.1581    3.4226 H   0  0  0  0  0
   24.3022    2.8391    2.2139 H   0  0  0  0  0
   22.0286    3.3342    2.6004 H   0  0  0  0  0
   22.5167    4.6336    3.8121 H   0  0  0  0  0
   22.6945    1.6556    4.0056 H   0  0  0  0  0
   23.8875    3.7472    5.8517 H   0  0  0  0  0
   24.7935    2.5775    4.8073 H   0  0  0  0  0
   24.6752    1.9757    7.2316 H   0  0  0  0  0
   24.0029    0.7386    6.0937 H   0  0  0  0  0
   20.4850    1.8738    7.0360 H   0  0  0  0  0
   21.3121    0.7060    5.9456 H   0  0  0  0  0
   20.5606    2.6132    4.6604 H   0  0  0  0  0
   21.4062    3.7344    5.7910 H   0  0  0  0  0
   22.6980    8.6641    3.2422 H   0  0  0  0  0
   20.2781    9.7831    7.7177 H   0  0  0  0  0
   21.5575   11.0214    7.7464 H   0  0  0  0  0
   20.3983   10.9699    6.3956 H   0  0  0  0  0
   22.6991    8.5453    8.0786 H   0  0  0  0  0
  1 12  4  0  0  0
 13  1  4  0  0  0
 15  2  1  0  0  0
  2 16  1  0  0  0
  2 20  1  0  0  0
  3  4  1  0  0  0
 16  3  1  0  0  0
  3 19  1  0  0  0
  4 17  1  0  0  0
  6  5  1  0  0  0
  6  7  4  0  0  0
 11  6  4  0  0  0
  8  7  4  0  0  0
  9  8  4  0  0  0
 10  9  4  0  0  0
 10 11  4  0  0  0
 12 10  1  0  0  0
 12 38  4  0  0  0
 14 13  4  0  0  0
 14 15  1  0  0  0
 14 31  4  0  0  0
 17 18  1  0  0  0
 18 19  1  0  0  0
 18 20  1  0  0  0
 20 21  1  0  0  0
 21 22  1  0  0  0
 22 23  1  0  0  0
 23 24  1  0  0  0
 23 30  1  0  0  0
 24 25  1  0  0  0
 25 26  1  0  0  0
 26 27  1  0  0  0
 26 28  1  0  0  0
 26 29  1  0  0  0
 29 30  1  0  0  0
 31 32  1  0  0  0
 31 38  4  0  0  0
 32 33  1  0  0  0
 33 34  2  0  0  0
 33 35  1  0  0  0
 35 36  1  0  0  0
 35 37  2  0  0  0
 37 38  1  0  0  0
  1 39  1  0  0  0
  2 40  1  0  0  0
  3 41  1  0  0  0
  4 42  1  0  0  0
  4 43  1  0  0  0
  5 44  1  0  0  0
  5 45  1  0  0  0
  5 46  1  0  0  0
  7 47  1  0  0  0
  9 48  1  0  0  0
 11 49  1  0  0  0
 15 50  1  0  0  0
 16 51  1  0  0  0
 16 52  1  0  0  0
 17 53  1  0  0  0
 17 54  1  0  0  0
 18 55  1  0  0  0
 19 56  1  0  0  0
 19 57  1  0  0  0
 20 58  1  0  0  0
 21 59  1  0  0  0
 21 60  1  0  0  0
 22 61  1  0  0  0
 22 62  1  0  0  0
 23 63  1  0  0  0
 24 64  1  0  0  0
 24 65  1  0  0  0
 25 66  1  0  0  0
 25 67  1  0  0  0
 29 68  1  0  0  0
 29 69  1  0  0  0
 30 70  1  0  0  0
 30 71  1  0  0  0
 32 72  1  0  0  0
 36 73  1  0  0  0
 36 74  1  0  0  0
 36 75  1  0  0  0
 37 76  1  0  0  0
M  END
$$$$
