3gvu_ligand
  -I-interpret- 

 70 74  0  0  0  0  0  0  0  0999 V2000
    6.5740    7.6540   23.3390 C   0  0  0  0  0
    7.4130    8.3860   22.5000 C   0  0  0  0  0
    8.4740    7.7180   21.8660 C   0  0  0  0  0
    8.6330    6.3510   22.1020 C   0  0  0  0  0
    7.8150    5.6800   22.9090 N   0  0  0  0  0
    6.8080    6.2840   23.5180 C   0  0  0  0  0
    9.3520    8.3900   21.0090 C   0  0  0  0  0
    9.1360    9.7250   20.6710 C   0  0  0  0  0
   10.0430   10.3330   19.8050 C   0  0  0  0  0
   11.0820    9.6760   19.3270 N   0  0  0  0  0
   11.2910    8.4030   19.6710 C   0  0  0  0  0
   10.4260    7.7590   20.4800 N   0  0  0  0  0
   12.3370    7.7430   19.1900 N   0  0  0  0  0
   13.1720    8.2180   18.2450 C   0  0  0  0  0
   12.8640    8.1260   16.9010 C   0  0  0  0  0
   13.7850    8.5730   15.9640 C   0  0  0  0  0
   14.9980    9.0950   16.3390 C   0  0  0  0  0
   15.3370    9.1920   17.6800 C   0  0  0  0  0
   14.4110    8.7260   18.6160 C   0  0  0  0  0
   16.5710    9.6630   17.9920 N   0  0  0  0  0
   17.0770    9.8360   19.2270 C   0  0  0  0  0
   18.5640   10.2230   19.2890 C   0  0  0  0  0
   19.2470   10.8230   18.2380 C   0  0  0  0  0
   20.5980   11.1530   18.3750 C   0  0  0  0  0
   21.2810   10.8870   19.5570 C   0  0  0  0  0
   20.5900   10.2840   20.5790 C   0  0  0  0  0
   19.2470    9.9610   20.4560 C   0  0  0  0  0
   22.7850   11.2550   19.7710 C   0  0  0  0  0
   23.0820   12.6190   19.2840 N   0  3  0  0  0
   22.2630   13.5090   20.0220 C   0  0  0  0  0
   22.5130   14.8940   19.4090 C   0  0  0  0  0
   23.9200   15.3340   19.5840 N   0  3  0  0  0
   24.2840   16.4960   18.7780 C   0  0  0  0  0
   24.7180   14.3030   18.8430 C   0  0  0  0  0
   24.4870   12.8940   19.4590 C   0  0  0  0  0
   16.4480    9.7480   20.2870 O   0  0  0  0  0
   11.5170    7.5620   16.4330 C   0  0  0  0  0
    5.7445    8.1423   23.8505 H   0  0  0  0  0
    7.2496    9.4517   22.3397 H   0  0  0  0  0
    9.4488    5.8194   21.6122 H   0  0  0  0  0
    6.1505    5.7075   24.1687 H   0  0  0  0  0
    8.2848   10.2758   21.0713 H   0  0  0  0  0
    9.8906   11.3731   19.5167 H   0  0  0  0  0
   12.5218    6.8112   19.5615 H   0  0  0  0  0
   13.5391    8.5080   14.9041 H   0  0  0  0  0
   15.6995    9.4356   15.5774 H   0  0  0  0  0
   14.6692    8.7621   19.6744 H   0  0  0  0  0
   17.1772    9.9114   17.2102 H   0  0  0  0  0
   18.7274   11.0369   17.3040 H   0  0  0  0  0
   21.1233   11.6250   17.5447 H   0  0  0  0  0
   21.1095   10.0537   21.5092 H   0  0  0  0  0
   18.7261    9.4946   21.2922 H   0  0  0  0  0
   23.3972   10.5472   19.2120 H   0  0  0  0  0
   23.0027   11.2138   20.8382 H   0  0  0  0  0
   22.8822   12.7252   18.2894 H   0  0  0  0  0
   22.5070   13.4908   21.0842 H   0  0  0  0  0
   21.2114   13.2284   19.9628 H   0  0  0  0  0
   21.8662   15.6118   19.9135 H   0  0  0  0  0
   22.3042   14.8366   18.3407 H   0  0  0  0  0
   24.0625   15.4952   20.5811 H   0  0  0  0  0
   24.1489   16.2610   17.7222 H   0  0  0  0  0
   23.6471   17.3382   19.0485 H   0  0  0  0  0
   25.3268   16.7531   18.9637 H   0  0  0  0  0
   25.7764   14.5533   18.9156 H   0  0  0  0  0
   24.4016   14.2910   17.8000 H   0  0  0  0  0
   25.1042   12.1399   18.9707 H   0  0  0  0  0
   24.7697   12.8683   20.5114 H   0  0  0  0  0
   11.4110    6.5367   16.7874 H   0  0  0  0  0
   10.7091    8.1725   16.8363 H   0  0  0  0  0
   11.4768    7.5773   15.3438 H   0  0  0  0  0
  1  2  4  0  0  0
  1  6  4  0  0  0
  2  3  4  0  0  0
  3  4  4  0  0  0
  3  7  1  0  0  0
  4  5  4  0  0  0
  5  6  4  0  0  0
  7  8  4  0  0  0
  7 12  4  0  0  0
  8  9  4  0  0  0
  9 10  4  0  0  0
 10 11  4  0  0  0
 11 12  4  0  0  0
 11 13  1  0  0  0
 13 14  1  0  0  0
 14 15  4  0  0  0
 14 19  4  0  0  0
 15 16  4  0  0  0
 15 37  1  0  0  0
 16 17  4  0  0  0
 17 18  4  0  0  0
 18 19  4  0  0  0
 18 20  1  0  0  0
 20 21  1  0  0  0
 21 22  1  0  0  0
 21 36  2  0  0  0
 22 23  4  0  0  0
 22 27  4  0  0  0
 23 24  4  0  0  0
 24 25  4  0  0  0
 25 26  4  0  0  0
 25 28  1  0  0  0
 26 27  4  0  0  0
 28 29  1  0  0  0
 29 30  1  0  0  0
 29 35  1  0  0  0
 30 31  1  0  0  0
 31 32  1  0  0  0
 32 33  1  0  0  0
 32 34  1  0  0  0
 34 35  1  0  0  0
  1 38  1  0  0  0
  2 39  1  0  0  0
  4 40  1  0  0  0
  6 41  1  0  0  0
  8 42  1  0  0  0
  9 43  1  0  0  0
 13 44  1  0  0  0
 16 45  1  0  0  0
 17 46  1  0  0  0
 19 47  1  0  0  0
 20 48  1  0  0  0
 23 49  1  0  0  0
 24 50  1  0  0  0
 26 51  1  0  0  0
 27 52  1  0  0  0
 28 53  1  0  0  0
 28 54  1  0  0  0
 29 55  1  0  0  0
 30 56  1  0  0  0
 30 57  1  0  0  0
 31 58  1  0  0  0
 31 59  1  0  0  0
 32 60  1  0  0  0
 33 61  1  0  0  0
 33 62  1  0  0  0
 33 63  1  0  0  0
 34 64  1  0  0  0
 34 65  1  0  0  0
 35 66  1  0  0  0
 35 67  1  0  0  0
 37 68  1  0  0  0
 37 69  1  0  0  0
 37 70  1  0  0  0
M  END
$$$$
