3l7c_ligand
  -I-interpret- 

 32 33  0  0  0  0  0  0  0  0999 V2000
   33.3430   22.9030   27.7890 C   0  0  0  0  0
   34.1780   23.5970   28.7930 N   0  0  0  0  0
   33.7820   23.1050   26.3240 C   0  0  0  0  0
   34.3500   24.9300   30.8100 N   0  0  0  0  0
   33.8490   24.5030   26.0120 O   0  0  0  0  0
   32.8160   22.3780   25.3640 C   0  0  0  0  0
   33.3240   22.3630   24.0780 F   0  0  0  0  0
   32.4890   20.9500   25.8580 C   0  0  0  0  0
   31.2910   20.4920   25.2390 O   0  0  0  0  0
   32.3120   20.8650   27.3990 C   0  0  0  0  0
   33.4040   21.5030   28.0840 O   0  0  0  0  0
   32.2650   19.4230   27.8750 C   0  0  0  0  0
   33.3550   18.7210   27.2680 O   0  0  0  0  0
   35.5820   23.5700   28.6990 C   0  0  0  0  0
   36.3570   24.2230   29.6550 C   0  0  0  0  0
   37.6930   24.1890   29.5400 F   0  0  0  0  0
   35.7440   24.9090   30.7110 C   0  0  0  0  0
   36.4070   25.4970   31.5670 O   0  0  0  0  0
   33.5580   24.2730   29.8580 C   0  0  0  0  0
   32.3330   24.3060   29.9580 O   0  0  0  0  0
   32.3414   23.3268   27.8617 H   0  0  0  0  0
   34.7758   22.6757   26.1971 H   0  0  0  0  0
   33.9052   25.4275   31.5814 H   0  0  0  0  0
   34.4535   24.9365   26.6188 H   0  0  0  0  0
   31.8786   22.9340   25.3504 H   0  0  0  0  0
   33.3391   20.3243   25.5862 H   0  0  0  0  0
   31.3868   20.5393   24.2850 H   0  0  0  0  0
   31.3719   21.3682   27.6249 H   0  0  0  0  0
   31.3176   18.9639   27.5927 H   0  0  0  0  0
   32.3488   19.3820   28.9610 H   0  0  0  0  0
   33.3443   17.8052   27.5559 H   0  0  0  0  0
   36.0631   23.0381   27.8782 H   0  0  0  0  0
  2  1  1  0  0  0
  1  3  1  0  0  0
  1 11  1  0  0  0
  2 14  1  0  0  0
 19  2  1  0  0  0
  3  5  1  0  0  0
  3  6  1  0  0  0
  4 17  1  0  0  0
  4 19  1  0  0  0
  6  7  1  0  0  0
  6  8  1  0  0  0
  8  9  1  0  0  0
  8 10  1  0  0  0
 10 11  1  0  0  0
 10 12  1  0  0  0
 12 13  1  0  0  0
 14 15  2  0  0  0
 15 16  1  0  0  0
 15 17  1  0  0  0
 17 18  2  0  0  0
 19 20  2  0  0  0
  1 21  1  0  0  0
  3 22  1  0  0  0
  4 23  1  0  0  0
  5 24  1  0  0  0
  6 25  1  0  0  0
  8 26  1  0  0  0
  9 27  1  0  0  0
 10 28  1  0  0  0
 12 29  1  0  0  0
 12 30  1  0  0  0
 13 31  1  0  0  0
 14 32  1  0  0  0
M  END
$$$$
