3c2u_ligand
  -I-interpret- 

 47 46  0  0  0  0  0  0  0  0999 V2000
   61.1180   38.1320   48.2560 C   0  0  0  0  0
   60.3360   38.9610   47.2550 C   0  0  0  0  0
   60.2060   37.5320   49.2840 C   0  0  0  0  0
   61.0240   36.8030   50.2530 N   0  3  0  0  0
   60.4920   35.6410   50.9440 C   0  0  0  0  0
   61.4450   35.1150   51.9590 C   0  0  0  0  0
   59.2420   36.0590   51.7270 C   0  0  0  0  0
   60.3420   34.5270   49.9020 C   0  0  0  0  0
   59.4100   38.1560   46.5040 N   0  3  0  0  0
   59.7510   37.3700   45.3260 C   0  0  0  0  0
   60.8170   36.2980   45.5750 C   0  0  0  0  0
   60.3060   38.2340   44.1660 C   0  0  0  0  0
   58.4200   36.7800   44.9070 C   0  0  0  0  0
   60.4370   35.2010   46.4270 O   0  0  0  0  0
   59.4490   39.3870   43.9490 O   0  0  0  0  0
   58.6310   35.7470   43.9600 O   0  0  0  0  0
   61.8080   36.2390   52.8770 O   0  0  0  0  0
   58.4400   34.9450   52.1340 O   0  0  0  0  0
   59.0390   34.4940   49.3340 O   0  0  0  0  0
   61.8368   38.7780   48.7600 H   0  0  0  0  0
   61.6241   37.3264   47.7240 H   0  0  0  0  0
   61.0418   39.4126   46.5578 H   0  0  0  0  0
   59.7699   39.7150   47.8019 H   0  0  0  0  0
   59.4985   36.8541   48.8065 H   0  0  0  0  0
   59.6410   38.3170   49.7867 H   0  0  0  0  0
   61.1946   37.4802   50.9965 H   0  0  0  0  0
   61.7973   36.4333   49.7001 H   0  0  0  0  0
   62.3376   34.7237   51.4709 H   0  0  0  0  0
   60.9859   34.3021   52.5216 H   0  0  0  0  0
   58.6344   36.6852   51.0738 H   0  0  0  0  0
   59.5715   36.5781   52.6271 H   0  0  0  0  0
   60.5198   33.5728   50.3980 H   0  0  0  0  0
   61.0565   34.7143   49.1004 H   0  0  0  0  0
   58.7737   38.8556   46.1220 H   0  0  0  0  0
   59.1510   37.4360   47.1784 H   0  0  0  0  0
   61.6403   36.8023   46.0808 H   0  0  0  0  0
   61.0397   35.8614   44.6014 H   0  0  0  0  0
   60.3369   37.6346   43.2562 H   0  0  0  0  0
   61.3086   38.5763   44.4225 H   0  0  0  0  0
   57.8045   37.5601   44.4590 H   0  0  0  0  0
   57.9156   36.3699   45.7819 H   0  0  0  0  0
   61.1755   34.5937   46.5134 H   0  0  0  0  0
   59.8014   39.9152   43.2290 H   0  0  0  0  0
   57.7849   35.3768   43.6981 H   0  0  0  0  0
   62.4237   35.9217   53.5417 H   0  0  0  0  0
   57.6744   35.2632   52.6179 H   0  0  0  0  0
   58.9900   33.7843   48.6894 H   0  0  0  0  0
  1  2  1  0  0  0
  1  3  1  0  0  0
  2  9  1  0  0  0
  3  4  1  0  0  0
  4  5  1  0  0  0
  5  6  1  0  0  0
  5  7  1  0  0  0
  5  8  1  0  0  0
  6 17  1  0  0  0
  7 18  1  0  0  0
  8 19  1  0  0  0
  9 10  1  0  0  0
 10 11  1  0  0  0
 10 12  1  0  0  0
 10 13  1  0  0  0
 11 14  1  0  0  0
 12 15  1  0  0  0
 13 16  1  0  0  0
  1 20  1  0  0  0
  1 21  1  0  0  0
  2 22  1  0  0  0
  2 23  1  0  0  0
  3 24  1  0  0  0
  3 25  1  0  0  0
  4 26  1  0  0  0
  4 27  1  0  0  0
  6 28  1  0  0  0
  6 29  1  0  0  0
  7 30  1  0  0  0
  7 31  1  0  0  0
  8 32  1  0  0  0
  8 33  1  0  0  0
  9 34  1  0  0  0
  9 35  1  0  0  0
 11 36  1  0  0  0
 11 37  1  0  0  0
 12 38  1  0  0  0
 12 39  1  0  0  0
 13 40  1  0  0  0
 13 41  1  0  0  0
 14 42  1  0  0  0
 15 43  1  0  0  0
 16 44  1  0  0  0
 17 45  1  0  0  0
 18 46  1  0  0  0
 19 47  1  0  0  0
M  END
$$$$
