3k41_ligand
  -I-interpret- 

 29 29  0  0  0  0  0  0  0  0999 V2000
   21.4440    7.9660   25.9290 C   0  0  0  0  0
   20.6860    8.0600   24.5740 C   0  0  0  0  0
   19.1630    8.2860   24.8610 C   0  0  0  0  0
   18.6150    7.1490   25.7510 C   0  0  0  0  0
   19.4180    7.1250   27.0790 C   0  0  0  0  0
   18.9620    5.9860   27.9870 C   0  0  0  0  0
   22.7930    7.6100   25.7210 O   0  0  0  0  0
   20.8640    6.8490   23.8240 O   0  0  0  0  0
   18.4190    8.3380   23.6450 O   0  0  0  0  0
   17.2250    7.3750   25.9970 O   0  0  0  0  0
   20.8430    6.9300   26.7740 O   0  0  0  0  0
   19.6440    5.9130   29.2400 O   0  0  0  0  0
   19.8910    4.5570   30.0360 P   0  0  0  0  0
   18.5850    3.8740   30.3430 O   0  0  0  0  0
   20.6040    4.8230   31.3430 O   0  0  0  0  0
   20.7570    3.6200   29.2110 O   0  0  0  0  0
   21.3799    8.9424   26.4093 H   0  0  0  0  0
   21.0815    8.8921   23.9914 H   0  0  0  0  0
   19.0546    9.2386   25.3795 H   0  0  0  0  0
   18.7249    6.1844   25.2555 H   0  0  0  0  0
   19.2501    8.0718   27.5924 H   0  0  0  0  0
   19.1692    5.0558   27.4580 H   0  0  0  0  0
   17.9087    6.1585   28.2083 H   0  0  0  0  0
   23.2159    8.2717   25.1688 H   0  0  0  0  0
   21.7988    6.7155   23.6510 H   0  0  0  0  0
   18.7602    9.0450   23.0924 H   0  0  0  0  0
   16.7510    7.3855   25.1622 H   0  0  0  0  0
   21.4408    5.2592   31.1667 H   0  0  0  0  0
   21.5919    4.0500   29.0118 H   0  0  0  0  0
  1  2  1  0  0  0
  1  7  1  0  0  0
  1 11  1  0  0  0
  2  3  1  0  0  0
  2  8  1  0  0  0
  3  4  1  0  0  0
  3  9  1  0  0  0
  4  5  1  0  0  0
  4 10  1  0  0  0
  5  6  1  0  0  0
  5 11  1  0  0  0
  6 12  1  0  0  0
 12 13  1  0  0  0
 13 14  2  0  0  0
 13 15  1  0  0  0
 13 16  1  0  0  0
  1 17  1  0  0  0
  2 18  1  0  0  0
  3 19  1  0  0  0
  4 20  1  0  0  0
  5 21  1  0  0  0
  6 22  1  0  0  0
  6 23  1  0  0  0
  7 24  1  0  0  0
  8 25  1  0  0  0
  9 26  1  0  0  0
 10 27  1  0  0  0
 15 28  1  0  0  0
 16 29  1  0  0  0
M  END
$$$$
