### 
### Created by X-TOOL on Mon Sep 10 21:13:01 2018
### 

@<TRIPOS>MOLECULE
3k41_ligand
   27    27     1     0     0
SMALL
GAST_HUCK


@<TRIPOS>ATOM
      1 C1         21.4440    7.9660   25.9290 C.3       1 M6D         0.1854
      2 C2         20.6860    8.0600   24.5740 C.3       1 M6D         0.1339
      3 C3         19.1630    8.2860   24.8610 C.3       1 M6D         0.1141
      4 C4         18.6150    7.1490   25.7510 C.3       1 M6D         0.1122
      5 C5         19.4180    7.1250   27.0790 C.3       1 M6D         0.1176
      6 C6         18.9620    5.9860   27.9870 C.3       1 M6D         0.1071
      7 O1         22.7930    7.6100   25.7210 O.3       1 M6D        -0.3649
      8 O2         20.8640    6.8490   23.8240 O.3       1 M6D        -0.3841
      9 O3         18.4190    8.3380   23.6450 O.3       1 M6D        -0.3864
     10 O4         17.2250    7.3750   25.9970 O.3       1 M6D        -0.3865
     11 O5         20.8430    6.9300   26.7740 O.3       1 M6D        -0.3404
     12 O6         19.6440    5.9130   29.2400 O.3       1 M6D        -0.2734
     13 P          19.8910    4.5570   30.0360 P.3       1 M6D         0.2008
     14 O1P        18.5850    3.8740   30.3430 O.co2     1 M6D        -0.5537
     15 O2P        20.6040    4.8230   31.3430 O.co2     1 M6D        -0.5537
     16 O3P        20.7570    3.6200   29.2110 O.co2     1 M6D        -0.5537
     17 H1         21.3920    8.9390   26.4394 H         1 M6D         0.0935
     18 H2         21.0795    8.9071   23.9929 H         1 M6D         0.0671
     19 H3         19.0432    9.2427   25.3905 H         1 M6D         0.0648
     20 H4         18.7381    6.1850   25.2357 H         1 M6D         0.0647
     21 H5         19.2780    8.0829   27.6013 H         1 M6D         0.0650
     22 H6         19.1223    5.0373   27.4538 H         1 M6D         0.0639
     23 H7         17.8885    6.1168   28.1882 H         1 M6D         0.0639
     24 H8         22.8334    6.7640   25.2907 H         1 M6D         0.2126
     25 H9         20.3949    6.9159   23.0007 H         1 M6D         0.2101
     26 H10        17.5041    8.5017   23.8416 H         1 M6D         0.2100
     27 H11        16.7560    7.3854   25.1710 H         1 M6D         0.2100
@<TRIPOS>BOND
     1    1    2 1  
     2    1    7 1  
     3    1   11 1  
     4    2    3 1  
     5    2    8 1  
     6    3    4 1  
     7    3    9 1  
     8    4    5 1  
     9    4   10 1  
    10    5    6 1  
    11    5   11 1  
    12    6   12 1  
    13   12   13 1  
    14   13   14 ar 
    15   13   15 ar 
    16   13   16 ar 
    17    1   17 1  
    18    2   18 1  
    19    3   19 1  
    20    4   20 1  
    21    5   21 1  
    22    6   22 1  
    23    6   23 1  
    24    7   24 1  
    25    8   25 1  
    26    9   26 1  
    27   10   27 1  
@<TRIPOS>SUBSTRUCTURE
     1 M6D         1

