5t1t_ligand
  -I-interpret- 

 44 46  0  0  0  0  0  0  0  0999 V2000
   31.0640    5.1950   -8.3860 N   0  0  0  0  0
   30.2100    5.5090   -7.4250 C   0  0  0  0  0
   29.6790    6.7010   -7.1420 N   0  0  0  0  0
   30.0050    7.7180   -7.9690 C   0  0  0  0  0
   30.9410    7.5500   -9.0470 C   0  0  0  0  0
   31.4600    6.2350   -9.1840 C   0  0  0  0  0
   31.4020    8.5560   -9.9110 C   0  0  0  0  0
   32.3260    8.2390  -10.8620 C   0  0  0  0  0
   32.8480    6.9670  -11.0180 C   0  0  0  0  0
   32.4220    5.9790  -10.1830 C   0  0  0  0  0
   29.4940    8.9630   -7.8270 O   0  0  0  0  0
   32.8190    9.3050  -11.7300 N   0  0  0  0  0
   28.6820    9.2910   -6.6570 C   0  0  0  0  0
   29.6200    9.6310   -5.5190 C   0  0  0  0  0
   28.8400   10.1120   -4.2970 C   0  0  0  0  0
   27.9670   11.3030   -4.6760 C   0  0  0  0  0
   27.0470   10.9960   -5.8650 C   0  0  0  0  0
   27.8450   10.4820   -7.0620 C   0  0  0  0  0
   27.1400   11.7350   -3.4480 N   0  3  0  0  0
   26.7300   13.1450   -3.4760 C   0  0  0  0  0
   26.0420   10.8630   -3.0100 C   0  0  0  0  0
   33.9300    9.1750  -12.2290 O   0  0  0  0  0
   32.1270   10.3080  -11.8700 O   0  0  0  0  0
   29.8994    4.6870   -6.7801 H   0  0  0  0  0
   31.0267    9.5755   -9.8228 H   0  0  0  0  0
   33.5853    6.7599  -11.7936 H   0  0  0  0  0
   32.8312    4.9742  -10.2885 H   0  0  0  0  0
   28.0385    8.4746   -6.3291 H   0  0  0  0  0
   30.2909   10.4267   -5.8428 H   0  0  0  0  0
   30.1813    8.7369   -5.2476 H   0  0  0  0  0
   29.5408   10.4127   -3.5182 H   0  0  0  0  0
   28.2068    9.3030   -3.9328 H   0  0  0  0  0
   28.6208   12.1169   -4.9894 H   0  0  0  0  0
   26.5358   11.9138   -6.1556 H   0  0  0  0  0
   26.3353   10.2269   -5.5649 H   0  0  0  0  0
   27.1540   10.1817   -7.8497 H   0  0  0  0  0
   28.5016   11.2747   -7.4206 H   0  0  0  0  0
   27.8368   11.6123   -2.7132 H   0  0  0  0  0
   27.6160   13.7791   -3.5097 H   0  0  0  0  0
   26.1179   13.3266   -4.3594 H   0  0  0  0  0
   26.1530   13.3721   -2.5796 H   0  0  0  0  0
   25.3166   10.7610   -3.8172 H   0  0  0  0  0
   26.4400    9.8818   -2.7513 H   0  0  0  0  0
   25.5574   11.3014   -2.1376 H   0  0  0  0  0
  1  2  4  0  0  0
  1  6  4  0  0  0
  2  3  4  0  0  0
  3  4  4  0  0  0
  4  5  4  0  0  0
  4 11  1  0  0  0
  5  6  4  0  0  0
  5  7  4  0  0  0
  6 10  4  0  0  0
  7  8  4  0  0  0
  8  9  4  0  0  0
  8 12  1  0  0  0
  9 10  4  0  0  0
 11 13  1  0  0  0
 12 22  2  0  0  0
 12 23  2  0  0  0
 13 14  1  0  0  0
 13 18  1  0  0  0
 14 15  1  0  0  0
 15 16  1  0  0  0
 16 17  1  0  0  0
 16 19  1  0  0  0
 17 18  1  0  0  0
 19 20  1  0  0  0
 19 21  1  0  0  0
  2 24  1  0  0  0
  7 25  1  0  0  0
  9 26  1  0  0  0
 10 27  1  0  0  0
 13 28  1  0  0  0
 14 29  1  0  0  0
 14 30  1  0  0  0
 15 31  1  0  0  0
 15 32  1  0  0  0
 16 33  1  0  0  0
 17 34  1  0  0  0
 17 35  1  0  0  0
 18 36  1  0  0  0
 18 37  1  0  0  0
 19 38  1  0  0  0
 20 39  1  0  0  0
 20 40  1  0  0  0
 20 41  1  0  0  0
 21 42  1  0  0  0
 21 43  1  0  0  0
 21 44  1  0  0  0
M  END
$$$$
