5dx3_ligand
  -I-interpret- 

208210  0  0  0  0  0  0  0  0999 V2000
   68.1900   24.0600   63.8190 C   0  0  0  0  0
   68.1230   23.3650   64.8300 O   0  0  0  0  0
   69.4120   24.9730   63.6370 C   0  0  0  0  0
   67.2220   24.0860   62.8790 N   0  0  0  0  0
   66.0620   23.2000   63.0900 C   0  0  0  0  0
   66.2870   21.7810   62.4700 C   0  0  0  0  0
   67.0800   21.5640   61.5950 O   0  0  0  0  0
   64.6360   23.6940   62.7160 C   0  0  0  0  0
   64.4300   25.0420   62.0570 C   0  0  0  0  0
   64.6590   25.2580   60.7890 N   0  0  0  0  0
   63.9290   26.1290   62.6120 C   0  0  0  0  0
   64.3480   26.5330   60.5670 C   0  0  0  0  0
   63.8940   27.0660   61.6900 N   0  0  0  0  0
   65.4920   20.8850   63.0040 N   0  0  0  0  0
   65.4550   19.5040   62.6680 C   0  0  0  0  0
   65.4370   19.2200   61.2010 C   0  0  0  0  0
   64.7530   19.8440   60.4270 O   0  0  0  0  0
   64.2280   18.8930   63.2400 C   0  0  0  0  0
   64.4250   18.7730   64.7230 C   0  0  0  0  0
   63.0910   18.9100   65.3990 C   0  0  0  0  0
   62.9120   17.8670   66.4410 C   0  0  0  0  0
   62.0180   18.3560   67.4460 N   0  3  0  0  0
   66.1140   18.1360   60.9070 N   0  0  0  0  0
   66.1680   17.5590   59.5820 C   0  0  0  0  0
   66.8530   16.2380   59.6690 C   0  0  0  0  0
   66.9760   15.5260   58.3590 C   0  0  0  0  0
   68.1540   14.6140   58.5230 C   0  0  0  0  0
   65.7410   14.7290   58.0150 C   0  0  0  0  0
   65.8950   13.9390   56.9260 C   0  0  0  0  0
   67.0650   18.4480   58.7710 C   0  0  0  0  0
   64.8540   17.4570   59.0430 C   0  0  0  0  0
   64.5530   17.8770   57.9580 O   0  0  0  0  0
   63.8570   16.9060   59.7940 N   0  0  0  0  0
   62.4710   16.7510   59.3530 C   0  0  0  0  0
   61.8210   17.9510   59.0530 C   0  0  0  0  0
   61.1120   18.0230   58.0840 O   0  0  0  0  0
   61.7700   15.9250   60.4130 C   0  0  0  0  0
   60.4380   15.4190   59.9920 C   0  0  0  0  0
   60.5240   14.5920   58.7450 C   0  0  0  0  0
   59.8210   14.5640   61.0820 C   0  0  0  0  0
   62.0160   19.0560   59.7810 N   0  0  0  0  0
   61.4090   20.3580   59.4710 C   0  0  0  0  0
   61.6630   20.7180   58.1350 C   0  0  0  0  0
   60.7770   20.9690   57.3770 O   0  0  0  0  0
   61.9140   21.3650   60.4870 C   0  0  0  0  0
   61.2940   22.7320   60.3550 C   0  0  0  0  0
   60.2660   23.1700   60.9970 N   0  0  0  0  0
   61.7300   23.6660   59.5740 C   0  0  0  0  0
   60.0480   24.3740   60.5930 C   0  0  0  0  0
   60.9480   24.6890   59.7310 N   0  0  0  0  0
   62.8830   20.6370   57.6350 N   0  0  0  0  0
   63.2550   20.8640   56.2560 C   0  0  0  0  0
   62.7260   19.9680   55.3230 C   0  0  0  0  0
   62.1800   20.4070   54.3500 O   0  0  0  0  0
   64.7910   20.8710   56.2070 C   0  0  0  0  0
   65.3370   21.0570   54.8390 C   0  0  0  0  0
   65.2430   22.5210   54.5190 C   0  0  0  0  0
   65.8540   22.7840   53.2630 N   0  0  0  0  0
   65.2360   22.7210   52.1450 C   0  0  0  0  0
   65.9180   22.9440   51.0580 N   0  0  0  0  0
   63.9710   22.3830   52.0860 N   0  0  0  0  0
   60.8510   17.7940   54.2870 C   0  0  0  0  0
   62.7790   18.6150   55.4950 N   0  0  0  0  0
   60.3380   17.5260   53.2160 O   0  0  0  0  0
   62.2370   17.6260   54.5310 C   0  0  0  0  0
   62.3960   16.1880   55.0080 C   0  0  0  0  0
   63.7390   14.3930   55.9070 C   0  0  0  0  0
   64.9680   13.7930   55.9370 C   0  0  0  0  0
   63.7650   15.7350   55.3130 C   0  0  0  0  0
   63.0230   17.7810   53.2390 C   0  0  0  0  0
   60.1140   18.2170   55.3000 N   0  0  0  0  0
   58.6880   18.4220   55.1610 C   0  0  0  0  0
   58.3460   19.5240   54.1640 C   0  0  0  0  0
   57.2870   19.5430   53.6360 O   0  0  0  0  0
   58.0320   18.7420   56.4740 C   0  0  0  0  0
   57.6810   17.4970   57.2870 C   0  0  0  0  0
   57.3940   17.9070   58.6910 C   0  0  0  0  0
   56.4930   16.8100   56.7260 C   0  0  0  0  0
   59.2800   20.3530   53.8410 N   0  0  0  0  0
   59.0450   21.4770   52.9450 C   0  0  0  0  0
   59.2700   21.2560   51.4530 C   0  0  0  0  0
   58.8460   22.1030   50.7080 O   0  0  0  0  0
   59.9070   22.6610   53.3620 C   0  0  0  0  0
   59.3610   23.2680   54.6220 C   0  0  0  0  0
   60.1860   24.4260   55.0450 C   0  0  0  0  0
   60.9390   24.3750   55.9950 O   0  0  0  0  0
   60.0120   25.4780   54.3160 N   0  0  0  0  0
   59.8990   20.1820   51.0300 N   0  0  0  0  0
   60.0990   20.0020   49.5900 C   0  0  0  0  0
   58.9300   19.2590   48.9250 C   0  0  0  0  0
   58.0850   18.6630   49.5400 O   0  0  0  0  0
   61.4780   19.4320   49.2940 C   0  0  0  0  0
   61.4450   17.9520   49.1420 C   0  0  0  0  0
   61.8230   17.4440   48.0670 O   0  0  0  0  0
   60.8210   17.4080   50.0350 O   0  0  0  0  0
   58.9600   19.2700   47.6170 N   0  0  0  0  0
   57.9440   18.6030   46.8360 C   0  0  0  0  0
   58.6710   17.8690   45.7430 C   0  0  0  0  0
   59.8200   18.1600   45.5090 O   0  0  0  0  0
   56.9960   19.6720   46.3590 C   0  0  0  0  0
   56.8470   20.6070   47.4360 O   0  0  0  0  0
   58.0690   16.8280   45.2150 N   0  0  0  0  0
   69.4625   25.6797   64.4653 H   0  0  0  0  0
   70.3176   24.3666   63.6193 H   0  0  0  0  0
   69.3199   25.5182   62.6977 H   0  0  0  0  0
   67.2895   24.6906   62.0603 H   0  0  0  0  0
   66.0436   23.1837   64.1797 H   0  0  0  0  0
   64.1266   23.7864   63.6752 H   0  0  0  0  0
   64.2940   22.9778   61.9689 H   0  0  0  0  0
   63.6032   26.2318   63.6471 H   0  0  0  0  0
   64.4506   27.0536   59.6149 H   0  0  0  0  0
   64.8439   21.2069   63.7229 H   0  0  0  0  0
   66.3748   19.0850   63.0760 H   0  0  0  0  0
   64.0536   17.9110   62.8004 H   0  0  0  0  0
   63.3589   19.5138   63.0224 H   0  0  0  0  0
   65.0986   19.5559   65.0714 H   0  0  0  0  0
   64.8627   17.8035   64.9610 H   0  0  0  0  0
   62.3067   18.7948   64.6509 H   0  0  0  0  0
   63.0385   19.8901   65.8730 H   0  0  0  0  0
   63.8758   17.6305   66.8919 H   0  0  0  0  0
   62.4977   16.9656   65.9895 H   0  0  0  0  0
   61.8923   17.6424   68.1639 H   0  0  0  0  0
   62.4098   19.1983   67.8672 H   0  0  0  0  0
   61.1170   18.5746   67.0207 H   0  0  0  0  0
   66.6315   17.6740   61.6548 H   0  0  0  0  0
   66.2532   15.6063   60.3242 H   0  0  0  0  0
   67.8641   16.4224   60.0319 H   0  0  0  0  0
   67.0993   16.2380   57.5429 H   0  0  0  0  0
   69.0420   15.2059   58.7450 H   0  0  0  0  0
   67.9638   13.9207   59.3423 H   0  0  0  0  0
   68.3099   14.0545   57.6006 H   0  0  0  0  0
   64.9434   15.4386   57.7952 H   0  0  0  0  0
   65.5229   14.0798   58.8630 H   0  0  0  0  0
   66.8262   13.3801   56.8336 H   0  0  0  0  0
   66.6479   19.4546   58.7430 H   0  0  0  0  0
   68.0549   18.4760   59.2265 H   0  0  0  0  0
   67.1414   18.0567   57.7565 H   0  0  0  0  0
   64.0953   16.5787   60.7302 H   0  0  0  0  0
   62.4467   16.2377   58.3917 H   0  0  0  0  0
   61.6152   16.5692   61.2786 H   0  0  0  0  0
   62.3979   15.0580   60.6186 H   0  0  0  0  0
   59.8193   16.2955   59.7996 H   0  0  0  0  0
   60.9313   15.1982   57.9359 H   0  0  0  0  0
   61.1750   13.7359   58.9225 H   0  0  0  0  0
   59.5280   14.2425   58.4729 H   0  0  0  0  0
   60.4723   13.7147   61.2882 H   0  0  0  0  0
   59.7024   15.1606   61.9865 H   0  0  0  0  0
   58.8464   14.2044   60.7520 H   0  0  0  0  0
   62.6215   18.9912   60.5993 H   0  0  0  0  0
   60.3227   20.3184   59.5519 H   0  0  0  0  0
   62.9858   21.4789   60.3243 H   0  0  0  0  0
   61.6536   20.9858   61.4752 H   0  0  0  0  0
   62.5918   23.6051   58.9094 H   0  0  0  0  0
   59.2350   25.0187   60.9269 H   0  0  0  0  0
   63.6325   20.3915   58.2818 H   0  0  0  0  0
   62.8189   21.8154   55.9514 H   0  0  0  0  0
   65.1355   19.9023   56.5691 H   0  0  0  0  0
   65.1351   21.7081   56.8145 H   0  0  0  0  0
   64.7711   20.4690   54.1165 H   0  0  0  0  0
   66.3720   20.7188   54.7894 H   0  0  0  0  0
   65.7557   23.0911   55.2937 H   0  0  0  0  0
   64.1935   22.8119   54.4752 H   0  0  0  0  0
   66.8419   23.0375   53.2526 H   0  0  0  0  0
   66.9131   23.1607   51.1157 H   0  0  0  0  0
   63.5091   22.2918   51.1811 H   0  0  0  0  0
   63.4484   22.2112   52.9449 H   0  0  0  0  0
   63.2208   18.2601   56.3431 H   0  0  0  0  0
   62.0498   15.5608   54.1865 H   0  0  0  0  0
   61.8435   16.1213   55.9452 H   0  0  0  0  0
   63.3956   14.4941   56.9365 H   0  0  0  0  0
   63.0838   13.7734   55.2947 H   0  0  0  0  0
   65.2278   13.1442   55.1006 H   0  0  0  0  0
   64.2190   16.4281   56.0212 H   0  0  0  0  0
   64.3427   15.7034   54.3893 H   0  0  0  0  0
   62.6936   17.0287   52.5223 H   0  0  0  0  0
   62.8515   18.7759   52.8280 H   0  0  0  0  0
   64.0855   17.6492   53.4435 H   0  0  0  0  0
   60.5598   18.4028   56.1984 H   0  0  0  0  0
   58.3013   17.4752   54.7839 H   0  0  0  0  0
   57.1033   19.2710   56.2603 H   0  0  0  0  0
   58.7352   19.3334   57.0604 H   0  0  0  0  0
   58.5234   16.8062   57.2524 H   0  0  0  0  0
   58.2747   18.3898   59.1144 H   0  0  0  0  0
   56.5561   18.6041   58.7005 H   0  0  0  0  0
   57.1420   17.0259   59.2812 H   0  0  0  0  0
   55.6407   17.4893   56.7423 H   0  0  0  0  0
   56.7000   16.5093   55.6990 H   0  0  0  0  0
   56.2679   15.9281   57.3258 H   0  0  0  0  0
   60.2147   20.2168   54.2261 H   0  0  0  0  0
   57.9740   21.6473   53.0544 H   0  0  0  0  0
   59.9003   23.4089   52.5691 H   0  0  0  0  0
   60.9271   22.3199   53.5386 H   0  0  0  0  0
   59.3768   22.5164   55.4113 H   0  0  0  0  0
   58.3426   23.6093   54.4366 H   0  0  0  0  0
   60.5245   26.3345   54.5261 H   0  0  0  0  0
   59.3621   25.4522   53.5303 H   0  0  0  0  0
   60.2417   19.4864   51.6926 H   0  0  0  0  0
   60.0868   20.9832   49.1155 H   0  0  0  0  0
   62.1352   19.6755   50.1288 H   0  0  0  0  0
   61.8331   19.8641   48.3584 H   0  0  0  0  0
   62.2939   18.1027   47.5513 H   0  0  0  0  0
   59.7163   19.7596   47.1388 H   0  0  0  0  0
   57.3455   17.8692   47.3759 H   0  0  0  0  0
   56.0331   19.2409   46.0851 H   0  0  0  0  0
   57.3862   20.1660   45.4691 H   0  0  0  0  0
   56.2469   21.3073   47.1695 H   0  0  0  0  0
   58.5744   16.2184   44.5720 H   0  0  0  0  0
   57.0961   16.6291   45.4479 H   0  0  0  0  0
  1  2  2  0  0  0
  1  3  1  0  0  0
  4  1  1  0  0  0
  5  4  1  0  0  0
  6  5  1  0  0  0
  5  8  1  0  0  0
  6  7  2  0  0  0
 14  6  1  0  0  0
  8  9  1  0  0  0
  9 10  4  0  0  0
  9 11  4  0  0  0
 10 12  4  0  0  0
 11 13  4  0  0  0
 13 12  4  0  0  0
 15 14  1  0  0  0
 16 15  1  0  0  0
 15 18  1  0  0  0
 16 17  2  0  0  0
 23 16  1  0  0  0
 18 19  1  0  0  0
 19 20  1  0  0  0
 20 21  1  0  0  0
 21 22  1  0  0  0
 24 23  1  0  0  0
 24 25  1  0  0  0
 24 30  1  0  0  0
 31 24  1  0  0  0
 25 26  1  0  0  0
 26 27  1  0  0  0
 26 28  1  0  0  0
 28 29  1  0  0  0
 29 68  2  0  0  0
 31 32  2  0  0  0
 33 31  1  0  0  0
 34 33  1  0  0  0
 35 34  1  0  0  0
 34 37  1  0  0  0
 35 36  2  0  0  0
 41 35  1  0  0  0
 37 38  1  0  0  0
 38 39  1  0  0  0
 38 40  1  0  0  0
 42 41  1  0  0  0
 43 42  1  0  0  0
 42 45  1  0  0  0
 43 44  2  0  0  0
 51 43  1  0  0  0
 45 46  1  0  0  0
 46 47  4  0  0  0
 46 48  4  0  0  0
 47 49  4  0  0  0
 48 50  4  0  0  0
 50 49  4  0  0  0
 52 51  1  0  0  0
 53 52  1  0  0  0
 52 55  1  0  0  0
 53 54  2  0  0  0
 63 53  1  0  0  0
 55 56  1  0  0  0
 56 57  1  0  0  0
 57 58  1  0  0  0
 58 59  1  0  0  0
 59 60  2  0  0  0
 59 61  1  0  0  0
 62 64  2  0  0  0
 65 62  1  0  0  0
 62 71  1  0  0  0
 63 65  1  0  0  0
 65 66  1  0  0  0
 65 70  1  0  0  0
 66 69  1  0  0  0
 68 67  1  0  0  0
 67 69  1  0  0  0
 71 72  1  0  0  0
 72 73  1  0  0  0
 72 75  1  0  0  0
 73 74  2  0  0  0
 73 79  1  0  0  0
 75 76  1  0  0  0
 76 77  1  0  0  0
 76 78  1  0  0  0
 79 80  1  0  0  0
 80 81  1  0  0  0
 80 83  1  0  0  0
 81 82  2  0  0  0
 81 88  1  0  0  0
 83 84  1  0  0  0
 84 85  1  0  0  0
 85 86  2  0  0  0
 85 87  1  0  0  0
 88 89  1  0  0  0
 89 90  1  0  0  0
 89 92  1  0  0  0
 90 91  2  0  0  0
 90 96  1  0  0  0
 92 93  1  0  0  0
 93 94  1  0  0  0
 93 95  2  0  0  0
 96 97  1  0  0  0
 97 98  1  0  0  0
 97100  1  0  0  0
 98 99  2  0  0  0
 98102  1  0  0  0
100101  1  0  0  0
  3103  1  0  0  0
  3104  1  0  0  0
  3105  1  0  0  0
  4106  1  0  0  0
  5107  1  0  0  0
  8108  1  0  0  0
  8109  1  0  0  0
 11110  1  0  0  0
 12111  1  0  0  0
 14112  1  0  0  0
 15113  1  0  0  0
 18114  1  0  0  0
 18115  1  0  0  0
 19116  1  0  0  0
 19117  1  0  0  0
 20118  1  0  0  0
 20119  1  0  0  0
 21120  1  0  0  0
 21121  1  0  0  0
 22122  1  0  0  0
 22123  1  0  0  0
 22124  1  0  0  0
 23125  1  0  0  0
 25126  1  0  0  0
 25127  1  0  0  0
 26128  1  0  0  0
 27129  1  0  0  0
 27130  1  0  0  0
 27131  1  0  0  0
 28132  1  0  0  0
 28133  1  0  0  0
 29134  1  0  0  0
 30135  1  0  0  0
 30136  1  0  0  0
 30137  1  0  0  0
 33138  1  0  0  0
 34139  1  0  0  0
 37140  1  0  0  0
 37141  1  0  0  0
 38142  1  0  0  0
 39143  1  0  0  0
 39144  1  0  0  0
 39145  1  0  0  0
 40146  1  0  0  0
 40147  1  0  0  0
 40148  1  0  0  0
 41149  1  0  0  0
 42150  1  0  0  0
 45151  1  0  0  0
 45152  1  0  0  0
 48153  1  0  0  0
 49154  1  0  0  0
 51155  1  0  0  0
 52156  1  0  0  0
 55157  1  0  0  0
 55158  1  0  0  0
 56159  1  0  0  0
 56160  1  0  0  0
 57161  1  0  0  0
 57162  1  0  0  0
 58163  1  0  0  0
 60164  1  0  0  0
 61165  1  0  0  0
 61166  1  0  0  0
 63167  1  0  0  0
 66168  1  0  0  0
 66169  1  0  0  0
 67170  1  0  0  0
 67171  1  0  0  0
 68172  1  0  0  0
 69173  1  0  0  0
 69174  1  0  0  0
 70175  1  0  0  0
 70176  1  0  0  0
 70177  1  0  0  0
 71178  1  0  0  0
 72179  1  0  0  0
 75180  1  0  0  0
 75181  1  0  0  0
 76182  1  0  0  0
 77183  1  0  0  0
 77184  1  0  0  0
 77185  1  0  0  0
 78186  1  0  0  0
 78187  1  0  0  0
 78188  1  0  0  0
 79189  1  0  0  0
 80190  1  0  0  0
 83191  1  0  0  0
 83192  1  0  0  0
 84193  1  0  0  0
 84194  1  0  0  0
 87195  1  0  0  0
 87196  1  0  0  0
 88197  1  0  0  0
 89198  1  0  0  0
 92199  1  0  0  0
 92200  1  0  0  0
 94201  1  0  0  0
 96202  1  0  0  0
 97203  1  0  0  0
100204  1  0  0  0
100205  1  0  0  0
101206  1  0  0  0
102207  1  0  0  0
102208  1  0  0  0
M  END
$$$$
