### 
### Created by X-TOOL on Mon Sep 10 21:13:29 2018
### 

@<TRIPOS>MOLECULE
5dx3_ligand
  210   212     1     0     0
SMALL
GAST_HUCK


@<TRIPOS>ATOM
      1 C          68.1900   24.0600   63.8190 C.2       1 ACE         0.1752
      2 O          68.1230   23.3650   64.8300 O.2       1 ACE        -0.3972
      3 CH3        69.4120   24.9730   63.6370 C.3       1 ACE         0.0258
      4 N          67.2220   24.0860   62.8790 N.am      1 HIS        -0.2640
      5 CA         66.0620   23.2000   63.0900 C.3       1 HIS         0.1420
      6 C          66.2870   21.7810   62.4700 C.2       1 HIS         0.2060
      7 O          67.0800   21.5640   61.5950 O.2       1 HIS        -0.3942
      8 CB         64.6360   23.6940   62.7160 C.3       1 HIS         0.0427
      9 CG         64.4300   25.0420   62.0570 C.2       1 HIS         0.0561
     10 ND1        64.6590   25.2580   60.7890 N.pl3     1 HIS        -0.2623
     11 CD2        63.9290   26.1290   62.6120 C.2       1 HIS        -0.0276
     12 CE1        64.3480   26.5330   60.5670 C.2       1 HIS         0.0875
     13 NE2        63.8940   27.0660   61.6900 N.2       1 HIS        -0.3437
     14 N          65.4920   20.8850   63.0040 N.am      1 LYS        -0.2636
     15 CA         65.4550   19.5040   62.6680 C.3       1 LYS         0.1307
     16 C          65.4370   19.2200   61.2010 C.2       1 LYS         0.2010
     17 O          64.7530   19.8440   60.4270 O.2       1 LYS        -0.3947
     18 CB         64.2280   18.8930   63.2400 C.3       1 LYS        -0.0122
     19 CG         64.4250   18.7730   64.7230 C.3       1 LYS        -0.0440
     20 CD         63.0910   18.9100   65.3990 C.3       1 LYS        -0.0124
     21 CE         62.9120   17.8670   66.4410 C.3       1 LYS        -0.0354
     22 NZ         62.0180   18.3560   67.4460 N.4       1 LYS         0.2185
     23 N          66.1140   18.1360   60.9070 N.am      1 5GM        -0.2742
     24 CA         66.1680   17.5590   59.5820 C.3       1 5GM         0.1306
     25 CB         66.8530   16.2380   59.6690 C.3       1 5GM        -0.0160
     26 CC         66.9760   15.5260   58.3590 C.3       1 5GM        -0.0358
     27 CD2        68.1540   14.6140   58.5230 C.3       1 5GM        -0.0609
     28 CD         65.7410   14.7290   58.0150 C.3       1 5GM        -0.0339
     29 CE         65.8950   13.9390   56.9260 C.2       1 5GM        -0.0984
     30 CB2        67.0650   18.4480   58.7710 C.3       1 5GM        -0.0320
     31 C          64.8540   17.4570   59.0430 C.2       1 5GM         0.2263
     32 O          64.5530   17.8770   57.9580 O.2       1 5GM        -0.3419
     33 N          63.8570   16.9060   59.7940 N.am      1 LEU        -0.2629
     34 CA         62.4710   16.7510   59.3530 C.3       1 LEU         0.1314
     35 C          61.8210   17.9510   59.0530 C.2       1 LEU         0.2042
     36 O          61.1120   18.0230   58.0840 O.2       1 LEU        -0.3944
     37 CB         61.7700   15.9250   60.4130 C.3       1 LEU        -0.0099
     38 CG         60.4380   15.4190   59.9920 C.3       1 LEU        -0.0425
     39 CD1        60.5240   14.5920   58.7450 C.3       1 LEU        -0.0625
     40 CD2        59.8210   14.5640   61.0820 C.3       1 LEU        -0.0625
     41 N          62.0160   19.0560   59.7810 N.am      1 HIS        -0.2619
     42 CA         61.4090   20.3580   59.4710 C.3       1 HIS         0.1421
     43 C          61.6630   20.7180   58.1350 C.2       1 HIS         0.2060
     44 O          60.7770   20.9690   57.3770 O.2       1 HIS        -0.3942
     45 CB         61.9140   21.3650   60.4870 C.3       1 HIS         0.0427
     46 CG         61.2940   22.7320   60.3550 C.2       1 HIS         0.0561
     47 ND1        60.2660   23.1700   60.9970 N.pl3     1 HIS        -0.2623
     48 CD2        61.7300   23.6660   59.5740 C.2       1 HIS        -0.0276
     49 CE1        60.0480   24.3740   60.5930 C.2       1 HIS         0.0875
     50 NE2        60.9480   24.6890   59.7310 N.2       1 HIS        -0.3437
     51 N          62.8830   20.6370   57.6350 N.am      1 ARG        -0.2636
     52 CA         63.2550   20.8640   56.2560 C.3       1 ARG         0.1308
     53 C          62.7260   19.9680   55.3230 C.2       1 ARG         0.2010
     54 O          62.1800   20.4070   54.3500 O.2       1 ARG        -0.3947
     55 CB         64.7910   20.8710   56.2070 C.3       1 ARG        -0.0092
     56 CG         65.3370   21.0570   54.8390 C.3       1 ARG        -0.0156
     57 CD         65.2430   22.5210   54.5190 C.3       1 ARG         0.0627
     58 NE         65.8540   22.7840   53.2630 N.pl3     1 ARG        -0.2723
     59 CZ         65.2360   22.7210   52.1450 C.cat     1 ARG         0.2882
     60 NH1        65.9180   22.9440   51.0580 N.pl3     1 ARG        -0.2849
     61 NH2        63.9710   22.3830   52.0860 N.pl3     1 ARG        -0.2849
     62 C          60.8510   17.7940   54.2870 C.2       1 MK8         0.2263
     63 N          62.7790   18.6150   55.4950 N.am      1 MK8        -0.2743
     64 O          60.3380   17.5260   53.2160 O.2       1 MK8        -0.3419
     65 CA         62.2370   17.6260   54.5310 C.3       1 MK8         0.1304
     66 CB         62.3960   16.1880   55.0080 C.3       1 MK8        -0.0186
     67 CD         63.7390   14.3930   55.9070 C.3       1 MK8        -0.0365
     68 CE         64.9680   13.7930   55.9370 C.2       1 MK8        -0.0987
     69 CG         63.7650   15.7350   55.3130 C.3       1 MK8        -0.0449
     70 CB1        63.0230   17.7810   53.2390 C.3       1 MK8        -0.0320
     71 N          60.1140   18.2170   55.3000 N.am      1 LEU        -0.2629
     72 CA         58.6880   18.4220   55.1610 C.3       1 LEU         0.1314
     73 C          58.3460   19.5240   54.1640 C.2       1 LEU         0.2041
     74 O          57.2870   19.5430   53.6360 O.2       1 LEU        -0.3944
     75 CB         58.0320   18.7420   56.4740 C.3       1 LEU        -0.0099
     76 CG         57.6810   17.4970   57.2870 C.3       1 LEU        -0.0425
     77 CD1        57.3940   17.9070   58.6910 C.3       1 LEU        -0.0625
     78 CD2        56.4930   16.8100   56.7260 C.3       1 LEU        -0.0625
     79 N          59.2800   20.3530   53.8410 N.am      1 GLN        -0.2636
     80 CA         59.0450   21.4770   52.9450 C.3       1 GLN         0.1330
     81 C          59.2700   21.2560   51.4530 C.2       1 GLN         0.2041
     82 O          58.8460   22.1030   50.7080 O.2       1 GLN        -0.3944
     83 CB         59.9070   22.6610   53.3620 C.3       1 GLN         0.0045
     84 CG         59.3610   23.2680   54.6220 C.3       1 GLN         0.0412
     85 CD         60.1860   24.4260   55.0450 C.2       1 GLN         0.1737
     86 OE1        60.9390   24.3750   55.9950 O.2       1 GLN        -0.3973
     87 NE2        60.0120   25.4780   54.3160 N.am      1 GLN        -0.3009
     88 N          59.8990   20.1820   51.0300 N.am      1 ASP        -0.2622
     89 CA         60.0990   20.0020   49.5900 C.3       1 ASP         0.1423
     90 C          58.9300   19.2590   48.9250 C.2       1 ASP         0.2057
     91 O          58.0850   18.6630   49.5400 O.2       1 ASP        -0.3943
     92 CB         61.4780   19.4320   49.2940 C.3       1 ASP         0.0406
     93 CG         61.4450   17.9520   49.1420 C.2       1 ASP         0.0393
     94 OD1        61.8230   17.4440   48.0670 O.co2     1 ASP        -0.5688
     95 OD2        60.8210   17.4080   50.0350 O.co2     1 ASP        -0.5688
     96 N          58.9600   19.2700   47.6170 N.am      1 SER        -0.2615
     97 CA         57.9440   18.6030   46.8360 C.3       1 SER         0.1536
     98 C          58.6710   17.8690   45.7430 C.2       1 SER         0.2015
     99 O          59.8200   18.1600   45.5090 O.2       1 SER        -0.3947
    100 CB         56.9960   19.6720   46.3590 C.3       1 SER         0.0843
    101 OG         56.8470   20.6070   47.4360 O.3       1 SER        -0.3903
    102 N          58.0690   16.8280   45.2150 N.am      1 NH2        -0.2989
    103 H1         69.3202   25.5238   62.6893 H         1 ACE         0.0467
    104 H2         70.3266   24.3622   63.6189 H         1 ACE         0.0467
    105 H3         69.4641   25.6868   64.4723 H         1 ACE         0.0467
    106 H4         67.2882   24.6787   62.0763 H         1 HIS         0.1884
    107 H5         66.0296   23.0568   64.1801 H         1 HIS         0.0824
    108 H6         64.0544   23.7092   63.6495 H         1 HIS         0.0491
    109 H7         64.2130   22.9429   62.0326 H         1 HIS         0.0491
    110 H8         65.0098   24.5780   60.0995 H         1 HIS         0.2386
    111 H9         63.6035   26.2317   63.6461 H         1 HIS         0.0324
    112 H10        64.4505   27.0531   59.6157 H         1 HIS         0.1149
    113 H11        64.8566   21.2006   63.7088 H         1 LYS         0.1883
    114 H12        66.3432   19.0241   63.1048 H         1 LYS         0.0800
    115 H13        64.0666   17.8970   62.8020 H         1 LYS         0.0312
    116 H14        63.3580   19.5320   63.0284 H         1 LYS         0.0312
    117 H15        65.1002   19.5681   65.0722 H         1 LYS         0.0269
    118 H16        64.8609   17.7913   64.9602 H         1 LYS         0.0269
    119 H17        62.2946   18.8075   64.6472 H         1 LYS         0.0317
    120 H18        63.0262   19.9025   65.8689 H         1 LYS         0.0317
    121 H19        63.8849   17.6313   66.8969 H         1 LYS         0.0813
    122 H20        62.4914   16.9589   65.9845 H         1 LYS         0.0813
    123 H21        61.8930   17.6515   68.1560 H         1 LYS         0.1994
    124 H22        61.1272   18.5723   67.0269 H         1 LYS         0.1994
    125 H23        62.4042   19.1885   67.8630 H         1 LYS         0.1994
    126 H24        66.6213   17.6830   61.6401 H         1 5GM         0.1839
    127 H25        66.2824   15.5977   60.3578 H         1 5GM         0.0281
    128 H26        67.8642   16.3991   60.0708 H         1 5GM         0.0281
    129 H27        67.1645   16.2527   57.5551 H         1 5GM         0.0317
    130 H28        68.3124   14.0488   57.5927 H         1 5GM         0.0234
    131 H29        67.9633   13.9137   59.3495 H         1 5GM         0.0234
    132 H30        69.0509   15.2101   58.7470 H         1 5GM         0.0234
    133 H31        64.9160   15.4306   57.8225 H         1 5GM         0.0391
    134 H32        65.4871   14.0915   58.8747 H         1 5GM         0.0391
    135 H33        66.8254   13.3806   56.8336 H         1 5GM         0.0450
    136 H34        67.1429   18.0541   57.7469 H         1 5GM         0.0242
    137 H35        68.0644   18.4771   59.2297 H         1 5GM         0.0242
    138 H36        66.6451   19.4643   58.7419 H         1 5GM         0.0242
    139 H37        64.0906   16.5851   60.7118 H         1 LEU         0.1889
    140 H38        62.4807   16.1650   58.4222 H         1 LEU         0.0802
    141 H39        61.6369   16.5498   61.3084 H         1 LEU         0.0315
    142 H40        62.4071   15.0627   60.6590 H         1 LEU         0.0315
    143 H41        59.7848   16.2831   59.8004 H         1 LEU         0.0298
    144 H42        59.5194   14.2387   58.4694 H         1 LEU         0.0232
    145 H43        61.1807   13.7276   58.9228 H         1 LEU         0.0232
    146 H44        60.9349   15.2027   57.9276 H         1 LEU         0.0232
    147 H45        59.7469   15.1501   62.0099 H         1 LEU         0.0232
    148 H46        60.4521   13.6801   61.2561 H         1 LEU         0.0232
    149 H47        58.8164   14.2418   60.7707 H         1 LEU         0.0232
    150 H48        62.6096   18.9925   60.5832 H         1 HIS         0.1885
    151 H49        60.3185   20.2746   59.5889 H         1 HIS         0.0824
    152 H50        63.0024   21.4654   60.3631 H         1 HIS         0.0491
    153 H51        61.6934   20.9809   61.4939 H         1 HIS         0.0491
    154 H52        59.7203   22.6538   61.7018 H         1 HIS         0.2386
    155 H53        62.5910   23.6052   58.9100 H         1 HIS         0.0324
    156 H54        59.2357   25.0181   60.9266 H         1 HIS         0.1149
    157 H55        63.6178   20.3963   58.2691 H         1 ARG         0.1883
    158 H56        62.8919   21.8636   55.9752 H         1 ARG         0.0800
    159 H57        65.1567   19.9112   56.6007 H         1 ARG         0.0313
    160 H58        65.1563   21.6911   56.8425 H         1 ARG         0.0313
    161 H59        64.7477   20.4745   54.1155 H         1 ARG         0.0301
    162 H60        66.3868   20.7303   54.8045 H         1 ARG         0.0301
    163 H61        65.7562   23.0987   55.3018 H         1 ARG         0.0689
    164 H62        64.1846   22.8179   54.4785 H         1 ARG         0.0689
    165 H63        66.8516   23.0400   53.2525 H         1 ARG         0.2642
    166 H64        65.4525   22.9016   50.1402 H         1 ARG         0.2615
    167 H65        66.9228   23.1628   51.1162 H         1 ARG         0.2615
    168 H66        63.4433   22.2095   52.9534 H         1 ARG         0.2615
    169 H67        63.5046   22.2909   51.1723 H         1 ARG         0.2615
    170 H68        63.2122   18.2670   56.3264 H         1 MK8         0.1839
    171 H69        61.9957   15.5308   54.2220 H         1 MK8         0.0279
    172 H70        61.7962   16.0729   55.9229 H         1 MK8         0.0279
    173 H71        63.3644   14.4743   56.9380 H         1 MK8         0.0388
    174 H72        63.0567   13.7630   55.3175 H         1 MK8         0.0388
    175 H73        65.2275   13.1448   55.1013 H         1 MK8         0.0450
    176 H74        64.2294   16.4362   56.0219 H         1 MK8         0.0284
    177 H75        64.3536   15.7089   54.3841 H         1 MK8         0.0284
    178 H76        62.6502   17.0621   52.4946 H         1 MK8         0.0242
    179 H77        64.0886   17.5888   53.4327 H         1 MK8         0.0242
    180 H78        62.8989   18.8042   52.8548 H         1 MK8         0.0242
    181 H79        60.5511   18.3991   56.1808 H         1 LEU         0.1889
    182 H80        58.2585   17.4813   54.7861 H         1 LEU         0.0802
    183 H81        57.1069   19.3031   56.2758 H         1 LEU         0.0315
    184 H82        58.7188   19.3647   57.0661 H         1 LEU         0.0315
    185 H83        58.5356   16.8046   57.2736 H         1 LEU         0.0298
    186 H84        57.1396   17.0186   59.2877 H         1 LEU         0.0232
    187 H85        56.5485   18.6105   58.7020 H         1 LEU         0.0232
    188 H86        58.2821   18.3944   59.1195 H         1 LEU         0.0232
    189 H87        56.7008   16.5057   55.6896 H         1 LEU         0.0232
    190 H88        55.6322   17.4946   56.7415 H         1 LEU         0.0232
    191 H89        56.2646   15.9199   57.3306 H         1 LEU         0.0232
    192 H90        60.1963   20.2195   54.2185 H         1 GLN         0.1883
    193 H91        57.9882   21.7558   53.0695 H         1 GLN         0.0801
    194 H92        59.9031   23.4155   52.5616 H         1 GLN         0.0337
    195 H93        60.9374   22.3186   53.5382 H         1 GLN         0.0337
    196 H94        59.3658   22.5105   55.4196 H         1 GLN         0.0504
    197 H95        58.3295   23.6055   54.4430 H         1 GLN         0.0504
    198 H96        60.5210   26.3151   54.5165 H         1 GLN         0.1814
    199 H97        59.3682   25.4554   53.5511 H         1 GLN         0.1814
    200 H98        60.2350   19.5000   51.6796 H         1 ASP         0.1884
    201 H99        60.0934   21.0103   49.1505 H         1 ASP         0.0819
    202 H100       62.1547   19.6895   50.1221 H         1 ASP         0.0478
    203 H101       61.8542   19.8771   48.3611 H         1 ASP         0.0478
    204 H102       59.7015   19.7500   47.1482 H         1 SER         0.1884
    205 H103       57.3895   17.8788   47.4509 H         1 SER         0.0823
    206 H104       56.0219   19.2283   46.1058 H         1 SER         0.0606
    207 H105       57.4099   20.1773   45.4739 H         1 SER         0.0606
    208 H106       56.4951   20.1591   48.1963 H         1 SER         0.2097
    209 H107       58.5148   16.3095   44.4853 H         1 NH2         0.1815
    210 H108       57.1648   16.5539   45.5427 H         1 NH2         0.1815
@<TRIPOS>BOND
     1    1    2 2  
     2    1    3 1  
     3    4    1 am 
     4    5    4 1  
     5    6    5 1  
     6    5    8 1  
     7    6    7 2  
     8   14    6 am 
     9    8    9 1  
    10    9   10 1  
    11    9   11 2  
    12   10   12 1  
    13   11   13 1  
    14   13   12 2  
    15   15   14 1  
    16   16   15 1  
    17   15   18 1  
    18   16   17 2  
    19   23   16 am 
    20   18   19 1  
    21   19   20 1  
    22   20   21 1  
    23   21   22 1  
    24   24   23 1  
    25   24   25 1  
    26   24   30 1  
    27   31   24 1  
    28   25   26 1  
    29   26   27 1  
    30   26   28 1  
    31   28   29 1  
    32   29   68 2  
    33   31   32 2  
    34   33   31 am 
    35   34   33 1  
    36   35   34 1  
    37   34   37 1  
    38   35   36 2  
    39   41   35 am 
    40   37   38 1  
    41   38   39 1  
    42   38   40 1  
    43   42   41 1  
    44   43   42 1  
    45   42   45 1  
    46   43   44 2  
    47   51   43 am 
    48   45   46 1  
    49   46   47 1  
    50   46   48 2  
    51   47   49 1  
    52   48   50 1  
    53   50   49 2  
    54   52   51 1  
    55   53   52 1  
    56   52   55 1  
    57   53   54 2  
    58   63   53 am 
    59   55   56 1  
    60   56   57 1  
    61   57   58 1  
    62   58   59 ar 
    63   59   60 ar 
    64   59   61 ar 
    65   62   64 2  
    66   65   62 1  
    67   62   71 am 
    68   63   65 1  
    69   65   66 1  
    70   65   70 1  
    71   66   69 1  
    72   68   67 1  
    73   67   69 1  
    74   71   72 1  
    75   72   73 1  
    76   72   75 1  
    77   73   74 2  
    78   73   79 am 
    79   75   76 1  
    80   76   77 1  
    81   76   78 1  
    82   79   80 1  
    83   80   81 1  
    84   80   83 1  
    85   81   82 2  
    86   81   88 am 
    87   83   84 1  
    88   84   85 1  
    89   85   86 2  
    90   85   87 am 
    91   88   89 1  
    92   89   90 1  
    93   89   92 1  
    94   90   91 2  
    95   90   96 am 
    96   92   93 1  
    97   93   94 ar 
    98   93   95 ar 
    99   96   97 1  
   100   97   98 1  
   101   97  100 1  
   102   98   99 2  
   103   98  102 am 
   104  100  101 1  
   105    3  103 1  
   106    3  104 1  
   107    3  105 1  
   108    4  106 1  
   109    5  107 1  
   110    8  108 1  
   111    8  109 1  
   112   10  110 1  
   113   11  111 1  
   114   12  112 1  
   115   14  113 1  
   116   15  114 1  
   117   18  115 1  
   118   18  116 1  
   119   19  117 1  
   120   19  118 1  
   121   20  119 1  
   122   20  120 1  
   123   21  121 1  
   124   21  122 1  
   125   22  123 1  
   126   22  124 1  
   127   22  125 1  
   128   23  126 1  
   129   25  127 1  
   130   25  128 1  
   131   26  129 1  
   132   27  130 1  
   133   27  131 1  
   134   27  132 1  
   135   28  133 1  
   136   28  134 1  
   137   29  135 1  
   138   30  136 1  
   139   30  137 1  
   140   30  138 1  
   141   33  139 1  
   142   34  140 1  
   143   37  141 1  
   144   37  142 1  
   145   38  143 1  
   146   39  144 1  
   147   39  145 1  
   148   39  146 1  
   149   40  147 1  
   150   40  148 1  
   151   40  149 1  
   152   41  150 1  
   153   42  151 1  
   154   45  152 1  
   155   45  153 1  
   156   47  154 1  
   157   48  155 1  
   158   49  156 1  
   159   51  157 1  
   160   52  158 1  
   161   55  159 1  
   162   55  160 1  
   163   56  161 1  
   164   56  162 1  
   165   57  163 1  
   166   57  164 1  
   167   58  165 1  
   168   60  166 1  
   169   60  167 1  
   170   61  168 1  
   171   61  169 1  
   172   63  170 1  
   173   66  171 1  
   174   66  172 1  
   175   67  173 1  
   176   67  174 1  
   177   68  175 1  
   178   69  176 1  
   179   69  177 1  
   180   70  178 1  
   181   70  179 1  
   182   70  180 1  
   183   71  181 1  
   184   72  182 1  
   185   75  183 1  
   186   75  184 1  
   187   76  185 1  
   188   77  186 1  
   189   77  187 1  
   190   77  188 1  
   191   78  189 1  
   192   78  190 1  
   193   78  191 1  
   194   79  192 1  
   195   80  193 1  
   196   83  194 1  
   197   83  195 1  
   198   84  196 1  
   199   84  197 1  
   200   87  198 1  
   201   87  199 1  
   202   88  200 1  
   203   89  201 1  
   204   92  202 1  
   205   92  203 1  
   206   96  204 1  
   207   97  205 1  
   208  100  206 1  
   209  100  207 1  
   210  101  208 1  
   211  102  209 1  
   212  102  210 1  
@<TRIPOS>SUBSTRUCTURE
     1 ACE         1

