5oxg_ligand
  -I-interpret- 

 54 59  0  0  0  0  0  0  0  0999 V2000
  182.8200  -42.3390   10.4270 C   0  0  0  0  0
  183.0970  -42.6840   11.8870 C   0  0  0  0  0
  184.0190  -43.7640   12.1300 N   0  0  0  0  0
  183.6580  -44.9020   11.3180 C   0  0  0  0  0
  183.4590  -44.5780    9.8400 C   0  0  0  0  0
  182.5340  -43.4850    9.6090 N   0  3  0  0  0
  184.3610  -44.0720   13.4860 C   0  0  0  0  0
  183.6260  -43.6120   14.5770 C   0  0  0  0  0
  183.9660  -43.9480   15.8800 C   0  0  0  0  0
  185.0590  -44.7770   16.1450 C   0  0  0  0  0
  185.7580  -45.2730   15.0470 C   0  0  0  0  0
  185.4160  -44.9210   13.7450 C   0  0  0  0  0
  185.3730  -45.1590   17.4680 C   0  0  0  0  0
  185.0030  -44.3790   18.5790 C   0  0  0  0  0
  185.2850  -44.7870   19.8340 N   0  0  0  0  0
  185.8940  -45.9940   20.0520 C   0  0  0  0  0
  186.2730  -46.6370   21.2670 C   0  0  0  0  0
  186.8600  -47.8300   20.8650 C   0  0  0  0  0
  186.8430  -47.8980   19.5270 N   0  0  0  0  0
  186.2450  -46.7690   19.0300 N   0  0  0  0  0
  185.9850  -46.3900   17.7360 C   0  0  0  0  0
  186.1590  -46.2380   22.6120 C   0  0  0  0  0
  187.3210  -46.3470   23.3880 C   0  0  0  0  0
  187.3390  -46.0330   24.7540 C   0  0  0  0  0
  186.1770  -45.5720   25.3710 C   0  0  0  0  0
  184.9810  -45.4690   24.6080 C   0  0  0  0  0
  184.9520  -45.7930   23.2610 C   0  0  0  0  0
  183.6930  -45.6510   22.5770 C   0  0  0  0  0
  182.5800  -45.2000   23.2810 C   0  0  0  0  0
  182.6850  -44.8990   24.6450 C   0  0  0  0  0
  183.8610  -45.0270   25.2950 N   0  0  0  0  0
  183.7177  -41.8678   10.0267 H   0  0  0  0  0
  181.9414  -41.6943   10.4047 H   0  0  0  0  0
  182.1430  -43.0018   12.3077 H   0  0  0  0  0
  183.5513  -41.7955   12.3256 H   0  0  0  0  0
  182.7071  -45.2779   11.6957 H   0  0  0  0  0
  184.4785  -45.6166   11.3829 H   0  0  0  0  0
  183.0445  -45.4656    9.3621 H   0  0  0  0  0
  184.4266  -44.2804    9.4359 H   0  0  0  0  0
  182.6180  -43.2031    8.6323 H   0  0  0  0  0
  181.5964  -43.8119    9.8425 H   0  0  0  0  0
  182.7614  -42.9716   14.4024 H   0  0  0  0  0
  183.3723  -43.5599   16.7077 H   0  0  0  0  0
  186.5934  -45.9535   15.2118 H   0  0  0  0  0
  185.9936  -45.3245   12.9133 H   0  0  0  0  0
  184.4824  -43.4340   18.4241 H   0  0  0  0  0
  187.2690  -48.5894   21.5314 H   0  0  0  0  0
  186.2564  -47.0509   16.9128 H   0  0  0  0  0
  188.2414  -46.6873   22.9135 H   0  0  0  0  0
  188.2567  -46.1487   25.3307 H   0  0  0  0  0
  186.1849  -45.2940   26.4249 H   0  0  0  0  0
  183.6121  -45.8944   21.5176 H   0  0  0  0  0
  181.6247  -45.0808   22.7698 H   0  0  0  0  0
  181.8047  -44.5566   25.1891 H   0  0  0  0  0
  1  2  1  0  0  0
  1  6  1  0  0  0
  2  3  1  0  0  0
  3  4  1  0  0  0
  3  7  1  0  0  0
  4  5  1  0  0  0
  5  6  1  0  0  0
  7  8  4  0  0  0
  7 12  4  0  0  0
  8  9  4  0  0  0
  9 10  4  0  0  0
 10 11  4  0  0  0
 10 13  1  0  0  0
 11 12  4  0  0  0
 13 14  4  0  0  0
 13 21  4  0  0  0
 14 15  4  0  0  0
 15 16  4  0  0  0
 16 17  4  0  0  0
 16 20  4  0  0  0
 17 18  4  0  0  0
 17 22  1  0  0  0
 18 19  4  0  0  0
 19 20  4  0  0  0
 20 21  4  0  0  0
 22 23  4  0  0  0
 22 27  4  0  0  0
 23 24  4  0  0  0
 24 25  4  0  0  0
 25 26  4  0  0  0
 26 27  4  0  0  0
 26 31  4  0  0  0
 27 28  4  0  0  0
 28 29  4  0  0  0
 29 30  4  0  0  0
 30 31  4  0  0  0
  1 32  1  0  0  0
  1 33  1  0  0  0
  2 34  1  0  0  0
  2 35  1  0  0  0
  4 36  1  0  0  0
  4 37  1  0  0  0
  5 38  1  0  0  0
  5 39  1  0  0  0
  6 40  1  0  0  0
  6 41  1  0  0  0
  8 42  1  0  0  0
  9 43  1  0  0  0
 11 44  1  0  0  0
 12 45  1  0  0  0
 14 46  1  0  0  0
 18 47  1  0  0  0
 21 48  1  0  0  0
 23 49  1  0  0  0
 24 50  1  0  0  0
 25 51  1  0  0  0
 28 52  1  0  0  0
 29 53  1  0  0  0
 30 54  1  0  0  0
M  END
$$$$
