6ej3_ligand
  -I-interpret- 

 55 59  0  0  0  0  0  0  0  0999 V2000
  -21.7250  -39.4000   -8.2570 C   0  0  0  0  0
  -21.1710  -38.6880   -9.3040 C   0  0  0  0  0
  -19.5730  -40.1130   -7.5390 C   0  0  0  0  0
  -20.9450  -40.1180   -7.3610 C   0  0  0  0  0
  -21.5310  -40.9230   -6.3040 C   0  0  0  0  0
  -19.8040  -38.7090   -9.4650 C   0  0  0  0  0
  -19.0160  -39.4110   -8.5940 C   0  0  0  0  0
  -21.4160  -42.0160   -4.1680 C   0  0  0  0  0
  -16.0280  -40.0750   -7.5560 C   0  0  0  0  0
  -19.0050  -38.0340  -10.5170 C   0  0  0  0  0
  -16.2220  -37.0150  -11.9260 C   0  0  0  0  0
  -17.0690  -35.5520  -10.0410 C   0  0  0  0  0
  -16.5380  -38.2630  -11.0950 C   0  0  0  0  0
  -15.9650  -35.7720  -11.0710 C   0  0  0  0  0
  -17.5650  -39.2880   -8.9510 C   0  0  0  0  0
  -17.5700  -38.1000   -9.9560 C   0  0  0  0  0
  -20.7320  -42.2770   -2.8740 C   0  0  0  0  0
  -16.7450  -39.0200   -7.7670 N   0  0  0  0  0
  -15.1190  -40.2570   -6.5310 N   0  0  0  0  0
  -15.9830  -34.6550  -11.9520 O   0  0  0  0  0
  -20.8970  -41.1300   -5.0910 C   0  0  0  0  0
  -22.7060  -41.6280   -6.5000 C   0  0  0  0  0
  -22.6050  -42.6450   -4.4710 C   0  0  0  0  0
  -17.2840  -36.7940   -9.1850 C   0  0  0  0  0
  -17.0530  -40.6420   -9.4570 C   0  0  0  0  0
  -14.9010  -33.7630  -11.7110 C   0  0  0  0  0
  -23.2750  -42.4590   -5.6140 N   0  0  0  0  0
  -16.1730  -41.1160   -8.4310 O   0  0  0  0  0
  -22.8077  -39.3977   -8.1310 H   0  0  0  0  0
  -21.8032  -38.1217   -9.9879 H   0  0  0  0  0
  -18.9314  -40.6613   -6.8492 H   0  0  0  0  0
  -19.3368  -37.0141  -10.7112 H   0  0  0  0  0
  -19.1003  -38.5113  -11.4923 H   0  0  0  0  0
  -17.0871  -36.8097  -12.5564 H   0  0  0  0  0
  -15.3151  -37.2179  -12.4956 H   0  0  0  0  0
  -17.9964  -35.3299  -10.5689 H   0  0  0  0  0
  -16.7764  -34.7284   -9.3897 H   0  0  0  0  0
  -15.6024  -38.5457  -10.6125 H   0  0  0  0  0
  -16.9706  -38.9830  -11.7896 H   0  0  0  0  0
  -15.0185  -35.8946  -10.5446 H   0  0  0  0  0
  -19.7340  -42.6715   -3.0651 H   0  0  0  0  0
  -20.6548  -41.3467   -2.3112 H   0  0  0  0  0
  -21.3075  -43.0035   -2.3003 H   0  0  0  0  0
  -16.7406  -38.1631   -7.2137 H   0  0  0  0  0
  -14.9639  -39.5145   -5.8490 H   0  0  0  0  0
  -19.9792  -40.5883   -4.8623 H   0  0  0  0  0
  -23.2123  -41.4966   -7.4563 H   0  0  0  0  0
  -23.0233  -43.3336   -3.7368 H   0  0  0  0  0
  -18.1652  -36.5980   -8.5741 H   0  0  0  0  0
  -16.3546  -36.9561   -8.6390 H   0  0  0  0  0
  -16.5409  -40.5467  -10.4145 H   0  0  0  0  0
  -17.8708  -41.3390   -9.6399 H   0  0  0  0  0
  -14.9604  -33.3897  -10.6886 H   0  0  0  0  0
  -13.9580  -34.2912  -11.8521 H   0  0  0  0  0
  -14.9586  -32.9272  -12.4083 H   0  0  0  0  0
  2  1  4  0  0  0
  4  1  4  0  0  0
  6  2  4  0  0  0
  3  4  4  0  0  0
  7  3  4  0  0  0
  4  5  1  0  0  0
  5 21  4  0  0  0
  5 22  4  0  0  0
  7  6  4  0  0  0
 10  6  1  0  0  0
 15  7  1  0  0  0
  8 17  1  0  0  0
 21  8  4  0  0  0
  8 23  4  0  0  0
 18  9  1  0  0  0
  9 19  2  0  0  0
  9 28  1  0  0  0
 16 10  1  0  0  0
 13 11  1  0  0  0
 11 14  1  0  0  0
 14 12  1  0  0  0
 12 24  1  0  0  0
 16 13  1  0  0  0
 14 20  1  0  0  0
 15 16  1  0  0  0
 15 18  1  0  0  0
 15 25  1  0  0  0
 16 24  1  0  0  0
 20 26  1  0  0  0
 22 27  4  0  0  0
 23 27  4  0  0  0
 25 28  1  0  0  0
  1 29  1  0  0  0
  2 30  1  0  0  0
  3 31  1  0  0  0
 10 32  1  0  0  0
 10 33  1  0  0  0
 11 34  1  0  0  0
 11 35  1  0  0  0
 12 36  1  0  0  0
 12 37  1  0  0  0
 13 38  1  0  0  0
 13 39  1  0  0  0
 14 40  1  0  0  0
 17 41  1  0  0  0
 17 42  1  0  0  0
 17 43  1  0  0  0
 18 44  1  0  0  0
 19 45  1  0  0  0
 21 46  1  0  0  0
 22 47  1  0  0  0
 23 48  1  0  0  0
 24 49  1  0  0  0
 24 50  1  0  0  0
 25 51  1  0  0  0
 25 52  1  0  0  0
 26 53  1  0  0  0
 26 54  1  0  0  0
 26 55  1  0  0  0
M  END
$$$$
