3erk_ligand
  -I-interpret- 

 45 48  0  0  0  0  0  0  0  0999 V2000
  -12.9880   14.7970   44.3980 C   0  0  0  0  0
  -13.2530   15.1750   45.8760 C   0  0  0  0  0
  -13.0720   16.6510   46.1480 N   0  3  0  0  0
  -13.7500   17.6150   45.1990 C   0  0  0  0  0
  -13.5720   17.2100   43.7000 C   0  0  0  0  0
  -13.8090   15.6920   43.4140 C   0  0  0  0  0
  -14.5360   13.2100   37.9750 C   0  0  0  0  0
  -14.5580   12.3140   36.8780 C   0  0  0  0  0
  -13.3690   11.6650   36.4790 C   0  0  0  0  0
  -12.1630   11.9040   37.1590 C   0  0  0  0  0
  -12.1350   12.7950   38.2530 C   0  0  0  0  0
  -13.3220   13.4750   38.6950 C   0  0  0  0  0
  -13.3820   10.8070   35.4380 F   0  0  0  0  0
  -16.5490   14.3810   41.7750 C   0  0  0  0  0
  -15.3520   13.6930   41.3060 C   0  0  0  0  0
  -15.4020   12.3420   41.0870 N   0  0  0  0  0
  -16.5450   11.6890   41.3090 C   0  0  0  0  0
  -17.6910   12.2340   41.7400 N   0  0  0  0  0
  -17.7110   13.5640   41.9770 C   0  0  0  0  0
  -16.5420   10.3960   41.0790 N   0  0  0  0  0
  -13.4740   15.2840   42.0050 N   0  0  0  0  0
  -12.3750   15.6630   41.2650 C   0  0  0  0  0
  -12.1510   15.2100   40.0160 N   0  0  0  0  0
  -13.2610   14.3660   39.8260 C   0  0  0  0  0
  -14.1090   14.4140   41.0570 C   0  0  0  0  0
  -11.9279   14.9439   44.1915 H   0  0  0  0  0
  -13.2891   13.7599   44.2503 H   0  0  0  0  0
  -12.5355   14.6328   46.4918 H   0  0  0  0  0
  -14.2876   14.9190   46.1045 H   0  0  0  0  0
  -12.0718   16.8294   46.0574 H   0  0  0  0  0
  -13.4930   16.8186   47.0618 H   0  0  0  0  0
  -13.2958   18.5962   45.3371 H   0  0  0  0  0
  -14.8168   17.6107   45.4227 H   0  0  0  0  0
  -12.5401   17.4313   43.4275 H   0  0  0  0  0
  -14.3145   17.7650   43.1266 H   0  0  0  0  0
  -14.8783   15.5403   43.5613 H   0  0  0  0  0
  -15.4573   13.7074   38.2782 H   0  0  0  0  0
  -15.4894   12.1262   36.3438 H   0  0  0  0  0
  -11.2493   11.4014   36.8417 H   0  0  0  0  0
  -11.1938   12.9713   38.7737 H   0  0  0  0  0
  -16.5604   15.4549   41.9615 H   0  0  0  0  0
  -18.6322   14.0275   42.3302 H   0  0  0  0  0
  -17.3898    9.8493   41.2295 H   0  0  0  0  0
  -15.6918    9.9385   40.7498 H   0  0  0  0  0
  -11.6593   16.3560   41.7072 H   0  0  0  0  0
  1  6  1  0  0  0
  1  2  1  0  0  0
  2  3  1  0  0  0
  3  4  1  0  0  0
  4  5  1  0  0  0
  5  6  1  0  0  0
  6 21  1  0  0  0
 21 25  4  0  0  0
 21 22  4  0  0  0
 22 23  4  0  0  0
 23 24  4  0  0  0
 24 25  4  0  0  0
 24 12  1  0  0  0
 12 11  4  0  0  0
 12  7  4  0  0  0
  7  8  4  0  0  0
  8  9  4  0  0  0
  9 13  1  0  0  0
  9 10  4  0  0  0
 10 11  4  0  0  0
 25 15  1  0  0  0
 15 16  4  0  0  0
 15 14  4  0  0  0
 14 19  4  0  0  0
 19 18  4  0  0  0
 18 17  4  0  0  0
 17 20  1  0  0  0
 17 16  4  0  0  0
  1 26  1  0  0  0
  1 27  1  0  0  0
  2 28  1  0  0  0
  2 29  1  0  0  0
  3 30  1  0  0  0
  3 31  1  0  0  0
  4 32  1  0  0  0
  4 33  1  0  0  0
  5 34  1  0  0  0
  5 35  1  0  0  0
  6 36  1  0  0  0
  7 37  1  0  0  0
  8 38  1  0  0  0
 10 39  1  0  0  0
 11 40  1  0  0  0
 14 41  1  0  0  0
 19 42  1  0  0  0
 20 43  1  0  0  0
 20 44  1  0  0  0
 22 45  1  0  0  0
M  END
$$$$
