3qpn_ligand
  -I-interpret- 

 42 45  0  0  0  0  0  0  0  0999 V2000
    6.1630   17.5600   34.7520 C   0  0  0  0  0
    6.5490   16.2680   35.1110 C   0  0  0  0  0
    7.6360   16.0680   35.9580 C   0  0  0  0  0
    8.3600   17.1770   36.4390 C   0  0  0  0  0
    7.9740   18.4880   36.0850 C   0  0  0  0  0
    6.8890   18.6620   35.2180 C   0  0  0  0  0
    9.4300   16.9840   37.2490 N   0  0  0  0  0
   10.1440   18.0390   37.7550 C   0  0  0  0  0
    9.8010   19.3590   37.4030 C   0  0  0  0  0
    8.6990   19.6020   36.5680 C   0  0  0  0  0
   11.3520   17.7640   38.6480 C   0  0  0  0  0
   11.0230   17.3420   40.0780 C   0  0  0  0  0
   12.2450   16.8800   40.6300 O   0  0  0  0  0
   12.5970   17.0390   41.9480 C   0  0  0  0  0
   12.0420   18.0590   42.6950 C   0  0  0  0  0
   12.4070   18.2410   44.0260 C   0  0  0  0  0
   13.3370   17.3980   44.5990 C   0  0  0  0  0
   13.9290   16.3740   43.8550 C   0  0  0  0  0
   13.5540   16.2010   42.5190 C   0  0  0  0  0
   14.0990   15.1920   41.7610 O   0  0  0  0  0
   15.2440   14.4530   42.1920 C   0  0  0  0  0
   11.8390   19.2490   44.7480 N   0  0  0  0  0
   12.1960   19.4480   46.0230 C   0  0  0  0  0
   13.1030   18.6350   46.5990 N   0  0  0  0  0
   13.6930   17.6240   45.9360 C   0  0  0  0  0
    5.2961   17.7109   34.1087 H   0  0  0  0  0
    5.9966   15.4107   34.7263 H   0  0  0  0  0
    7.9256   15.0579   36.2477 H   0  0  0  0  0
    6.6065   19.6664   34.9025 H   0  0  0  0  0
   10.3924   20.1935   37.7797 H   0  0  0  0  0
    8.4109   20.6185   36.3001 H   0  0  0  0  0
   11.9077   18.6991   38.7183 H   0  0  0  0  0
   11.8934   16.9339   38.1941 H   0  0  0  0  0
   10.2579   16.5659   40.0984 H   0  0  0  0  0
   10.6140   18.1719   40.6543 H   0  0  0  0  0
   11.3119   18.7274   42.2387 H   0  0  0  0  0
   14.6726   15.7193   44.3096 H   0  0  0  0  0
   16.0836   15.1342   42.3303 H   0  0  0  0  0
   15.0194   13.9549   43.1351 H   0  0  0  0  0
   15.4991   13.7083   41.4380 H   0  0  0  0  0
   11.7542   20.2652   46.5932 H   0  0  0  0  0
   14.4330   16.9932   46.4285 H   0  0  0  0  0
  1  2  4  0  0  0
  1  6  4  0  0  0
  2  3  4  0  0  0
  3  4  4  0  0  0
  4  5  4  0  0  0
  4  7  4  0  0  0
  5  6  4  0  0  0
  5 10  4  0  0  0
  7  8  4  0  0  0
  8  9  4  0  0  0
  8 11  1  0  0  0
  9 10  4  0  0  0
 11 12  1  0  0  0
 12 13  1  0  0  0
 13 14  1  0  0  0
 14 15  4  0  0  0
 14 19  4  0  0  0
 15 16  4  0  0  0
 16 17  4  0  0  0
 16 22  4  0  0  0
 17 18  4  0  0  0
 17 25  4  0  0  0
 18 19  4  0  0  0
 19 20  1  0  0  0
 20 21  1  0  0  0
 22 23  4  0  0  0
 23 24  4  0  0  0
 24 25  4  0  0  0
  1 26  1  0  0  0
  2 27  1  0  0  0
  3 28  1  0  0  0
  6 29  1  0  0  0
  9 30  1  0  0  0
 10 31  1  0  0  0
 11 32  1  0  0  0
 11 33  1  0  0  0
 12 34  1  0  0  0
 12 35  1  0  0  0
 15 36  1  0  0  0
 18 37  1  0  0  0
 21 38  1  0  0  0
 21 39  1  0  0  0
 21 40  1  0  0  0
 23 41  1  0  0  0
 25 42  1  0  0  0
M  END
$$$$
