4ksq_ligand
  -I-interpret- 

 56 60  0  0  0  0  0  0  0  0999 V2000
   48.0970  -33.0010    9.7150 F   0  0  0  0  0
   47.2460  -34.0440    9.5940 C   0  0  0  0  0
   46.3510  -34.3610   10.6100 C   0  0  0  0  0
   45.4800  -35.4320   10.4740 C   0  0  0  0  0
   45.5000  -36.1840    9.3060 C   0  0  0  0  0
   44.6690  -37.2500    9.1500 O   0  0  0  0  0
   43.3420  -37.3000    9.4630 C   0  0  0  0  0
   42.4950  -36.1960    9.4430 C   0  0  0  0  0
   41.1530  -36.3330    9.7450 C   0  0  0  0  0
   40.5800  -37.5820   10.0900 C   0  0  0  0  0
   39.3000  -37.9030   10.4250 N   0  0  0  0  0
   39.0060  -39.1360   10.6700 C   0  0  0  0  0
   37.7710  -39.6260   11.1100 N   0  0  0  0  0
   37.4520  -40.9400   11.2950 C   0  0  0  0  0
   38.2380  -41.8030   10.9970 O   0  0  0  0  0
   36.1360  -41.3930   11.9030 C   0  0  0  0  0
   35.5100  -42.7140   11.4520 C   0  0  0  0  0
   34.7890  -41.3880   11.1900 C   0  0  0  0  0
   40.4910  -40.0710   10.5520 S   0  0  0  0  0
   41.4320  -38.6740   10.0990 C   0  0  0  0  0
   42.7940  -38.5480    9.7820 C   0  0  0  0  0
   43.6270  -39.7070    9.8100 C   0  0  0  0  0
   44.2290  -40.6680    9.8470 N   0  0  0  0  0
   46.4090  -35.8730    8.2890 C   0  0  0  0  0
   47.2750  -34.7860    8.4220 C   0  0  0  0  0
   48.2260  -34.4170    7.4500 N   0  0  0  0  0
   48.0400  -34.1980    6.1270 C   0  0  0  0  0
   46.9410  -34.2950    5.6140 O   0  0  0  0  0
   49.1480  -33.8660    5.4180 N   0  0  0  0  0
   49.2830  -33.6030    4.0410 C   0  0  0  0  0
   50.5680  -33.7130    3.4890 C   0  0  0  0  0
   50.8010  -33.4660    2.1440 C   0  0  0  0  0
   49.7330  -33.1040    1.3330 C   0  0  0  0  0
   48.4470  -32.9940    1.8650 C   0  0  0  0  0
   48.2180  -33.2450    3.2130 C   0  0  0  0  0
   47.2900  -32.6060    0.9750 C   0  0  0  0  0
   47.7700  -32.1090   -0.2470 F   0  0  0  0  0
   46.4490  -33.7080    0.7780 F   0  0  0  0  0
   46.5300  -31.6250    1.6060 F   0  0  0  0  0
   46.3337  -33.7628   11.5210 H   0  0  0  0  0
   44.7859  -35.6814   11.2766 H   0  0  0  0  0
   42.8934  -35.2143    9.1869 H   0  0  0  0  0
   40.5141  -35.4503    9.7168 H   0  0  0  0  0
   37.0440  -38.9392   11.3104 H   0  0  0  0  0
   36.4778  -40.9427   12.8349 H   0  0  0  0  0
   35.2903  -43.6996   11.8625 H   0  0  0  0  0
   35.7966  -43.6131   10.9066 H   0  0  0  0  0
   34.3054  -40.8710   10.3612 H   0  0  0  0  0
   33.7962  -40.9579   11.3225 H   0  0  0  0  0
   46.4413  -36.4835    7.3866 H   0  0  0  0  0
   49.1812  -34.2993    7.7879 H   0  0  0  0  0
   50.0085  -33.7968    5.9613 H   0  0  0  0  0
   51.4014  -33.9987    4.1308 H   0  0  0  0  0
   51.8056  -33.5545    1.7304 H   0  0  0  0  0
   49.9001  -32.9046    0.2745 H   0  0  0  0  0
   47.2109  -33.1626    3.6216 H   0  0  0  0  0
  1  2  1  0  0  0
  2  3  4  0  0  0
  2 25  4  0  0  0
  3  4  4  0  0  0
  4  5  4  0  0  0
  5  6  1  0  0  0
  5 24  4  0  0  0
  6  7  1  0  0  0
  7  8  4  0  0  0
  7 21  4  0  0  0
  8  9  4  0  0  0
  9 10  4  0  0  0
 10 11  4  0  0  0
 10 20  4  0  0  0
 11 12  4  0  0  0
 12 13  1  0  0  0
 12 19  4  0  0  0
 13 14  1  0  0  0
 14 15  2  0  0  0
 14 16  1  0  0  0
 16 17  1  0  0  0
 16 18  1  0  0  0
 17 18  1  0  0  0
 19 20  4  0  0  0
 20 21  4  0  0  0
 21 22  1  0  0  0
 22 23  3  0  0  0
 24 25  4  0  0  0
 25 26  1  0  0  0
 26 27  1  0  0  0
 27 28  2  0  0  0
 27 29  1  0  0  0
 29 30  1  0  0  0
 30 31  4  0  0  0
 30 35  4  0  0  0
 31 32  4  0  0  0
 32 33  4  0  0  0
 33 34  4  0  0  0
 34 35  4  0  0  0
 34 36  1  0  0  0
 36 37  1  0  0  0
 36 38  1  0  0  0
 36 39  1  0  0  0
  3 40  1  0  0  0
  4 41  1  0  0  0
  8 42  1  0  0  0
  9 43  1  0  0  0
 13 44  1  0  0  0
 16 45  1  0  0  0
 17 46  1  0  0  0
 17 47  1  0  0  0
 18 48  1  0  0  0
 18 49  1  0  0  0
 24 50  1  0  0  0
 26 51  1  0  0  0
 29 52  1  0  0  0
 31 53  1  0  0  0
 32 54  1  0  0  0
 33 55  1  0  0  0
 35 56  1  0  0  0
M  END
$$$$
