6i8m_ligand
  -I-interpret- 

 56 59  0  0  0  0  0  0  0  0999 V2000
    9.2510   22.9420   20.9520 C   0  0  0  0  0
   10.0950   22.8410   21.9760 C   0  0  0  0  0
    7.9820   22.0450   22.5700 C   0  0  0  0  0
    9.3350   22.2700   22.9790 C   0  0  0  0  0
   11.4490   23.1760   22.1670 C   0  0  0  0  0
    6.9700   22.7000   20.0990 C   0  0  0  0  0
    5.6340   23.2840   20.5760 C   0  0  0  0  0
    7.9860   22.5180   21.2020 N   0  0  0  0  0
    6.8080   21.4500   19.2250 C   0  0  0  0  0
    4.7130   23.5390   19.4050 C   0  0  0  0  0
    5.8060   21.6960   18.1010 C   0  0  0  0  0
    3.4080   23.4680   16.7570 C   0  0  0  0  0
   12.4220   23.7380   21.2300 C   0  0  0  0  0
    2.3360   23.2390   15.6770 C   0  0  0  0  0
    0.8930   22.0480   17.3100 C   0  0  0  0  0
    0.9320   23.2630   16.3520 C   0  0  0  0  0
    9.5700   23.4380   19.8760 O   0  0  0  0  0
    3.4680   22.2330   17.6420 C   0  0  0  0  0
    9.8810   22.0280   24.1930 C   0  0  0  0  0
    7.5550   20.5740   22.7370 C   0  0  0  0  0
   11.9970   22.9160   23.4700 C   0  0  0  0  0
    2.1160   22.0030   18.3110 C   0  0  0  0  0
    4.5660   22.2920   18.6280 N   0  3  0  0  0
   11.2140   22.3430   24.4840 C   0  0  0  0  0
   13.6550   23.7720   21.5320 O   0  0  0  0  0
   12.0020   24.1410   19.9970 N   0  0  0  0  0
    7.2415   22.5645   23.1781 H   0  0  0  0  0
    7.3900   23.4666   19.4478 H   0  0  0  0  0
    5.8246   24.2282   21.0861 H   0  0  0  0  0
    5.1583   22.5708   21.2492 H   0  0  0  0  0
    6.4426   20.6329   19.8471 H   0  0  0  0  0
    7.7741   21.2030   18.7848 H   0  0  0  0  0
    5.1327   24.3198   18.7707 H   0  0  0  0  0
    3.7376   23.8626   19.7684 H   0  0  0  0  0
    5.5656   20.7433   17.6292 H   0  0  0  0  0
    6.2480   22.3835   17.3799 H   0  0  0  0  0
    3.1546   24.3436   17.3547 H   0  0  0  0  0
    4.3777   23.6399   16.2899 H   0  0  0  0  0
    2.4977   22.2754   15.1939 H   0  0  0  0  0
    2.3973   24.0236   14.9229 H   0  0  0  0  0
    0.9326   21.1455   16.7000 H   0  0  0  0  0
   -0.0172   22.1258   17.9046 H   0  0  0  0  0
    0.1373   23.2029   15.6084 H   0  0  0  0  0
    0.7719   24.1955   16.8932 H   0  0  0  0  0
    3.6899   21.3781   17.0033 H   0  0  0  0  0
    9.2642   21.5738   24.9685 H   0  0  0  0  0
    6.5428   20.4451   22.3537 H   0  0  0  0  0
    8.2396   19.9330   22.1816 H   0  0  0  0  0
    7.5816   20.3070   23.7935 H   0  0  0  0  0
   13.0377   23.1680   23.6740 H   0  0  0  0  0
    2.1375   21.0071   18.7535 H   0  0  0  0  0
    1.9719   22.8036   19.0365 H   0  0  0  0  0
    4.2647   21.6826   19.3884 H   0  0  0  0  0
   11.6323   22.1484   25.4716 H   0  0  0  0  0
   12.6797   24.4724   19.3105 H   0  0  0  0  0
   11.0101   24.1111   19.7611 H   0  0  0  0  0
  1  2  1  0  0  0
  8  1  1  0  0  0
  1 17  2  0  0  0
  4  2  4  0  0  0
  2  5  4  0  0  0
  3  4  1  0  0  0
  8  3  1  0  0  0
  3 20  1  0  0  0
  4 19  4  0  0  0
  5 13  1  0  0  0
  5 21  4  0  0  0
  7  6  1  0  0  0
  6  8  1  0  0  0
  9  6  1  0  0  0
 10  7  1  0  0  0
 11  9  1  0  0  0
 23 10  1  0  0  0
 23 11  1  0  0  0
 12 14  1  0  0  0
 18 12  1  0  0  0
 13 25  2  0  0  0
 13 26  1  0  0  0
 14 16  1  0  0  0
 15 16  1  0  0  0
 22 15  1  0  0  0
 18 22  1  0  0  0
 18 23  1  0  0  0
 19 24  4  0  0  0
 21 24  4  0  0  0
  3 27  1  0  0  0
  6 28  1  0  0  0
  7 29  1  0  0  0
  7 30  1  0  0  0
  9 31  1  0  0  0
  9 32  1  0  0  0
 10 33  1  0  0  0
 10 34  1  0  0  0
 11 35  1  0  0  0
 11 36  1  0  0  0
 12 37  1  0  0  0
 12 38  1  0  0  0
 14 39  1  0  0  0
 14 40  1  0  0  0
 15 41  1  0  0  0
 15 42  1  0  0  0
 16 43  1  0  0  0
 16 44  1  0  0  0
 18 45  1  0  0  0
 19 46  1  0  0  0
 20 47  1  0  0  0
 20 48  1  0  0  0
 20 49  1  0  0  0
 21 50  1  0  0  0
 22 51  1  0  0  0
 22 52  1  0  0  0
 23 53  1  0  0  0
 24 54  1  0  0  0
 26 55  1  0  0  0
 26 56  1  0  0  0
M  END
$$$$
