6pg7_ligand
  -I-interpret- 

 35 36  0  0  0  0  0  0  0  0999 V2000
   20.4140    5.0710   -3.4480 N   0  0  0  0  0
   16.2250    8.3150   -3.1600 C   0  0  0  0  0
   16.2240    9.1040   -0.8610 C   0  0  0  0  0
   14.2040    8.2150   -1.8500 C   0  0  0  0  0
   15.9460   10.0990   -5.4180 C   0  0  0  0  0
   17.1050    9.3470   -5.1000 O   0  0  0  0  0
   16.9310    8.0810   -4.5000 C   0  0  0  0  0
   18.3260    7.4450   -4.4410 C   0  0  0  0  0
   18.3370    5.9310   -4.6240 C   0  0  0  0  0
   19.7360    5.3400   -4.5640 C   0  0  0  0  0
   20.5110    4.9940   -5.6250 N   0  0  0  0  0
   21.6610    4.5160   -5.1560 C   0  0  0  0  0
   22.8200    4.0050   -6.0190 C   0  0  0  0  0
   23.8270    3.4070   -5.2340 O   0  0  0  0  0
   21.5920    4.5740   -3.7750 C   0  0  0  0  0
   16.8940    8.8780   -2.0620 C   0  0  0  0  0
   14.8820    8.7690   -0.7520 C   0  0  0  0  0
   14.8740    7.9910   -3.0530 C   0  0  0  0  0
   16.7509    9.5411   -0.0128 H   0  0  0  0  0
   13.1483    7.9586   -1.7618 H   0  0  0  0  0
   15.3298    9.5356   -6.1187 H   0  0  0  0  0
   15.3788   10.2924   -4.5075 H   0  0  0  0  0
   16.2414   11.0452   -5.8714 H   0  0  0  0  0
   16.2975    7.3776   -5.0404 H   0  0  0  0  0
   18.7291    7.6501   -3.4493 H   0  0  0  0  0
   18.9061    7.8702   -5.2600 H   0  0  0  0  0
   17.9239    5.7110   -5.6084 H   0  0  0  0  0
   17.7547    5.4928   -3.8134 H   0  0  0  0  0
   23.2544    4.8525   -6.5492 H   0  0  0  0  0
   22.4314    3.2564   -6.7094 H   0  0  0  0  0
   24.5352    3.0991   -5.8043 H   0  0  0  0  0
   22.3726    4.2640   -3.0802 H   0  0  0  0  0
   17.9481    9.1411   -2.1495 H   0  0  0  0  0
   14.3535    8.9359    0.1866 H   0  0  0  0  0
   14.3436    7.5649   -3.9046 H   0  0  0  0  0
 10  1  4  0  0  0
  1 15  4  0  0  0
  7  2  1  0  0  0
  2 16  4  0  0  0
  2 18  4  0  0  0
 16  3  4  0  0  0
  3 17  4  0  0  0
  4 17  4  0  0  0
 18  4  4  0  0  0
  6  5  1  0  0  0
  7  6  1  0  0  0
  8  7  1  0  0  0
  9  8  1  0  0  0
  9 10  1  0  0  0
 10 11  4  0  0  0
 11 12  4  0  0  0
 12 13  1  0  0  0
 12 15  4  0  0  0
 13 14  1  0  0  0
  3 19  1  0  0  0
  4 20  1  0  0  0
  5 21  1  0  0  0
  5 22  1  0  0  0
  5 23  1  0  0  0
  7 24  1  0  0  0
  8 25  1  0  0  0
  8 26  1  0  0  0
  9 27  1  0  0  0
  9 28  1  0  0  0
 13 29  1  0  0  0
 13 30  1  0  0  0
 14 31  1  0  0  0
 15 32  1  0  0  0
 16 33  1  0  0  0
 17 34  1  0  0  0
 18 35  1  0  0  0
M  END
$$$$
