### 
### Created by X-TOOL on Mon Sep 10 21:13:30 2018
### 

@<TRIPOS>MOLECULE
5n3y_ligand
   58    58     1     0     0
SMALL
GAST_HUCK


@<TRIPOS>ATOM
      1 C3         12.1450   39.9960   -6.8460 C.3       1 8L2         0.1132
      2 C8         13.8000   40.3580  -11.3960 C.3       1 8L2         0.1113
      3 C9         15.2990   40.4930  -11.5440 C.ar      1 8L2        -0.0130
      4 C10        16.0030   39.8680  -12.5870 C.ar      1 8L2        -0.0578
      5 C11        17.3800   39.9940  -12.7090 C.ar      1 8L2        -0.0685
      6 C12        18.0610   40.7510  -11.7650 C.ar      1 8L2        -0.0687
      7 C13        17.3810   41.3740  -10.7010 C.ar      1 8L2        -0.0685
      8 C14        16.0110   41.2200  -10.5940 C.ar      1 8L2        -0.0578
      9 C16        10.0630   38.6110   -3.6680 C.3       1 8L2         0.1229
     10 C19         9.6300   38.5060    0.1990 C.3       1 8L2        -0.0625
     11 C20         9.2230   36.5660   -1.4020 C.3       1 8L2        -0.0625
     12 C21         8.8370   39.4990   -3.9140 C.2       1 8L2         0.1996
     13 N23         9.1290   40.8130   -4.1620 N.am      1 8L2        -0.2648
     14 C24         8.1470   41.8620   -4.3840 C.3       1 8L2         0.1338
     15 N26         7.5910   42.2550   -2.0680 N.4       1 8L2         0.2214
     16 P2         11.4410   38.5540   -6.0070 P.3       1 8L2         0.0870
     17 O1         12.4210   37.4110   -6.1100 O.co2     1 8L2        -0.6057
     18 N4         12.7950   39.5960   -8.0780 N.am      1 8L2        -0.2448
     19 C5         12.8190   40.3360   -9.1980 C.2       1 8L2         0.3229
     20 O6         12.3740   41.4460   -9.3120 O.2       1 8L2        -0.3774
     21 O7         13.4430   39.6440  -10.1950 O.3       1 8L2        -0.2506
     22 N15        11.2370   39.1120   -4.4120 N.am      1 8L2        -0.2736
     23 C17        10.4200   38.6290   -2.1930 C.3       1 8L2        -0.0136
     24 C18         9.3510   38.0810   -1.2450 C.3       1 8L2        -0.0429
     25 O22         7.6890   39.0840   -3.8360 O.2       1 8L2        -0.3949
     26 O27        10.0920   38.1960   -6.5630 O.co2     1 8L2        -0.6057
     27 C28         8.5810   42.6570   -5.6040 C.2       1 8L2         0.0653
     28 O29         9.6910   42.6000   -6.0620 O.co2     1 8L2        -0.5664
     29 O30         7.6160   43.4110   -6.1220 O.co2     1 8L2        -0.5664
     30 C25         8.0820   42.8860   -3.2620 C.3       1 8L2         0.0001
     31 H1         12.8830   40.4750   -6.1858 H         1 8L2         0.0743
     32 H2         11.3406   40.7102   -7.0759 H         1 8L2         0.0743
     33 H3         13.4039   39.8128  -12.2654 H         1 8L2         0.0776
     34 H4         13.3539   41.3628  -11.3589 H         1 8L2         0.0776
     35 H5         15.4588   39.2743  -13.3125 H         1 8L2         0.0557
     36 H6         17.9112   39.5127  -13.5222 H         1 8L2         0.0599
     37 H7         19.1358   40.8644  -11.8487 H         1 8L2         0.0559
     38 H8         17.9248   41.9671   -9.9747 H         1 8L2         0.0599
     39 H9         15.4850   41.6709   -9.7602 H         1 8L2         0.0557
     40 H10         9.8346   37.5830   -3.9857 H         1 8L2         0.0753
     41 H11         8.8487   38.0998    0.8582 H         1 8L2         0.0232
     42 H12         9.6306   39.6040    0.2645 H         1 8L2         0.0232
     43 H13        10.6111   38.1194    0.5120 H         1 8L2         0.0232
     44 H14         9.0238   36.3222   -2.4560 H         1 8L2         0.0232
     45 H15         8.3935   36.2015   -0.7782 H         1 8L2         0.0232
     46 H16        10.1596   36.0840   -1.0849 H         1 8L2         0.0232
     47 H17        10.0944   41.0721   -4.1930 H         1 8L2         0.1877
     48 H18         7.1567   41.4081   -4.5366 H         1 8L2         0.0780
     49 H19         7.5474   42.9329   -1.3233 H         1 8L2         0.1996
     50 H20         8.2116   41.5057   -1.8044 H         1 8L2         0.1996
     51 H21         6.6695   41.8838   -2.2387 H         1 8L2         0.1996
     52 H22        13.2567   38.7091   -8.0950 H         1 8L2         0.1884
     53 H23        11.8839   39.7514   -3.9964 H         1 8L2         0.1669
     54 H24        10.6229   39.6716   -1.9070 H         1 8L2         0.0311
     55 H25        11.3313   38.0278   -2.0584 H         1 8L2         0.0311
     56 H26         8.3869   38.5239   -1.5354 H         1 8L2         0.0298
     57 H27         7.4048   43.7036   -3.5500 H         1 8L2         0.0855
     58 H28         9.0876   43.2911   -3.0760 H         1 8L2         0.0855
@<TRIPOS>BOND
     1   16    1 1  
     2    1   18 1  
     3    2    3 1  
     4   21    2 1  
     5    3    4 ar 
     6    3    8 ar 
     7    4    5 ar 
     8    5    6 ar 
     9    7    6 ar 
    10    8    7 ar 
    11    9   12 1  
    12    9   22 1  
    13   23    9 1  
    14   24   10 1  
    15   24   11 1  
    16   12   13 am 
    17   12   25 2  
    18   13   14 1  
    19   14   27 1  
    20   14   30 1  
    21   30   15 1  
    22   16   17 ar 
    23   22   16 am 
    24   16   26 ar 
    25   18   19 am 
    26   19   20 2  
    27   19   21 1  
    28   23   24 1  
    29   27   28 ar 
    30   27   29 ar 
    31    1   31 1  
    32    1   32 1  
    33    2   33 1  
    34    2   34 1  
    35    4   35 1  
    36    5   36 1  
    37    6   37 1  
    38    7   38 1  
    39    8   39 1  
    40    9   40 1  
    41   10   41 1  
    42   10   42 1  
    43   10   43 1  
    44   11   44 1  
    45   11   45 1  
    46   11   46 1  
    47   13   47 1  
    48   14   48 1  
    49   15   49 1  
    50   15   50 1  
    51   15   51 1  
    52   18   52 1  
    53   22   53 1  
    54   23   54 1  
    55   23   55 1  
    56   24   56 1  
    57   30   57 1  
    58   30   58 1  
@<TRIPOS>SUBSTRUCTURE
     1 8L2         1

