5n3y_ligand
  -I-interpret- 

 60 60  0  0  0  0  0  0  0  0999 V2000
   12.1450   39.9960   -6.8460 C   0  0  0  0  0
   13.8000   40.3580  -11.3960 C   0  0  0  0  0
   15.2990   40.4930  -11.5440 C   0  0  0  0  0
   16.0030   39.8680  -12.5870 C   0  0  0  0  0
   17.3800   39.9940  -12.7090 C   0  0  0  0  0
   18.0610   40.7510  -11.7650 C   0  0  0  0  0
   17.3810   41.3740  -10.7010 C   0  0  0  0  0
   16.0110   41.2200  -10.5940 C   0  0  0  0  0
   10.0630   38.6110   -3.6680 C   0  0  0  0  0
    9.6300   38.5060    0.1990 C   0  0  0  0  0
    9.2230   36.5660   -1.4020 C   0  0  0  0  0
    8.8370   39.4990   -3.9140 C   0  0  0  0  0
    9.1290   40.8130   -4.1620 N   0  0  0  0  0
    8.1470   41.8620   -4.3840 C   0  0  0  0  0
    7.5910   42.2550   -2.0680 N   0  3  0  0  0
   11.4410   38.5540   -6.0070 P   0  0  0  0  0
   12.4210   37.4110   -6.1100 O   0  0  0  0  0
   12.7950   39.5960   -8.0780 N   0  0  0  0  0
   12.8190   40.3360   -9.1980 C   0  0  0  0  0
   12.3740   41.4460   -9.3120 O   0  0  0  0  0
   13.4430   39.6440  -10.1950 O   0  0  0  0  0
   11.2370   39.1120   -4.4120 N   0  0  0  0  0
   10.4200   38.6290   -2.1930 C   0  0  0  0  0
    9.3510   38.0810   -1.2450 C   0  0  0  0  0
    7.6890   39.0840   -3.8360 O   0  0  0  0  0
   10.0920   38.1960   -6.5630 O   0  0  0  0  0
    8.5810   42.6570   -5.6040 C   0  0  0  0  0
    9.6910   42.6000   -6.0620 O   0  0  0  0  0
    7.6160   43.4110   -6.1220 O   0  0  0  0  0
    8.0820   42.8860   -3.2620 C   0  0  0  0  0
   12.8810   40.4633   -6.1917 H   0  0  0  0  0
   11.3439   40.6976   -7.0787 H   0  0  0  0  0
   13.4199   39.8005  -12.2520 H   0  0  0  0  0
   13.3696   41.3579  -11.3411 H   0  0  0  0  0
   15.4558   39.2710  -13.3165 H   0  0  0  0  0
   17.9141   39.5100  -13.5267 H   0  0  0  0  0
   19.1417   40.8651  -11.8491 H   0  0  0  0  0
   17.9278   41.9704   -9.9706 H   0  0  0  0  0
   15.4821   41.6733   -9.7556 H   0  0  0  0  0
    9.8134   37.6037   -4.0015 H   0  0  0  0  0
    8.8133   38.1720    0.8389 H   0  0  0  0  0
   10.5640   38.0556    0.5349 H   0  0  0  0  0
    9.7107   39.5919    0.2476 H   0  0  0  0  0
   10.1516   36.0897   -1.0874 H   0  0  0  0  0
    8.4008   36.2061   -0.7834 H   0  0  0  0  0
    9.0256   36.3257   -2.4467 H   0  0  0  0  0
   10.1137   41.0773   -4.1936 H   0  0  0  0  0
    7.1824   41.3628   -4.4761 H   0  0  0  0  0
    7.5473   42.9419   -1.3152 H   0  0  0  0  0
    6.6586   41.8797   -2.2420 H   0  0  0  0  0
    8.2197   41.4970   -1.8023 H   0  0  0  0  0
   13.2664   37.6819   -5.7447 H   0  0  0  0  0
   13.2659   38.6914   -8.0954 H   0  0  0  0  0
   11.8968   39.7642   -3.9881 H   0  0  0  0  0
   10.5650   39.6751   -1.9232 H   0  0  0  0  0
   11.2928   37.9862   -2.0787 H   0  0  0  0  0
    8.3860   38.5114   -1.5126 H   0  0  0  0  0
    6.8157   43.3063   -5.6022 H   0  0  0  0  0
    7.4116   43.6967   -3.5474 H   0  0  0  0  0
    9.0783   43.2881   -3.0779 H   0  0  0  0  0
 16  1  1  0  0  0
  1 18  1  0  0  0
  2  3  1  0  0  0
 21  2  1  0  0  0
  3  4  4  0  0  0
  3  8  4  0  0  0
  4  5  4  0  0  0
  5  6  4  0  0  0
  7  6  4  0  0  0
  8  7  4  0  0  0
  9 12  1  0  0  0
  9 22  1  0  0  0
 23  9  1  0  0  0
 24 10  1  0  0  0
 24 11  1  0  0  0
 12 13  1  0  0  0
 12 25  2  0  0  0
 13 14  1  0  0  0
 14 27  1  0  0  0
 14 30  1  0  0  0
 30 15  1  0  0  0
 16 17  1  0  0  0
 22 16  1  0  0  0
 16 26  2  0  0  0
 18 19  1  0  0  0
 19 20  2  0  0  0
 19 21  1  0  0  0
 23 24  1  0  0  0
 27 28  2  0  0  0
 27 29  1  0  0  0
  1 31  1  0  0  0
  1 32  1  0  0  0
  2 33  1  0  0  0
  2 34  1  0  0  0
  4 35  1  0  0  0
  5 36  1  0  0  0
  6 37  1  0  0  0
  7 38  1  0  0  0
  8 39  1  0  0  0
  9 40  1  0  0  0
 10 41  1  0  0  0
 10 42  1  0  0  0
 10 43  1  0  0  0
 11 44  1  0  0  0
 11 45  1  0  0  0
 11 46  1  0  0  0
 13 47  1  0  0  0
 14 48  1  0  0  0
 15 49  1  0  0  0
 15 50  1  0  0  0
 15 51  1  0  0  0
 17 52  1  0  0  0
 18 53  1  0  0  0
 22 54  1  0  0  0
 23 55  1  0  0  0
 23 56  1  0  0  0
 24 57  1  0  0  0
 29 58  1  0  0  0
 30 59  1  0  0  0
 30 60  1  0  0  0
M  END
$$$$
