1lvc_ligand
  -I-interpret- 

 60 63  0  0  0  0  0  0  0  0999 V2000
   31.4900   73.6950   44.6360 P   0  0  0  0  0
   30.8650   74.4300   43.5190 O   0  0  0  0  0
   30.6500   73.8250   45.8280 O   0  0  0  0  0
   32.9080   74.2550   44.9580 O   0  0  0  0  0
   32.8880   71.4180   43.1340 P   0  0  0  0  0
   32.2820   70.8570   41.9790 O   0  0  0  0  0
   33.9960   72.5060   42.8730 O   0  0  0  0  0
   31.6960   72.0060   44.1250 O   0  0  0  0  0
   34.6900   69.0860   43.9040 P   0  0  0  0  0
   35.9580   69.7210   43.1220 O   0  0  0  0  0
   34.7020   68.3190   45.2400 O   0  0  0  0  0
   33.5480   70.1900   44.1660 O   0  0  0  0  0
   34.2560   68.0430   42.7200 O   0  0  0  0  0
   33.0710   67.3710   42.9100 C   0  0  0  0  0
   33.0710   66.0490   42.0260 C   0  0  0  0  0
   34.1890   66.2630   41.0990 O   0  0  0  0  0
   33.3750   64.6040   42.7150 C   0  0  0  0  0
   32.3010   63.5210   42.6580 O   0  0  0  0  0
   34.6730   64.2950   42.2310 C   0  0  0  0  0
   35.0110   65.1610   41.0060 C   0  0  0  0  0
   36.4470   65.6780   40.6600 N   0  0  0  0  0
   37.0190   66.9760   40.3430 C   0  0  0  0  0
   38.4470   67.0110   40.0430 N   0  0  0  0  0
   38.7540   65.6690   40.1650 C   0  0  0  0  0
   40.0020   64.9900   39.8100 C   0  0  0  0  0
   40.6300   65.0810   38.6120 N   0  0  0  0  0
   39.9890   63.5910   40.0940 N   0  0  0  0  0
   38.7890   62.9680   40.5530 C   0  0  0  0  0
   37.5320   63.4920   40.7800 N   0  0  0  0  0
   37.5740   64.8400   40.5570 C   0  0  0  0  0
   31.4370   63.1880   43.7170 C   0  0  0  0  0
   32.0050   62.2440   44.3720 O   0  0  0  0  0
   29.8920   63.0530   43.5740 C   0  0  0  0  0
   29.3430   62.6370   45.1260 C   0  0  0  0  0
   30.3690   61.7500   45.2580 N   0  0  0  0  0
   28.1210   63.8750   45.1610 C   0  0  0  0  0
   27.6840   64.9000   44.2320 C   0  0  0  0  0
   28.3200   65.0110   42.8880 C   0  0  0  0  0
   29.3880   64.0480   42.5740 C   0  0  0  0  0
   31.4137   74.3466   42.7357 H   0  0  0  0  0
   33.4667   74.1740   44.1815 H   0  0  0  0  0
   34.3395   72.8192   43.7130 H   0  0  0  0  0
   35.6560   70.1420   42.3138 H   0  0  0  0  0
   32.2378   68.0085   42.6142 H   0  0  0  0  0
   32.9651   67.1071   43.9623 H   0  0  0  0  0
   32.0515   65.9520   41.6527 H   0  0  0  0  0
   33.3420   64.6590   43.8031 H   0  0  0  0  0
   34.7022   63.2446   41.9412 H   0  0  0  0  0
   35.4010   64.4942   43.0174 H   0  0  0  0  0
   34.8831   64.4451   40.1941 H   0  0  0  0  0
   36.4105   67.8803   40.3299 H   0  0  0  0  0
   40.2336   65.6591   37.8710 H   0  0  0  0  0
   41.4989   64.5714   38.4517 H   0  0  0  0  0
   38.8806   61.9014   40.7583 H   0  0  0  0  0
   31.0416   61.6318   44.5004 H   0  0  0  0  0
   30.4643   61.2042   46.1144 H   0  0  0  0  0
   27.5552   63.8821   46.0926 H   0  0  0  0  0
   26.8897   65.5899   44.5169 H   0  0  0  0  0
   28.0084   65.7704   42.1709 H   0  0  0  0  0
   29.8284   64.0593   41.5770 H   0  0  0  0  0
  1  2  1  0  0  0
  1  3  2  0  0  0
  1  4  1  0  0  0
  8  1  1  0  0  0
  5  6  2  0  0  0
  5  7  1  0  0  0
  5  8  1  0  0  0
 12  5  1  0  0  0
  9 10  1  0  0  0
  9 11  2  0  0  0
  9 12  1  0  0  0
  9 13  1  0  0  0
 13 14  1  0  0  0
 14 15  1  0  0  0
 15 16  1  0  0  0
 15 17  1  0  0  0
 16 20  1  0  0  0
 17 18  1  0  0  0
 17 19  1  0  0  0
 18 31  1  0  0  0
 19 20  1  0  0  0
 20 21  1  0  0  0
 21 22  4  0  0  0
 21 30  4  0  0  0
 22 23  4  0  0  0
 23 24  4  0  0  0
 24 25  4  0  0  0
 24 30  4  0  0  0
 25 26  1  0  0  0
 25 27  4  0  0  0
 27 28  4  0  0  0
 28 29  4  0  0  0
 29 30  4  0  0  0
 31 32  2  0  0  0
 31 33  1  0  0  0
 33 34  4  0  0  0
 33 39  4  0  0  0
 34 35  1  0  0  0
 34 36  4  0  0  0
 36 37  4  0  0  0
 37 38  4  0  0  0
 38 39  4  0  0  0
  2 40  1  0  0  0
  4 41  1  0  0  0
  7 42  1  0  0  0
 10 43  1  0  0  0
 14 44  1  0  0  0
 14 45  1  0  0  0
 15 46  1  0  0  0
 17 47  1  0  0  0
 19 48  1  0  0  0
 19 49  1  0  0  0
 20 50  1  0  0  0
 22 51  1  0  0  0
 26 52  1  0  0  0
 26 53  1  0  0  0
 28 54  1  0  0  0
 35 55  1  0  0  0
 35 56  1  0  0  0
 36 57  1  0  0  0
 37 58  1  0  0  0
 38 59  1  0  0  0
 39 60  1  0  0  0
M  END
$$$$
