### 
### Created by X-TOOL on Mon Sep 10 21:12:49 2018
### 

@<TRIPOS>MOLECULE
1lvc_ligand
   56    59     1     0     0
SMALL
GAST_HUCK


@<TRIPOS>ATOM
      1 PG         31.4900   73.6950   44.6360 P.3       1 DOT         0.1879
      2 O1G        30.8650   74.4300   43.5190 O.co2     1 DOT        -0.6091
      3 O2G        30.6500   73.8250   45.8280 O.co2     1 DOT        -0.6091
      4 O3G        32.9080   74.2550   44.9580 O.co2     1 DOT        -0.6091
      5 PB         32.8880   71.4180   43.1340 P.3       1 DOT         0.3553
      6 O1B        32.2820   70.8570   41.9790 O.co2     1 DOT        -0.5652
      7 O2B        33.9960   72.5060   42.8730 O.co2     1 DOT        -0.5652
      8 O3B        31.6960   72.0060   44.1250 O.3       1 DOT        -0.1546
      9 PA         34.6900   69.0860   43.9040 P.3       1 DOT         0.3266
     10 O1A        35.9580   69.7210   43.1220 O.co2     1 DOT        -0.5692
     11 O2A        34.7020   68.3190   45.2400 O.co2     1 DOT        -0.5692
     12 O3A        33.5480   70.1900   44.1660 O.3       1 DOT        -0.1171
     13 O5         34.2560   68.0430   42.7200 O.3       1 DOT        -0.2441
     14 C5         33.0710   67.3710   42.9100 C.3       1 DOT         0.1134
     15 C4         33.0710   66.0490   42.0260 C.3       1 DOT         0.1208
     16 O4         34.1890   66.2630   41.0990 O.3       1 DOT        -0.3385
     17 C3         33.3750   64.6040   42.7150 C.3       1 DOT         0.1199
     18 O3         32.3010   63.5210   42.6580 O.3       1 DOT        -0.2735
     19 C2         34.6730   64.2950   42.2310 C.3       1 DOT         0.0360
     20 C1         35.0110   65.1610   41.0060 C.3       1 DOT         0.1755
     21 N9         36.4470   65.6780   40.6600 N.pl3     1 DOT        -0.1945
     22 C8         37.0190   66.9760   40.3430 C.2       1 DOT         0.1122
     23 N7         38.4470   67.0110   40.0430 N.2       1 DOT        -0.2958
     24 C5         38.7540   65.6690   40.1650 C.ar      1 DOT         0.1045
     25 C6         40.0020   64.9900   39.8100 C.ar      1 DOT         0.1298
     26 N6         40.6300   65.0810   38.6120 N.pl3     1 DOT        -0.3152
     27 N1         39.9890   63.5910   40.0940 N.ar      1 DOT        -0.2698
     28 C2         38.7890   62.9680   40.5530 C.ar      1 DOT         0.0533
     29 N3         37.5320   63.4920   40.7800 N.ar      1 DOT        -0.2714
     30 C4         37.5740   64.8400   40.5570 C.ar      1 DOT         0.1612
     31 C'         31.4370   63.1880   43.7170 C.2       1 DOT         0.2549
     32 O1'        32.0050   62.2440   44.3720 O.2       1 DOT        -0.3648
     33 C1'        29.8920   63.0530   43.5740 C.ar      1 DOT         0.0787
     34 C2'        29.3430   62.6370   45.1260 C.ar      1 DOT         0.0583
     35 N2'        30.3690   61.7500   45.2580 N.pl3     1 DOT        -0.3322
     36 C3'        28.1210   63.8750   45.1610 C.ar      1 DOT        -0.0380
     37 C4'        27.6840   64.9000   44.2320 C.ar      1 DOT        -0.0689
     38 C5'        28.3200   65.0110   42.8880 C.ar      1 DOT        -0.0690
     39 C6'        29.3880   64.0480   42.5740 C.ar      1 DOT        -0.0520
     40 H1         32.2310   68.0144   42.6093 H         1 DOT         0.0648
     41 H2         32.9661   67.1034   43.9718 H         1 DOT         0.0648
     42 H3         32.1092   65.9827   41.4963 H         1 DOT         0.0654
     43 H4         33.4845   64.7943   43.7929 H         1 DOT         0.0676
     44 H5         34.7096   63.2335   41.9451 H         1 DOT         0.0348
     45 H6         35.4104   64.4867   43.0244 H         1 DOT         0.0348
     46 H7         34.7062   64.5635   40.1342 H         1 DOT         0.0969
     47 H8         36.4111   67.8794   40.3299 H         1 DOT         0.1349
     48 H9         41.5074   64.5664   38.4501 H         1 DOT         0.1820
     49 H10        40.2297   65.6647   37.8637 H         1 DOT         0.1820
     50 H11        38.8801   61.9073   40.7572 H         1 DOT         0.0996
     51 H12        30.4653   61.1989   46.1228 H         1 DOT         0.1746
     52 H13        31.0482   61.6307   44.4930 H         1 DOT         0.1746
     53 H14        27.5583   63.8820   46.0875 H         1 DOT         0.0529
     54 H15        26.8940   65.5861   44.5153 H         1 DOT         0.0621
     55 H16        28.0101   65.7663   42.1748 H         1 DOT         0.0519
     56 H17        29.8260   64.0592   41.5825 H         1 DOT         0.0637
@<TRIPOS>BOND
     1    1    2 ar 
     2    1    3 ar 
     3    1    4 ar 
     4    8    1 1  
     5    5    6 ar 
     6    5    7 ar 
     7    5    8 1  
     8   12    5 1  
     9    9   10 ar 
    10    9   11 ar 
    11    9   12 1  
    12    9   13 1  
    13   13   14 1  
    14   14   15 1  
    15   15   16 1  
    16   15   17 1  
    17   16   20 1  
    18   17   18 1  
    19   17   19 1  
    20   18   31 1  
    21   19   20 1  
    22   20   21 1  
    23   21   22 1  
    24   21   30 1  
    25   22   23 2  
    26   23   24 1  
    27   24   25 ar 
    28   24   30 ar 
    29   25   26 1  
    30   25   27 ar 
    31   27   28 ar 
    32   28   29 ar 
    33   29   30 ar 
    34   31   32 2  
    35   31   33 1  
    36   33   34 ar 
    37   33   39 ar 
    38   34   35 1  
    39   34   36 ar 
    40   36   37 ar 
    41   37   38 ar 
    42   38   39 ar 
    43   14   40 1  
    44   14   41 1  
    45   15   42 1  
    46   17   43 1  
    47   19   44 1  
    48   19   45 1  
    49   20   46 1  
    50   22   47 1  
    51   26   48 1  
    52   26   49 1  
    53   28   50 1  
    54   35   51 1  
    55   35   52 1  
    56   36   53 1  
    57   37   54 1  
    58   38   55 1  
    59   39   56 1  
@<TRIPOS>SUBSTRUCTURE
     1 DOT         1

