5fe9_ligand
  -I-interpret- 

 32 33  0  0  0  0  0  0  0  0999 V2000
  -12.2620   17.6810   76.1540 C   0  0  0  0  0
  -11.2730   18.3300   76.9180 C   0  0  0  0  0
  -10.5890   19.3730   76.3130 C   0  0  0  0  0
   -9.6070   20.0820   76.9920 C   0  0  0  0  0
   -9.0390   20.9960   76.4040 O   0  0  0  0  0
   -9.2900   19.7830   78.2640 N   0  0  0  0  0
   -8.2090   20.6000   78.9250 C   0  0  0  0  0
   -9.9430   18.7580   78.9120 C   0  0  0  0  0
   -9.6320   18.4140   80.2430 C   0  0  0  0  0
  -10.9500   18.0070   78.2510 C   0  0  0  0  0
  -11.6020   16.9640   78.9410 C   0  0  0  0  0
  -11.2710   16.6540   80.2510 C   0  0  0  0  0
  -10.2820   17.3740   80.9010 C   0  0  0  0  0
   -9.9610   17.0800   82.1620 N   0  0  0  0  0
   -8.7130   15.9580   82.4560 S   0  0  0  0  0
   -8.9090   14.7220   81.5760 O   0  0  0  0  0
   -7.3360   16.5670   82.1710 O   0  0  0  0  0
   -8.7940   15.5680   84.1950 C   0  0  0  0  0
  -12.8400   16.8661   76.5899 H   0  0  0  0  0
  -12.4496   17.9936   75.1268 H   0  0  0  0  0
  -11.3625   20.1164   76.1202 H   0  0  0  0  0
  -10.0485   18.8932   75.4971 H   0  0  0  0  0
   -8.6172   21.0955   79.8059 H   0  0  0  0  0
   -7.3902   19.9446   79.2219 H   0  0  0  0  0
   -7.8408   21.3486   78.2234 H   0  0  0  0  0
   -8.8623   18.9772   80.7708 H   0  0  0  0  0
  -12.3798   16.3916   78.4354 H   0  0  0  0  0
  -11.7877   15.8456   80.7684 H   0  0  0  0  0
  -10.4551   17.5201   82.9382 H   0  0  0  0  0
   -9.7695   15.1395   84.4249 H   0  0  0  0  0
   -8.0127   14.8491   84.4416 H   0  0  0  0  0
   -8.6491   16.4780   84.7773 H   0  0  0  0  0
  1  2  2  0  0  0
  2  3  1  0  0  0
  2 10  1  0  0  0
  3  4  1  0  0  0
  4  5  2  0  0  0
  4  6  1  0  0  0
  6  7  1  0  0  0
  6  8  1  0  0  0
  8  9  4  0  0  0
  8 10  4  0  0  0
  9 13  4  0  0  0
 10 11  4  0  0  0
 11 12  4  0  0  0
 12 13  4  0  0  0
 13 14  1  0  0  0
 14 15  1  0  0  0
 15 16  2  0  0  0
 15 17  2  0  0  0
 15 18  1  0  0  0
  1 19  1  0  0  0
  1 20  1  0  0  0
  3 21  1  0  0  0
  3 22  1  0  0  0
  7 23  1  0  0  0
  7 24  1  0  0  0
  7 25  1  0  0  0
  9 26  1  0  0  0
 11 27  1  0  0  0
 12 28  1  0  0  0
 14 29  1  0  0  0
 18 30  1  0  0  0
 18 31  1  0  0  0
 18 32  1  0  0  0
M  END
$$$$
