6uyz_ligand
  -I-interpret- 

142141  0  0  0  0  0  0  0  0999 V2000
  108.1390    0.6700   42.0040 N   0  3  0  0  0
  107.8560    1.6710   40.9570 C   0  0  0  0  0
  106.3530    1.9660   40.9210 C   0  0  0  0  0
  105.5380    1.0860   41.1650 O   0  0  0  0  0
  108.3300    1.1830   39.6200 C   0  0  0  0  0
  105.9970    3.2100   40.5980 N   0  0  0  0  0
  104.6010    3.5780   40.4330 C   0  0  0  0  0
  104.0570    3.0560   39.1090 C   0  0  0  0  0
  104.8000    2.7820   38.1600 O   0  0  0  0  0
  104.4400    5.0960   40.4830 C   0  0  0  0  0
  105.0220    5.7290   41.7320 C   0  0  0  0  0
  104.3980    7.0610   42.1010 C   0  0  0  0  0
  103.5640    7.5950   41.3390 O   0  0  0  0  0
  104.7550    7.5490   43.2030 O   0  0  0  0  0
  102.7380    2.9020   39.0600 N   0  0  0  0  0
  102.0630    2.5470   37.8180 C   0  0  0  0  0
  102.2280    3.6490   36.7850 C   0  0  0  0  0
  102.1300    4.8370   37.0890 O   0  0  0  0  0
  100.5760    2.3380   38.0870 C   0  0  0  0  0
   99.7830    1.7990   36.9070 C   0  0  0  0  0
   98.3000    1.6240   37.2230 C   0  0  0  0  0
   97.6590    2.5850   37.7050 O   0  0  0  0  0
   97.7790    0.5100   36.9990 O   0  0  0  0  0
  102.4730    3.2400   35.5460 N   0  0  0  0  0
  102.6970    4.1550   34.4370 C   0  0  0  0  0
  101.7980    3.7080   33.2870 C   0  0  0  0  0
  101.9800    2.6120   32.7460 O   0  0  0  0  0
  104.1600    4.1260   34.0080 C   0  0  0  0  0
  105.1130    4.6830   35.0600 C   0  0  0  0  0
  106.5430    4.5630   34.6060 C   0  0  0  0  0
  107.0370    3.2000   34.6100 N   0  0  0  0  0
  108.2340    2.8510   34.1640 C   0  0  0  0  0
  109.0510    3.7710   33.6790 N   0  0  0  0  0
  108.6150    1.5870   34.1960 N   0  0  0  0  0
  100.8340    4.5500   32.9260 N   0  0  0  0  0
   99.9530    4.3400   31.7820 C   0  0  0  0  0
  100.1290    5.5350   30.8480 C   0  0  0  0  0
   99.9720    6.6940   31.2600 O   0  0  0  0  0
   98.4820    4.1830   32.1960 C   0  0  0  0  0
   98.3070    3.0300   33.1910 C   0  0  0  0  0
   97.6240    3.9290   30.9690 C   0  0  0  0  0
   96.9260    2.9700   33.8530 C   0  0  0  0  0
  100.4680    5.2490   29.5960 N   0  0  0  0  0
  100.5800    6.2470   28.5340 C   0  0  0  0  0
   99.4290    6.0280   27.5670 C   0  0  0  0  0
   99.2130    4.9070   27.0990 O   0  0  0  0  0
  101.9170    6.0850   27.8020 C   0  0  0  0  0
  103.0560    6.3810   28.7700 C   0  0  0  0  0
  101.9730    6.9940   26.5690 C   0  0  0  0  0
  104.3950    5.8490   28.3040 C   0  0  0  0  0
   98.6900    7.0900   27.2810 N   0  0  0  0  0
   97.5960    7.0160   26.3170 C   0  0  0  0  0
   98.1230    7.4390   24.9530 C   0  0  0  0  0
   98.7070    8.5180   24.8120 O   0  0  0  0  0
   96.4260    7.9110   26.7620 C   0  0  0  0  0
   95.2790    7.7800   25.7800 C   0  0  0  0  0
   96.0090    7.5590   28.1860 C   0  0  0  0  0
   97.9420    6.5860   23.9590 N   0  0  0  0  0
   98.3700    6.9150   22.6010 C   0  0  0  0  0
   97.1750    7.3950   21.7760 C   0  0  0  0  0
   96.1200    6.7650   21.7880 O   0  0  0  0  0
   99.0380    5.7070   21.9380 C   0  0  0  0  0
  100.3090    5.2250   22.6400 C   0  0  0  0  0
  100.8590    3.9850   22.0040 C   0  0  0  0  0
  101.3990    6.3080   22.6920 C   0  0  0  0  0
   97.2610    8.4140   21.0950 O   0  0  0  0  0
  107.8102    1.0191   42.9042 H   0  0  0  0  0
  107.6577   -0.2007   41.7792 H   0  0  0  0  0
  109.1441    0.5023   42.0496 H   0  0  0  0  0
  108.3927    2.5907   41.1899 H   0  0  0  0  0
  107.7962    0.2695   39.3580 H   0  0  0  0  0
  108.1372    1.9468   38.8666 H   0  0  0  0  0
  109.3998    0.9794   39.6673 H   0  0  0  0  0
  106.7194    3.9175   40.4641 H   0  0  0  0  0
  104.0375    3.1279   41.2503 H   0  0  0  0  0
  103.3715    5.3112   40.4758 H   0  0  0  0  0
  104.9753    5.5092   39.6281 H   0  0  0  0  0
  106.0790    5.9113   41.5380 H   0  0  0  0  0
  104.8319    5.0443   42.5585 H   0  0  0  0  0
  105.4010    6.9698   43.6139 H   0  0  0  0  0
  102.1872    3.0348   39.9082 H   0  0  0  0  0
  102.5077    1.6292   37.4333 H   0  0  0  0  0
  100.1581    3.3153   38.3286 H   0  0  0  0  0
  100.4999    1.5978   38.8835 H   0  0  0  0  0
  100.1881    0.8199   36.6513 H   0  0  0  0  0
   99.8685    2.5167   36.0911 H   0  0  0  0  0
   98.2413    3.3426   37.7970 H   0  0  0  0  0
  102.5058    2.2371   35.3628 H   0  0  0  0  0
  102.4616    5.1773   34.7331 H   0  0  0  0  0
  104.2532    4.7491   33.1186 H   0  0  0  0  0
  104.4314    3.0840   33.8388 H   0  0  0  0  0
  104.9888    4.1146   35.9817 H   0  0  0  0  0
  104.8828    5.7365   35.2190 H   0  0  0  0  0
  107.1570    5.1366   35.3003 H   0  0  0  0  0
  106.5932    4.9272   33.5799 H   0  0  0  0  0
  106.4282    2.4686   34.9771 H   0  0  0  0  0
  109.9718    3.5032   33.3313 H   0  0  0  0  0
  108.7603    4.7484   33.6526 H   0  0  0  0  0
  107.9862    0.8740   34.5656 H   0  0  0  0  0
  100.7024    5.3943   33.4830 H   0  0  0  0  0
  100.2223    3.4091   31.2831 H   0  0  0  0  0
   98.1671    5.1072   32.6805 H   0  0  0  0  0
   99.0370    3.1800   33.9864 H   0  0  0  0  0
   98.4347    2.1028   32.6323 H   0  0  0  0  0
   97.7169    4.7700   30.2818 H   0  0  0  0  0
   97.9587    3.0164   30.4758 H   0  0  0  0  0
   96.5827    3.8189   31.2718 H   0  0  0  0  0
   96.7471    3.8946   34.4018 H   0  0  0  0  0
   96.1616    2.8477   33.0856 H   0  0  0  0  0
   96.8906    2.1251   34.5408 H   0  0  0  0  0
  100.6616    4.2753   29.3618 H   0  0  0  0  0
  100.5391    7.2529   28.9519 H   0  0  0  0  0
  102.0184    5.0592   27.4477 H   0  0  0  0  0
  102.8193    5.8924   29.7151 H   0  0  0  0  0
  103.1437    7.4643   28.8527 H   0  0  0  0  0
  101.1636    6.7308   25.8881 H   0  0  0  0  0
  101.8645    8.0330   26.8800 H   0  0  0  0  0
  102.9306    6.8623   26.0653 H   0  0  0  0  0
  104.3347    4.7667   28.1897 H   0  0  0  0  0
  104.6517    6.3030   27.3469 H   0  0  0  0  0
  105.1590    6.0958   29.0412 H   0  0  0  0  0
   98.8894    7.9769   27.7436 H   0  0  0  0  0
   97.2199    5.9947   26.2571 H   0  0  0  0  0
   96.7395    8.9549   26.7659 H   0  0  0  0  0
   95.6135    8.0881   24.7894 H   0  0  0  0  0
   94.9478    6.7421   25.7465 H   0  0  0  0  0
   94.4537    8.4159   26.1003 H   0  0  0  0  0
   95.6965    6.5154   28.2243 H   0  0  0  0  0
   96.8530    7.7118   28.8586 H   0  0  0  0  0
   95.1805    8.1990   28.4893 H   0  0  0  0  0
   97.4977    5.6864   24.1425 H   0  0  0  0  0
   99.1034    7.7198   22.6506 H   0  0  0  0  0
   96.2113    6.0011   22.3621 H   0  0  0  0  0
   99.3240    6.0116   20.9313 H   0  0  0  0  0
   98.3219    4.8859   21.9727 H   0  0  0  0  0
  100.0135    4.9939   23.6634 H   0  0  0  0  0
  100.1151    3.1901   22.0575 H   0  0  0  0  0
  101.0998    4.1894   20.9608 H   0  0  0  0  0
  101.7609    3.6765   22.5326 H   0  0  0  0  0
  101.6661    6.6019   21.6769 H   0  0  0  0  0
  101.0226    7.1747   23.2354 H   0  0  0  0  0
  102.2783    5.9126   23.2004 H   0  0  0  0  0
  1  2  1  0  0  0
  2  3  1  0  0  0
  2  5  1  0  0  0
  3  4  2  0  0  0
  3  6  1  0  0  0
  6  7  1  0  0  0
  7  8  1  0  0  0
  7 10  1  0  0  0
  8  9  2  0  0  0
  8 15  1  0  0  0
 10 11  1  0  0  0
 11 12  1  0  0  0
 12 13  2  0  0  0
 12 14  1  0  0  0
 15 16  1  0  0  0
 16 17  1  0  0  0
 16 19  1  0  0  0
 17 18  2  0  0  0
 17 24  1  0  0  0
 19 20  1  0  0  0
 20 21  1  0  0  0
 21 22  1  0  0  0
 21 23  2  0  0  0
 24 25  1  0  0  0
 25 26  1  0  0  0
 25 28  1  0  0  0
 26 27  2  0  0  0
 26 35  1  0  0  0
 28 29  1  0  0  0
 29 30  1  0  0  0
 30 31  1  0  0  0
 31 32  1  0  0  0
 32 33  1  0  0  0
 32 34  2  0  0  0
 35 36  1  0  0  0
 36 37  1  0  0  0
 36 39  1  0  0  0
 37 38  2  0  0  0
 37 43  1  0  0  0
 39 40  1  0  0  0
 39 41  1  0  0  0
 40 42  1  0  0  0
 43 44  1  0  0  0
 44 45  1  0  0  0
 44 47  1  0  0  0
 45 46  2  0  0  0
 45 51  1  0  0  0
 47 48  1  0  0  0
 47 49  1  0  0  0
 48 50  1  0  0  0
 51 52  1  0  0  0
 52 53  1  0  0  0
 52 55  1  0  0  0
 53 54  2  0  0  0
 53 58  1  0  0  0
 55 56  1  0  0  0
 55 57  1  0  0  0
 58 59  1  0  0  0
 59 60  1  0  0  0
 59 62  1  0  0  0
 60 61  1  0  0  0
 60 66  2  0  0  0
 62 63  1  0  0  0
 63 64  1  0  0  0
 63 65  1  0  0  0
  1 67  1  0  0  0
  1 68  1  0  0  0
  1 69  1  0  0  0
  2 70  1  0  0  0
  5 71  1  0  0  0
  5 72  1  0  0  0
  5 73  1  0  0  0
  6 74  1  0  0  0
  7 75  1  0  0  0
 10 76  1  0  0  0
 10 77  1  0  0  0
 11 78  1  0  0  0
 11 79  1  0  0  0
 14 80  1  0  0  0
 15 81  1  0  0  0
 16 82  1  0  0  0
 19 83  1  0  0  0
 19 84  1  0  0  0
 20 85  1  0  0  0
 20 86  1  0  0  0
 22 87  1  0  0  0
 24 88  1  0  0  0
 25 89  1  0  0  0
 28 90  1  0  0  0
 28 91  1  0  0  0
 29 92  1  0  0  0
 29 93  1  0  0  0
 30 94  1  0  0  0
 30 95  1  0  0  0
 31 96  1  0  0  0
 33 97  1  0  0  0
 33 98  1  0  0  0
 34 99  1  0  0  0
 35100  1  0  0  0
 36101  1  0  0  0
 39102  1  0  0  0
 40103  1  0  0  0
 40104  1  0  0  0
 41105  1  0  0  0
 41106  1  0  0  0
 41107  1  0  0  0
 42108  1  0  0  0
 42109  1  0  0  0
 42110  1  0  0  0
 43111  1  0  0  0
 44112  1  0  0  0
 47113  1  0  0  0
 48114  1  0  0  0
 48115  1  0  0  0
 49116  1  0  0  0
 49117  1  0  0  0
 49118  1  0  0  0
 50119  1  0  0  0
 50120  1  0  0  0
 50121  1  0  0  0
 51122  1  0  0  0
 52123  1  0  0  0
 55124  1  0  0  0
 56125  1  0  0  0
 56126  1  0  0  0
 56127  1  0  0  0
 57128  1  0  0  0
 57129  1  0  0  0
 57130  1  0  0  0
 58131  1  0  0  0
 59132  1  0  0  0
 61133  1  0  0  0
 62134  1  0  0  0
 62135  1  0  0  0
 63136  1  0  0  0
 64137  1  0  0  0
 64138  1  0  0  0
 64139  1  0  0  0
 65140  1  0  0  0
 65141  1  0  0  0
 65142  1  0  0  0
M  END
$$$$
