### 
### Created by X-TOOL on Mon Aug  2 16:17:08 2021
### 

@<TRIPOS>MOLECULE
6uyz_ligand
  140   139     1     0     0
SMALL
GAST_HUCK


@<TRIPOS>ATOM
      1 N         108.1390    0.6700   42.0040 N.4       1 ALA         0.2377
      2 CA        107.8560    1.6710   40.9570 C.3       1 ALA         0.0621
      3 C         106.3530    1.9660   40.9210 C.2       1 ALA         0.2264
      4 O         105.5380    1.0860   41.1650 O.2       1 ALA        -0.3907
      5 CB        108.3300    1.1830   39.6200 C.3       1 ALA        -0.0040
      6 N         105.9970    3.2100   40.5980 N.am      1 ALA        -0.2609
      7 CA        104.6010    3.5780   40.4330 C.3       1 ALA         0.1326
      8 C         104.0570    3.0560   39.1090 C.2       1 ALA         0.2040
      9 O         104.8000    2.7820   38.1600 O.2       1 ALA        -0.3944
     10 CB        104.4400    5.0960   40.4830 C.3       1 ALA        -0.0008
     11 CG        105.0220    5.7290   41.7320 C.3       1 ALA         0.0044
     12 CD        104.3980    7.0610   42.1010 C.2       1 ALA         0.0350
     13 OE1       103.5640    7.5950   41.3390 O.co2     1 ALA        -0.5690
     14 OE2       104.7550    7.5490   43.2030 O.co2     1 ALA        -0.5690
     15 N         102.7380    2.9020   39.0600 N.am      1 ALA        -0.2636
     16 CA        102.0630    2.5470   37.8180 C.3       1 ALA         0.1325
     17 C         102.2280    3.6490   36.7850 C.2       1 ALA         0.2040
     18 O         102.1300    4.8370   37.0890 O.2       1 ALA        -0.3944
     19 CB        100.5760    2.3380   38.0870 C.3       1 ALA        -0.0008
     20 CG         99.7830    1.7990   36.9070 C.3       1 ALA         0.0044
     21 CD         98.3000    1.6240   37.2230 C.2       1 ALA         0.0350
     22 OE1        97.6590    2.5850   37.7050 O.co2     1 ALA        -0.5690
     23 OE2        97.7790    0.5100   36.9990 O.co2     1 ALA        -0.5690
     24 N         102.4730    3.2400   35.5460 N.am      1 ALA        -0.2637
     25 CA        102.6970    4.1550   34.4370 C.3       1 ALA         0.1311
     26 C         101.7980    3.7080   33.2870 C.2       1 ALA         0.2039
     27 O         101.9800    2.6120   32.7460 O.2       1 ALA        -0.3944
     28 CB        104.1600    4.1260   34.0080 C.3       1 ALA        -0.0092
     29 CG        105.1130    4.6830   35.0600 C.3       1 ALA        -0.0156
     30 CD        106.5430    4.5630   34.6060 C.3       1 ALA         0.0627
     31 NE        107.0370    3.2000   34.6100 N.pl3     1 ALA        -0.2723
     32 CZ        108.2340    2.8510   34.1640 C.cat     1 ALA         0.2882
     33 NH1       109.0510    3.7710   33.6790 N.pl3     1 ALA        -0.2849
     34 NH2       108.6150    1.5870   34.1960 N.pl3     1 ALA        -0.2849
     35 N         100.8340    4.5500   32.9260 N.am      1 ALA        -0.2635
     36 CA         99.9530    4.3400   31.7820 C.3       1 ALA         0.1335
     37 C         100.1290    5.5350   30.8480 C.2       1 ALA         0.2042
     38 O          99.9720    6.6940   31.2600 O.2       1 ALA        -0.3944
     39 CB         98.4820    4.1830   32.1960 C.3       1 ALA        -0.0037
     40 CG1        98.3070    3.0300   33.1910 C.3       1 ALA        -0.0491
     41 CG2        97.6240    3.9290   30.9690 C.3       1 ALA        -0.0582
     42 CD1        96.9260    2.9700   33.8530 C.3       1 ALA        -0.0648
     43 N         100.4680    5.2490   29.5960 N.am      1 ALA        -0.2635
     44 CA        100.5800    6.2470   28.5340 C.3       1 ALA         0.1335
     45 C          99.4290    6.0280   27.5670 C.2       1 ALA         0.2042
     46 O          99.2130    4.9070   27.0990 O.2       1 ALA        -0.3944
     47 CB        101.9170    6.0850   27.8020 C.3       1 ALA        -0.0037
     48 CG1       103.0560    6.3810   28.7700 C.3       1 ALA        -0.0491
     49 CG2       101.9730    6.9940   26.5690 C.3       1 ALA        -0.0582
     50 CD1       104.3950    5.8490   28.3040 C.3       1 ALA        -0.0648
     51 N          98.6900    7.0900   27.2810 N.am      1 ALA        -0.2635
     52 CA         97.5960    7.0160   26.3170 C.3       1 ALA         0.1332
     53 C          98.1230    7.4390   24.9530 C.2       1 ALA         0.2036
     54 O          98.7070    8.5180   24.8120 O.2       1 ALA        -0.3944
     55 CB         96.4260    7.9110   26.7620 C.3       1 ALA        -0.0063
     56 CG1        95.2790    7.7800   25.7800 C.3       1 ALA        -0.0584
     57 CG2        96.0090    7.5590   28.1860 C.3       1 ALA        -0.0584
     58 N          97.9420    6.5860   23.9590 N.am      1 ALA        -0.2695
     59 CA         98.3700    6.9150   22.6010 C.3       1 ALA         0.0946
     60 C          97.1750    7.3950   21.7760 C.2       1 ALA         0.0601
     61 O          96.1200    6.7650   21.7880 O.co2     1 ALA        -0.5666
     62 CB         99.0380    5.7070   21.9380 C.3       1 ALA        -0.0156
     63 CG        100.3090    5.2250   22.6400 C.3       1 ALA        -0.0431
     64 CD1       100.8590    3.9850   22.0040 C.3       1 ALA        -0.0625
     65 CD2       101.3990    6.3080   22.6920 C.3       1 ALA        -0.0625
     66 OXT        97.2610    8.4140   21.0950 O.co2     1 ALA        -0.5666
     67 H1        109.1282    0.4773   42.0260 H         1 ALA         0.2015
     68 H2        107.6357   -0.1795   41.8015 H         1 ALA         0.2015
     69 H3        107.8465    1.0285   42.8995 H         1 ALA         0.2015
     70 H4        108.3928    2.5996   41.2011 H         1 ALA         0.1095
     71 H5        108.1106    1.9414   38.8540 H         1 ALA         0.0310
     72 H6        107.8123    0.2460   39.3670 H         1 ALA         0.0310
     73 H7        109.4146    1.0038   39.6585 H         1 ALA         0.0310
     74 H8        106.7052    3.9037   40.4667 H         1 ALA         0.1885
     75 H9        104.0216    3.1318   41.2547 H         1 ALA         0.0801
     76 H10       103.3667    5.3331   40.4412 H         1 ALA         0.0330
     77 H11       104.9454    5.5281   39.6067 H         1 ALA         0.0330
     78 H12       106.0987    5.8853   41.5702 H         1 ALA         0.0433
     79 H13       104.8745    5.0343   42.5720 H         1 ALA         0.0433
     80 H14       102.1980    3.0322   39.8915 H         1 ALA         0.1883
     81 H15       102.4979    1.6158   37.4259 H         1 ALA         0.0801
     82 H16       100.1416    3.3060   38.3773 H         1 ALA         0.0330
     83 H17       100.4758    1.6265   38.9199 H         1 ALA         0.0330
     84 H18       100.1992    0.8219   36.6205 H         1 ALA         0.0433
     85 H19        99.8829    2.5010   36.0660 H         1 ALA         0.0433
     86 H20       102.5051    2.2568   35.3664 H         1 ALA         0.1883
     87 H21       102.4307    5.1782   34.7407 H         1 ALA         0.0800
     88 H22       104.2659    4.7239   33.0908 H         1 ALA         0.0313
     89 H23       104.4415    3.0831   33.8005 H         1 ALA         0.0313
     90 H24       104.9841    4.1208   35.9966 H         1 ALA         0.0301
     91 H25       104.8780    5.7435   35.2336 H         1 ALA         0.0301
     92 H26       107.1735    5.1641   35.2777 H         1 ALA         0.0689
     93 H27       106.6178    4.9577   33.5820 H         1 ALA         0.0689
     94 H28       106.4222    2.4614   34.9807 H         1 ALA         0.2642
     95 H29       109.9824    3.5011   33.3317 H         1 ALA         0.2615
     96 H30       108.7559    4.7574   33.6486 H         1 ALA         0.2615
     97 H31       107.9816    0.8676   34.5730 H         1 ALA         0.2615
     98 H32       109.5456    1.3205   33.8440 H         1 ALA         0.2615
     99 H33       100.7050    5.3778   33.4720 H         1 ALA         0.1883
    100 H34       100.2620    3.4232   31.2586 H         1 ALA         0.0803
    101 H35        98.1510    5.1158   32.6760 H         1 ALA         0.0345
    102 H36        99.0633    3.1403   33.9821 H         1 ALA         0.0267
    103 H37        98.4728    2.0842   32.6544 H         1 ALA         0.0267
    104 H38        97.7502    4.7568   30.2556 H         1 ALA         0.0235
    105 H39        96.5676    3.8605   31.2680 H         1 ALA         0.0235
    106 H40        97.9327    2.9858   30.4945 H         1 ALA         0.0235
    107 H41        96.8890    2.1177   34.5474 H         1 ALA         0.0230
    108 H42        96.1536    2.8465   33.0796 H         1 ALA         0.0230
    109 H43        96.7442    3.9026   34.4072 H         1 ALA         0.0230
    110 H44       100.6578    4.2944   29.3664 H         1 ALA         0.1883
    111 H45       100.5190    7.2577   28.9638 H         1 ALA         0.0803
    112 H46       102.0090    5.0423   27.4639 H         1 ALA         0.0345
    113 H47       102.8170    5.9217   29.7405 H         1 ALA         0.0267
    114 H48       103.1369    7.4714   28.8903 H         1 ALA         0.0267
    115 H49       101.1375    6.7509   25.8961 H         1 ALA         0.0235
    116 H50       102.9257    6.8384   26.0416 H         1 ALA         0.0235
    117 H51       101.8959    8.0450   26.8844 H         1 ALA         0.0235
    118 H52       105.1670    6.0974   29.0472 H         1 ALA         0.0230
    119 H53       104.6553    6.3064   27.3381 H         1 ALA         0.0230
    120 H54       104.3355    4.7567   28.1883 H         1 ALA         0.0230
    121 H55        98.8855    7.9596   27.7345 H         1 ALA         0.1883
    122 H56        97.2394    5.9772   26.2561 H         1 ALA         0.0802
    123 H57        96.7642    8.9577   26.7551 H         1 ALA         0.0343
    124 H58        94.4454    8.4213   26.1022 H         1 ALA         0.0234
    125 H59        94.9438    6.7329   25.7453 H         1 ALA         0.0234
    126 H60        95.6153    8.0907   24.7798 H         1 ALA         0.0234
    127 H61        96.8724    7.6690   28.8587 H         1 ALA         0.0234
    128 H62        95.6504    6.5196   28.2167 H         1 ALA         0.0234
    129 H63        95.2036    8.2346   28.5098 H         1 ALA         0.0234
    130 H64        97.5064    5.7040   24.1389 H         1 ALA         0.1875
    131 H65        99.1059    7.7308   22.6553 H         1 ALA         0.0726
    132 H66        99.2982    5.9814   20.9051 H         1 ALA         0.0308
    133 H67        98.3156    4.8775   21.9262 H         1 ALA         0.0308
    134 H68       100.0351    4.9779   23.6763 H         1 ALA         0.0297
    135 H69       101.7693    3.6726   22.5367 H         1 ALA         0.0232
    136 H70       101.1025    4.1900   20.9511 H         1 ALA         0.0232
    137 H71       100.1091    3.1820   22.0574 H         1 ALA         0.0232
    138 H72       100.9913    7.2164   23.1595 H         1 ALA         0.0232
    139 H73       101.7342    6.5402   21.6704 H         1 ALA         0.0232
    140 H74       102.2514    5.9423   23.2834 H         1 ALA         0.0232
@<TRIPOS>BOND
     1    1    2 1  
     2    2    3 1  
     3    2    5 1  
     4    3    4 2  
     5    3    6 am 
     6    6    7 1  
     7    7    8 1  
     8    7   10 1  
     9    8    9 2  
    10    8   15 am 
    11   10   11 1  
    12   11   12 1  
    13   12   13 ar 
    14   12   14 ar 
    15   15   16 1  
    16   16   17 1  
    17   16   19 1  
    18   17   18 2  
    19   17   24 am 
    20   19   20 1  
    21   20   21 1  
    22   21   22 ar 
    23   21   23 ar 
    24   24   25 1  
    25   25   26 1  
    26   25   28 1  
    27   26   27 2  
    28   26   35 am 
    29   28   29 1  
    30   29   30 1  
    31   30   31 1  
    32   31   32 ar 
    33   32   33 ar 
    34   32   34 ar 
    35   35   36 1  
    36   36   37 1  
    37   36   39 1  
    38   37   38 2  
    39   37   43 am 
    40   39   40 1  
    41   39   41 1  
    42   40   42 1  
    43   43   44 1  
    44   44   45 1  
    45   44   47 1  
    46   45   46 2  
    47   45   51 am 
    48   47   48 1  
    49   47   49 1  
    50   48   50 1  
    51   51   52 1  
    52   52   53 1  
    53   52   55 1  
    54   53   54 2  
    55   53   58 am 
    56   55   56 1  
    57   55   57 1  
    58   58   59 1  
    59   59   60 1  
    60   59   62 1  
    61   60   61 ar 
    62   60   66 ar 
    63   62   63 1  
    64   63   64 1  
    65   63   65 1  
    66    1   67 1  
    67    1   68 1  
    68    1   69 1  
    69    2   70 1  
    70    5   71 1  
    71    5   72 1  
    72    5   73 1  
    73    6   74 1  
    74    7   75 1  
    75   10   76 1  
    76   10   77 1  
    77   11   78 1  
    78   11   79 1  
    79   15   80 1  
    80   16   81 1  
    81   19   82 1  
    82   19   83 1  
    83   20   84 1  
    84   20   85 1  
    85   24   86 1  
    86   25   87 1  
    87   28   88 1  
    88   28   89 1  
    89   29   90 1  
    90   29   91 1  
    91   30   92 1  
    92   30   93 1  
    93   31   94 1  
    94   33   95 1  
    95   33   96 1  
    96   34   97 1  
    97   34   98 1  
    98   35   99 1  
    99   36  100 1  
   100   39  101 1  
   101   40  102 1  
   102   40  103 1  
   103   41  104 1  
   104   41  105 1  
   105   41  106 1  
   106   42  107 1  
   107   42  108 1  
   108   42  109 1  
   109   43  110 1  
   110   44  111 1  
   111   47  112 1  
   112   48  113 1  
   113   48  114 1  
   114   49  115 1  
   115   49  116 1  
   116   49  117 1  
   117   50  118 1  
   118   50  119 1  
   119   50  120 1  
   120   51  121 1  
   121   52  122 1  
   122   55  123 1  
   123   56  124 1  
   124   56  125 1  
   125   56  126 1  
   126   57  127 1  
   127   57  128 1  
   128   57  129 1  
   129   58  130 1  
   130   59  131 1  
   131   62  132 1  
   132   62  133 1  
   133   63  134 1  
   134   64  135 1  
   135   64  136 1  
   136   64  137 1  
   137   65  138 1  
   138   65  139 1  
   139   65  140 1  
@<TRIPOS>SUBSTRUCTURE
     1 ALA         1

