1ydk_ligand
  -I-interpret- 

 56 55  0  0  0  0  0  0  0  0999 V2000
   25.8140   24.1410   13.1200 N   0  3  0  0  0
   26.6160   25.2300   12.5920 C   0  0  0  0  0
   27.1920   24.8350   11.2590 C   0  0  0  0  0
   27.5250   25.7060   10.4230 O   0  0  0  0  0
   27.3500   23.6320   10.9700 O   0  0  0  0  0
   27.7430   25.5880   13.5610 C   0  0  0  0  0
   28.3650   26.9360   13.1990 C   0  0  0  0  0
   29.4220   27.3370   14.2080 C   0  0  0  0  0
   29.4730   26.7140   15.4620 O   0  0  0  0  0
   30.2640   28.3060   13.8560 N   0  0  0  0  0
   31.2080   28.8780   14.8040 C   0  0  0  0  0
   30.8970   30.3270   15.0190 C   0  0  0  0  0
   30.6400   31.1440   13.9020 O   0  0  0  0  0
   32.6350   28.8050   14.2580 C   0  0  0  0  0
   33.1360   27.1560   13.7270 S   0  0  0  0  0
   33.8320   26.7590   15.3520 C   0  0  0  0  0
   35.1720   26.0400   15.2400 C   0  0  0  0  0
   35.0020   24.5240   15.2500 C   0  0  0  0  0
   36.0700   23.8270   16.0930 C   0  0  0  0  0
   37.4510   23.8420   15.4450 C   0  0  0  0  0
   38.5440   23.7660   16.5110 C   0  0  0  0  0
   30.9010   30.7590   16.2810 N   0  0  0  0  0
   30.4070   32.0700   16.6610 C   0  0  0  0  0
   29.1180   32.0270   17.4520 C   0  0  0  0  0
   28.6510   33.0890   17.9240 O   0  0  0  0  0
   28.4980   30.9540   17.6520 O   0  0  0  0  0
   25.0691   23.9178   12.4599 H   0  0  0  0  0
   26.4048   23.3210   13.2578 H   0  0  0  0  0
   25.4066   24.4218   14.0120 H   0  0  0  0  0
   25.9781   26.1049   12.4664 H   0  0  0  0  0
   27.3462   26.5780   10.7826 H   0  0  0  0  0
   28.5134   24.8192   13.5023 H   0  0  0  0  0
   27.3324   25.6505   14.5688 H   0  0  0  0  0
   27.5805   27.6928   13.1959 H   0  0  0  0  0
   28.8328   26.8523   12.2181 H   0  0  0  0  0
   30.2470   28.6561   12.8981 H   0  0  0  0  0
   31.1260   28.3126   15.7323 H   0  0  0  0  0
   33.3049   29.1015   15.0651 H   0  0  0  0  0
   32.6792   29.4532   13.3828 H   0  0  0  0  0
   33.1344   26.1006   15.8697 H   0  0  0  0  0
   33.9904   27.6925   15.8920 H   0  0  0  0  0
   35.7856   26.3223   16.0956 H   0  0  0  0  0
   35.6378   26.3270   14.2972 H   0  0  0  0  0
   35.0935   24.1663   14.2244 H   0  0  0  0  0
   34.0276   24.2955   15.6817 H   0  0  0  0  0
   35.7711   22.7853   16.2097 H   0  0  0  0  0
   36.1437   24.3610   17.0404 H   0  0  0  0  0
   37.5683   24.7687   14.8832 H   0  0  0  0  0
   37.5410   22.9802   14.7837 H   0  0  0  0  0
   38.4571   24.6219   17.1803 H   0  0  0  0  0
   38.4300   22.8441   17.0813 H   0  0  0  0  0
   39.5215   23.7779   16.0288 H   0  0  0  0  0
   31.2657   30.1436   17.0080 H   0  0  0  0  0
   30.2082   32.6226   15.7428 H   0  0  0  0  0
   31.1635   32.5328   17.2947 H   0  0  0  0  0
   28.9706   30.2301   17.2346 H   0  0  0  0  0
  1  2  1  0  0  0
  2  3  1  0  0  0
  2  6  1  0  0  0
  3  4  1  0  0  0
  3  5  2  0  0  0
  6  7  1  0  0  0
  7  8  1  0  0  0
  8  9  2  0  0  0
  8 10  1  0  0  0
 10 11  1  0  0  0
 11 12  1  0  0  0
 11 14  1  0  0  0
 12 13  2  0  0  0
 12 22  1  0  0  0
 14 15  1  0  0  0
 15 16  1  0  0  0
 16 17  1  0  0  0
 17 18  1  0  0  0
 18 19  1  0  0  0
 19 20  1  0  0  0
 20 21  1  0  0  0
 22 23  1  0  0  0
 23 24  1  0  0  0
 24 25  2  0  0  0
 24 26  1  0  0  0
  1 27  1  0  0  0
  1 28  1  0  0  0
  1 29  1  0  0  0
  2 30  1  0  0  0
  4 31  1  0  0  0
  6 32  1  0  0  0
  6 33  1  0  0  0
  7 34  1  0  0  0
  7 35  1  0  0  0
 10 36  1  0  0  0
 11 37  1  0  0  0
 14 38  1  0  0  0
 14 39  1  0  0  0
 16 40  1  0  0  0
 16 41  1  0  0  0
 17 42  1  0  0  0
 17 43  1  0  0  0
 18 44  1  0  0  0
 18 45  1  0  0  0
 19 46  1  0  0  0
 19 47  1  0  0  0
 20 48  1  0  0  0
 20 49  1  0  0  0
 21 50  1  0  0  0
 21 51  1  0  0  0
 21 52  1  0  0  0
 22 53  1  0  0  0
 23 54  1  0  0  0
 23 55  1  0  0  0
 26 56  1  0  0  0
M  END
$$$$
