4jne_ligand
  -I-interpret- 

 47 49  0  0  0  0  0  0  0  0999 V2000
   13.0360   76.3780   28.1870 P   0  0  0  0  0
   12.3240   76.8740   26.9370 O   0  0  0  0  0
   12.8220   77.2350   29.4160 O   0  0  0  0  0
   12.7900   74.9390   28.4730 O   0  0  0  0  0
   15.7640   75.6640   27.2730 P   0  0  0  0  0
   15.3140   74.2370   27.1670 O   0  0  0  0  0
   16.3450   76.3020   26.0400 O   0  0  0  0  0
   14.6150   76.6190   27.9180 O   0  0  0  0  0
   18.0500   74.8520   28.8250 P   0  0  0  0  0
   18.9570   74.7950   27.6240 O   0  0  0  0  0
   17.5370   73.6240   29.5060 O   0  0  0  0  0
   16.8090   75.8270   28.4900 O   0  0  0  0  0
   18.7840   75.7520   29.9420 O   0  0  0  0  0
   19.2860   77.0370   29.5910 C   0  0  0  0  0
   19.4310   77.8380   30.8860 C   0  0  0  0  0
   20.2570   77.0930   31.7800 O   0  0  0  0  0
   20.1080   79.1910   30.6890 C   0  0  0  0  0
   19.3970   80.1480   31.4870 O   0  0  0  0  0
   21.5080   78.9790   31.2330 C   0  0  0  0  0
   22.1510   80.1510   31.7420 O   0  0  0  0  0
   21.2240   77.9790   32.3250 C   0  0  0  0  0
   22.4140   77.2010   32.6960 N   0  0  0  0  0
   23.2050   76.4750   31.8840 C   0  0  0  0  0
   24.1990   75.8870   32.6020 N   0  0  0  0  0
   24.0320   76.2460   33.8890 C   0  0  0  0  0
   24.7320   75.9910   35.1580 C   0  0  0  0  0
   25.8370   75.2010   35.1770 N   0  0  0  0  0
   24.2280   76.5650   36.2790 N   0  0  0  0  0
   23.1310   77.3510   36.2540 C   0  0  0  0  0
   22.4510   77.6370   35.1280 N   0  0  0  0  0
   22.8530   77.1170   33.9450 C   0  0  0  0  0
   12.5205   77.8045   26.8061 H   0  0  0  0  0
   12.9887   78.1546   29.1965 H   0  0  0  0  0
   16.5925   77.2085   26.2365 H   0  0  0  0  0
   19.1691   75.6878   27.3419 H   0  0  0  0  0
   18.6051   77.5396   28.9041 H   0  0  0  0  0
   20.2480   76.9475   29.0863 H   0  0  0  0  0
   18.4238   78.0105   31.2652 H   0  0  0  0  0
   20.1242   79.5459   29.6585 H   0  0  0  0  0
   19.8012   81.0126   31.3835 H   0  0  0  0  0
   22.2133   78.6637   30.4641 H   0  0  0  0  0
   23.0263   79.9209   32.0622 H   0  0  0  0  0
   20.8900   78.4947   33.2253 H   0  0  0  0  0
   23.0686   76.3732   30.8074 H   0  0  0  0  0
   26.1813   74.7848   34.3118 H   0  0  0  0  0
   26.3224   75.0241   36.0565 H   0  0  0  0  0
   22.7777   77.7759   37.1936 H   0  0  0  0  0
  1  2  1  0  0  0
  1  3  1  0  0  0
  1  4  2  0  0  0
  8  1  1  0  0  0
  5  6  2  0  0  0
  5  7  1  0  0  0
  5  8  1  0  0  0
 12  5  1  0  0  0
  9 10  1  0  0  0
  9 11  2  0  0  0
  9 12  1  0  0  0
  9 13  1  0  0  0
 13 14  1  0  0  0
 14 15  1  0  0  0
 15 16  1  0  0  0
 15 17  1  0  0  0
 16 21  1  0  0  0
 17 18  1  0  0  0
 17 19  1  0  0  0
 19 20  1  0  0  0
 19 21  1  0  0  0
 21 22  1  0  0  0
 22 23  4  0  0  0
 22 31  4  0  0  0
 23 24  4  0  0  0
 24 25  4  0  0  0
 25 26  4  0  0  0
 25 31  4  0  0  0
 26 27  1  0  0  0
 26 28  4  0  0  0
 28 29  4  0  0  0
 29 30  4  0  0  0
 30 31  4  0  0  0
  2 32  1  0  0  0
  3 33  1  0  0  0
  7 34  1  0  0  0
 10 35  1  0  0  0
 14 36  1  0  0  0
 14 37  1  0  0  0
 15 38  1  0  0  0
 17 39  1  0  0  0
 18 40  1  0  0  0
 19 41  1  0  0  0
 20 42  1  0  0  0
 21 43  1  0  0  0
 23 44  1  0  0  0
 27 45  1  0  0  0
 27 46  1  0  0  0
 29 47  1  0  0  0
M  END
$$$$
