6rr0_ligand
  -I-interpret- 

157158  0  0  0  0  0  0  0  0999 V2000
    0.7320    4.3550   -3.0940 N   0  3  0  0  0
   -0.5230    3.6630   -2.8010 C   0  0  0  0  0
   -1.5950    4.6200   -2.2300 C   0  0  0  0  0
   -1.2640    5.4950   -1.4240 O   0  0  0  0  0
   -0.2550    2.4640   -1.8630 C   0  0  0  0  0
   -1.4410    1.8030   -1.1400 C   0  0  0  0  0
   -2.1750    0.8020   -2.0340 C   0  0  0  0  0
   -0.9850    1.1720    0.1440 C   0  0  0  0  0
   -2.8790    4.4350   -2.6570 N   0  0  0  0  0
   -4.0340    5.2370   -2.2390 C   0  0  0  0  0
   -4.2610    5.1900   -0.7340 C   0  0  0  0  0
   -4.0170    4.1600   -0.1020 O   0  0  0  0  0
   -5.3020    4.8310   -2.9920 C   0  0  0  0  0
   -5.9740    3.7260   -2.4090 O   0  0  0  0  0
   -4.7280    6.3120   -0.1730 N   0  0  0  0  0
   -4.9760    6.4770    1.2600 C   0  0  0  0  0
   -6.4030    6.0530    1.6770 C   0  0  0  0  0
   -6.7100    6.0620    2.8760 O   0  0  0  0  0
   -4.6220    7.9230    1.6900 C   0  0  0  0  0
   -4.6130    8.0020    3.1190 O   0  0  0  0  0
   -5.5600    8.9860    1.0830 C   0  0  0  0  0
   -7.2570    5.6680    0.7040 N   0  0  0  0  0
   -8.6450    5.3090    0.9960 C   0  0  0  0  0
   -8.8030    3.9860    1.7730 C   0  0  0  0  0
   -9.6670    3.9130    2.6550 O   0  0  0  0  0
   -9.5390    5.3310   -0.2710 C   0  0  0  0  0
   -9.2580    4.2720   -1.3320 C   0  0  0  0  0
  -10.1340    4.4020   -2.5680 C   0  0  0  0  0
  -10.2450    5.5350   -3.0880 O   0  0  0  0  0
  -10.7010    3.3820   -3.0260 O   0  0  0  0  0
   -7.9850    2.9640    1.4680 N   0  0  0  0  0
   -8.0790    1.6650    2.1390 C   0  0  0  0  0
   -7.4880    1.7290    3.5540 C   0  0  0  0  0
   -6.3530    2.1450    3.7450 O   0  0  0  0  0
   -7.4410    0.5630    1.2750 C   0  0  0  0  0
   -8.0280   -0.8480    1.3430 C   0  0  0  0  0
   -9.5090   -0.8720    0.9710 C   0  0  0  0  0
   -7.2990   -1.7690    0.3850 C   0  0  0  0  0
   -8.2950    1.3870    4.5490 N   0  0  0  0  0
   -7.9050    1.4420    5.9520 C   0  0  0  0  0
   -7.1230    0.1990    6.3660 C   0  0  0  0  0
   -7.4150   -0.9010    5.9030 O   0  0  0  0  0
   -9.1380    1.6260    6.8400 C   0  0  0  0  0
   -8.8040    1.7500    8.2130 O   0  0  0  0  0
   -6.1370    0.3840    7.2540 N   0  0  0  0  0
   -5.3050   -0.6850    7.8220 C   0  0  0  0  0
   -4.1390   -0.0460    8.6410 C   0  0  0  0  0
   -3.0970   -1.0860    9.1600 C   0  0  0  0  0
   -3.4220    0.9090    7.7980 O   0  0  0  0  0
   -3.5050    2.4330    8.1380 P   0  0  0  0  0
   -2.3750    3.0770    7.3390 O   0  0  0  0  0
   -4.8530    2.9580    7.7380 O   0  0  0  0  0
   -3.3920    2.7320    9.5860 O   0  0  0  0  0
   -6.1660   -1.5470    8.7470 C   0  0  0  0  0
   -5.9510   -2.7540    8.8510 O   0  0  0  0  0
   -7.1400   -0.9130    9.4150 N   0  0  0  0  0
   -8.0610   -1.5820   10.3270 C   0  0  0  0  0
   -9.3150   -2.0220    9.5820 C   0  0  0  0  0
   -9.8320   -1.2350    8.7880 O   0  0  0  0  0
   -8.4070   -0.6890   11.5440 C   0  0  0  0  0
   -7.2080   -0.1730   12.3350 C   0  0  0  0  0
   -6.1790   -1.1890   12.8100 C   0  0  0  0  0
   -6.5940   -2.2400   13.3570 O   0  0  0  0  0
   -4.9590   -0.9180   12.6630 O   0  0  0  0  0
   -9.8040   -3.2730    9.7940 N   0  0  0  0  0
  -11.0140   -3.7350    9.0780 C   0  0  0  0  0
  -12.2940   -2.9670    9.4250 C   0  0  0  0  0
  -12.3300   -2.3160   10.4730 O   0  0  0  0  0
  -11.1170   -5.2120    9.4710 C   0  0  0  0  0
  -10.3990   -5.3150   10.7550 C   0  0  0  0  0
   -9.2780   -4.3240   10.6880 C   0  0  0  0  0
  -13.3540   -3.0140    8.5730 N   0  0  0  0  0
  -14.5970   -2.2830    8.9030 C   0  0  0  0  0
  -15.2980   -2.7860   10.1630 C   0  0  0  0  0
  -15.1350   -3.9420   10.5400 O   0  0  0  0  0
  -15.4770   -2.4800    7.6590 C   0  0  0  0  0
  -14.5870   -3.0200    6.6030 C   0  0  0  0  0
  -13.4980   -3.7530    7.3030 C   0  0  0  0  0
  -16.0270   -2.0360   10.8040 O   0  0  0  0  0
    0.5471    5.1443   -3.7130 H   0  0  0  0  0
    1.1438    4.6927   -2.2241 H   0  0  0  0  0
    1.3771    3.7088   -3.5485 H   0  0  0  0  0
   -0.9309    3.2814   -3.7370 H   0  0  0  0  0
    0.3712    2.8654   -1.0662 H   0  0  0  0  0
    0.1482    1.6855   -2.5107 H   0  0  0  0  0
   -2.1617    2.5843   -0.8985 H   0  0  0  0  0
   -1.5072   -0.0248   -2.2760 H   0  0  0  0  0
   -3.0508    0.4215   -1.5084 H   0  0  0  0  0
   -2.4881    1.2986   -2.9524 H   0  0  0  0  0
   -1.8501    0.7947    0.6892 H   0  0  0  0  0
   -0.3065    0.3484   -0.0783 H   0  0  0  0  0
   -0.4685    1.9165    0.7498 H   0  0  0  0  0
   -3.0485    3.6784   -3.3198 H   0  0  0  0  0
   -3.8004    6.2698   -2.4976 H   0  0  0  0  0
   -5.0067    4.5412   -4.0004 H   0  0  0  0  0
   -5.9845    5.6805   -2.9681 H   0  0  0  0  0
   -6.7573    3.5209   -2.9247 H   0  0  0  0  0
   -4.9240    7.1044   -0.7846 H   0  0  0  0  0
   -4.3196    5.7944    1.7997 H   0  0  0  0  0
   -3.6299    8.1484    1.2989 H   0  0  0  0  0
   -4.3938    8.8973    3.3875 H   0  0  0  0  0
   -5.5011    8.9422   -0.0045 H   0  0  0  0  0
   -6.5839    8.7893    1.4009 H   0  0  0  0  0
   -5.2556    9.9752    1.4251 H   0  0  0  0  0
   -6.9256    5.6264   -0.2598 H   0  0  0  0  0
   -8.9981    6.0919    1.6672 H   0  0  0  0  0
   -9.3525    6.2916   -0.7513 H   0  0  0  0  0
  -10.5547    5.1427    0.0770 H   0  0  0  0  0
   -9.4644    3.2992   -0.8858 H   0  0  0  0  0
   -8.2228    4.3948   -1.6505 H   0  0  0  0  0
  -10.4835    2.6236   -2.4791 H   0  0  0  0  0
   -7.2763    3.0970    0.7465 H   0  0  0  0  0
   -9.1312    1.4065    2.2578 H   0  0  0  0  0
   -6.4203    0.4655    1.6449 H   0  0  0  0  0
   -7.5915    0.8853    0.2447 H   0  0  0  0  0
   -7.9103   -1.1829    2.3736 H   0  0  0  0  0
  -10.0659   -0.2381    1.6610 H   0  0  0  0  0
   -9.6329   -0.5005   -0.0462 H   0  0  0  0  0
   -9.8815   -1.8944    1.0337 H   0  0  0  0  0
   -7.4020   -1.3891   -0.6315 H   0  0  0  0  0
   -6.2435   -1.8092    0.6540 H   0  0  0  0  0
   -7.7291   -2.7687    0.4460 H   0  0  0  0  0
   -9.2369    1.0692    4.3207 H   0  0  0  0  0
   -7.2471    2.3012    6.0826 H   0  0  0  0  0
   -9.7697    0.7452    6.7255 H   0  0  0  0  0
   -9.6410    2.5426    6.5318 H   0  0  0  0  0
   -9.6066    1.8629    8.7275 H   0  0  0  0  0
   -5.9500    1.3393    7.5586 H   0  0  0  0  0
   -4.8934   -1.3019    7.0232 H   0  0  0  0  0
   -4.6019    0.4290    9.5060 H   0  0  0  0  0
   -3.5960   -1.8052    9.8095 H   0  0  0  0  0
   -2.6527   -1.6073    8.3121 H   0  0  0  0  0
   -2.3173   -0.5691    9.7195 H   0  0  0  0  0
   -2.4799    2.8631    6.4090 H   0  0  0  0  0
   -4.9935    2.7959    6.8023 H   0  0  0  0  0
   -7.2427    0.0925    9.2780 H   0  0  0  0  0
   -7.5666   -2.4712   10.7182 H   0  0  0  0  0
   -8.9907   -1.3053   12.2278 H   0  0  0  0  0
   -8.9231    0.1873   11.1518 H   0  0  0  0  0
   -7.6250    0.2640   13.2424 H   0  0  0  0  0
   -6.6716    0.4861   11.6524 H   0  0  0  0  0
   -4.8717   -0.0694   12.2227 H   0  0  0  0  0
  -10.9198   -3.5676    8.0051 H   0  0  0  0  0
  -10.6839   -5.8636    8.7121 H   0  0  0  0  0
  -12.1541   -5.5353    9.5605 H   0  0  0  0  0
  -10.0214   -6.3251   10.9140 H   0  0  0  0  0
  -11.0617   -5.1023   11.5938 H   0  0  0  0  0
   -9.0001   -3.9389   11.6691 H   0  0  0  0  0
   -8.3518   -4.7637   10.3180 H   0  0  0  0  0
  -14.3867   -1.2380    9.1310 H   0  0  0  0  0
  -14.5420   -4.3940    9.9353 H   0  0  0  0  0
  -15.9314   -1.5398    7.3466 H   0  0  0  0  0
  -16.3011   -3.1630    7.8651 H   0  0  0  0  0
  -14.1833   -2.2180    5.9850 H   0  0  0  0  0
  -15.1344   -3.6819    5.9319 H   0  0  0  0  0
  -13.7312   -4.8069    7.4546 H   0  0  0  0  0
  -12.5733   -3.7817    6.7267 H   0  0  0  0  0
  1  2  1  0  0  0
  2  3  1  0  0  0
  2  5  1  0  0  0
  3  4  2  0  0  0
  3  9  1  0  0  0
  5  6  1  0  0  0
  6  7  1  0  0  0
  6  8  1  0  0  0
  9 10  1  0  0  0
 10 11  1  0  0  0
 10 13  1  0  0  0
 11 12  2  0  0  0
 11 15  1  0  0  0
 13 14  1  0  0  0
 15 16  1  0  0  0
 16 17  1  0  0  0
 16 19  1  0  0  0
 17 18  2  0  0  0
 17 22  1  0  0  0
 19 20  1  0  0  0
 19 21  1  0  0  0
 22 23  1  0  0  0
 23 24  1  0  0  0
 23 26  1  0  0  0
 24 25  2  0  0  0
 24 31  1  0  0  0
 26 27  1  0  0  0
 27 28  1  0  0  0
 28 29  2  0  0  0
 28 30  1  0  0  0
 31 32  1  0  0  0
 32 33  1  0  0  0
 32 35  1  0  0  0
 33 34  2  0  0  0
 33 39  1  0  0  0
 35 36  1  0  0  0
 36 37  1  0  0  0
 36 38  1  0  0  0
 39 40  1  0  0  0
 40 41  1  0  0  0
 40 43  1  0  0  0
 41 42  2  0  0  0
 41 45  1  0  0  0
 43 44  1  0  0  0
 45 46  1  0  0  0
 46 47  1  0  0  0
 46 54  1  0  0  0
 47 48  1  0  0  0
 47 49  1  0  0  0
 49 50  1  0  0  0
 50 51  1  0  0  0
 50 52  1  0  0  0
 50 53  2  0  0  0
 54 55  2  0  0  0
 54 56  1  0  0  0
 56 57  1  0  0  0
 57 58  1  0  0  0
 57 60  1  0  0  0
 58 59  2  0  0  0
 58 65  1  0  0  0
 60 61  1  0  0  0
 61 62  1  0  0  0
 62 63  2  0  0  0
 62 64  1  0  0  0
 65 66  1  0  0  0
 65 71  1  0  0  0
 66 67  1  0  0  0
 66 69  1  0  0  0
 67 68  2  0  0  0
 67 72  1  0  0  0
 69 70  1  0  0  0
 70 71  1  0  0  0
 72 73  1  0  0  0
 72 78  1  0  0  0
 73 74  1  0  0  0
 73 76  1  0  0  0
 74 75  1  0  0  0
 74 79  2  0  0  0
 76 77  1  0  0  0
 77 78  1  0  0  0
  1 80  1  0  0  0
  1 81  1  0  0  0
  1 82  1  0  0  0
  2 83  1  0  0  0
  5 84  1  0  0  0
  5 85  1  0  0  0
  6 86  1  0  0  0
  7 87  1  0  0  0
  7 88  1  0  0  0
  7 89  1  0  0  0
  8 90  1  0  0  0
  8 91  1  0  0  0
  8 92  1  0  0  0
  9 93  1  0  0  0
 10 94  1  0  0  0
 13 95  1  0  0  0
 13 96  1  0  0  0
 14 97  1  0  0  0
 15 98  1  0  0  0
 16 99  1  0  0  0
 19100  1  0  0  0
 20101  1  0  0  0
 21102  1  0  0  0
 21103  1  0  0  0
 21104  1  0  0  0
 22105  1  0  0  0
 23106  1  0  0  0
 26107  1  0  0  0
 26108  1  0  0  0
 27109  1  0  0  0
 27110  1  0  0  0
 30111  1  0  0  0
 31112  1  0  0  0
 32113  1  0  0  0
 35114  1  0  0  0
 35115  1  0  0  0
 36116  1  0  0  0
 37117  1  0  0  0
 37118  1  0  0  0
 37119  1  0  0  0
 38120  1  0  0  0
 38121  1  0  0  0
 38122  1  0  0  0
 39123  1  0  0  0
 40124  1  0  0  0
 43125  1  0  0  0
 43126  1  0  0  0
 44127  1  0  0  0
 45128  1  0  0  0
 46129  1  0  0  0
 47130  1  0  0  0
 48131  1  0  0  0
 48132  1  0  0  0
 48133  1  0  0  0
 51134  1  0  0  0
 52135  1  0  0  0
 56136  1  0  0  0
 57137  1  0  0  0
 60138  1  0  0  0
 60139  1  0  0  0
 61140  1  0  0  0
 61141  1  0  0  0
 64142  1  0  0  0
 66143  1  0  0  0
 69144  1  0  0  0
 69145  1  0  0  0
 70146  1  0  0  0
 70147  1  0  0  0
 71148  1  0  0  0
 71149  1  0  0  0
 73150  1  0  0  0
 75151  1  0  0  0
 76152  1  0  0  0
 76153  1  0  0  0
 77154  1  0  0  0
 77155  1  0  0  0
 78156  1  0  0  0
 78157  1  0  0  0
M  END
$$$$
