### 
### Created by X-TOOL on Mon Aug  2 16:17:08 2021
### 

@<TRIPOS>MOLECULE
6rr0_ligand
  152   153     1     0     0
SMALL
GAST_HUCK


@<TRIPOS>ATOM
      1 N           0.7320    4.3550   -3.0940 N.4       1 LEU         0.2379
      2 CA         -0.5230    3.6630   -2.8010 C.3       1 LEU         0.0652
      3 C          -1.5950    4.6200   -2.2300 C.2       1 LEU         0.2268
      4 O          -1.2640    5.4950   -1.4240 O.2       1 LEU        -0.3907
      5 CB         -0.2550    2.4640   -1.8630 C.3       1 LEU         0.0102
      6 CG         -1.4410    1.8030   -1.1400 C.3       1 LEU        -0.0394
      7 CD1        -2.1750    0.8020   -2.0340 C.3       1 LEU        -0.0623
      8 CD2        -0.9850    1.1720    0.1440 C.3       1 LEU        -0.0623
      9 N          -2.8790    4.4350   -2.6570 N.am      1 LEU        -0.2589
     10 CA         -4.0340    5.2370   -2.2390 C.3       1 LEU         0.1540
     11 C          -4.2610    5.1900   -0.7340 C.2       1 LEU         0.2063
     12 O          -4.0170    4.1600   -0.1020 O.2       1 LEU        -0.3943
     13 CB         -5.3020    4.8310   -2.9920 C.3       1 LEU         0.0843
     14 OG         -5.9740    3.7260   -2.4090 O.3       1 LEU        -0.3903
     15 N          -4.7280    6.3120   -0.1730 N.am      1 LEU        -0.2613
     16 CA         -4.9760    6.4770    1.2600 C.3       1 LEU         0.1565
     17 C          -6.4030    6.0530    1.6770 C.2       1 LEU         0.2065
     18 O          -6.7100    6.0620    2.8760 O.2       1 LEU        -0.3943
     19 CB         -4.6220    7.9230    1.6900 C.3       1 LEU         0.0924
     20 OG1        -4.6130    8.0020    3.1190 O.3       1 LEU        -0.3874
     21 CG2        -5.5600    8.9860    1.0830 C.3       1 LEU        -0.0346
     22 N          -7.2570    5.6680    0.7040 N.am      1 LEU        -0.2635
     23 CA         -8.6450    5.3090    0.9960 C.3       1 LEU         0.1325
     24 C          -8.8030    3.9860    1.7730 C.2       1 LEU         0.2040
     25 O          -9.6670    3.9130    2.6550 O.2       1 LEU        -0.3944
     26 CB         -9.5390    5.3310   -0.2710 C.3       1 LEU        -0.0008
     27 CG         -9.2580    4.2720   -1.3320 C.3       1 LEU         0.0044
     28 CD        -10.1340    4.4020   -2.5680 C.2       1 LEU         0.0350
     29 OE1       -10.2450    5.5350   -3.0880 O.co2     1 LEU        -0.5690
     30 OE2       -10.7010    3.3820   -3.0260 O.co2     1 LEU        -0.5690
     31 N          -7.9850    2.9640    1.4680 N.am      1 LEU        -0.2637
     32 CA         -8.0790    1.6650    2.1390 C.3       1 LEU         0.1312
     33 C          -7.4880    1.7290    3.5540 C.2       1 LEU         0.2040
     34 O          -6.3530    2.1450    3.7450 O.2       1 LEU        -0.3944
     35 CB         -7.4410    0.5630    1.2750 C.3       1 LEU        -0.0101
     36 CG         -8.0280   -0.8480    1.3430 C.3       1 LEU        -0.0425
     37 CD1        -9.5090   -0.8720    0.9710 C.3       1 LEU        -0.0625
     38 CD2        -7.2990   -1.7690    0.3850 C.3       1 LEU        -0.0625
     39 N          -8.2950    1.3870    4.5490 N.am      1 LEU        -0.2616
     40 CA         -7.9050    1.4420    5.9520 C.3       1 LEU         0.1539
     41 C          -7.1230    0.1990    6.3660 C.2       1 LEU         0.2063
     42 O          -7.4150   -0.9010    5.9030 O.2       1 LEU        -0.3943
     43 CB         -9.1380    1.6260    6.8400 C.3       1 LEU         0.0843
     44 OG         -8.8040    1.7500    8.2130 O.3       1 LEU        -0.3903
     45 N          -6.1370    0.3840    7.2540 N.am      1 LEU        -0.2610
     46 CA         -5.3050   -0.6850    7.8220 C.3       1 LEU         0.1612
     47 CB         -4.1390   -0.0460    8.6410 C.3       1 LEU         0.1262
     48 CG2        -3.0970   -1.0860    9.1600 C.3       1 LEU        -0.0298
     49 OG1        -3.4220    0.9090    7.7980 O.3       1 LEU        -0.2685
     50 P          -3.5050    2.4330    8.1380 P.3       1 LEU         0.2014
     51 O1P        -2.3750    3.0770    7.3390 O.co2     1 LEU        -0.5537
     52 O2P        -4.8530    2.9580    7.7380 O.co2     1 LEU        -0.5537
     53 O3P        -3.3920    2.7320    9.5860 O.co2     1 LEU        -0.5537
     54 C          -6.1660   -1.5470    8.7470 C.2       1 LEU         0.2068
     55 O          -5.9510   -2.7540    8.8510 O.2       1 LEU        -0.3943
     56 N          -7.1400   -0.9130    9.4150 N.am      1 LEU        -0.2635
     57 CA         -8.0610   -1.5820   10.3270 C.3       1 LEU         0.1327
     58 C          -9.3150   -2.0220    9.5820 C.2       1 LEU         0.2065
     59 O          -9.8320   -1.2350    8.7880 O.2       1 LEU        -0.3942
     60 CB         -8.4070   -0.6890   11.5440 C.3       1 LEU        -0.0008
     61 CG         -7.2080   -0.1730   12.3350 C.3       1 LEU         0.0044
     62 CD         -6.1790   -1.1890   12.8100 C.2       1 LEU         0.0350
     63 OE1        -6.5940   -2.2400   13.3570 O.co2     1 LEU        -0.5690
     64 OE2        -4.9590   -0.9180   12.6630 O.co2     1 LEU        -0.5690
     65 N          -9.8040   -3.2730    9.7940 N.am      1 LEU        -0.2498
     66 CA        -11.0140   -3.7350    9.0780 C.3       1 LEU         0.1339
     67 C         -12.2940   -2.9670    9.4250 C.2       1 LEU         0.2060
     68 O         -12.3300   -2.3160   10.4730 O.2       1 LEU        -0.3942
     69 CB        -11.1170   -5.2120    9.4710 C.3       1 LEU        -0.0104
     70 CG        -10.3990   -5.3150   10.7550 C.3       1 LEU        -0.0281
     71 CD         -9.2780   -4.3240   10.6880 C.3       1 LEU         0.0369
     72 N         -13.3540   -3.0140    8.5730 N.am      1 LEU        -0.2556
     73 CA        -14.5970   -2.2830    8.9030 C.3       1 LEU         0.0972
     74 C         -15.2980   -2.7860   10.1630 C.2       1 LEU         0.0603
     75 O         -15.1350   -3.9420   10.5400 O.co2     1 LEU        -0.5666
     76 CB        -15.4770   -2.4800    7.6590 C.3       1 LEU        -0.0159
     77 CG        -14.5870   -3.0200    6.6030 C.3       1 LEU        -0.0288
     78 CD        -13.4980   -3.7530    7.3030 C.3       1 LEU         0.0362
     79 OXT       -16.0270   -2.0360   10.8040 O.co2     1 LEU        -0.5666
     80 H1          1.4004    3.6968   -3.4628 H         1 LEU         0.2015
     81 H2          1.0955    4.7644   -2.2477 H         1 LEU         0.2015
     82 H3          0.5650    5.0806   -3.7735 H         1 LEU         0.2015
     83 H4         -0.9137    3.2644   -3.7489 H         1 LEU         0.1098
     84 H5          0.4425    2.8117   -1.0867 H         1 LEU         0.0348
     85 H6          0.2292    1.6833   -2.4680 H         1 LEU         0.0348
     86 H7         -2.1571    2.5977   -0.8838 H         1 LEU         0.0299
     87 H8         -3.0118    0.3568   -1.4758 H         1 LEU         0.0232
     88 H9         -1.4789    0.0092   -2.3453 H         1 LEU         0.0232
     89 H10        -2.5622    1.3201   -2.9237 H         1 LEU         0.0232
     90 H11        -0.4635    1.9224    0.7563 H         1 LEU         0.0232
     91 H12        -0.3001    0.3406   -0.0790 H         1 LEU         0.0232
     92 H13        -1.8572    0.7909    0.6953 H         1 LEU         0.0232
     93 H14        -3.0452    3.6933   -3.3068 H         1 LEU         0.1885
     94 H15        -3.8145    6.2820   -2.5031 H         1 LEU         0.0823
     95 H16        -5.0255    4.5663   -4.0233 H         1 LEU         0.0606
     96 H17        -5.9895    5.6896   -3.0055 H         1 LEU         0.0606
     97 H18        -6.7492    3.5231   -2.9193 H         1 LEU         0.2097
     98 H19        -4.9202    7.0889   -0.7726 H         1 LEU         0.1884
     99 H20        -4.2840    5.8043    1.7879 H         1 LEU         0.0826
    100 H21        -3.6056    8.1390    1.3292 H         1 LEU         0.0639
    101 H22        -5.4718    7.7712    3.4532 H         1 LEU         0.2101
    102 H23        -5.2538    9.9848    1.4275 H         1 LEU         0.0257
    103 H24        -6.5937    8.7887    1.4032 H         1 LEU         0.0257
    104 H25        -5.5015    8.9429   -0.0146 H         1 LEU         0.0257
    105 H26        -6.9321    5.6272   -0.2409 H         1 LEU         0.1883
    106 H27        -9.0269    6.0990    1.6593 H         1 LEU         0.0801
    107 H28        -9.4194    6.3163   -0.7451 H         1 LEU         0.0330
    108 H29       -10.5818    5.2055    0.0558 H         1 LEU         0.0330
    109 H30        -9.4286    3.2804   -0.8875 H         1 LEU         0.0433
    110 H31        -8.2058    4.3594   -1.6407 H         1 LEU         0.0433
    111 H32        -7.2902    3.0944    0.7607 H         1 LEU         0.1883
    112 H33        -9.1464    1.4210    2.2438 H         1 LEU         0.0800
    113 H34        -6.3839    0.4897    1.5703 H         1 LEU         0.0315
    114 H35        -7.5071    0.8922    0.2275 H         1 LEU         0.0315
    115 H36        -7.9110   -1.2245    2.3699 H         1 LEU         0.0298
    116 H37        -9.8861   -1.9034    1.0339 H         1 LEU         0.0232
    117 H38        -9.6354   -0.4974   -0.0555 H         1 LEU         0.0232
    118 H39       -10.0722   -0.2326    1.6667 H         1 LEU         0.0232
    119 H40        -6.2259   -1.7744    0.6267 H         1 LEU         0.0232
    120 H41        -7.4408   -1.4125   -0.6459 H         1 LEU         0.0232
    121 H42        -7.7011   -2.7885    0.4790 H         1 LEU         0.0232
    122 H43        -9.2185    1.0754    4.3252 H         1 LEU         0.1884
    123 H44        -7.2502    2.3152    6.0889 H         1 LEU         0.0823
    124 H45        -9.7967    0.7540    6.7144 H         1 LEU         0.0606
    125 H46        -9.6691    2.5355    6.5225 H         1 LEU         0.0606
    126 H47        -9.5982    1.8617    8.7221 H         1 LEU         0.2097
    127 H48        -5.9536    1.3206    7.5527 H         1 LEU         0.1884
    128 H49        -4.8929   -1.3060    7.0130 H         1 LEU         0.0830
    129 H50        -4.5718    0.4794    9.5050 H         1 LEU         0.0695
    130 H51        -2.3096   -0.5655    9.7248 H         1 LEU         0.0260
    131 H52        -2.6478   -1.6128    8.3053 H         1 LEU         0.0260
    132 H53        -3.5993   -1.8125    9.8157 H         1 LEU         0.0260
    133 H54        -7.2407    0.0728    9.2807 H         1 LEU         0.1883
    134 H55        -7.5613   -2.4846   10.7085 H         1 LEU         0.0801
    135 H56        -9.0383   -1.2756   12.2276 H         1 LEU         0.0330
    136 H57        -8.9725    0.1806   11.1779 H         1 LEU         0.0330
    137 H58        -7.5992    0.3387   13.2267 H         1 LEU         0.0433
    138 H59        -6.6820    0.5525   11.6970 H         1 LEU         0.0433
    139 H60       -10.8524   -3.6452    7.9937 H         1 LEU         0.0802
    140 H61       -10.6421   -5.8488    8.7101 H         1 LEU         0.0313
    141 H62       -12.1696   -5.5077    9.5916 H         1 LEU         0.0313
    142 H63       -10.0014   -6.3318   10.8890 H         1 LEU         0.0287
    143 H64       -11.0733   -5.0720   11.5894 H         1 LEU         0.0287
    144 H65        -9.0526   -3.9166   11.6846 H         1 LEU         0.0524
    145 H66        -8.3717   -4.7827   10.2658 H         1 LEU         0.0524
    146 H67       -14.3706   -1.2155    9.0411 H         1 LEU         0.0728
    147 H68       -15.9071   -1.5191    7.3403 H         1 LEU         0.0306
    148 H69       -16.2879   -3.1913    7.8745 H         1 LEU         0.0306
    149 H70       -14.1678   -2.1990    6.0028 H         1 LEU         0.0286
    150 H71       -15.1460   -3.7046    5.9482 H         1 LEU         0.0286
    151 H72       -13.7819   -4.7998    7.4861 H         1 LEU         0.0524
    152 H73       -12.5650   -3.7224    6.7212 H         1 LEU         0.0524
@<TRIPOS>BOND
     1    1    2 1  
     2    2    3 1  
     3    2    5 1  
     4    3    4 2  
     5    3    9 am 
     6    5    6 1  
     7    6    7 1  
     8    6    8 1  
     9    9   10 1  
    10   10   11 1  
    11   10   13 1  
    12   11   12 2  
    13   11   15 am 
    14   13   14 1  
    15   15   16 1  
    16   16   17 1  
    17   16   19 1  
    18   17   18 2  
    19   17   22 am 
    20   19   20 1  
    21   19   21 1  
    22   22   23 1  
    23   23   24 1  
    24   23   26 1  
    25   24   25 2  
    26   24   31 am 
    27   26   27 1  
    28   27   28 1  
    29   28   29 ar 
    30   28   30 ar 
    31   31   32 1  
    32   32   33 1  
    33   32   35 1  
    34   33   34 2  
    35   33   39 am 
    36   35   36 1  
    37   36   37 1  
    38   36   38 1  
    39   39   40 1  
    40   40   41 1  
    41   40   43 1  
    42   41   42 2  
    43   41   45 am 
    44   43   44 1  
    45   45   46 1  
    46   46   47 1  
    47   46   54 1  
    48   47   48 1  
    49   47   49 1  
    50   49   50 1  
    51   50   51 ar 
    52   50   52 ar 
    53   50   53 ar 
    54   54   55 2  
    55   54   56 am 
    56   56   57 1  
    57   57   58 1  
    58   57   60 1  
    59   58   59 2  
    60   58   65 am 
    61   60   61 1  
    62   61   62 1  
    63   62   63 ar 
    64   62   64 ar 
    65   65   66 1  
    66   65   71 1  
    67   66   67 1  
    68   66   69 1  
    69   67   68 2  
    70   67   72 am 
    71   69   70 1  
    72   70   71 1  
    73   72   73 1  
    74   72   78 1  
    75   73   74 1  
    76   73   76 1  
    77   74   75 ar 
    78   74   79 ar 
    79   76   77 1  
    80   77   78 1  
    81    1   80 1  
    82    1   81 1  
    83    1   82 1  
    84    2   83 1  
    85    5   84 1  
    86    5   85 1  
    87    6   86 1  
    88    7   87 1  
    89    7   88 1  
    90    7   89 1  
    91    8   90 1  
    92    8   91 1  
    93    8   92 1  
    94    9   93 1  
    95   10   94 1  
    96   13   95 1  
    97   13   96 1  
    98   14   97 1  
    99   15   98 1  
   100   16   99 1  
   101   19  100 1  
   102   20  101 1  
   103   21  102 1  
   104   21  103 1  
   105   21  104 1  
   106   22  105 1  
   107   23  106 1  
   108   26  107 1  
   109   26  108 1  
   110   27  109 1  
   111   27  110 1  
   112   31  111 1  
   113   32  112 1  
   114   35  113 1  
   115   35  114 1  
   116   36  115 1  
   117   37  116 1  
   118   37  117 1  
   119   37  118 1  
   120   38  119 1  
   121   38  120 1  
   122   38  121 1  
   123   39  122 1  
   124   40  123 1  
   125   43  124 1  
   126   43  125 1  
   127   44  126 1  
   128   45  127 1  
   129   46  128 1  
   130   47  129 1  
   131   48  130 1  
   132   48  131 1  
   133   48  132 1  
   134   56  133 1  
   135   57  134 1  
   136   60  135 1  
   137   60  136 1  
   138   61  137 1  
   139   61  138 1  
   140   66  139 1  
   141   69  140 1  
   142   69  141 1  
   143   70  142 1  
   144   70  143 1  
   145   71  144 1  
   146   71  145 1  
   147   73  146 1  
   148   76  147 1  
   149   76  148 1  
   150   77  149 1  
   151   77  150 1  
   152   78  151 1  
   153   78  152 1  
@<TRIPOS>SUBSTRUCTURE
     1 LEU         1

