4tzq_ligand
  -I-interpret- 

209209  0  0  0  0  0  0  0  0999 V2000
  -48.2620   68.1890 -149.6910 N   0  3  0  0  0
  -48.7430   69.0410 -150.7720 C   0  0  0  0  0
  -48.6550   70.5140 -150.3910 C   0  0  0  0  0
  -48.0120   71.3060 -151.0830 O   0  0  0  0  0
  -50.1680   68.6720 -151.1440 C   0  0  0  0  0
  -49.2990   70.8810 -149.2870 N   0  0  0  0  0
  -49.2760   72.2670 -148.8330 C   0  0  0  0  0
  -48.9330   72.3800 -147.3480 C   0  0  0  0  0
  -49.4850   71.6610 -146.5110 O   0  0  0  0  0
  -50.6170   72.9390 -149.1220 C   0  0  0  0  0
  -50.6370   74.4250 -148.8220 C   0  0  0  0  0
  -51.6940   75.1330 -149.6460 C   0  0  0  0  0
  -52.0420   76.4220 -149.0620 N   0  0  0  0  0
  -53.0150   76.5940 -148.1740 C   0  0  0  0  0
  -53.7420   75.5580 -147.7710 N   0  0  0  0  0
  -53.2640   77.8010 -147.6890 N   0  0  0  0  0
  -48.0110   73.2870 -147.0350 N   0  0  0  0  0
  -47.5390   73.4640 -145.6680 C   0  0  0  0  0
  -47.5280   74.9280 -145.2550 C   0  0  0  0  0
  -47.5630   75.8270 -146.1020 O   0  0  0  0  0
  -46.1330   72.8840 -145.5030 C   0  0  0  0  0
  -45.9640   71.4960 -146.0690 C   0  0  0  0  0
  -46.4260   70.3850 -145.3800 C   0  0  0  0  0
  -45.3330   71.2970 -147.2890 C   0  0  0  0  0
  -46.2700   69.1140 -145.8910 C   0  0  0  0  0
  -45.1720   70.0290 -147.8080 C   0  0  0  0  0
  -45.6420   68.9420 -147.1040 C   0  0  0  0  0
  -45.4850   67.6780 -147.6180 O   0  0  0  0  0
  -47.4650   75.1530 -143.9450 N   0  0  0  0  0
  -47.3510   76.4900 -143.3970 C   0  0  0  0  0
  -46.2520   76.5440 -142.3540 C   0  0  0  0  0
  -46.0910   75.6130 -141.5600 O   0  0  0  0  0
  -45.4860   77.6310 -142.3630 N   0  0  0  0  0
  -44.4070   77.8210 -141.4010 C   0  0  0  0  0
  -44.6250   79.1160 -140.6200 C   0  0  0  0  0
  -44.8490   80.1770 -141.2090 O   0  0  0  0  0
  -43.0290   77.8510 -142.0930 C   0  0  0  0  0
  -41.9230   78.0890 -141.0730 C   0  0  0  0  0
  -42.7880   76.5530 -142.8520 C   0  0  0  0  0
  -44.5680   79.0180 -139.2950 N   0  0  0  0  0
  -44.7680   80.1740 -138.4280 C   0  0  0  0  0
  -43.6870   81.2230 -138.6300 C   0  0  0  0  0
  -42.5040   80.8920 -138.6830 O   0  0  0  0  0
  -44.7830   79.7430 -136.9630 C   0  0  0  0  0
  -43.4680   79.5230 -136.4820 O   0  0  0  0  0
  -44.0860   82.4850 -138.7340 N   0  0  0  0  0
  -43.1040   83.5580 -138.8240 C   0  0  0  0  0
  -42.3830   83.7390 -137.4920 C   0  0  0  0  0
  -41.2010   84.0830 -137.4530 O   0  0  0  0  0
  -43.7710   84.8590 -139.2610 C   0  0  0  0  0
  -45.1780   85.0060 -138.7130 C   0  0  0  0  0
  -45.4360   84.7270 -137.5410 O   0  0  0  0  0
  -46.0990   85.4410 -139.5640 N   0  0  0  0  0
  -43.1100   83.4930 -136.4060 N   0  0  0  0  0
  -42.5430   83.4920 -135.0620 C   0  0  0  0  0
  -41.6130   82.2940 -134.8770 C   0  0  0  0  0
  -41.9040   81.1960 -135.3540 O   0  0  0  0  0
  -43.6550   83.4520 -133.9890 C   0  0  0  0  0
  -44.4550   84.6340 -134.0910 O   0  0  0  0  0
  -43.0700   83.3680 -132.5890 C   0  0  0  0  0
  -40.4880   82.5100 -134.2010 N   0  0  0  0  0
  -39.5840   81.4180 -133.8600 C   0  0  0  0  0
  -38.8510   81.7130 -132.5590 C   0  0  0  0  0
  -38.8210   82.8540 -132.0960 O   0  0  0  0  0
  -38.5790   81.1670 -134.9850 C   0  0  0  0  0
  -37.6260   82.2100 -135.0620 O   0  0  0  0  0
  -38.2600   80.6740 -131.9790 N   0  0  0  0  0
  -37.5320   80.8050 -130.7230 C   0  0  0  0  0
  -36.0690   80.3880 -130.8880 C   0  0  0  0  0
  -35.7760   79.3010 -131.3930 O   0  0  0  0  0
  -38.1880   79.9650 -129.6190 C   0  0  0  0  0
  -39.6590   80.3540 -129.4680 C   0  0  0  0  0
  -37.4440   80.1360 -128.3090 C   0  0  0  0  0
  -40.4520   79.4270 -128.5750 C   0  0  0  0  0
  -35.1550   81.2540 -130.4590 N   0  0  0  0  0
  -33.7290   81.0260 -130.6600 C   0  0  0  0  0
  -32.9390   80.9390 -129.3610 C   0  0  0  0  0
  -33.0730   81.7950 -128.4850 O   0  0  0  0  0
  -33.1340   82.1370 -131.5300 C   0  0  0  0  0
  -32.9060   81.7010 -132.9620 C   0  0  0  0  0
  -33.8090   81.7670 -133.7940 O   0  0  0  0  0
  -31.6870   81.2600 -133.2590 N   0  0  0  0  0
  -32.1120   79.9040 -129.2500 N   0  0  0  0  0
  -31.1550   79.7950 -128.1540 C   0  0  0  0  0
  -29.7280   79.8530 -128.6840 C   0  0  0  0  0
  -29.3790   79.1300 -129.6170 O   0  0  0  0  0
  -31.3630   78.4990 -127.3680 C   0  0  0  0  0
  -32.4290   78.5780 -126.2920 C   0  0  0  0  0
  -32.1460   79.7000 -125.3100 C   0  0  0  0  0
  -32.9670   80.8790 -125.5710 N   0  0  0  0  0
  -32.6800   82.0990 -125.1280 C   0  0  0  0  0
  -31.5840   82.3030 -124.4100 N   0  0  0  0  0
  -33.4820   83.1160 -125.4100 N   0  0  0  0  0
  -28.9090   80.7140 -128.0870 N   0  0  0  0  0
  -27.5050   80.8340 -128.4670 C   0  0  0  0  0
  -26.6240   81.0190 -127.2420 C   0  0  0  0  0
  -27.0780   81.4690 -126.1950 O   0  0  0  0  0
  -27.2950   82.0010 -129.4340 C   0  0  0  0  0
  -27.7970   81.7400 -130.8410 C   0  0  0  0  0
  -27.2730   82.7750 -131.8270 C   0  0  0  0  0
  -26.6690   82.1190 -133.0690 C   0  0  0  0  0
  -26.0580   83.1300 -133.9830 N   0  3  0  0  0
  -25.4054   80.7044 -127.3032 O   0  0  0  0  0
  -47.3049   68.4501 -149.4541 H   0  0  0  0  0
  -48.8604   68.3084 -148.8737 H   0  0  0  0  0
  -48.2854   67.2146 -149.9916 H   0  0  0  0  0
  -48.1029   68.8793 -151.6393 H   0  0  0  0  0
  -50.8240   68.8581 -150.2936 H   0  0  0  0  0
  -50.4892   69.2773 -151.9916 H   0  0  0  0  0
  -50.2102   67.6165 -151.4129 H   0  0  0  0  0
  -49.8158   70.1842 -148.7506 H   0  0  0  0  0
  -48.4896   72.7798 -149.3868 H   0  0  0  0  0
  -51.3606   72.4685 -148.4788 H   0  0  0  0  0
  -50.8159   72.8207 -150.1871 H   0  0  0  0  0
  -49.6620   74.8444 -149.0702 H   0  0  0  0  0
  -50.8663   74.5648 -147.7656 H   0  0  0  0  0
  -52.5884   74.5106 -149.6732 H   0  0  0  0  0
  -51.2994   75.3004 -150.6482 H   0  0  0  0  0
  -51.5069   77.2405 -149.3522 H   0  0  0  0  0
  -54.4893   75.6934 -147.0901 H   0  0  0  0  0
  -53.5530   74.6270 -148.1424 H   0  0  0  0  0
  -52.7086   78.5991 -147.9973 H   0  0  0  0  0
  -47.6237   73.8750 -147.7730 H   0  0  0  0  0
  -48.2355   72.9299 -145.0217 H   0  0  0  0  0
  -45.9358   72.8203 -144.4329 H   0  0  0  0  0
  -45.4506   73.5374 -146.0466 H   0  0  0  0  0
  -46.9209   70.5187 -144.4181 H   0  0  0  0  0
  -44.9588   72.1561 -147.8458 H   0  0  0  0  0
  -46.6414   68.2511 -145.3383 H   0  0  0  0  0
  -44.6763   69.8881 -148.7685 H   0  0  0  0  0
  -45.0319   67.7313 -148.4626 H   0  0  0  0  0
  -47.4980   74.3588 -143.3058 H   0  0  0  0  0
  -48.2970   76.7630 -142.9293 H   0  0  0  0  0
  -47.1094   77.1836 -144.2024 H   0  0  0  0  0
  -45.6583   78.3526 -143.0630 H   0  0  0  0  0
  -44.4194   76.9744 -140.7146 H   0  0  0  0  0
  -43.0185   78.6748 -142.8067 H   0  0  0  0  0
  -42.0897   79.0438 -140.5744 H   0  0  0  0  0
  -41.9316   77.2862 -140.3357 H   0  0  0  0  0
  -40.9591   78.1067 -141.5816 H   0  0  0  0  0
  -42.8180   75.7153 -142.1553 H   0  0  0  0  0
  -43.5630   76.4264 -143.6080 H   0  0  0  0  0
  -41.8112   76.5915 -143.3341 H   0  0  0  0  0
  -44.3791   78.1088 -138.8730 H   0  0  0  0  0
  -45.7289   80.6145 -138.6939 H   0  0  0  0  0
  -45.3452   78.8130 -136.8789 H   0  0  0  0  0
  -45.2428   80.5346 -136.3714 H   0  0  0  0  0
  -43.5061   79.2538 -135.5613 H   0  0  0  0  0
  -45.0821   82.7040 -138.7509 H   0  0  0  0  0
  -42.3637   83.2855 -139.5762 H   0  0  0  0  0
  -43.8336   84.8548 -140.3492 H   0  0  0  0  0
  -43.1739   85.6869 -138.8787 H   0  0  0  0  0
  -47.0645   85.5559 -139.2558 H   0  0  0  0  0
  -45.8413   85.6604 -140.5262 H   0  0  0  0  0
  -44.1048   83.2970 -136.5174 H   0  0  0  0  0
  -41.9741   84.4139 -134.9411 H   0  0  0  0  0
  -44.2628   82.5640 -134.1627 H   0  0  0  0  0
  -45.1459   84.6099 -133.4249 H   0  0  0  0  0
  -42.4701   82.4622 -132.5010 H   0  0  0  0  0
  -42.4424   84.2402 -132.4059 H   0  0  0  0  0
  -43.8794   83.3416 -131.8594 H   0  0  0  0  0
  -40.2526   83.4603 -133.9149 H   0  0  0  0  0
  -40.1839   80.5176 -133.7272 H   0  0  0  0  0
  -39.1197   81.1193 -135.9303 H   0  0  0  0  0
  -38.0562   80.2323 -134.7823 H   0  0  0  0  0
  -37.0095   82.0267 -135.7747 H   0  0  0  0  0
  -38.3173   79.7586 -132.4253 H   0  0  0  0  0
  -37.5657   81.8555 -130.4343 H   0  0  0  0  0
  -38.1376   78.9128 -129.8989 H   0  0  0  0  0
  -40.1084   80.3099 -130.4600 H   0  0  0  0  0
  -39.6864   81.3437 -129.0121 H   0  0  0  0  0
  -36.4108   79.8123 -128.4345 H   0  0  0  0  0
  -37.4641   81.1856 -128.0155 H   0  0  0  0  0
  -37.9241   79.5327 -127.5385 H   0  0  0  0  0
  -40.4261   78.4180 -128.9865 H   0  0  0  0  0
  -40.0151   79.4248 -127.5764 H   0  0  0  0  0
  -41.4845   79.7722 -128.5205 H   0  0  0  0  0
  -35.4597   82.0996 -129.9768 H   0  0  0  0  0
  -33.6460   80.0588 -131.1558 H   0  0  0  0  0
  -32.1680   82.4118 -131.1065 H   0  0  0  0  0
  -33.8407   82.9668 -131.5418 H   0  0  0  0  0
  -31.4709   80.9594 -134.2094 H   0  0  0  0  0
  -30.9681   81.2224 -132.5364 H   0  0  0  0  0
  -32.1476   79.1644 -129.9516 H   0  0  0  0  0
  -31.3212   80.6374 -127.4825 H   0  0  0  0  0
  -30.4210   78.2758 -126.8671 H   0  0  0  0  0
  -31.6871   77.7421 -128.0822 H   0  0  0  0  0
  -32.4384   77.6350 -125.7454 H   0  0  0  0  0
  -33.3889   78.7720 -126.7706 H   0  0  0  0  0
  -31.0990   79.9854 -125.4126 H   0  0  0  0  0
  -32.3768   79.3403 -124.3073 H   0  0  0  0  0
  -33.8132   80.7590 -126.1278 H   0  0  0  0  0
  -31.3600   83.2405 -124.0763 H   0  0  0  0  0
  -30.9649   81.5224 -124.1914 H   0  0  0  0  0
  -34.3219   82.9636 -125.9683 H   0  0  0  0  0
  -29.2727   81.3079 -127.3417 H   0  0  0  0  0
  -27.2220   79.9083 -128.9680 H   0  0  0  0  0
  -26.2208   82.1729 -129.5024 H   0  0  0  0  0
  -27.8588   82.8481 -129.0432 H   0  0  0  0  0
  -28.8856   81.7939 -130.8327 H   0  0  0  0  0
  -27.4443   80.7575 -131.1547 H   0  0  0  0  0
  -26.4944   83.3563 -131.3330 H   0  0  0  0  0
  -28.1070   83.4024 -132.1415 H   0  0  0  0  0
  -27.4645   81.6041 -133.6077 H   0  0  0  0  0
  -25.8888   81.4284 -132.7487 H   0  0  0  0  0
  -25.6665   82.6574 -134.7977 H   0  0  0  0  0
  -26.7739   83.7915 -134.2836 H   0  0  0  0  0
  -25.3178   83.6292 -133.4897 H   0  0  0  0  0
  -25.2059   80.3709 -128.1810 H   0  0  0  0  0
  1  2  1  0  0  0
  2  3  1  0  0  0
  2  5  1  0  0  0
  3  4  2  0  0  0
  3  6  1  0  0  0
  6  7  1  0  0  0
  7  8  1  0  0  0
  7 10  1  0  0  0
  8  9  2  0  0  0
  8 17  1  0  0  0
 10 11  1  0  0  0
 11 12  1  0  0  0
 12 13  1  0  0  0
 13 14  1  0  0  0
 14 15  1  0  0  0
 14 16  2  0  0  0
 17 18  1  0  0  0
 18 19  1  0  0  0
 18 21  1  0  0  0
 19 20  2  0  0  0
 19 29  1  0  0  0
 21 22  1  0  0  0
 22 23  4  0  0  0
 22 24  4  0  0  0
 23 25  4  0  0  0
 24 26  4  0  0  0
 25 27  4  0  0  0
 26 27  4  0  0  0
 27 28  1  0  0  0
 29 30  1  0  0  0
 30 31  1  0  0  0
 31 32  2  0  0  0
 31 33  1  0  0  0
 33 34  1  0  0  0
 34 35  1  0  0  0
 34 37  1  0  0  0
 35 36  2  0  0  0
 35 40  1  0  0  0
 37 38  1  0  0  0
 37 39  1  0  0  0
 40 41  1  0  0  0
 41 42  1  0  0  0
 41 44  1  0  0  0
 42 43  2  0  0  0
 42 46  1  0  0  0
 44 45  1  0  0  0
 46 47  1  0  0  0
 47 48  1  0  0  0
 47 50  1  0  0  0
 48 49  2  0  0  0
 48 54  1  0  0  0
 50 51  1  0  0  0
 51 52  2  0  0  0
 51 53  1  0  0  0
 54 55  1  0  0  0
 55 56  1  0  0  0
 55 58  1  0  0  0
 56 57  2  0  0  0
 56 61  1  0  0  0
 58 59  1  0  0  0
 58 60  1  0  0  0
 61 62  1  0  0  0
 62 63  1  0  0  0
 62 65  1  0  0  0
 63 64  2  0  0  0
 63 67  1  0  0  0
 65 66  1  0  0  0
 67 68  1  0  0  0
 68 69  1  0  0  0
 68 71  1  0  0  0
 69 70  2  0  0  0
 69 75  1  0  0  0
 71 72  1  0  0  0
 71 73  1  0  0  0
 72 74  1  0  0  0
 75 76  1  0  0  0
 76 77  1  0  0  0
 76 79  1  0  0  0
 77 78  2  0  0  0
 77 83  1  0  0  0
 79 80  1  0  0  0
 80 81  2  0  0  0
 80 82  1  0  0  0
 83 84  1  0  0  0
 84 85  1  0  0  0
 84 87  1  0  0  0
 85 86  2  0  0  0
 85 94  1  0  0  0
 87 88  1  0  0  0
 88 89  1  0  0  0
 89 90  1  0  0  0
 90 91  1  0  0  0
 91 92  1  0  0  0
 91 93  2  0  0  0
 94 95  1  0  0  0
 95 96  1  0  0  0
 95 98  1  0  0  0
 96 97  2  0  0  0
 98 99  1  0  0  0
 99100  1  0  0  0
100101  1  0  0  0
101102  1  0  0  0
 96103  1  0  0  0
  1104  1  0  0  0
  1105  1  0  0  0
  1106  1  0  0  0
  2107  1  0  0  0
  5108  1  0  0  0
  5109  1  0  0  0
  5110  1  0  0  0
  6111  1  0  0  0
  7112  1  0  0  0
 10113  1  0  0  0
 10114  1  0  0  0
 11115  1  0  0  0
 11116  1  0  0  0
 12117  1  0  0  0
 12118  1  0  0  0
 13119  1  0  0  0
 15120  1  0  0  0
 15121  1  0  0  0
 16122  1  0  0  0
 17123  1  0  0  0
 18124  1  0  0  0
 21125  1  0  0  0
 21126  1  0  0  0
 23127  1  0  0  0
 24128  1  0  0  0
 25129  1  0  0  0
 26130  1  0  0  0
 28131  1  0  0  0
 29132  1  0  0  0
 30133  1  0  0  0
 30134  1  0  0  0
 33135  1  0  0  0
 34136  1  0  0  0
 37137  1  0  0  0
 38138  1  0  0  0
 38139  1  0  0  0
 38140  1  0  0  0
 39141  1  0  0  0
 39142  1  0  0  0
 39143  1  0  0  0
 40144  1  0  0  0
 41145  1  0  0  0
 44146  1  0  0  0
 44147  1  0  0  0
 45148  1  0  0  0
 46149  1  0  0  0
 47150  1  0  0  0
 50151  1  0  0  0
 50152  1  0  0  0
 53153  1  0  0  0
 53154  1  0  0  0
 54155  1  0  0  0
 55156  1  0  0  0
 58157  1  0  0  0
 59158  1  0  0  0
 60159  1  0  0  0
 60160  1  0  0  0
 60161  1  0  0  0
 61162  1  0  0  0
 62163  1  0  0  0
 65164  1  0  0  0
 65165  1  0  0  0
 66166  1  0  0  0
 67167  1  0  0  0
 68168  1  0  0  0
 71169  1  0  0  0
 72170  1  0  0  0
 72171  1  0  0  0
 73172  1  0  0  0
 73173  1  0  0  0
 73174  1  0  0  0
 74175  1  0  0  0
 74176  1  0  0  0
 74177  1  0  0  0
 75178  1  0  0  0
 76179  1  0  0  0
 79180  1  0  0  0
 79181  1  0  0  0
 82182  1  0  0  0
 82183  1  0  0  0
 83184  1  0  0  0
 84185  1  0  0  0
 87186  1  0  0  0
 87187  1  0  0  0
 88188  1  0  0  0
 88189  1  0  0  0
 89190  1  0  0  0
 89191  1  0  0  0
 90192  1  0  0  0
 92193  1  0  0  0
 92194  1  0  0  0
 93195  1  0  0  0
 94196  1  0  0  0
 95197  1  0  0  0
 98198  1  0  0  0
 98199  1  0  0  0
 99200  1  0  0  0
 99201  1  0  0  0
100202  1  0  0  0
100203  1  0  0  0
101204  1  0  0  0
101205  1  0  0  0
102206  1  0  0  0
102207  1  0  0  0
102208  1  0  0  0
103209  1  0  0  0
M  END
$$$$
