### 
### Created by X-TOOL on Mon Sep 10 21:13:20 2018
### 

@<TRIPOS>MOLECULE
4tzq_ligand
  210   210     1     0     0
SMALL
GAST_HUCK


@<TRIPOS>ATOM
      1 N         -48.2620   68.1890 -149.6910 N.4       1 ALA         0.2377
      2 CA        -48.7430   69.0410 -150.7720 C.3       1 ALA         0.0621
      3 C         -48.6550   70.5140 -150.3910 C.2       1 ALA         0.2264
      4 O         -48.0120   71.3060 -151.0830 O.2       1 ALA        -0.3907
      5 CB        -50.1680   68.6720 -151.1440 C.3       1 ALA        -0.0040
      6 N         -49.2990   70.8810 -149.2870 N.am      1 ARG        -0.2610
      7 CA        -49.2760   72.2670 -148.8330 C.3       1 ARG         0.1312
      8 C         -48.9330   72.3800 -147.3480 C.2       1 ARG         0.2040
      9 O         -49.4850   71.6610 -146.5110 O.2       1 ARG        -0.3944
     10 CB        -50.6170   72.9390 -149.1220 C.3       1 ARG        -0.0092
     11 CG        -50.6370   74.4250 -148.8220 C.3       1 ARG        -0.0156
     12 CD        -51.6940   75.1330 -149.6460 C.3       1 ARG         0.0627
     13 NE        -52.0420   76.4220 -149.0620 N.pl3     1 ARG        -0.2723
     14 CZ        -53.0150   76.5940 -148.1740 C.cat     1 ARG         0.2882
     15 NH1       -53.7420   75.5580 -147.7710 N.pl3     1 ARG        -0.2849
     16 NH2       -53.2640   77.8010 -147.6890 N.pl3     1 ARG        -0.2849
     17 N         -48.0110   73.2870 -147.0350 N.am      1 TYR        -0.2621
     18 CA        -47.5390   73.4640 -145.6680 C.3       1 TYR         0.1390
     19 C         -47.5280   74.9280 -145.2550 C.2       1 TYR         0.2055
     20 O         -47.5630   75.8270 -146.1020 O.2       1 TYR        -0.3942
     21 CB        -46.1330   72.8840 -145.5030 C.3       1 TYR         0.0163
     22 CG        -45.9640   71.4960 -146.0690 C.ar      1 TYR        -0.0493
     23 CD1       -46.4260   70.3850 -145.3800 C.ar      1 TYR        -0.0685
     24 CD2       -45.3330   71.2970 -147.2890 C.ar      1 TYR        -0.0685
     25 CE1       -46.2700   69.1140 -145.8910 C.ar      1 TYR        -0.0398
     26 CE2       -45.1720   70.0290 -147.8080 C.ar      1 TYR        -0.0398
     27 CZ        -45.6420   68.9420 -147.1040 C.ar      1 TYR         0.0805
     28 OH        -45.4850   67.6780 -147.6180 O.3       1 TYR        -0.3376
     29 N         -47.4650   75.1530 -143.9450 N.am      1 GLY        -0.2663
     30 CA        -47.3510   76.4900 -143.3970 C.3       1 GLY         0.1201
     31 C         -46.2520   76.5440 -142.3540 C.2       1 GLY         0.2008
     32 O         -46.0910   75.6130 -141.5600 O.2       1 GLY        -0.3947
     33 N         -45.4860   77.6310 -142.3630 N.am      1 VAL        -0.2637
     34 CA        -44.4070   77.8210 -141.4010 C.3       1 VAL         0.1332
     35 C         -44.6250   79.1160 -140.6200 C.2       1 VAL         0.2042
     36 O         -44.8490   80.1770 -141.2090 O.2       1 VAL        -0.3944
     37 CB        -43.0290   77.8510 -142.0930 C.3       1 VAL        -0.0063
     38 CG1       -41.9230   78.0890 -141.0730 C.3       1 VAL        -0.0584
     39 CG2       -42.7880   76.5530 -142.8520 C.3       1 VAL        -0.0584
     40 N         -44.5680   79.0180 -139.2950 N.am      1 SER        -0.2616
     41 CA        -44.7680   80.1740 -138.4280 C.3       1 SER         0.1539
     42 C         -43.6870   81.2230 -138.6300 C.2       1 SER         0.2063
     43 O         -42.5040   80.8920 -138.6830 O.2       1 SER        -0.3943
     44 CB        -44.7830   79.7430 -136.9630 C.3       1 SER         0.0843
     45 OG        -43.4680   79.5230 -136.4820 O.3       1 SER        -0.3903
     46 N         -44.0860   82.4850 -138.7340 N.am      1 ASN        -0.2615
     47 CA        -43.1040   83.5580 -138.8240 C.3       1 ASN         0.1476
     48 C         -42.3830   83.7390 -137.4920 C.2       1 ASN         0.2063
     49 O         -41.2010   84.0830 -137.4530 O.2       1 ASN        -0.3942
     50 CB        -43.7710   84.8590 -139.2610 C.3       1 ASN         0.0773
     51 CG        -45.1780   85.0060 -138.7130 C.2       1 ASN         0.1780
     52 OD1       -45.4360   84.7270 -137.5410 O.2       1 ASN        -0.3970
     53 ND2       -46.0990   85.4410 -139.5640 N.am      1 ASN        -0.3007
     54 N         -43.1100   83.4930 -136.4060 N.am      1 THR        -0.2612
     55 CA        -42.5430   83.4920 -135.0620 C.3       1 THR         0.1565
     56 C         -41.6130   82.2940 -134.8770 C.2       1 THR         0.2065
     57 O         -41.9040   81.1960 -135.3540 O.2       1 THR        -0.3943
     58 CB        -43.6550   83.4520 -133.9890 C.3       1 THR         0.0924
     59 OG1       -44.4550   84.6340 -134.0910 O.3       1 THR        -0.3874
     60 CG2       -43.0700   83.3680 -132.5890 C.3       1 THR        -0.0346
     61 N         -40.4880   82.5100 -134.2010 N.am      1 SER        -0.2615
     62 CA        -39.5840   81.4180 -133.8600 C.3       1 SER         0.1539
     63 C         -38.8510   81.7130 -132.5590 C.2       1 SER         0.2062
     64 O         -38.8210   82.8540 -132.0960 O.2       1 SER        -0.3943
     65 CB        -38.5790   81.1670 -134.9850 C.3       1 SER         0.0843
     66 OG        -37.6260   82.2100 -135.0620 O.3       1 SER        -0.3903
     67 N         -38.2600   80.6740 -131.9790 N.am      1 ILE        -0.2634
     68 CA        -37.5320   80.8050 -130.7230 C.3       1 ILE         0.1335
     69 C         -36.0690   80.3880 -130.8880 C.2       1 ILE         0.2043
     70 O         -35.7760   79.3010 -131.3930 O.2       1 ILE        -0.3944
     71 CB        -38.1880   79.9650 -129.6190 C.3       1 ILE        -0.0037
     72 CG1       -39.6590   80.3540 -129.4680 C.3       1 ILE        -0.0491
     73 CG2       -37.4440   80.1360 -128.3090 C.3       1 ILE        -0.0582
     74 CD1       -40.4520   79.4270 -128.5750 C.3       1 ILE        -0.0648
     75 N         -35.1550   81.2540 -130.4590 N.am      1 ASN        -0.2616
     76 CA        -33.7290   81.0260 -130.6600 C.3       1 ASN         0.1476
     77 C         -32.9390   80.9390 -129.3610 C.2       1 ASN         0.2062
     78 O         -33.0730   81.7950 -128.4850 O.2       1 ASN        -0.3942
     79 CB        -33.1340   82.1370 -131.5300 C.3       1 ASN         0.0773
     80 CG        -32.9060   81.7010 -132.9620 C.2       1 ASN         0.1780
     81 OD1       -33.8090   81.7670 -133.7940 O.2       1 ASN        -0.3970
     82 ND2       -31.6870   81.2600 -133.2590 N.am      1 ASN        -0.3007
     83 N         -32.1120   79.9040 -129.2500 N.am      1 ARG        -0.2636
     84 CA        -31.1550   79.7950 -128.1540 C.3       1 ARG         0.1311
     85 C         -29.7280   79.8530 -128.6840 C.2       1 ARG         0.2034
     86 O         -29.3790   79.1300 -129.6170 O.2       1 ARG        -0.3944
     87 CB        -31.3630   78.4990 -127.3680 C.3       1 ARG        -0.0092
     88 CG        -32.4290   78.5780 -126.2920 C.3       1 ARG        -0.0156
     89 CD        -32.1460   79.7000 -125.3100 C.3       1 ARG         0.0627
     90 NE        -32.9670   80.8790 -125.5710 N.pl3     1 ARG        -0.2723
     91 CZ        -32.6800   82.0990 -125.1280 C.cat     1 ARG         0.2882
     92 NH1       -31.5840   82.3030 -124.4100 N.pl3     1 ARG        -0.2849
     93 NH2       -33.4820   83.1160 -125.4100 N.pl3     1 ARG        -0.2849
     94 N         -28.9090   80.7140 -128.0870 N.am      1 LYS        -0.2671
     95 CA        -27.5050   80.8340 -128.4670 C.3       1 LYS         0.1226
     96 C         -26.6240   81.0190 -127.2420 C.2       1 LYS         0.2149
     97 O         -27.0780   81.4690 -126.1950 O.co2     1 LYS        -0.4120
     98 CB        -27.2950   82.0010 -129.4340 C.3       1 LYS        -0.0154
     99 CG        -27.7970   81.7400 -130.8410 C.3       1 LYS        -0.0445
    100 CD        -27.2730   82.7750 -131.8270 C.3       1 LYS        -0.0125
    101 CE        -26.6690   82.1190 -133.0690 C.3       1 LYS        -0.0354
    102 NZ        -26.0580   83.1300 -133.9830 N.4       1 LYS         0.2185
    103 H         -48.3311   67.2225 -149.9688 H         1 ALA         0.2015
    104 H         -48.8223   68.3427 -148.8673 H         1 ALA         0.2015
    105 H         -47.3000   68.4127 -149.4895 H         1 ALA         0.2015
    106 H         -48.1026   68.8751 -151.6508 H         1 ALA         0.1095
    107 H         -50.5144   69.3236 -151.9597 H         1 ALA         0.0310
    108 H         -50.8210   68.8021 -150.2684 H         1 ALA         0.0310
    109 H         -50.2011   67.6230 -151.4735 H         1 ALA         0.0310
    110 H         -49.8057   70.1978 -148.7611 H         1 ARG         0.1884
    111 H         -48.4963   72.7960 -149.4007 H         1 ARG         0.0800
    112 H         -51.3883   72.4513 -148.5077 H         1 ARG         0.0313
    113 H         -50.8528   72.7976 -150.1871 H         1 ARG         0.0313
    114 H         -49.6514   74.8526 -149.0579 H         1 ARG         0.0301
    115 H         -50.8550   74.5732 -147.7541 H         1 ARG         0.0301
    116 H         -52.5954   74.5041 -149.6901 H         1 ARG         0.0689
    117 H         -51.3082   75.2927 -150.6637 H         1 ARG         0.0689
    118 H         -51.5017   77.2485 -149.3550 H         1 ARG         0.2642
    119 H         -54.4957   75.6945 -147.0824 H         1 ARG         0.2615
    120 H         -53.5520   74.6181 -148.1471 H         1 ARG         0.2615
    121 H         -52.7022   78.6067 -147.9993 H         1 ARG         0.2615
    122 H         -54.0194   77.9340 -147.0016 H         1 ARG         0.2615
    123 H         -47.6313   73.8635 -147.7585 H         1 TYR         0.1885
    124 H         -48.2227   72.9212 -144.9988 H         1 TYR         0.0821
    125 H         -45.8986   72.8489 -144.4288 H         1 TYR         0.0453
    126 H         -45.4227   73.5523 -146.0117 H         1 TYR         0.0453
    127 H         -46.9182   70.5180 -144.4234 H         1 TYR         0.0530
    128 H         -44.9608   72.1513 -147.8428 H         1 TYR         0.0530
    129 H         -46.6394   68.2558 -145.3413 H         1 TYR         0.0525
    130 H         -44.6791   69.8889 -148.7632 H         1 TYR         0.0525
    131 H         -45.8594   67.0444 -147.0174 H         1 TYR         0.2458
    132 H         -47.4974   74.3744 -143.3183 H         1 GLY         0.1881
    133 H         -48.3064   76.7731 -142.9312 H         1 GLY         0.0763
    134 H         -47.1154   77.1948 -144.2080 H         1 GLY         0.0763
    135 H         -45.6549   78.3384 -143.0493 H         1 VAL         0.1883
    136 H         -44.4212   76.9778 -140.6948 H         1 VAL         0.0802
    137 H         -43.0203   78.6817 -142.8140 H         1 VAL         0.0343
    138 H         -40.9496   78.1070 -141.5851 H         1 VAL         0.0234
    139 H         -41.9305   77.2795 -140.3283 H         1 VAL         0.0234
    140 H         -42.0900   79.0524 -140.5691 H         1 VAL         0.0234
    141 H         -43.5962   76.3998 -143.5823 H         1 VAL         0.0234
    142 H         -42.7699   75.7118 -142.1434 H         1 VAL         0.0234
    143 H         -41.8239   76.6097 -143.3786 H         1 VAL         0.0234
    144 H         -44.3828   78.1266 -138.8813 H         1 SER         0.1884
    145 H         -45.7409   80.6245 -138.6738 H         1 SER         0.0823
    146 H         -45.3605   78.8116 -136.8685 H         1 SER         0.0606
    147 H         -45.2582   80.5318 -136.3614 H         1 SER         0.0606
    148 H         -42.9658   80.3258 -136.5578 H         1 SER         0.2097
    149 H         -45.0625   82.6997 -138.7506 H         1 ASN         0.1885
    150 H         -42.3586   83.2810 -139.5840 H         1 ASN         0.0826
    151 H         -43.8170   84.8795 -140.3598 H         1 ASN         0.0551
    152 H         -43.1637   85.7036 -138.9035 H         1 ASN         0.0551
    153 H         -47.0447   85.5580 -139.2606 H         1 ASN         0.1814
    154 H         -45.8472   85.6518 -140.5086 H         1 ASN         0.1814
    155 H         -44.0853   83.3008 -136.5152 H         1 THR         0.1884
    156 H         -41.9605   84.4156 -134.9296 H         1 THR         0.0826
    157 H         -44.2869   82.5689 -134.1648 H         1 THR         0.0639
    158 H         -45.1387   84.6102 -133.4318 H         1 THR         0.2101
    159 H         -43.8859   83.3413 -131.8517 H         1 THR         0.0257
    160 H         -42.4364   84.2477 -132.4030 H         1 THR         0.0257
    161 H         -42.4644   82.4542 -132.4989 H         1 THR         0.0257
    162 H         -40.2572   83.4417 -133.9205 H         1 SER         0.1884
    163 H         -40.1832   80.5060 -133.7216 H         1 SER         0.0823
    164 H         -39.1192   81.1033 -135.9411 H         1 SER         0.0606
    165 H         -38.0571   80.2176 -134.7947 H         1 SER         0.0606
    166 H         -37.0159   82.0286 -135.7673 H         1 SER         0.2097
    167 H         -38.3162   79.7766 -132.4166 H         1 ILE         0.1883
    168 H         -37.5598   81.8618 -130.4191 H         1 ILE         0.0803
    169 H         -38.1370   78.9054 -129.9097 H         1 ILE         0.0345
    170 H         -40.1215   80.3521 -130.4661 H         1 ILE         0.0267
    171 H         -39.7069   81.3677 -129.0436 H         1 ILE         0.0267
    172 H         -36.3907   79.8499 -128.4455 H         1 ILE         0.0235
    173 H         -37.9015   79.4949 -127.5411 H         1 ILE         0.0235
    174 H         -37.5000   81.1872 -127.9900 H         1 ILE         0.0235
    175 H         -41.4942   79.7744 -128.5192 H         1 ILE         0.0230
    176 H         -40.0121   79.4239 -127.5668 H         1 ILE         0.0230
    177 H         -40.4267   78.4083 -128.9892 H         1 ILE         0.0230
    178 H         -35.4537   82.0831 -129.9863 H         1 ASN         0.1885
    179 H         -33.6157   80.0684 -131.1892 H         1 ASN         0.0826
    180 H         -32.1699   82.4436 -131.0981 H         1 ASN         0.0551
    181 H         -33.8251   82.9928 -131.5288 H         1 ASN         0.0551
    182 H         -31.4772   80.9584 -134.1891 H         1 ASN         0.1814
    183 H         -30.9802   81.2300 -132.5523 H         1 ASN         0.1814
    184 H         -32.1469   79.1789 -129.9378 H         1 ARG         0.1883
    185 H         -31.3109   80.6445 -127.4728 H         1 ARG         0.0800
    186 H         -30.4100   78.2320 -126.8879 H         1 ARG         0.0313
    187 H         -31.6499   77.7093 -128.0779 H         1 ARG         0.0313
    188 H         -32.4570   77.6236 -125.7458 H         1 ARG         0.0301
    189 H         -33.4045   78.7570 -126.7677 H         1 ARG         0.0301
    190 H         -31.0857   79.9817 -125.3893 H         1 ARG         0.0689
    191 H         -32.3548   79.3409 -124.2915 H         1 ARG         0.0689
    192 H         -33.8215   80.7578 -126.1332 H         1 ARG         0.2642
    193 H         -31.3617   83.2484 -124.0668 H         1 ARG         0.2615
    194 H         -30.9550   81.5161 -124.1955 H         1 ARG         0.2615
    195 H         -34.3341   82.9607 -125.9675 H         1 ARG         0.2615
    196 H         -33.2531   84.0615 -125.0716 H         1 ARG         0.2615
    197 H         -29.2656   81.2962 -127.3563 H         1 LYS         0.1876
    198 H         -27.2060   79.9046 -128.9737 H         1 LYS         0.0751
    199 O1        -25.4054   80.7044 -127.3032 O.co2     1 LYS        -0.4120
    200 H         -26.2175   82.2160 -129.4865 H         1 LYS         0.0306
    201 H         -27.8251   82.8787 -129.0358 H         1 LYS         0.0306
    202 H         -28.8965   81.7740 -130.8393 H         1 LYS         0.0269
    203 H         -27.4615   80.7421 -131.1598 H         1 LYS         0.0269
    204 H         -26.4992   83.3796 -131.3314 H         1 LYS         0.0317
    205 H         -28.1044   83.4255 -132.1363 H         1 LYS         0.0317
    206 H         -27.4617   81.5817 -133.6101 H         1 LYS         0.0813
    207 H         -25.8921   81.4067 -132.7544 H         1 LYS         0.0813
    208 H         -25.6707   82.6640 -134.7886 H         1 LYS         0.1994
    209 H         -25.3262   83.6239 -133.4966 H         1 LYS         0.1994
    210 H         -26.7646   83.7843 -134.2808 H         1 LYS         0.1994
@<TRIPOS>BOND
     1    1    2 1  
     2    2    3 1  
     3    2    5 1  
     4    3    4 2  
     5    3    6 am 
     6    6    7 1  
     7    7    8 1  
     8    7   10 1  
     9    8    9 2  
    10    8   17 am 
    11   10   11 1  
    12   11   12 1  
    13   12   13 1  
    14   13   14 ar 
    15   14   15 ar 
    16   14   16 ar 
    17   17   18 1  
    18   18   19 1  
    19   18   21 1  
    20   19   20 2  
    21   19   29 am 
    22   21   22 1  
    23   22   23 ar 
    24   22   24 ar 
    25   23   25 ar 
    26   24   26 ar 
    27   25   27 ar 
    28   26   27 ar 
    29   27   28 1  
    30   29   30 1  
    31   30   31 1  
    32   31   32 2  
    33   31   33 am 
    34   33   34 1  
    35   34   35 1  
    36   34   37 1  
    37   35   36 2  
    38   35   40 am 
    39   37   38 1  
    40   37   39 1  
    41   40   41 1  
    42   41   42 1  
    43   41   44 1  
    44   42   43 2  
    45   42   46 am 
    46   44   45 1  
    47   46   47 1  
    48   47   48 1  
    49   47   50 1  
    50   48   49 2  
    51   48   54 am 
    52   50   51 1  
    53   51   52 2  
    54   51   53 am 
    55   54   55 1  
    56   55   56 1  
    57   55   58 1  
    58   56   57 2  
    59   56   61 am 
    60   58   59 1  
    61   58   60 1  
    62   61   62 1  
    63   62   63 1  
    64   62   65 1  
    65   63   64 2  
    66   63   67 am 
    67   65   66 1  
    68   67   68 1  
    69   68   69 1  
    70   68   71 1  
    71   69   70 2  
    72   69   75 am 
    73   71   72 1  
    74   71   73 1  
    75   72   74 1  
    76   75   76 1  
    77   76   77 1  
    78   76   79 1  
    79   77   78 2  
    80   77   83 am 
    81   79   80 1  
    82   80   81 2  
    83   80   82 am 
    84   83   84 1  
    85   84   85 1  
    86   84   87 1  
    87   85   86 2  
    88   85   94 am 
    89   87   88 1  
    90   88   89 1  
    91   89   90 1  
    92   90   91 ar 
    93   91   92 ar 
    94   91   93 ar 
    95   94   95 1  
    96   95   96 1  
    97   95   98 1  
    98   96   97 ar 
    99   98   99 1  
   100   99  100 1  
   101  100  101 1  
   102  101  102 1  
   103    1  103 1  
   104    1  104 1  
   105    1  105 1  
   106    2  106 1  
   107    5  107 1  
   108    5  108 1  
   109    5  109 1  
   110    6  110 1  
   111    7  111 1  
   112   10  112 1  
   113   10  113 1  
   114   11  114 1  
   115   11  115 1  
   116   12  116 1  
   117   12  117 1  
   118   13  118 1  
   119   15  119 1  
   120   15  120 1  
   121   16  121 1  
   122   16  122 1  
   123   17  123 1  
   124   18  124 1  
   125   21  125 1  
   126   21  126 1  
   127   23  127 1  
   128   24  128 1  
   129   25  129 1  
   130   26  130 1  
   131   28  131 1  
   132   29  132 1  
   133   30  133 1  
   134   30  134 1  
   135   33  135 1  
   136   34  136 1  
   137   37  137 1  
   138   38  138 1  
   139   38  139 1  
   140   38  140 1  
   141   39  141 1  
   142   39  142 1  
   143   39  143 1  
   144   40  144 1  
   145   41  145 1  
   146   44  146 1  
   147   44  147 1  
   148   45  148 1  
   149   46  149 1  
   150   47  150 1  
   151   50  151 1  
   152   50  152 1  
   153   53  153 1  
   154   53  154 1  
   155   54  155 1  
   156   55  156 1  
   157   58  157 1  
   158   59  158 1  
   159   60  159 1  
   160   60  160 1  
   161   60  161 1  
   162   61  162 1  
   163   62  163 1  
   164   65  164 1  
   165   65  165 1  
   166   66  166 1  
   167   67  167 1  
   168   68  168 1  
   169   71  169 1  
   170   72  170 1  
   171   72  171 1  
   172   73  172 1  
   173   73  173 1  
   174   73  174 1  
   175   74  175 1  
   176   74  176 1  
   177   74  177 1  
   178   75  178 1  
   179   76  179 1  
   180   79  180 1  
   181   79  181 1  
   182   82  182 1  
   183   82  183 1  
   184   83  184 1  
   185   84  185 1  
   186   87  186 1  
   187   87  187 1  
   188   88  188 1  
   189   88  189 1  
   190   89  190 1  
   191   89  191 1  
   192   90  192 1  
   193   92  193 1  
   194   92  194 1  
   195   93  195 1  
   196   93  196 1  
   197   94  197 1  
   198   95  198 1  
   199   96  199 ar 
   200   98  200 1  
   201   98  201 1  
   202   99  202 1  
   203   99  203 1  
   204  100  204 1  
   205  100  205 1  
   206  101  206 1  
   207  101  207 1  
   208  102  208 1  
   209  102  209 1  
   210  102  210 1  
@<TRIPOS>SUBSTRUCTURE
     1 ALA         1

