6hkn_ligand
  -I-interpret- 

 53 56  0  0  0  0  0  0  0  0999 V2000
   -0.8090  -36.0810  -11.6750 C   0  0  0  0  0
   -2.0040  -35.4660  -11.9370 C   0  0  0  0  0
   -2.8920  -35.1690  -10.9000 C   0  0  0  0  0
   -4.2440  -33.1910  -10.8930 C   0  0  0  0  0
   -1.3510  -36.1360   -9.2950 C   0  0  0  0  0
    2.3330  -40.2370  -10.5500 C   0  0  0  0  0
   -0.3190  -39.2710   -9.8180 C   0  0  0  0  0
    1.3580  -42.1050  -11.7310 C   0  0  0  0  0
    2.3210  -45.6370  -12.4280 C   0  0  0  0  0
    1.8070  -36.3730  -10.1280 O   0  0  0  0  0
    0.8130  -37.0760  -10.1110 C   0  0  0  0  0
   -0.4680  -36.4220  -10.3610 C   0  0  0  0  0
   -4.0780  -34.5720  -11.1920 O   0  0  0  0  0
   -4.1290  -32.9550   -9.5180 F   0  0  0  0  0
   -5.5060  -32.8030  -11.3250 F   0  0  0  0  0
   -3.2860  -32.4550  -11.5720 F   0  0  0  0  0
   -2.5630  -35.5100   -9.5850 C   0  0  0  0  0
   -1.0430  -36.4800   -7.9740 N   0  0  0  0  0
    0.8720  -38.4000   -9.8460 N   0  0  0  0  0
    2.1530  -39.0810   -9.5690 C   0  0  0  0  0
    1.0870  -41.1130  -10.6300 C   0  0  0  0  0
   -0.1310  -40.2770  -10.9410 C   0  0  0  0  0
    1.3020  -41.6950  -12.9940 N   0  0  0  0  0
    1.5550  -42.5040  -14.0120 C   0  0  0  0  0
    1.8750  -43.7720  -13.8560 N   0  0  0  0  0
    1.9730  -44.2920  -12.6240 C   0  0  0  0  0
    2.4240  -46.1480  -11.1440 C   0  0  0  0  0
    2.7590  -47.4510  -10.9530 O   0  0  0  0  0
    3.9750  -47.7240  -10.2500 C   0  0  0  0  0
    2.1620  -45.3310  -10.0350 C   0  0  0  0  0
    1.8200  -44.0250  -10.1950 C   0  0  0  0  0
    1.7130  -43.4550  -11.4860 C   0  0  0  0  0
   -0.1221  -36.3054  -12.4911 H   0  0  0  0  0
   -2.2646  -35.2060  -12.9629 H   0  0  0  0  0
    3.1628  -40.8533  -10.2040 H   0  0  0  0  0
    2.5221  -39.8200  -11.5392 H   0  0  0  0  0
   -1.2330  -38.6933   -9.9554 H   0  0  0  0  0
   -0.4195  -39.7703   -8.8543 H   0  0  0  0  0
    2.5106  -46.2808  -13.2868 H   0  0  0  0  0
   -3.2605  -35.2844   -8.7783 H   0  0  0  0  0
   -0.1627  -36.9492   -7.7612 H   0  0  0  0  0
   -1.6988  -36.2616   -7.2239 H   0  0  0  0  0
    2.9744  -38.3737   -9.6841 H   0  0  0  0  0
    2.1485  -39.4655   -8.5491 H   0  0  0  0  0
    0.8838  -41.6153   -9.6842 H   0  0  0  0  0
    0.0046  -39.7573  -11.8895 H   0  0  0  0  0
   -1.0112  -40.9148  -11.0227 H   0  0  0  0  0
    1.4957  -42.1024  -15.0236 H   0  0  0  0  0
    4.8130  -47.2868  -10.7928 H   0  0  0  0  0
    3.9212  -47.2901   -9.2515 H   0  0  0  0  0
    4.1139  -48.8023  -10.1720 H   0  0  0  0  0
    2.2335  -45.7488   -9.0308 H   0  0  0  0  0
    1.6256  -43.4086   -9.3173 H   0  0  0  0  0
  1  2  4  0  0  0
 12  1  4  0  0  0
  2  3  4  0  0  0
  3 13  1  0  0  0
 17  3  4  0  0  0
 13  4  1  0  0  0
  4 14  1  0  0  0
  4 15  1  0  0  0
  4 16  1  0  0  0
 12  5  4  0  0  0
  5 17  4  0  0  0
  5 18  1  0  0  0
  6 20  1  0  0  0
 21  6  1  0  0  0
  7 19  1  0  0  0
 22  7  1  0  0  0
  8 21  1  0  0  0
 23  8  4  0  0  0
  8 32  4  0  0  0
 26  9  4  0  0  0
  9 27  4  0  0  0
 11 10  2  0  0  0
 11 12  1  0  0  0
 19 11  1  0  0  0
 20 19  1  0  0  0
 21 22  1  0  0  0
 24 23  4  0  0  0
 25 24  4  0  0  0
 25 26  4  0  0  0
 26 32  4  0  0  0
 27 28  1  0  0  0
 27 30  4  0  0  0
 28 29  1  0  0  0
 30 31  4  0  0  0
 31 32  4  0  0  0
  1 33  1  0  0  0
  2 34  1  0  0  0
  6 35  1  0  0  0
  6 36  1  0  0  0
  7 37  1  0  0  0
  7 38  1  0  0  0
  9 39  1  0  0  0
 17 40  1  0  0  0
 18 41  1  0  0  0
 18 42  1  0  0  0
 20 43  1  0  0  0
 20 44  1  0  0  0
 21 45  1  0  0  0
 22 46  1  0  0  0
 22 47  1  0  0  0
 24 48  1  0  0  0
 29 49  1  0  0  0
 29 50  1  0  0  0
 29 51  1  0  0  0
 30 52  1  0  0  0
 31 53  1  0  0  0
M  END
$$$$
