4egk_ligand
  -I-interpret- 

 42 44  0  0  0  0  0  0  0  0999 V2000
   10.8980   -4.6510   12.3330 C   0  0  0  0  0
    9.6170   -5.2340   12.7290 C   0  0  0  0  0
    8.4740   -4.3470   12.8230 C   0  0  0  0  0
    7.2530   -4.8470   13.2190 C   0  0  0  0  0
    7.0540   -6.1740   13.4710 C   0  0  0  0  0
    8.1480   -7.0920   13.3400 C   0  0  0  0  0
    9.4660   -6.6580   13.0120 C   0  0  0  0  0
   10.5340   -7.6940   12.9460 C   0  0  0  0  0
   10.7640   -8.6000   14.1420 C   0  0  0  0  0
   11.0650   -8.0570   15.4750 C   0  0  0  0  0
   11.0670   -6.7990   15.8270 C   0  0  0  0  0
   11.4570   -6.3830   17.1620 C   0  0  0  0  0
   11.8860   -5.1510   17.4050 C   0  0  0  0  0
   11.9620   -4.1170   16.3160 C   0  0  0  0  0
   13.3060   -4.1320   15.6500 C   0  0  0  0  0
   13.4970   -3.5130   14.2810 C   0  0  0  0  0
   13.1610   -4.4550   13.1340 C   0  0  0  0  0
   14.0650   -5.6600   13.1240 C   0  0  0  0  0
   11.8430   -4.9020   13.3370 O   0  0  0  0  0
   11.0890   -4.1030   11.3170 O   0  0  0  0  0
    8.6860   -3.0770   12.5250 O   0  0  0  0  0
    5.8860   -6.6580   13.8170 O   0  0  0  0  0
    7.8160   -8.7690   13.6470 Cl  0  0  0  0  0
   10.8400   -9.7440   13.9710 O   0  0  0  0  0
   12.9390   -3.1480   16.5840 O   0  0  0  0  0
    6.4159   -4.1587   13.3353 H   0  0  0  0  0
   11.4616   -7.1315   12.8402 H   0  0  0  0  0
   10.2228   -8.3642   12.1446 H   0  0  0  0  0
   11.3126   -8.7807   16.2515 H   0  0  0  0  0
   10.7685   -6.0432   15.1005 H   0  0  0  0  0
   11.3961   -7.0980   17.9825 H   0  0  0  0  0
   12.1901   -4.8826   18.4167 H   0  0  0  0  0
   10.9196   -4.1126   15.9974 H   0  0  0  0  0
   14.0380   -4.9264   15.5047 H   0  0  0  0  0
   14.5496   -3.2462   14.1870 H   0  0  0  0  0
   12.8225   -2.6596   14.2113 H   0  0  0  0  0
   13.2842   -3.9262   12.1889 H   0  0  0  0  0
   15.0996   -5.3356   13.0121 H   0  0  0  0  0
   13.9530   -6.2044   14.0616 H   0  0  0  0  0
   13.7943   -6.3088   12.2910 H   0  0  0  0  0
    7.8667   -2.5859   12.6207 H   0  0  0  0  0
    5.9596   -7.6063   13.9470 H   0  0  0  0  0
  1  2  1  0  0  0
  1 19  1  0  0  0
  1 20  2  0  0  0
  2  3  4  0  0  0
  2  7  4  0  0  0
  3  4  4  0  0  0
  3 21  1  0  0  0
  4  5  4  0  0  0
  5  6  4  0  0  0
  5 22  1  0  0  0
  6  7  4  0  0  0
  6 23  1  0  0  0
  7  8  1  0  0  0
  8  9  1  0  0  0
  9 10  1  0  0  0
  9 24  2  0  0  0
 10 11  2  0  0  0
 11 12  1  0  0  0
 12 13  2  0  0  0
 13 14  1  0  0  0
 14 15  1  0  0  0
 14 25  1  0  0  0
 15 16  1  0  0  0
 15 25  1  0  0  0
 16 17  1  0  0  0
 17 18  1  0  0  0
 17 19  1  0  0  0
  4 26  1  0  0  0
  8 27  1  0  0  0
  8 28  1  0  0  0
 10 29  1  0  0  0
 11 30  1  0  0  0
 12 31  1  0  0  0
 13 32  1  0  0  0
 14 33  1  0  0  0
 15 34  1  0  0  0
 16 35  1  0  0  0
 16 36  1  0  0  0
 17 37  1  0  0  0
 18 38  1  0  0  0
 18 39  1  0  0  0
 18 40  1  0  0  0
 21 41  1  0  0  0
 22 42  1  0  0  0
M  END
$$$$
