2ow7_ligand
  -I-interpret- 

 26 27  0  0  0  0  0  0  0  0999 V2000
   31.7020   66.8190    6.2520 O   0  0  0  0  0
   31.5130   66.2910    7.5660 C   0  0  0  0  0
   30.6750   64.9970    7.5380 C   0  0  0  0  0
   29.2670   65.1930    6.9370 C   0  0  0  0  0
   28.3170   66.0200    7.8000 C   0  0  0  0  0
   28.2320   65.5710    9.2740 C   0  0  0  0  0
   29.5430   65.6830   10.0510 C   0  0  0  0  0
   30.7980   64.6380    9.2980 S   0  0  0  0  0
   32.4620   65.2830    9.6250 C   0  0  0  0  0
   32.7950   66.0260    8.3280 C   0  0  0  0  0
   33.7090   65.2390    7.5710 O   0  0  0  0  0
   30.8470   66.9582    5.8382 H   0  0  0  0  0
   30.9807   67.0795    8.0979 H   0  0  0  0  0
   30.9952   64.1797    6.8918 H   0  0  0  0  0
   28.8237   64.2024    6.8355 H   0  0  0  0  0
   29.3941   65.7316    5.9979 H   0  0  0  0  0
   27.3199   65.9055    7.3747 H   0  0  0  0  0
   28.6959   67.0420    7.8003 H   0  0  0  0  0
   27.9544   64.5169    9.2695 H   0  0  0  0  0
   27.5144   66.2280    9.7654 H   0  0  0  0  0
   29.3784   65.3605   11.0791 H   0  0  0  0  0
   29.8821   66.7188   10.0335 H   0  0  0  0  0
   33.1822   64.5006    9.8641 H   0  0  0  0  0
   32.5044   65.9241   10.5055 H   0  0  0  0  0
   33.2649   66.9870    8.5371 H   0  0  0  0  0
   33.9242   65.6968    6.7551 H   0  0  0  0  0
  1  2  1  0  0  0
  2  3  1  0  0  0
  2 10  1  0  0  0
  3  4  1  0  0  0
  3  8  1  0  0  0
  4  5  1  0  0  0
  5  6  1  0  0  0
  6  7  1  0  0  0
  7  8  1  0  0  0
  8  9  1  0  0  0
  9 10  1  0  0  0
 10 11  1  0  0  0
  1 12  1  0  0  0
  2 13  1  0  0  0
  3 14  1  0  0  0
  4 15  1  0  0  0
  4 16  1  0  0  0
  5 17  1  0  0  0
  5 18  1  0  0  0
  6 19  1  0  0  0
  6 20  1  0  0  0
  7 21  1  0  0  0
  7 22  1  0  0  0
  9 23  1  0  0  0
  9 24  1  0  0  0
 10 25  1  0  0  0
 11 26  1  0  0  0
M  END
$$$$
