1v2p_ligand
  -I-interpret- 

 54 55  0  0  0  0  0  0  0  0999 V2000
   44.8690   24.1710   52.5180 N   0  0  0  0  0
   46.1270   23.9440   53.2980 C   0  0  0  0  0
   46.9490   22.8700   52.5580 C   0  0  0  0  0
   47.0480   25.2090   53.5330 C   0  0  0  0  0
   47.5050   25.8310   52.5430 O   0  0  0  0  0
   47.3130   25.5760   54.8850 O   0  0  0  0  0
   46.7880   24.8640   56.0630 C   0  0  0  0  0
   46.2880   21.5170   52.4030 C   0  0  0  0  0
   45.4260   21.2770   51.2950 C   0  0  0  0  0
   44.7810   20.0240   51.1240 C   0  0  0  0  0
   45.0000   18.9950   52.0710 C   0  0  0  0  0
   45.8790   19.1940   53.2250 C   0  0  0  0  0
   46.5110   20.4880   53.3570 C   0  0  0  0  0
   46.0950   18.1850   54.1550 C   0  0  0  0  0
   46.8000   18.3360   55.2620 N   0  0  0  0  0
   45.6340   16.9460   54.0410 N   0  0  0  0  0
   43.6320   23.8630   52.9600 C   0  0  0  0  0
   42.4450   24.3460   52.1360 C   0  0  0  0  0
   42.1970   25.8070   52.1270 N   0  0  0  0  0
   43.4350   23.2060   53.9820 O   0  0  0  0  0
   37.1300   24.9640   56.7690 C   0  0  0  0  0
   38.3670   25.3410   56.0110 C   0  0  0  0  0
   39.6070   24.6230   56.1710 C   0  0  0  0  0
   40.7710   25.0110   55.4270 C   0  0  0  0  0
   40.6610   26.1310   54.5250 C   0  0  0  0  0
   39.4330   26.8430   54.3690 C   0  0  0  0  0
   38.2970   26.4460   55.1100 C   0  0  0  0  0
   42.0230   26.6880   53.5760 S   0  0  0  0  0
   43.4310   26.5710   54.3470 O   0  0  0  0  0
   41.7000   28.1440   53.0380 O   0  0  0  0  0
   44.9529   24.5864   51.5902 H   0  0  0  0  0
   45.8049   23.6462   54.2958 H   0  0  0  0  0
   47.8456   22.7056   53.1556 H   0  0  0  0  0
   47.1095   23.2493   51.5488 H   0  0  0  0  0
   45.6984   24.8832   56.0418 H   0  0  0  0  0
   47.1349   23.8308   56.0459 H   0  0  0  0  0
   47.1437   25.3530   56.9699 H   0  0  0  0  0
   45.2586   22.0693   50.5654 H   0  0  0  0  0
   44.1232   19.8559   50.2713 H   0  0  0  0  0
   44.5036   18.0337   51.9383 H   0  0  0  0  0
   47.1705   20.6774   54.2039 H   0  0  0  0  0
   47.2257   19.2378   55.4765 H   0  0  0  0  0
   45.8430   16.2557   54.7623 H   0  0  0  0  0
   45.0707   16.6839   53.2321 H   0  0  0  0  0
   41.5613   23.8926   52.5851 H   0  0  0  0  0
   42.6618   24.0703   51.1040 H   0  0  0  0  0
   42.1289   26.2960   51.2345 H   0  0  0  0  0
   36.8531   23.9388   56.5232 H   0  0  0  0  0
   37.3228   25.0431   57.8389 H   0  0  0  0  0
   36.3178   25.6369   56.4941 H   0  0  0  0  0
   39.6605   23.7808   56.8609 H   0  0  0  0  0
   41.7127   24.4739   55.5404 H   0  0  0  0  0
   39.3722   27.6875   53.6826 H   0  0  0  0  0
   37.3589   26.9884   54.9925 H   0  0  0  0  0
  1  2  1  0  0  0
 17  1  1  0  0  0
  2  3  1  0  0  0
  2  4  1  0  0  0
  3  8  1  0  0  0
  4  5  2  0  0  0
  4  6  1  0  0  0
  6  7  1  0  0  0
  8  9  4  0  0  0
  8 13  4  0  0  0
  9 10  4  0  0  0
 10 11  4  0  0  0
 12 11  4  0  0  0
 13 12  4  0  0  0
 12 14  1  0  0  0
 14 15  2  0  0  0
 14 16  1  0  0  0
 18 17  1  0  0  0
 17 20  2  0  0  0
 19 18  1  0  0  0
 28 19  1  0  0  0
 22 21  1  0  0  0
 23 22  4  0  0  0
 22 27  4  0  0  0
 24 23  4  0  0  0
 25 24  4  0  0  0
 25 26  4  0  0  0
 25 28  1  0  0  0
 26 27  4  0  0  0
 28 29  2  0  0  0
 28 30  2  0  0  0
  1 31  1  0  0  0
  2 32  1  0  0  0
  3 33  1  0  0  0
  3 34  1  0  0  0
  7 35  1  0  0  0
  7 36  1  0  0  0
  7 37  1  0  0  0
  9 38  1  0  0  0
 10 39  1  0  0  0
 11 40  1  0  0  0
 13 41  1  0  0  0
 15 42  1  0  0  0
 16 43  1  0  0  0
 16 44  1  0  0  0
 18 45  1  0  0  0
 18 46  1  0  0  0
 19 47  1  0  0  0
 21 48  1  0  0  0
 21 49  1  0  0  0
 21 50  1  0  0  0
 23 51  1  0  0  0
 24 52  1  0  0  0
 26 53  1  0  0  0
 27 54  1  0  0  0
M  END
$$$$
