5q19_ligand
  -I-interpret- 

 72 76  0  0  0  0  0  0  0  0999 V2000
   13.6580   25.9730    2.4950 N   0  0  0  0  0
   15.7170   24.8600    3.2300 C   0  0  0  0  0
   12.9570   22.0090    4.6620 C   0  0  0  0  0
   13.7440   23.2780    5.0200 C   0  0  0  0  0
   12.0900   24.8790    3.7580 C   0  0  0  0  0
   12.3000   25.8630    2.7980 C   0  0  0  0  0
   18.4810   24.4420    3.1610 C   0  0  0  0  0
   11.2110   26.5710    2.2900 C   0  0  0  0  0
   14.0500   25.1300    6.7680 C   0  0  0  0  0
   15.6450   22.7340    0.4160 C   0  0  0  0  0
   13.4220   19.6500    1.9180 C   0  0  0  0  0
    9.7410   25.2850    3.7230 C   0  0  0  0  0
   12.2400   21.4430    5.4850 O   0  0  0  0  0
   13.1110   21.5870    3.4040 N   0  0  0  0  0
   12.4530   20.4070    2.8440 C   0  0  0  0  0
   11.1910   20.8350    2.0850 C   0  0  0  0  0
   10.5040   19.6340    1.3890 C   0  0  0  0  0
   11.4690   18.9040    0.4620 C   0  0  0  0  0
   12.7230   18.4520    1.2310 C   0  0  0  0  0
   13.5870   23.6790    6.5080 C   0  0  0  0  0
   14.3600   22.7260    7.4300 C   0  0  0  0  0
   14.1730   23.0850    8.9080 C   0  0  0  0  0
   14.6190   24.5180    9.1910 C   0  0  0  0  0
   13.9010   25.5270    8.2610 C   0  0  0  0  0
   13.3710   24.3770    4.0500 N   0  0  0  0  0
   10.8170   24.5710    4.2390 C   0  0  0  0  0
    9.9330   26.2710    2.7640 C   0  0  0  0  0
   14.2580   25.0750    3.2560 C   0  0  0  0  0
   16.5880   25.6920    3.9510 C   0  0  0  0  0
   17.9600   25.4840    3.9180 C   0  0  0  0  0
   19.8520   24.2840    3.1670 O   0  0  0  0  0
   20.4380   23.3780    2.2170 C   0  0  0  0  0
   17.6380   23.6050    2.4380 C   0  0  0  0  0
   16.2680   23.8150    2.4710 C   0  0  0  0  0
   15.3680   23.0300    1.7850 O   0  0  0  0  0
   14.8107   23.0809    4.9132 H   0  0  0  0  0
   11.3555   27.3449    1.5361 H   0  0  0  0  0
   13.4280   25.7988    6.1730 H   0  0  0  0  0
   15.1033   25.2060    6.4978 H   0  0  0  0  0
   15.7017   23.6632   -0.1510 H   0  0  0  0  0
   16.5954   22.2050    0.3451 H   0  0  0  0  0
   14.8486   22.1086    0.0125 H   0  0  0  0  0
   14.2501   19.2715    2.5172 H   0  0  0  0  0
   13.7723   20.3361    1.1469 H   0  0  0  0  0
    8.7329   25.0678    4.0761 H   0  0  0  0  0
   13.7281   22.1230    2.7938 H   0  0  0  0  0
   12.1628   19.7347    3.6514 H   0  0  0  0  0
   11.4791   21.5557    1.3197 H   0  0  0  0  0
   10.4894   21.2637    2.8006 H   0  0  0  0  0
    9.6695   20.0080    0.7959 H   0  0  0  0  0
   10.1650   18.9368    2.1552 H   0  0  0  0  0
   11.7703   19.5808   -0.3375 H   0  0  0  0  0
   10.9696   18.0253    0.0539 H   0  0  0  0  0
   12.4218   17.7388    1.9983 H   0  0  0  0  0
   13.4202   18.0014    0.5246 H   0  0  0  0  0
   12.5228   23.6092    6.7334 H   0  0  0  0  0
   15.4205   22.8039    7.1907 H   0  0  0  0  0
   13.9814   21.7160    7.2728 H   0  0  0  0  0
   14.7793   22.4075    9.5093 H   0  0  0  0  0
   13.1154   22.9951    9.1560 H   0  0  0  0  0
   15.6924   24.5878    9.0147 H   0  0  0  0  0
   14.3693   24.7608   10.2239 H   0  0  0  0  0
   12.8404   25.5338    8.5123 H   0  0  0  0  0
   14.3516   26.5092    8.4037 H   0  0  0  0  0
   10.6710   23.7976    4.9930 H   0  0  0  0  0
    9.0737   26.8181    2.3762 H   0  0  0  0  0
   16.1819   26.5114    4.5440 H   0  0  0  0  0
   18.6260   26.1356    4.4837 H   0  0  0  0  0
   20.0391   22.3765    2.3782 H   0  0  0  0  0
   20.1977   23.7079    1.2063 H   0  0  0  0  0
   21.5199   23.3651    2.3488 H   0  0  0  0  0
   18.0525   22.7875    1.8480 H   0  0  0  0  0
  1  6  4  0  0  0
 28  1  4  0  0  0
  2 28  1  0  0  0
  2 29  4  0  0  0
 34  2  4  0  0  0
  4  3  1  0  0  0
  3 13  2  0  0  0
  3 14  1  0  0  0
  4 20  1  0  0  0
 25  4  1  0  0  0
  5  6  4  0  0  0
 25  5  4  0  0  0
  5 26  4  0  0  0
  6  8  4  0  0  0
  7 30  4  0  0  0
  7 31  1  0  0  0
 33  7  4  0  0  0
  8 27  4  0  0  0
 20  9  1  0  0  0
  9 24  1  0  0  0
 35 10  1  0  0  0
 15 11  1  0  0  0
 11 19  1  0  0  0
 26 12  4  0  0  0
 12 27  4  0  0  0
 14 15  1  0  0  0
 15 16  1  0  0  0
 16 17  1  0  0  0
 17 18  1  0  0  0
 19 18  1  0  0  0
 20 21  1  0  0  0
 21 22  1  0  0  0
 22 23  1  0  0  0
 24 23  1  0  0  0
 28 25  4  0  0  0
 29 30  4  0  0  0
 31 32  1  0  0  0
 34 33  4  0  0  0
 34 35  1  0  0  0
  4 36  1  0  0  0
  8 37  1  0  0  0
  9 38  1  0  0  0
  9 39  1  0  0  0
 10 40  1  0  0  0
 10 41  1  0  0  0
 10 42  1  0  0  0
 11 43  1  0  0  0
 11 44  1  0  0  0
 12 45  1  0  0  0
 14 46  1  0  0  0
 15 47  1  0  0  0
 16 48  1  0  0  0
 16 49  1  0  0  0
 17 50  1  0  0  0
 17 51  1  0  0  0
 18 52  1  0  0  0
 18 53  1  0  0  0
 19 54  1  0  0  0
 19 55  1  0  0  0
 20 56  1  0  0  0
 21 57  1  0  0  0
 21 58  1  0  0  0
 22 59  1  0  0  0
 22 60  1  0  0  0
 23 61  1  0  0  0
 23 62  1  0  0  0
 24 63  1  0  0  0
 24 64  1  0  0  0
 26 65  1  0  0  0
 27 66  1  0  0  0
 29 67  1  0  0  0
 30 68  1  0  0  0
 32 69  1  0  0  0
 32 70  1  0  0  0
 32 71  1  0  0  0
 33 72  1  0  0  0
M  END
$$$$
