5bvk_ligand
  -I-interpret- 

 30 31  0  0  0  0  0  0  0  0999 V2000
   27.6130   29.5840   35.7710 C   0  0  0  0  0
   27.9630   28.6120   34.8510 C   0  0  0  0  0
   26.4570   29.5800   33.2630 C   0  0  0  0  0
   26.1050   30.5540   34.1820 C   0  0  0  0  0
   26.6800   30.5680   35.4490 C   0  0  0  0  0
   23.9730   33.6330   38.2620 C   0  0  0  0  0
   24.0410   35.1370   38.1540 C   0  0  0  0  0
   25.2470   35.7940   37.9640 C   0  0  0  0  0
   25.2520   37.1660   37.8720 C   0  0  0  0  0
   24.0680   37.8560   37.9690 C   0  0  0  0  0
   28.3630   29.5520   37.3360 Cl  0  0  0  0  0
   27.3820   28.6130   33.5970 C   0  0  0  0  0
   26.3660   31.5350   36.4360 N   0  0  0  0  0
   25.1910   32.2260   36.6350 C   0  0  0  0  0
   24.2440   32.1790   35.8480 O   0  0  0  0  0
   25.1670   32.9610   37.7690 N   0  0  0  0  0
   22.8950   37.2420   38.1520 N   0  0  0  0  0
   22.8910   35.9060   38.2410 C   0  0  0  0  0
   28.6945   27.8480   35.1142 H   0  0  0  0  0
   26.0017   29.5775   32.2726 H   0  0  0  0  0
   25.3728   31.3147   33.9112 H   0  0  0  0  0
   23.1334   33.2983   37.6528 H   0  0  0  0  0
   23.8697   33.3846   39.3183 H   0  0  0  0  0
   26.1775   35.2313   37.8887 H   0  0  0  0  0
   26.1891   37.7025   37.7231 H   0  0  0  0  0
   24.0858   38.9433   37.8940 H   0  0  0  0  0
   27.6554   27.8479   32.8704 H   0  0  0  0  0
   27.1166   31.7500   37.0924 H   0  0  0  0  0
   26.0292   33.0495   38.3068 H   0  0  0  0  0
   21.9376   35.3987   38.3890 H   0  0  0  0  0
  1  2  4  0  0  0
  5  1  4  0  0  0
  1 11  1  0  0  0
  2 12  4  0  0  0
  4  3  4  0  0  0
  3 12  4  0  0  0
  5  4  4  0  0  0
 13  5  1  0  0  0
  6  7  1  0  0  0
 16  6  1  0  0  0
  7  8  4  0  0  0
  7 18  4  0  0  0
  8  9  4  0  0  0
  9 10  4  0  0  0
 10 17  4  0  0  0
 14 13  1  0  0  0
 14 15  2  0  0  0
 14 16  1  0  0  0
 17 18  4  0  0  0
  2 19  1  0  0  0
  3 20  1  0  0  0
  4 21  1  0  0  0
  6 22  1  0  0  0
  6 23  1  0  0  0
  8 24  1  0  0  0
  9 25  1  0  0  0
 10 26  1  0  0  0
 12 27  1  0  0  0
 13 28  1  0  0  0
 16 29  1  0  0  0
 18 30  1  0  0  0
M  END
$$$$
