4yp8_ligand
  -I-interpret- 

 65 70  0  0  0  0  0  0  0  0999 V2000
   29.4320    6.2310   -7.5490 N   0  0  0  0  0
   30.1040    5.2090   -8.1600 C   0  0  0  0  0
   29.9790    4.0280   -7.8390 O   0  0  0  0  0
   31.0240    5.6150   -9.2250 C   0  0  0  0  0
   31.8980    4.6910   -9.8740 C   0  0  0  0  0
   32.7100    5.2760  -10.7720 N   0  0  0  0  0
   32.3280    6.6030  -10.7890 N   0  0  0  0  0
   31.2480    6.8580   -9.8480 C   0  0  0  0  0
   30.7580    8.1670   -9.6690 N   0  0  0  0  0
   31.3260    9.1420  -10.4340 C   0  0  0  0  0
   32.3250    8.9260  -11.3670 C   0  0  0  0  0
   32.8760    7.6610  -11.5590 C   0  0  0  0  0
   28.6990    6.1680   -6.3580 C   0  0  0  0  0
   28.2600    5.1490   -5.5320 C   0  0  0  0  0
   27.5210    5.7830   -4.4820 C   0  0  0  0  0
   27.4780    7.1380   -4.6550 N   0  0  0  0  0
   28.2270    7.3540   -5.7890 N   0  0  0  0  0
   26.7850    5.1370   -3.3490 C   0  0  0  0  0
   27.4910    3.9050   -2.7680 C   0  0  0  0  0
   26.6550    3.3430   -1.6230 C   0  0  0  0  0
   26.4920    4.3330   -0.5460 N   0  3  0  0  0
   25.7400    5.4730   -1.0990 C   0  0  0  0  0
   26.5090    6.1520   -2.2300 C   0  0  0  0  0
   25.8970    3.7830    0.6900 C   0  0  0  0  0
   25.2810    4.8600    1.5790 C   0  0  0  0  0
   26.8840    2.9110    1.4620 C   0  0  0  0  0
   28.4250    8.6810   -6.2650 C   0  0  0  0  0
   29.6650    9.3370   -6.1880 C   0  0  0  0  0
   29.8970   10.5750   -6.7280 C   0  0  0  0  0
   28.8730   11.2060   -7.4300 C   0  0  0  0  0
   27.6450   10.5640   -7.5520 C   0  0  0  0  0
   27.4290    9.3040   -7.0150 C   0  0  0  0  0
   30.6660    8.7260   -5.5220 F   0  0  0  0  0
   29.0840   12.5740   -8.0500 C   0  0  0  0  0
   29.9150   13.6350   -7.3750 C   0  0  0  0  0
   28.4380   13.7340   -7.3400 C   0  0  0  0  0
   29.4688    7.1392   -8.0119 H   0  0  0  0  0
   31.9061    3.6216   -9.6632 H   0  0  0  0  0
   30.9683   10.1631  -10.3015 H   0  0  0  0  0
   32.6881    9.7627  -11.9638 H   0  0  0  0  0
   33.6882    7.4924  -12.2661 H   0  0  0  0  0
   28.4399    4.0810   -5.6552 H   0  0  0  0  0
   25.8458    4.7851   -3.7758 H   0  0  0  0  0
   28.4762    4.1882   -2.3975 H   0  0  0  0  0
   27.6049    3.1482   -3.5441 H   0  0  0  0  0
   27.1642    2.4687   -1.2174 H   0  0  0  0  0
   25.6690    3.0825   -2.0078 H   0  0  0  0  0
   27.4125    4.6439   -0.2354 H   0  0  0  0  0
   25.5802    6.2008   -0.3035 H   0  0  0  0  0
   24.7945    5.1039   -1.4963 H   0  0  0  0  0
   25.9159    6.9758   -2.6271 H   0  0  0  0  0
   27.4552    6.5333   -1.8461 H   0  0  0  0  0
   25.0772    3.1397    0.3702 H   0  0  0  0  0
   26.0514    5.5747    1.8686 H   0  0  0  0  0
   24.4931    5.3757    1.0300 H   0  0  0  0  0
   24.8601    4.3961    2.4710 H   0  0  0  0  0
   27.1978    2.0768    0.8345 H   0  0  0  0  0
   27.7540    3.5067    1.7385 H   0  0  0  0  0
   26.4025    2.5291    2.3622 H   0  0  0  0  0
   30.8671   11.0579   -6.6100 H   0  0  0  0  0
   26.8337   11.0630   -8.0820 H   0  0  0  0  0
   26.4772    8.7991   -7.1799 H   0  0  0  0  0
   29.0967   12.1426   -9.0509 H   0  0  0  0  0
   30.8922   14.0369   -7.1074 H   0  0  0  0  0
   27.5374   14.2626   -7.0274 H   0  0  0  0  0
  1  2  1  0  0  0
  1 13  1  0  0  0
  2  3  2  0  0  0
  2  4  1  0  0  0
  4  5  4  0  0  0
  4  8  4  0  0  0
  5  6  4  0  0  0
  6  7  4  0  0  0
  7  8  4  0  0  0
  7 12  4  0  0  0
  8  9  4  0  0  0
  9 10  4  0  0  0
 10 11  4  0  0  0
 11 12  4  0  0  0
 13 14  4  0  0  0
 13 17  4  0  0  0
 14 15  4  0  0  0
 15 16  4  0  0  0
 15 18  1  0  0  0
 16 17  4  0  0  0
 17 27  1  0  0  0
 18 19  1  0  0  0
 18 23  1  0  0  0
 19 20  1  0  0  0
 20 21  1  0  0  0
 21 22  1  0  0  0
 21 24  1  0  0  0
 22 23  1  0  0  0
 24 25  1  0  0  0
 24 26  1  0  0  0
 27 28  4  0  0  0
 27 32  4  0  0  0
 28 29  4  0  0  0
 28 33  1  0  0  0
 29 30  4  0  0  0
 30 31  4  0  0  0
 30 34  1  0  0  0
 31 32  4  0  0  0
 34 35  1  0  0  0
 34 36  1  0  0  0
 35 36  2  0  0  0
  1 37  1  0  0  0
  5 38  1  0  0  0
 10 39  1  0  0  0
 11 40  1  0  0  0
 12 41  1  0  0  0
 14 42  1  0  0  0
 18 43  1  0  0  0
 19 44  1  0  0  0
 19 45  1  0  0  0
 20 46  1  0  0  0
 20 47  1  0  0  0
 21 48  1  0  0  0
 22 49  1  0  0  0
 22 50  1  0  0  0
 23 51  1  0  0  0
 23 52  1  0  0  0
 24 53  1  0  0  0
 25 54  1  0  0  0
 25 55  1  0  0  0
 25 56  1  0  0  0
 26 57  1  0  0  0
 26 58  1  0  0  0
 26 59  1  0  0  0
 29 60  1  0  0  0
 31 61  1  0  0  0
 32 62  1  0  0  0
 34 63  1  0  0  0
 35 64  1  0  0  0
 36 65  1  0  0  0
M  END
$$$$
