5ml4_ligand
  -I-interpret- 

 88 92  0  0  0  0  0  0  0  0999 V2000
  -15.0730   33.7120    3.9610 C   0  0  0  0  0
  -15.3500   33.6640    2.5090 N   0  0  0  0  0
  -16.4980   33.1080    2.0750 C   0  0  0  0  0
  -17.1970   32.1670    2.8420 C   0  0  0  0  0
  -16.9780   33.4970    0.8090 C   0  0  0  0  0
  -16.3260   34.4560   -0.0220 C   0  0  0  0  0
  -16.7680   34.7580   -1.1580 O   0  0  0  0  0
  -15.3170   35.0820    0.3730 O   0  0  0  0  0
  -18.1720   32.9010    0.3840 C   0  0  0  0  0
  -18.8700   31.9570    1.1460 C   0  0  0  0  0
  -18.3890   31.5840    2.3990 C   0  0  0  0  0
  -19.0400   30.6580    3.2090 C   0  0  0  0  0
  -20.4210   31.1760    3.4520 N   0  0  0  0  0
  -20.6320   31.6090    4.8500 C   0  0  0  0  0
  -21.4750   32.8990    4.8420 C   0  0  0  0  0
  -20.8290   33.9370    3.9340 C   0  0  0  0  0
  -21.7530   35.1660    4.0100 C   0  0  0  0  0
  -21.8070   35.6980    5.3800 N   0  3  0  0  0
  -22.4140   34.6990    6.2760 C   0  0  0  0  0
  -21.5890   33.4230    6.2830 C   0  0  0  0  0
  -21.7320   30.1510    2.9200 S   0  0  0  0  0
  -21.4520   29.6780    1.5050 O   0  0  0  0  0
  -22.9920   30.9470    2.9330 O   0  0  0  0  0
  -21.9140   28.7030    3.9870 C   0  0  0  0  0
  -20.9840   27.7000    3.8730 C   0  0  0  0  0
  -21.0880   26.5860    4.6510 C   0  0  0  0  0
  -22.9590   28.5890    4.9100 C   0  0  0  0  0
  -23.0600   27.4590    5.7050 C   0  0  0  0  0
  -22.1190   26.4590    5.5620 C   0  0  0  0  0
  -22.1920   25.0510    6.4900 S   0  0  0  0  0
  -23.0590   25.3620    7.6820 O   0  0  0  0  0
  -20.7990   24.6210    6.9730 O   0  0  0  0  0
  -22.9510   23.5790    5.6390 N   0  0  0  0  0
  -24.1590   23.7280    4.7830 C   0  0  0  0  0
  -24.7080   22.3750    4.4210 C   0  0  0  0  0
  -25.5790   22.7230    3.2160 C   0  0  0  0  0
  -24.9870   23.9410    2.5680 C   0  0  0  0  0
  -23.8740   24.4210    3.4420 C   0  0  0  0  0
  -21.9400   22.6150    5.1160 C   0  0  0  0  0
  -21.8690   21.5390    6.0230 C   0  0  0  0  0
  -21.2060   20.3640    5.6870 C   0  0  0  0  0
  -21.1290   19.3290    6.6080 C   0  0  0  0  0
  -21.7040   19.4950    7.8610 C   0  0  0  0  0
  -21.6610   18.2830    9.0110 Cl  0  0  0  0  0
  -22.3480   20.6620    8.2150 C   0  0  0  0  0
  -22.4260   21.6700    7.3000 C   0  0  0  0  0
  -15.8563   34.2823    4.4604 H   0  0  0  0  0
  -15.0505   32.6975    4.3590 H   0  0  0  0  0
  -14.1088   34.1915    4.1300 H   0  0  0  0  0
  -14.6792   34.0477    1.8433 H   0  0  0  0  0
  -16.7993   31.8798    3.8154 H   0  0  0  0  0
  -17.5372   34.2183   -1.3547 H   0  0  0  0  0
  -18.5772   33.1860   -0.5869 H   0  0  0  0  0
  -19.7882   31.5145    0.7597 H   0  0  0  0  0
  -18.5068   30.5306    4.1511 H   0  0  0  0  0
  -19.0760   29.6825    2.7240 H   0  0  0  0  0
  -19.6714   31.7959    5.3301 H   0  0  0  0  0
  -21.1519   30.8289    5.4061 H   0  0  0  0  0
  -22.4735   32.6927    4.4567 H   0  0  0  0  0
  -20.7274   33.5715    2.9122 H   0  0  0  0  0
  -19.8141   34.1753    4.2521 H   0  0  0  0  0
  -22.7576   34.8683    3.7097 H   0  0  0  0  0
  -21.3626   35.9395    3.3487 H   0  0  0  0  0
  -22.3699   36.5486    5.3908 H   0  0  0  0  0
  -20.8612   35.9083    5.6989 H   0  0  0  0  0
  -23.4194   34.4698    5.9228 H   0  0  0  0  0
  -22.4496   35.1042    7.2872 H   0  0  0  0  0
  -20.5953   33.6277    6.6814 H   0  0  0  0  0
  -22.0717   32.6744    6.9112 H   0  0  0  0  0
  -20.1637   27.7943    3.1614 H   0  0  0  0  0
  -20.3515   25.7883    4.5538 H   0  0  0  0  0
  -23.6935   29.3889    5.0036 H   0  0  0  0  0
  -23.8678   27.3612    6.4303 H   0  0  0  0  0
  -24.8516   24.3286    5.3726 H   0  0  0  0  0
  -25.2520   21.8900    5.2315 H   0  0  0  0  0
  -23.9400   21.6313    4.2084 H   0  0  0  0  0
  -26.6041   22.9187    3.5305 H   0  0  0  0  0
  -25.6054   21.8914    2.5119 H   0  0  0  0  0
  -25.7436   24.7174    2.4546 H   0  0  0  0  0
  -24.6124   23.6988    1.5734 H   0  0  0  0  0
  -22.8897   24.1766    3.0426 H   0  0  0  0  0
  -23.8442   25.5072    3.5274 H   0  0  0  0  0
  -20.9673   23.0977    5.0215 H   0  0  0  0  0
  -22.2288   22.2602    4.1267 H   0  0  0  0  0
  -20.7483   20.2562    4.7036 H   0  0  0  0  0
  -20.6238   18.3979    6.3513 H   0  0  0  0  0
  -22.7860   20.7763    9.2066 H   0  0  0  0  0
  -22.9327   22.5969    7.5688 H   0  0  0  0  0
  1  2  1  0  0  0
  2  3  1  0  0  0
  3  4  4  0  0  0
  3  5  4  0  0  0
  4 11  4  0  0  0
  5  6  1  0  0  0
  5  9  4  0  0  0
  6  7  1  0  0  0
  6  8  2  0  0  0
  9 10  4  0  0  0
 10 11  4  0  0  0
 11 12  1  0  0  0
 12 13  1  0  0  0
 13 14  1  0  0  0
 13 21  1  0  0  0
 14 15  1  0  0  0
 15 16  1  0  0  0
 15 20  1  0  0  0
 16 17  1  0  0  0
 17 18  1  0  0  0
 18 19  1  0  0  0
 19 20  1  0  0  0
 21 22  2  0  0  0
 21 23  2  0  0  0
 21 24  1  0  0  0
 24 25  4  0  0  0
 24 27  4  0  0  0
 25 26  4  0  0  0
 26 29  4  0  0  0
 27 28  4  0  0  0
 28 29  4  0  0  0
 29 30  1  0  0  0
 30 31  2  0  0  0
 30 32  2  0  0  0
 30 33  1  0  0  0
 33 34  1  0  0  0
 33 39  1  0  0  0
 34 35  1  0  0  0
 34 38  1  0  0  0
 35 36  1  0  0  0
 36 37  1  0  0  0
 37 38  1  0  0  0
 39 40  1  0  0  0
 40 41  4  0  0  0
 40 46  4  0  0  0
 41 42  4  0  0  0
 42 43  4  0  0  0
 43 44  1  0  0  0
 43 45  4  0  0  0
 45 46  4  0  0  0
  1 47  1  0  0  0
  1 48  1  0  0  0
  1 49  1  0  0  0
  2 50  1  0  0  0
  4 51  1  0  0  0
  7 52  1  0  0  0
  9 53  1  0  0  0
 10 54  1  0  0  0
 12 55  1  0  0  0
 12 56  1  0  0  0
 14 57  1  0  0  0
 14 58  1  0  0  0
 15 59  1  0  0  0
 16 60  1  0  0  0
 16 61  1  0  0  0
 17 62  1  0  0  0
 17 63  1  0  0  0
 18 64  1  0  0  0
 18 65  1  0  0  0
 19 66  1  0  0  0
 19 67  1  0  0  0
 20 68  1  0  0  0
 20 69  1  0  0  0
 25 70  1  0  0  0
 26 71  1  0  0  0
 27 72  1  0  0  0
 28 73  1  0  0  0
 34 74  1  0  0  0
 35 75  1  0  0  0
 35 76  1  0  0  0
 36 77  1  0  0  0
 36 78  1  0  0  0
 37 79  1  0  0  0
 37 80  1  0  0  0
 38 81  1  0  0  0
 38 82  1  0  0  0
 39 83  1  0  0  0
 39 84  1  0  0  0
 41 85  1  0  0  0
 42 86  1  0  0  0
 45 87  1  0  0  0
 46 88  1  0  0  0
M  END
$$$$
