4bcg_ligand
  -I-interpret- 

 55 58  0  0  0  0  0  0  0  0999 V2000
   50.5740  -19.8360  -10.6280 C   0  0  0  0  0
   50.2220  -19.3400  -11.9470 N   0  0  0  0  0
   50.9370  -18.1970  -12.4380 C   0  0  0  0  0
   50.6050  -17.3500  -13.4110 N   0  0  0  0  0
   51.4730  -16.3520  -13.6650 C   0  0  0  0  0
   51.1060  -15.3640  -14.7890 C   0  0  0  0  0
   52.6460  -16.2920  -12.8720 C   0  0  0  0  0
   53.7300  -15.4270  -12.8460 C   0  0  0  0  0
   54.9980  -15.9560  -12.8120 N   0  0  0  0  0
   56.0730  -15.1420  -12.7820 C   0  0  0  0  0
   57.4290  -15.6860  -12.7670 N   0  0  0  0  0
   57.7630  -17.0210  -12.3980 C   0  0  0  0  0
   59.1270  -17.2020  -11.9920 C   0  0  0  0  0
   59.5820  -18.4540  -11.6090 C   0  0  0  0  0
   58.6980  -19.5510  -11.6230 C   0  0  0  0  0
   57.3610  -19.4050  -12.0260 C   0  0  0  0  0
   56.5160  -20.6180  -12.0290 N   0  0  0  0  0
   56.9880  -21.9900  -12.0520 C   0  0  0  0  0
   56.9440  -22.7590  -10.7640 C   0  0  0  0  0
   55.5460  -23.1440  -10.3380 C   0  0  0  0  0
   54.5080  -22.6970  -11.2350 N   0  3  0  0  0
   54.2330  -21.2740  -11.3360 C   0  0  0  0  0
   55.4270  -20.3730  -11.1320 C   0  0  0  0  0
   56.8840  -18.1220  -12.4280 C   0  0  0  0  0
   55.9440  -13.7770  -12.7810 N   0  0  0  0  0
   54.6940  -13.2090  -12.8090 C   0  0  0  0  0
   53.5630  -14.0160  -12.8320 C   0  0  0  0  0
   52.2110  -13.4080  -12.8240 C   0  0  0  0  0
   51.1650  -12.9450  -12.8190 N   0  0  0  0  0
   52.4700  -17.6320  -11.8770 S   0  0  0  0  0
   51.6244  -20.1269  -10.6190 H   0  0  0  0  0
   50.4065  -19.0518   -9.8897 H   0  0  0  0  0
   49.9543  -20.7002  -10.3889 H   0  0  0  0  0
   49.4937  -19.7875  -12.5035 H   0  0  0  0  0
   51.0041  -15.9065  -15.7289 H   0  0  0  0  0
   50.1630  -14.8740  -14.5467 H   0  0  0  0  0
   51.8922  -14.6150  -14.8837 H   0  0  0  0  0
   58.1911  -15.0656  -13.0403 H   0  0  0  0  0
   59.8085  -16.3513  -11.9847 H   0  0  0  0  0
   60.6181  -18.5891  -11.2987 H   0  0  0  0  0
   59.0591  -20.5322  -11.3149 H   0  0  0  0  0
   58.0419  -21.9334  -12.3242 H   0  0  0  0  0
   56.3206  -22.5187  -12.7325 H   0  0  0  0  0
   57.3584  -22.1180   -9.9858 H   0  0  0  0  0
   57.5060  -23.6809  -10.9139 H   0  0  0  0  0
   55.3626  -22.6703   -9.3736 H   0  0  0  0  0
   55.5053  -24.2330  -10.3175 H   0  0  0  0  0
   53.6486  -23.1064  -10.8687 H   0  0  0  0  0
   54.8267  -22.9707  -12.1645 H   0  0  0  0  0
   53.5220  -21.0356  -10.5450 H   0  0  0  0  0
   53.8756  -21.0954  -12.3501 H   0  0  0  0  0
   55.0902  -19.3518  -11.3106 H   0  0  0  0  0
   55.7969  -20.5571  -10.1234 H   0  0  0  0  0
   55.8518  -17.9949  -12.7545 H   0  0  0  0  0
   54.5889  -12.1241  -12.8132 H   0  0  0  0  0
  1  2  1  0  0  0
  2  3  1  0  0  0
  3  4  4  0  0  0
  3 30  4  0  0  0
  4  5  4  0  0  0
  5  6  1  0  0  0
  5  7  4  0  0  0
  7  8  1  0  0  0
  7 30  4  0  0  0
  8  9  4  0  0  0
  8 27  4  0  0  0
  9 10  4  0  0  0
 10 11  1  0  0  0
 10 25  4  0  0  0
 11 12  1  0  0  0
 12 13  4  0  0  0
 12 24  4  0  0  0
 13 14  4  0  0  0
 14 15  4  0  0  0
 15 16  4  0  0  0
 16 17  1  0  0  0
 16 24  4  0  0  0
 17 18  1  0  0  0
 17 23  1  0  0  0
 18 19  1  0  0  0
 19 20  1  0  0  0
 20 21  1  0  0  0
 21 22  1  0  0  0
 22 23  1  0  0  0
 25 26  4  0  0  0
 26 27  4  0  0  0
 27 28  1  0  0  0
 28 29  3  0  0  0
  1 31  1  0  0  0
  1 32  1  0  0  0
  1 33  1  0  0  0
  2 34  1  0  0  0
  6 35  1  0  0  0
  6 36  1  0  0  0
  6 37  1  0  0  0
 11 38  1  0  0  0
 13 39  1  0  0  0
 14 40  1  0  0  0
 15 41  1  0  0  0
 18 42  1  0  0  0
 18 43  1  0  0  0
 19 44  1  0  0  0
 19 45  1  0  0  0
 20 46  1  0  0  0
 20 47  1  0  0  0
 21 48  1  0  0  0
 21 49  1  0  0  0
 22 50  1  0  0  0
 22 51  1  0  0  0
 23 52  1  0  0  0
 23 53  1  0  0  0
 24 54  1  0  0  0
 26 55  1  0  0  0
M  END
$$$$
