4re9_ligand
  -I-interpret- 

 55 58  0  0  0  0  0  0  0  0999 V2000
   82.3730  141.0100   63.9820 C   0  0  0  0  0
   82.3120  141.8040   62.7880 N   0  0  0  0  0
   83.1360  142.8870   62.4700 C   0  0  0  0  0
   82.6830  143.3490   61.1900 C   0  0  0  0  0
   81.6420  142.5290   60.8440 N   0  0  0  0  0
   81.4510  141.6360   61.8100 N   0  0  0  0  0
   84.2820  143.4880   63.2680 C   0  0  0  0  0
   84.2320  144.9280   63.0770 N   0  0  0  0  0
   85.3170  145.8880   63.2620 C   0  0  0  0  0
   86.7620  145.5510   63.7140 C   0  0  0  0  0
   85.0640  147.0710   63.0510 O   0  0  0  0  0
   87.7900  146.4700   63.3640 C   0  0  0  0  0
   89.1270  146.2370   63.7430 C   0  0  0  0  0
   89.4340  145.1110   64.4720 C   0  0  0  0  0
   88.4200  144.1870   64.8340 C   0  0  0  0  0
   87.0720  144.4200   64.4490 C   0  0  0  0  0
   90.7180  144.9000   64.8400 F   0  0  0  0  0
   83.2990  139.7750   63.8920 C   0  0  0  0  0
   84.5400  139.8460   64.8050 C   0  0  0  0  0
   85.2120  138.6680   65.1620 C   0  0  0  0  0
   86.3780  138.7110   66.0050 C   0  0  0  0  0
   86.8450  139.9460   66.4720 C   0  0  0  0  0
   86.1640  141.1470   66.1090 C   0  0  0  0  0
   85.0170  141.1010   65.2820 C   0  0  0  0  0
   87.0610  137.5090   66.3680 C   0  0  0  0  0
   88.2110  137.5560   67.2030 C   0  0  0  0  0
   88.6860  138.8040   67.6780 C   0  0  0  0  0
   88.0160  139.9900   67.3210 C   0  0  0  0  0
   81.0200  140.6940   64.5590 C   0  0  0  0  0
   80.2650  139.4340   64.1240 C   0  0  0  0  0
   78.8780  139.2880   64.4590 N   0  0  0  0  0
   80.7980  138.5230   63.4970 O   0  0  0  0  0
   78.2070  138.1580   64.0650 O   0  0  0  0  0
   82.8631  141.6610   64.7060 H   0  0  0  0  0
   83.0845  144.1812   60.6118 H   0  0  0  0  0
   85.2373  143.0891   62.9268 H   0  0  0  0  0
   84.1859  143.2379   64.3246 H   0  0  0  0  0
   83.3354  145.3126   62.7793 H   0  0  0  0  0
   87.5402  147.3658   62.7954 H   0  0  0  0  0
   89.9099  146.9413   63.4617 H   0  0  0  0  0
   88.6754  143.2966   65.4086 H   0  0  0  0  0
   86.2898  143.7148   64.7299 H   0  0  0  0  0
   83.6589  139.7176   62.8647 H   0  0  0  0  0
   82.7148  138.9117   64.2106 H   0  0  0  0  0
   84.8469  137.7081   64.7967 H   0  0  0  0  0
   86.5307  142.1072   66.4719 H   0  0  0  0  0
   84.5004  142.0217   65.0109 H   0  0  0  0  0
   86.6975  136.5488   66.0019 H   0  0  0  0  0
   88.7257  136.6350   67.4769 H   0  0  0  0  0
   89.5675  138.8456   68.3179 H   0  0  0  0  0
   88.3824  140.9490   67.6872 H   0  0  0  0  0
   80.3867  141.5156   64.2244 H   0  0  0  0  0
   81.2102  140.5399   65.6212 H   0  0  0  0  0
   78.3955  140.0168   64.9848 H   0  0  0  0  0
   77.2955  138.2085   64.3620 H   0  0  0  0  0
  1  2  1  0  0  0
  1 18  1  0  0  0
  1 29  1  0  0  0
  2  3  4  0  0  0
  2  6  4  0  0  0
  3  4  4  0  0  0
  3  7  1  0  0  0
  4  5  4  0  0  0
  5  6  4  0  0  0
  7  8  1  0  0  0
  8  9  1  0  0  0
  9 10  1  0  0  0
  9 11  2  0  0  0
 10 12  4  0  0  0
 10 16  4  0  0  0
 12 13  4  0  0  0
 13 14  4  0  0  0
 14 15  4  0  0  0
 14 17  1  0  0  0
 15 16  4  0  0  0
 18 19  1  0  0  0
 19 20  4  0  0  0
 19 24  4  0  0  0
 20 21  4  0  0  0
 21 22  4  0  0  0
 21 25  4  0  0  0
 22 23  4  0  0  0
 22 28  4  0  0  0
 23 24  4  0  0  0
 25 26  4  0  0  0
 26 27  4  0  0  0
 27 28  4  0  0  0
 29 30  1  0  0  0
 30 31  1  0  0  0
 30 32  2  0  0  0
 31 33  1  0  0  0
  1 34  1  0  0  0
  4 35  1  0  0  0
  7 36  1  0  0  0
  7 37  1  0  0  0
  8 38  1  0  0  0
 12 39  1  0  0  0
 13 40  1  0  0  0
 15 41  1  0  0  0
 16 42  1  0  0  0
 18 43  1  0  0  0
 18 44  1  0  0  0
 20 45  1  0  0  0
 23 46  1  0  0  0
 24 47  1  0  0  0
 25 48  1  0  0  0
 26 49  1  0  0  0
 27 50  1  0  0  0
 28 51  1  0  0  0
 29 52  1  0  0  0
 29 53  1  0  0  0
 31 54  1  0  0  0
 33 55  1  0  0  0
M  END
$$$$
