6q6f_ligand
  -I-interpret- 

 53 55  0  0  0  0  0  0  0  0999 V2000
   59.4780   19.1570  -12.4130 C   0  0  0  0  0
   60.3370   17.9580  -12.7720 C   0  0  0  0  0
   59.4010   16.7160  -12.7400 C   0  0  0  0  0
   57.9920   17.2580  -12.4050 C   0  0  0  0  0
   57.4240   19.2260  -13.8060 C   0  0  0  0  0
   56.1780   20.1380  -13.5160 C   0  0  0  0  0
   54.7970   19.3040  -13.5750 C   0  0  0  0  0
   54.9510   17.8710  -14.1450 C   0  0  0  0  0
   53.8870   15.8290  -14.5780 C   0  0  0  0  0
   52.5620   17.8910  -14.9150 C   0  0  0  0  0
   52.3490   19.2850  -14.3000 C   0  0  0  0  0
   53.9470   20.7400  -15.4460 C   0  0  0  0  0
   59.4560   15.7820  -13.9610 C   0  0  0  0  0
   60.6710   15.2240  -14.3460 C   0  0  0  0  0
   60.7790   14.3770  -15.4310 C   0  0  0  0  0
   59.6390   14.0560  -16.1640 C   0  0  0  0  0
   58.3810   14.5950  -15.8090 C   0  0  0  0  0
   58.2930   15.4550  -14.7100 C   0  0  0  0  0
   59.7580   13.2370  -17.2130 F   0  0  0  0  0
   58.0530   18.7510  -12.5290 N   0  3  0  0  0
   53.6340   17.1700  -14.1250 N   0  3  0  0  0
   53.6210   20.0950  -14.2200 N   0  3  0  0  0
   59.6894   19.9874  -13.0867 H   0  0  0  0  0
   59.6949   19.4853  -11.3965 H   0  0  0  0  0
   61.1603   17.8436  -12.0669 H   0  0  0  0  0
   60.7864   18.0818  -13.7573 H   0  0  0  0  0
   59.7512   16.0228  -11.9752 H   0  0  0  0  0
   57.6977   16.9674  -11.3965 H   0  0  0  0  0
   57.2488   16.8453  -13.0872 H   0  0  0  0  0
   58.1596   19.8064  -14.3629 H   0  0  0  0  0
   57.0960   18.3579  -14.3778 H   0  0  0  0  0
   56.1399   20.9177  -14.2768 H   0  0  0  0  0
   56.2841   20.5542  -12.5142 H   0  0  0  0  0
   54.5174   19.1639  -12.5308 H   0  0  0  0  0
   55.6621   17.3160  -13.5331 H   0  0  0  0  0
   55.3103   17.9303  -15.1724 H   0  0  0  0  0
   54.3006   15.8593  -15.5860 H   0  0  0  0  0
   54.5982   15.3481  -13.9064 H   0  0  0  0  0
   52.9533   15.2666  -14.5837 H   0  0  0  0  0
   52.8718   17.9889  -15.9555 H   0  0  0  0  0
   51.6315   17.3244  -14.8789 H   0  0  0  0  0
   51.9788   19.1468  -13.2842 H   0  0  0  0  0
   51.6502   19.8262  -14.9379 H   0  0  0  0  0
   54.7544   21.4524  -15.2768 H   0  0  0  0  0
   54.2656   19.9940  -16.1740 H   0  0  0  0  0
   53.0698   21.2659  -15.8229 H   0  0  0  0  0
   61.5665   15.4633  -13.7725 H   0  0  0  0  0
   61.7477   13.9633  -15.7114 H   0  0  0  0  0
   57.4906   14.3432  -16.3851 H   0  0  0  0  0
   57.3286   15.8764  -14.4265 H   0  0  0  0  0
   57.5136   19.1900  -11.7828 H   0  0  0  0  0
   53.2451   17.1552  -13.1822 H   0  0  0  0  0
   53.4370   20.8609  -13.5719 H   0  0  0  0  0
  1  2  1  0  0  0
 20  1  1  0  0  0
  3  2  1  0  0  0
  4  3  1  0  0  0
  3 13  1  0  0  0
 20  4  1  0  0  0
  6  5  1  0  0  0
  5 20  1  0  0  0
  7  6  1  0  0  0
  8  7  1  0  0  0
  7 22  1  0  0  0
 21  8  1  0  0  0
 21  9  1  0  0  0
 10 11  1  0  0  0
 10 21  1  0  0  0
 11 22  1  0  0  0
 22 12  1  0  0  0
 13 14  4  0  0  0
 13 18  4  0  0  0
 14 15  4  0  0  0
 15 16  4  0  0  0
 16 17  4  0  0  0
 16 19  1  0  0  0
 17 18  4  0  0  0
  1 23  1  0  0  0
  1 24  1  0  0  0
  2 25  1  0  0  0
  2 26  1  0  0  0
  3 27  1  0  0  0
  4 28  1  0  0  0
  4 29  1  0  0  0
  5 30  1  0  0  0
  5 31  1  0  0  0
  6 32  1  0  0  0
  6 33  1  0  0  0
  7 34  1  0  0  0
  8 35  1  0  0  0
  8 36  1  0  0  0
  9 37  1  0  0  0
  9 38  1  0  0  0
  9 39  1  0  0  0
 10 40  1  0  0  0
 10 41  1  0  0  0
 11 42  1  0  0  0
 11 43  1  0  0  0
 12 44  1  0  0  0
 12 45  1  0  0  0
 12 46  1  0  0  0
 14 47  1  0  0  0
 15 48  1  0  0  0
 17 49  1  0  0  0
 18 50  1  0  0  0
 20 51  1  0  0  0
 21 52  1  0  0  0
 22 53  1  0  0  0
M  END
$$$$
