5kqg_ligand
  -I-interpret- 

 35 37  0  0  0  0  0  0  0  0999 V2000
   -2.3320    7.1350   -2.2690 O   0  0  0  0  0
   -2.4050    8.5850   -2.0960 S   0  0  0  0  0
   -3.6400    9.1580   -2.6030 O   0  0  0  0  0
   -1.2770    9.2960   -2.6680 O   0  0  0  0  0
   -2.4640    8.8060   -0.3470 C   0  0  0  0  0
   -2.7030   10.2260    0.0200 C   0  0  0  0  0
   -2.2920   11.2210   -0.5750 O   0  0  0  0  0
   -3.4830   10.3360    1.1790 N   0  0  0  0  0
   -3.6800   11.5690    1.8020 C   0  0  0  0  0
   -4.1580   11.5430    3.0890 N   0  0  0  0  0
   -4.1760   12.8880    3.5950 C   0  0  0  0  0
   -4.6540   13.1820    4.8960 C   0  0  0  0  0
   -4.6690   14.5030    5.3050 C   0  0  0  0  0
   -4.2330   15.4990    4.4300 C   0  0  0  0  0
   -3.7590   15.1920    3.1490 C   0  0  0  0  0
   -3.7310   13.8620    2.7150 C   0  0  0  0  0
   -3.2570   13.1110    1.2740 S   0  0  0  0  0
   -1.1970    8.3990    0.3880 C   0  0  0  0  0
   -1.0740    7.1290    0.9400 C   0  0  0  0  0
    0.0790    6.7440    1.6220 C   0  0  0  0  0
    1.1220    7.6540    1.7800 C   0  0  0  0  0
    1.0040    8.9370    1.2460 C   0  0  0  0  0
   -0.1480    9.3080    0.5590 C   0  0  0  0  0
   -1.4985    6.8135   -1.9175 H   0  0  0  0  0
   -3.2829    8.1535   -0.0441 H   0  0  0  0  0
   -3.9142    9.5003    1.5741 H   0  0  0  0  0
   -5.0008   12.3878    5.5572 H   0  0  0  0  0
   -5.0189   14.7644    6.3037 H   0  0  0  0  0
   -4.2622   16.5401    4.7515 H   0  0  0  0  0
   -3.4121   15.9882    2.4903 H   0  0  0  0  0
   -1.8957    6.4202    0.8374 H   0  0  0  0  0
    0.1642    5.7366    2.0294 H   0  0  0  0  0
    2.0250    7.3650    2.3178 H   0  0  0  0  0
    1.8176    9.6522    1.3673 H   0  0  0  0  0
   -0.2334   10.3151    0.1509 H   0  0  0  0  0
  1  2  1  0  0  0
  2  3  2  0  0  0
  2  4  2  0  0  0
  2  5  1  0  0  0
  5  6  1  0  0  0
  5 18  1  0  0  0
  6  7  2  0  0  0
  6  8  1  0  0  0
  8  9  1  0  0  0
  9 10  4  0  0  0
  9 17  4  0  0  0
 10 11  4  0  0  0
 11 12  4  0  0  0
 11 16  4  0  0  0
 12 13  4  0  0  0
 13 14  4  0  0  0
 14 15  4  0  0  0
 15 16  4  0  0  0
 16 17  4  0  0  0
 18 19  4  0  0  0
 18 23  4  0  0  0
 19 20  4  0  0  0
 20 21  4  0  0  0
 21 22  4  0  0  0
 22 23  4  0  0  0
  1 24  1  0  0  0
  5 25  1  0  0  0
  8 26  1  0  0  0
 12 27  1  0  0  0
 13 28  1  0  0  0
 14 29  1  0  0  0
 15 30  1  0  0  0
 19 31  1  0  0  0
 20 32  1  0  0  0
 21 33  1  0  0  0
 22 34  1  0  0  0
 23 35  1  0  0  0
M  END
$$$$
