5z1r_ligand
  -I-interpret- 

 43 45  0  0  0  0  0  0  0  0999 V2000
   10.7690  -11.6390   -6.3900 C   0  0  0  0  0
   10.3040  -10.8780   -5.2430 O   0  0  0  0  0
    9.9940   -9.5680   -5.4230 C   0  0  0  0  0
   10.1940   -8.8450   -6.6330 C   0  0  0  0  0
    9.7950   -7.5150   -6.6540 C   0  0  0  0  0
    9.2540   -6.9210   -5.5290 C   0  0  0  0  0
    8.7910   -5.1230   -5.6190 Br  0  0  0  0  0
    9.0480   -7.5980   -4.3710 C   0  0  0  0  0
    9.3790   -8.9420   -4.3180 C   0  0  0  0  0
    9.1070   -9.8350   -2.8340 S   0  0  0  0  0
    8.4740   -8.8970   -1.8760 O   0  0  0  0  0
    8.4210  -11.1560   -3.0660 O   0  0  0  0  0
   10.6650  -10.2270   -2.3250 N   0  0  0  0  0
   11.5900   -9.2880   -2.0650 C   0  0  0  0  0
   11.3460   -8.2280   -1.2060 C   0  0  0  0  0
   12.3440   -7.2920   -0.9310 C   0  0  0  0  0
   12.1340   -6.2070   -0.1140 O   0  0  0  0  0
   13.1100   -5.8910    0.8660 C   0  0  0  0  0
   12.8630   -4.6200    1.4750 C   0  0  0  0  0
   13.4710   -7.1200    1.6780 C   0  0  0  0  0
   14.3570   -5.7020    0.0420 C   0  0  0  0  0
   15.3260   -4.9070    0.2670 O   0  0  0  0  0
   14.5620   -6.4480   -1.1120 N   0  0  0  0  0
   13.5990   -7.4130   -1.4960 C   0  0  0  0  0
   13.8780   -8.5090   -2.3300 C   0  0  0  0  0
   12.8620   -9.4420   -2.6260 C   0  0  0  0  0
   10.0002  -11.6355   -7.1626 H   0  0  0  0  0
   11.6801  -11.1854   -6.7802 H   0  0  0  0  0
   10.9744  -12.6650   -6.0846 H   0  0  0  0  0
   10.6422   -9.3164   -7.5077 H   0  0  0  0  0
    9.9097   -6.9326   -7.5682 H   0  0  0  0  0
    8.6302   -7.0939   -3.4995 H   0  0  0  0  0
   10.9139  -11.2095   -2.2106 H   0  0  0  0  0
   10.3656   -8.1245   -0.7410 H   0  0  0  0  0
   12.8815   -3.8428    0.7110 H   0  0  0  0  0
   11.8858   -4.6336    1.9577 H   0  0  0  0  0
   13.6342   -4.4188    2.2186 H   0  0  0  0  0
   12.5792   -7.4989    2.1772 H   0  0  0  0  0
   13.8716   -7.8870    1.0152 H   0  0  0  0  0
   14.2208   -6.8542    2.4232 H   0  0  0  0  0
   15.3983   -6.3021   -1.6775 H   0  0  0  0  0
   14.8767   -8.6380   -2.7471 H   0  0  0  0  0
   13.0679  -10.2811   -3.2905 H   0  0  0  0  0
  1  2  1  0  0  0
  2  3  1  0  0  0
  3  4  4  0  0  0
  3  9  4  0  0  0
  4  5  4  0  0  0
  5  6  4  0  0  0
  6  7  1  0  0  0
  6  8  4  0  0  0
  8  9  4  0  0  0
  9 10  1  0  0  0
 10 11  2  0  0  0
 10 12  2  0  0  0
 10 13  1  0  0  0
 13 14  1  0  0  0
 14 15  4  0  0  0
 14 26  4  0  0  0
 15 16  4  0  0  0
 16 17  1  0  0  0
 16 24  4  0  0  0
 17 18  1  0  0  0
 18 19  1  0  0  0
 18 20  1  0  0  0
 18 21  1  0  0  0
 21 22  2  0  0  0
 21 23  1  0  0  0
 23 24  1  0  0  0
 24 25  4  0  0  0
 25 26  4  0  0  0
  1 27  1  0  0  0
  1 28  1  0  0  0
  1 29  1  0  0  0
  4 30  1  0  0  0
  5 31  1  0  0  0
  8 32  1  0  0  0
 13 33  1  0  0  0
 15 34  1  0  0  0
 19 35  1  0  0  0
 19 36  1  0  0  0
 19 37  1  0  0  0
 20 38  1  0  0  0
 20 39  1  0  0  0
 20 40  1  0  0  0
 23 41  1  0  0  0
 25 42  1  0  0  0
 26 43  1  0  0  0
M  END
$$$$
