### 
### Created by X-TOOL on Mon Sep 10 21:13:03 2018
### 

@<TRIPOS>MOLECULE
2xck_ligand
   70    75     1     0     0
SMALL
GAST_HUCK


@<TRIPOS>ATOM
      1 O23       -38.1290  -30.6020   26.9080 O.2       1 MH4        -0.3856
      2 C21       -38.2280  -29.4050   27.1670 C.2       1 MH4         0.2167
      3 N22       -39.3700  -28.7030   26.9690 N.am      1 MH4        -0.2728
      4 C32       -40.6930  -29.1300   26.5360 C.3       1 MH4         0.0693
      5 C33       -41.3740  -29.5660   27.8230 C.ar      1 MH4        -0.0083
      6 C38       -42.5320  -30.3370   27.7970 C.ar      1 MH4        -0.0379
      7 C37       -43.1170  -30.7150   29.0090 C.ar      1 MH4        -0.0052
      8 N36       -42.5700  -30.3250   30.1980 N.ar      1 MH4        -0.3082
      9 C35       -41.4590  -29.5490   30.2640 C.ar      1 MH4         0.0167
     10 C39       -40.8880  -29.1500   31.6010 C.3       1 MH4        -0.0174
     11 C34       -40.8370  -29.1690   29.0780 C.ar      1 MH4        -0.0302
     12 C20       -37.0870  -28.5800   27.6950 C.2       1 MH4         0.1362
     13 C16       -35.7200  -28.7870   27.5740 C.ar      1 MH4         0.0316
     14 C8        -34.8940  -29.8820   26.8970 C.ar      1 MH4        -0.0608
     15 N19       -37.2710  -27.4410   28.3800 N.2       1 MH4        -0.1711
     16 N18       -36.0340  -26.9220   28.7080 N.pl3     1 MH4        -0.1883
     17 C24       -36.0760  -25.6660   29.5050 C.3       1 MH4         0.0611
     18 C17       -35.0870  -27.7430   28.2540 C.ar      1 MH4         0.1222
     19 C10       -33.6940  -27.6290   28.2710 C.ar      1 MH4         0.0775
     20 N15       -33.1070  -26.4450   28.5090 N.ar      1 MH4        -0.2604
     21 C14       -31.7780  -26.2990   28.4610 C.ar      1 MH4         0.2039
     22 N13       -31.0320  -27.3700   28.1340 N.ar      1 MH4        -0.2452
     23 C12       -31.5570  -28.5730   27.8720 C.ar      1 MH4         0.0265
     24 C11       -32.9240  -28.7350   27.9140 C.ar      1 MH4         0.0149
     25 C9        -33.5610  -30.0630   27.6350 C.ar      1 MH4        -0.0572
     26 N1        -31.1700  -25.0980   28.6880 N.pl3     1 MH4        -0.2497
     27 C2        -31.7370  -23.9630   29.1600 C.ar      1 MH4         0.0531
     28 C7        -30.9820  -23.1080   29.9770 C.ar      1 MH4        -0.0488
     29 C6        -31.5630  -21.9350   30.4970 C.ar      1 MH4        -0.0528
     30 C5        -32.9000  -21.6240   30.1760 C.ar      1 MH4         0.0293
     31 C4        -33.6220  -22.4810   29.3300 C.ar      1 MH4        -0.0528
     32 C3        -33.0440  -23.6390   28.8340 C.ar      1 MH4        -0.0488
     33 N25       -33.5280  -20.4200   30.6370 N.pl3     1 MH4        -0.3185
     34 C30       -32.8120  -19.5420   31.5750 C.3       1 MH4         0.0061
     35 C29       -33.8140  -19.2750   32.6880 C.3       1 MH4        -0.0936
     36 N28       -34.8090  -18.4430   31.9780 N.4       1 MH4         0.4033
     37 C31       -35.5470  -17.4640   32.8430 C.3       1 MH4        -0.1255
     38 C27       -35.6830  -19.3640   31.2100 C.3       1 MH4        -0.0936
     39 C26       -34.8630  -20.0730   30.1220 C.3       1 MH4         0.0061
     40 H         -39.2889  -27.7035   27.1553 H         1 MH4         0.1874
     41 H         -40.6492  -29.9312   25.7982 H         1 MH4         0.0708
     42 H         -41.2388  -28.3358   26.0267 H         1 MH4         0.0708
     43 H         -42.9750  -30.6408   26.8486 H         1 MH4         0.0595
     44 H         -44.0188  -31.3272   29.0050 H         1 MH4         0.0780
     45 H         -39.8810  -29.5553   31.7002 H         1 MH4         0.0418
     46 H         -40.8518  -28.0627   31.6693 H         1 MH4         0.0418
     47 H         -41.5198  -29.5445   32.3968 H         1 MH4         0.0418
     48 H         -39.9318  -28.5627   29.1118 H         1 MH4         0.0586
     49 H         -35.2061  -30.4496   26.0203 H         1 MH4         0.0589
     50 H         -36.6009  -24.8959   28.9397 H         1 MH4         0.0596
     51 H         -36.5993  -25.8499   30.4433 H         1 MH4         0.0596
     52 H         -35.0585  -25.3354   29.7137 H         1 MH4         0.0596
     53 H         -30.9096  -29.4153   27.6280 H         1 MH4         0.0961
     54 H         -33.1353  -31.0258   27.9178 H         1 MH4         0.0557
     55 H         -30.1731  -25.0503   28.4776 H         1 MH4         0.2146
     56 H         -29.9453  -23.3516   30.2094 H         1 MH4         0.0507
     57 H         -30.9841  -21.2737   31.1418 H         1 MH4         0.0490
     58 H         -34.6485  -22.2328   29.0603 H         1 MH4         0.0490
     59 H         -33.6204  -24.2978   28.1845 H         1 MH4         0.0507
     60 H         -32.4769  -18.6212   31.0976 H         1 MH4         0.0489
     61 H         -31.8985  -20.0035   31.9500 H         1 MH4         0.0489
     62 H         -33.3813  -18.7932   33.5648 H         1 MH4         0.0036
     63 H         -34.2312  -20.1788   33.1321 H         1 MH4         0.0036
     64 H         -36.0872  -18.0036   33.6209 H         1 MH4        -0.0019
     65 H         -34.8351  -16.7782   33.3022 H         1 MH4        -0.0019
     66 H         -36.2530  -16.9015   32.2321 H         1 MH4        -0.0019
     67 H         -36.4853  -18.7933   30.7422 H         1 MH4         0.0036
     68 H         -36.1047  -20.1080   31.8858 H         1 MH4         0.0036
     69 H         -35.3790  -20.9858   29.8241 H         1 MH4         0.0489
     70 H         -34.7534  -19.4065   29.2665 H         1 MH4         0.0489
@<TRIPOS>BOND
     1    1    2 2  
     2    2    3 am 
     3    2   12 1  
     4    3    4 1  
     5    4    5 1  
     6    5    6 ar 
     7    5   11 ar 
     8    6    7 ar 
     9    7    8 ar 
    10    8    9 ar 
    11    9   10 1  
    12    9   11 ar 
    13   12   13 1  
    14   12   15 2  
    15   13   14 ar 
    16   13   18 ar 
    17   14   25 ar 
    18   15   16 1  
    19   16   17 1  
    20   16   18 1  
    21   18   19 ar 
    22   19   20 ar 
    23   19   24 ar 
    24   20   21 ar 
    25   21   22 ar 
    26   21   26 1  
    27   22   23 ar 
    28   23   24 ar 
    29   24   25 ar 
    30   26   27 1  
    31   27   28 ar 
    32   27   32 ar 
    33   28   29 ar 
    34   29   30 ar 
    35   30   31 ar 
    36   30   33 1  
    37   31   32 ar 
    38   33   34 1  
    39   33   39 1  
    40   34   35 1  
    41   35   36 1  
    42   36   37 1  
    43   36   38 1  
    44   38   39 1  
    45    3   40 1  
    46    4   41 1  
    47    4   42 1  
    48    6   43 1  
    49    7   44 1  
    50   10   45 1  
    51   10   46 1  
    52   10   47 1  
    53   11   48 1  
    54   14   49 1  
    55   17   50 1  
    56   17   51 1  
    57   17   52 1  
    58   23   53 1  
    59   25   54 1  
    60   26   55 1  
    61   28   56 1  
    62   29   57 1  
    63   31   58 1  
    64   32   59 1  
    65   34   60 1  
    66   34   61 1  
    67   35   62 1  
    68   35   63 1  
    69   37   64 1  
    70   37   65 1  
    71   37   66 1  
    72   38   67 1  
    73   38   68 1  
    74   39   69 1  
    75   39   70 1  
@<TRIPOS>SUBSTRUCTURE
     1 MH4         1

