2xck_ligand
  -I-interpret- 

 71 76  0  0  0  0  0  0  0  0999 V2000
  -38.1290  -30.6020   26.9080 O   0  0  0  0  0
  -38.2280  -29.4050   27.1670 C   0  0  0  0  0
  -39.3700  -28.7030   26.9690 N   0  0  0  0  0
  -40.6930  -29.1300   26.5360 C   0  0  0  0  0
  -41.3740  -29.5660   27.8230 C   0  0  0  0  0
  -42.5320  -30.3370   27.7970 C   0  0  0  0  0
  -43.1170  -30.7150   29.0090 C   0  0  0  0  0
  -42.5700  -30.3250   30.1980 N   0  0  0  0  0
  -41.4590  -29.5490   30.2640 C   0  0  0  0  0
  -40.8880  -29.1500   31.6010 C   0  0  0  0  0
  -40.8370  -29.1690   29.0780 C   0  0  0  0  0
  -37.0870  -28.5800   27.6950 C   0  0  0  0  0
  -35.7200  -28.7870   27.5740 C   0  0  0  0  0
  -34.8940  -29.8820   26.8970 C   0  0  0  0  0
  -37.2710  -27.4410   28.3800 N   0  0  0  0  0
  -36.0340  -26.9220   28.7080 N   0  0  0  0  0
  -36.0760  -25.6660   29.5050 C   0  0  0  0  0
  -35.0870  -27.7430   28.2540 C   0  0  0  0  0
  -33.6940  -27.6290   28.2710 C   0  0  0  0  0
  -33.1070  -26.4450   28.5090 N   0  0  0  0  0
  -31.7780  -26.2990   28.4610 C   0  0  0  0  0
  -31.0320  -27.3700   28.1340 N   0  0  0  0  0
  -31.5570  -28.5730   27.8720 C   0  0  0  0  0
  -32.9240  -28.7350   27.9140 C   0  0  0  0  0
  -33.5610  -30.0630   27.6350 C   0  0  0  0  0
  -31.1700  -25.0980   28.6880 N   0  0  0  0  0
  -31.7370  -23.9630   29.1600 C   0  0  0  0  0
  -30.9820  -23.1080   29.9770 C   0  0  0  0  0
  -31.5630  -21.9350   30.4970 C   0  0  0  0  0
  -32.9000  -21.6240   30.1760 C   0  0  0  0  0
  -33.6220  -22.4810   29.3300 C   0  0  0  0  0
  -33.0440  -23.6390   28.8340 C   0  0  0  0  0
  -33.5280  -20.4200   30.6370 N   0  0  0  0  0
  -32.8120  -19.5420   31.5750 C   0  0  0  0  0
  -33.8140  -19.2750   32.6880 C   0  0  0  0  0
  -34.8090  -18.4430   31.9780 N   0  3  0  0  0
  -35.5470  -17.4640   32.8430 C   0  0  0  0  0
  -35.6830  -19.3640   31.2100 C   0  0  0  0  0
  -34.8630  -20.0730   30.1220 C   0  0  0  0  0
  -39.2889  -27.7035   27.1553 H   0  0  0  0  0
  -40.6492  -29.9312   25.7982 H   0  0  0  0  0
  -41.2388  -28.3358   26.0267 H   0  0  0  0  0
  -42.9750  -30.6408   26.8486 H   0  0  0  0  0
  -44.0188  -31.3272   29.0050 H   0  0  0  0  0
  -41.6345  -28.5853   32.1595 H   0  0  0  0  0
  -40.6148  -30.0452   32.1597 H   0  0  0  0  0
  -40.0033  -28.5321   31.4470 H   0  0  0  0  0
  -39.9318  -28.5627   29.1118 H   0  0  0  0  0
  -35.2061  -30.4496   26.0203 H   0  0  0  0  0
  -36.6009  -24.8959   28.9397 H   0  0  0  0  0
  -36.5993  -25.8499   30.4433 H   0  0  0  0  0
  -35.0585  -25.3354   29.7137 H   0  0  0  0  0
  -30.9096  -29.4153   27.6280 H   0  0  0  0  0
  -33.1353  -31.0258   27.9178 H   0  0  0  0  0
  -30.1731  -25.0503   28.4776 H   0  0  0  0  0
  -29.9453  -23.3516   30.2094 H   0  0  0  0  0
  -30.9841  -21.2737   31.1418 H   0  0  0  0  0
  -34.6485  -22.2328   29.0603 H   0  0  0  0  0
  -33.6204  -24.2978   28.1845 H   0  0  0  0  0
  -32.4769  -18.6212   31.0976 H   0  0  0  0  0
  -31.8985  -20.0035   31.9500 H   0  0  0  0  0
  -33.3813  -18.7932   33.5648 H   0  0  0  0  0
  -34.2312  -20.1788   33.1321 H   0  0  0  0  0
  -34.3249  -17.8131   31.3383 H   0  0  0  0  0
  -36.0872  -18.0036   33.6209 H   0  0  0  0  0
  -34.8351  -16.7782   33.3022 H   0  0  0  0  0
  -36.2530  -16.9015   32.2321 H   0  0  0  0  0
  -36.4853  -18.7933   30.7422 H   0  0  0  0  0
  -36.1047  -20.1080   31.8858 H   0  0  0  0  0
  -35.3790  -20.9858   29.8241 H   0  0  0  0  0
  -34.7534  -19.4065   29.2665 H   0  0  0  0  0
  1  2  2  0  0  0
  2  3  1  0  0  0
  2 12  1  0  0  0
  3  4  1  0  0  0
  4  5  1  0  0  0
  5  6  4  0  0  0
  5 11  4  0  0  0
  6  7  4  0  0  0
  7  8  4  0  0  0
  8  9  4  0  0  0
  9 10  1  0  0  0
  9 11  4  0  0  0
 12 13  4  0  0  0
 12 15  4  0  0  0
 13 14  4  0  0  0
 13 18  4  0  0  0
 14 25  4  0  0  0
 15 16  4  0  0  0
 16 17  1  0  0  0
 16 18  4  0  0  0
 18 19  4  0  0  0
 19 20  4  0  0  0
 19 24  4  0  0  0
 20 21  4  0  0  0
 21 22  4  0  0  0
 21 26  1  0  0  0
 22 23  4  0  0  0
 23 24  4  0  0  0
 24 25  4  0  0  0
 26 27  1  0  0  0
 27 28  4  0  0  0
 27 32  4  0  0  0
 28 29  4  0  0  0
 29 30  4  0  0  0
 30 31  4  0  0  0
 30 33  1  0  0  0
 31 32  4  0  0  0
 33 34  1  0  0  0
 33 39  1  0  0  0
 34 35  1  0  0  0
 35 36  1  0  0  0
 36 37  1  0  0  0
 36 38  1  0  0  0
 38 39  1  0  0  0
  3 40  1  0  0  0
  4 41  1  0  0  0
  4 42  1  0  0  0
  6 43  1  0  0  0
  7 44  1  0  0  0
 10 45  1  0  0  0
 10 46  1  0  0  0
 10 47  1  0  0  0
 11 48  1  0  0  0
 14 49  1  0  0  0
 17 50  1  0  0  0
 17 51  1  0  0  0
 17 52  1  0  0  0
 23 53  1  0  0  0
 25 54  1  0  0  0
 26 55  1  0  0  0
 28 56  1  0  0  0
 29 57  1  0  0  0
 31 58  1  0  0  0
 32 59  1  0  0  0
 34 60  1  0  0  0
 34 61  1  0  0  0
 35 62  1  0  0  0
 35 63  1  0  0  0
 36 64  1  0  0  0
 37 65  1  0  0  0
 37 66  1  0  0  0
 37 67  1  0  0  0
 38 68  1  0  0  0
 38 69  1  0  0  0
 39 70  1  0  0  0
 39 71  1  0  0  0
M  END
$$$$
