1dqx_ligand
  -I-interpret- 

 35 36  0  0  0  0  0  0  0  0999 V2000
   80.0490   64.3350   91.8040 P   0  0  0  0  0
   80.9250   65.1530   92.7730 O   0  0  0  0  0
   80.0860   62.8370   92.0660 O   0  0  0  0  0
   80.4560   64.5890   90.3250 O   0  0  0  0  0
   78.5760   64.8470   92.1690 O   0  0  0  0  0
   77.3980   64.5600   91.3820 C   0  0  0  0  0
   76.3050   65.6320   91.5710 C   0  0  0  0  0
   75.7520   65.6260   92.8890 O   0  0  0  0  0
   76.5440   67.0730   91.0870 C   0  0  0  0  0
   75.8260   67.3200   89.9260 O   0  0  0  0  0
   75.9240   67.8750   92.1710 C   0  0  0  0  0
   75.4550   69.1580   91.9150 O   0  0  0  0  0
   75.1580   66.9050   93.0770 C   0  0  0  0  0
   74.9960   67.2140   94.5290 N   0  0  0  0  0
   76.1070   67.1640   95.5290 C   0  0  0  0  0
   77.2840   66.8750   95.3030 O   0  0  0  0  0
   75.8970   67.4190   96.8840 N   0  0  0  0  0
   74.6130   67.6670   97.3720 C   0  0  0  0  0
   74.4740   67.6100   98.5820 O   0  0  0  0  0
   73.3680   67.7500   96.3480 C   0  0  0  0  0
   73.5920   67.5190   95.0030 C   0  0  0  0  0
   72.5210   67.5800   94.1770 O   0  0  0  0  0
   80.8572   66.0853   92.5544 H   0  0  0  0  0
   80.4366   65.5320   90.1464 H   0  0  0  0  0
   76.9955   63.6005   91.7066 H   0  0  0  0  0
   77.6846   64.5456   90.3304 H   0  0  0  0  0
   75.5834   65.2730   90.8372 H   0  0  0  0  0
   77.5946   67.2830   90.8866 H   0  0  0  0  0
   75.9859   68.2217   89.6379 H   0  0  0  0  0
   76.7046   68.3405   92.7727 H   0  0  0  0  0
   76.0673   69.6106   91.3303 H   0  0  0  0  0
   74.1188   66.9810   92.7571 H   0  0  0  0  0
   76.6902   67.4243   97.5252 H   0  0  0  0  0
   72.3672   67.9843   96.7107 H   0  0  0  0  0
   72.8024   67.4033   93.2764 H   0  0  0  0  0
  1  5  1  0  0  0
  1  4  1  0  0  0
  1  3  2  0  0  0
  1  2  1  0  0  0
  5  6  1  0  0  0
  6  7  1  0  0  0
  7  9  1  0  0  0
  7  8  1  0  0  0
  8 13  1  0  0  0
 13 14  1  0  0  0
 13 11  1  0  0  0
 11 12  1  0  0  0
 11  9  1  0  0  0
  9 10  1  0  0  0
 14 21  1  0  0  0
 14 15  1  0  0  0
 15 17  1  0  0  0
 15 16  2  0  0  0
 17 18  1  0  0  0
 18 20  1  0  0  0
 18 19  2  0  0  0
 20 21  2  0  0  0
 21 22  1  0  0  0
  2 23  1  0  0  0
  4 24  1  0  0  0
  6 25  1  0  0  0
  6 26  1  0  0  0
  7 27  1  0  0  0
  9 28  1  0  0  0
 10 29  1  0  0  0
 11 30  1  0  0  0
 12 31  1  0  0  0
 13 32  1  0  0  0
 17 33  1  0  0  0
 20 34  1  0  0  0
 22 35  1  0  0  0
M  END
$$$$
