### 
### Created by X-TOOL on Mon Sep 10 21:12:47 2018
### 

@<TRIPOS>MOLECULE
1dqx_ligand
   33    34     1     0     0
SMALL
GAST_HUCK


@<TRIPOS>ATOM
      1 P          80.0490   64.3350   91.8040 P.3       1 BMP         0.2008
      2 O1P        80.9250   65.1530   92.7730 O.co2     1 BMP        -0.5537
      3 O2P        80.0860   62.8370   92.0660 O.co2     1 BMP        -0.5537
      4 O3P        80.4560   64.5890   90.3250 O.co2     1 BMP        -0.5537
      5 O5'        78.5760   64.8470   92.1690 O.3       1 BMP        -0.2734
      6 C5'        77.3980   64.5600   91.3820 C.3       1 BMP         0.1071
      7 C4'        76.3050   65.6320   91.5710 C.3       1 BMP         0.1181
      8 O4'        75.7520   65.6260   92.8890 O.3       1 BMP        -0.3367
      9 C3'        76.5440   67.0730   91.0870 C.3       1 BMP         0.1148
     10 O3'        75.8260   67.3200   89.9260 O.3       1 BMP        -0.3864
     11 C2'        75.9240   67.8750   92.1710 C.3       1 BMP         0.1383
     12 O2'        75.4550   69.1580   91.9150 O.3       1 BMP        -0.3837
     13 C1'        75.1580   66.9050   93.0770 C.3       1 BMP         0.2082
     14 N1         74.9960   67.2140   94.5290 N.am      1 BMP        -0.1249
     15 C2         76.1070   67.1640   95.5290 C.2       1 BMP         0.3330
     16 O2         77.2840   66.8750   95.3030 O.2       1 BMP        -0.3821
     17 N3         75.8970   67.4190   96.8840 N.am      1 BMP        -0.1915
     18 C4         74.6130   67.6670   97.3720 C.2       1 BMP         0.1636
     19 O4         74.4740   67.6100   98.5820 O.2       1 BMP        -0.4266
     20 C5         73.3680   67.7500   96.3480 C.2       1 BMP         0.0219
     21 C6         73.5920   67.5190   95.0030 C.2       1 BMP         0.2117
     22 O1         72.5210   67.5800   94.1770 O.3       1 BMP        -0.2890
     23 H1         76.9950   63.5834   91.6881 H         1 BMP         0.0639
     24 H2         77.6803   64.5234   90.3195 H         1 BMP         0.0639
     25 H3         75.4920   65.2759   90.9212 H         1 BMP         0.0650
     26 H4         77.6126   67.2940   90.9487 H         1 BMP         0.0648
     27 H5         76.2002   66.8188   89.2109 H         1 BMP         0.2100
     28 H6         76.7939   68.1251   92.7961 H         1 BMP         0.0675
     29 H7         75.3835   69.6368   92.7325 H         1 BMP         0.2101
     30 H8         74.1342   66.8617   92.6772 H         1 BMP         0.0991
     31 H9         76.6747   67.4242   97.5127 H         1 BMP         0.2246
     32 H10        72.3681   67.9841   96.7103 H         1 BMP         0.0051
     33 H11        72.6630   68.2568   93.5257 H         1 BMP         0.2637
@<TRIPOS>BOND
     1    1    5 1  
     2    1    4 ar 
     3    1    3 ar 
     4    1    2 ar 
     5    5    6 1  
     6    6    7 1  
     7    7    9 1  
     8    7    8 1  
     9    8   13 1  
    10   13   14 am 
    11   13   11 1  
    12   11   12 1  
    13   11    9 1  
    14    9   10 1  
    15   14   21 1  
    16   14   15 am 
    17   15   17 am 
    18   15   16 2  
    19   17   18 am 
    20   18   20 1  
    21   18   19 2  
    22   20   21 2  
    23   21   22 1  
    24    6   23 1  
    25    6   24 1  
    26    7   25 1  
    27    9   26 1  
    28   10   27 1  
    29   11   28 1  
    30   12   29 1  
    31   13   30 1  
    32   17   31 1  
    33   20   32 1  
    34   22   33 1  
@<TRIPOS>SUBSTRUCTURE
     1 BMP         1

