3mwe_ligand
  -I-interpret- 

 16 15  0  0  0  0  0  0  0  0999 V2000
   28.8650   28.4560   19.2880 O   0  0  0  0  0
   27.4130   30.0710   19.5900 O   0  0  0  0  0
   28.2830   29.2830   20.0280 C   0  0  0  0  0
   28.7010   29.3230   21.5100 C   0  0  0  0  0
   29.8430   28.5890   21.8740 O   0  0  0  0  0
   27.5680   29.0470   22.5190 C   0  0  0  0  0
   26.9250   30.0940   23.2040 O   0  0  0  0  0
   26.6240   28.0550   21.9710 C   0  0  0  0  0
   25.6600   28.4760   21.3010 O   0  0  0  0  0
   26.8580   26.8440   22.2180 O   0  0  0  0  0
   29.4916   27.9480   19.8085 H   0  0  0  0  0
   28.9808   30.3741   21.5806 H   0  0  0  0  0
   30.5472   28.7620   21.2449 H   0  0  0  0  0
   28.1354   28.6545   23.3628 H   0  0  0  0  0
   27.5831   30.7079   23.5383 H   0  0  0  0  0
   27.6541   26.7751   22.7501 H   0  0  0  0  0
  1  3  1  0  0  0
  3  2  2  0  0  0
  3  4  1  0  0  0
  4  5  1  0  0  0
  4  6  1  0  0  0
  6  7  1  0  0  0
  6  8  1  0  0  0
  8  9  2  0  0  0
  8 10  1  0  0  0
  1 11  1  0  0  0
  4 12  1  0  0  0
  5 13  1  0  0  0
  6 14  1  0  0  0
  7 15  1  0  0  0
 10 16  1  0  0  0
M  END
$$$$
