1lag_ligand
  -I-interpret- 

 20 20  0  0  0  0  0  0  0  0999 V2000
   31.5380   30.2340   68.1190 N   0  3  0  0  0
   31.5780   28.9070   67.6330 C   0  0  0  0  0
   31.2400   28.0640   68.8700 C   0  0  0  0  0
   31.0770   28.5930   69.9840 O   0  0  0  0  0
   32.9630   28.5560   67.0580 C   0  0  0  0  0
   34.2460   28.4870   67.8950 C   0  0  0  0  0
   35.3590   27.8660   67.5430 N   0  0  0  0  0
   34.5110   29.0340   69.1130 C   0  0  0  0  0
   36.2640   28.0220   68.4640 C   0  0  0  0  0
   35.7400   28.7090   69.4140 N   0  0  0  0  0
   31.1330   26.8670   68.6900 O   0  0  0  0  0
   30.6088   30.4307   68.4909 H   0  0  0  0  0
   32.2320   30.3451   68.8582 H   0  0  0  0  0
   31.7444   30.8802   67.3573 H   0  0  0  0  0
   30.8866   28.7355   66.8080 H   0  0  0  0  0
   31.2061   29.5413   69.9086 H   0  0  0  0  0
   33.1610   29.3884   66.3827 H   0  0  0  0  0
   32.8333   27.5242   66.7314 H   0  0  0  0  0
   33.8289   29.6288   69.7204 H   0  0  0  0  0
   37.2839   27.6385   68.4347 H   0  0  0  0  0
  2  3  1  0  0  0
  2  5  1  0  0  0
  2  1  1  0  0  0
  5  6  1  0  0  0
  6  8  4  0  0  0
  6  7  4  0  0  0
  7  9  4  0  0  0
  9 10  4  0  0  0
 10  8  4  0  0  0
  3 11  2  0  0  0
  3  4  1  0  0  0
  1 12  1  0  0  0
  1 13  1  0  0  0
  1 14  1  0  0  0
  2 15  1  0  0  0
  4 16  1  0  0  0
  5 17  1  0  0  0
  5 18  1  0  0  0
  8 19  1  0  0  0
  9 20  1  0  0  0
M  END
$$$$
