3dnt_ligand
  -I-interpret- 

 47 49  0  0  0  0  0  0  0  0999 V2000
   -4.4040   12.0620   48.3560 P   0  0  0  0  0
   -5.8210   11.6230   48.2870 O   0  0  0  0  0
   -3.5360   11.4430   47.3560 O   0  0  0  0  0
   -4.3480   13.5790   48.2820 O   0  0  0  0  0
   -2.9320   12.6450   50.8000 P   0  0  0  0  0
   -1.4770   12.6360   50.6150 O   0  0  0  0  0
   -3.8390   13.3630   51.6890 O   0  0  0  0  0
   -3.7160   11.5890   49.8090 O   0  0  0  0  0
   -3.3040   10.5290   53.0940 P   0  0  0  0  0
   -3.5970   11.2620   54.3700 O   0  0  0  0  0
   -4.4220    9.8050   52.5150 O   0  0  0  0  0
   -2.6170   11.4660   51.8690 O   0  0  0  0  0
   -2.0980    9.5820   53.4610 O   0  0  0  0  0
   -1.4020    8.7800   52.4690 C   0  0  0  0  0
   -1.6530    7.2860   52.6040 C   0  0  0  0  0
   -0.9880    6.7640   53.7870 O   0  0  0  0  0
   -3.1030    6.8060   52.7250 C   0  0  0  0  0
   -3.5620    6.5010   51.3910 O   0  0  0  0  0
   -3.0000    5.6310   53.6770 C   0  0  0  0  0
   -2.7460    4.4200   52.9960 O   0  0  0  0  0
   -1.8480    5.9300   54.5970 C   0  0  0  0  0
   -2.1270    6.6630   55.8760 N   0  0  0  0  0
   -2.5890    7.9540   56.1000 C   0  0  0  0  0
   -2.7000    8.2910   57.3520 N   0  0  0  0  0
   -2.2780    7.1350   58.0100 C   0  0  0  0  0
   -2.1270    6.8020   59.4060 C   0  0  0  0  0
   -2.4200    7.7100   60.3560 N   0  0  0  0  0
   -1.6740    5.5410   59.7580 N   0  0  0  0  0
   -1.3740    4.6250   58.7900 C   0  0  0  0  0
   -1.4680    4.8210   57.4230 N   0  0  0  0  0
   -1.9340    6.1260   57.1120 C   0  0  0  0  0
   -6.3267   12.0693   48.9701 H   0  0  0  0  0
   -4.9276   13.9525   48.9500 H   0  0  0  0  0
   -1.2482   12.0183   49.9166 H   0  0  0  0  0
   -2.8015   11.7063   54.6724 H   0  0  0  0  0
   -0.3336    8.9446   52.6085 H   0  0  0  0  0
   -1.7685    9.0845   51.4887 H   0  0  0  0  0
   -1.2693    6.9189   51.6521 H   0  0  0  0  0
   -3.8337    7.5125   53.1187 H   0  0  0  0  0
   -4.4714    6.1957   51.4287 H   0  0  0  0  0
   -3.9415    5.5060   54.2119 H   0  0  0  0  0
   -2.6880    3.7029   53.6316 H   0  0  0  0  0
   -1.4549    4.9760   54.9484 H   0  0  0  0  0
   -2.8401    8.6347   55.2866 H   0  0  0  0  0
   -2.7502    8.6377   60.0902 H   0  0  0  0  0
   -2.3117    7.4701   61.3415 H   0  0  0  0  0
   -1.0279    3.6475   59.1258 H   0  0  0  0  0
  1  2  1  0  0  0
  1  3  2  0  0  0
  1  4  1  0  0  0
  8  1  1  0  0  0
  5  6  1  0  0  0
  5  7  2  0  0  0
  5  8  1  0  0  0
 12  5  1  0  0  0
  9 10  1  0  0  0
  9 11  2  0  0  0
  9 12  1  0  0  0
  9 13  1  0  0  0
 13 14  1  0  0  0
 14 15  1  0  0  0
 15 16  1  0  0  0
 15 17  1  0  0  0
 16 21  1  0  0  0
 17 18  1  0  0  0
 17 19  1  0  0  0
 19 20  1  0  0  0
 19 21  1  0  0  0
 21 22  1  0  0  0
 22 23  4  0  0  0
 22 31  4  0  0  0
 23 24  4  0  0  0
 24 25  4  0  0  0
 25 26  4  0  0  0
 25 31  4  0  0  0
 26 27  1  0  0  0
 26 28  4  0  0  0
 28 29  4  0  0  0
 29 30  4  0  0  0
 30 31  4  0  0  0
  2 32  1  0  0  0
  4 33  1  0  0  0
  6 34  1  0  0  0
 10 35  1  0  0  0
 14 36  1  0  0  0
 14 37  1  0  0  0
 15 38  1  0  0  0
 17 39  1  0  0  0
 18 40  1  0  0  0
 19 41  1  0  0  0
 20 42  1  0  0  0
 21 43  1  0  0  0
 23 44  1  0  0  0
 27 45  1  0  0  0
 27 46  1  0  0  0
 29 47  1  0  0  0
M  END
$$$$
