### 
### Created by X-TOOL on Mon Sep 10 21:13:00 2018
### 

@<TRIPOS>MOLECULE
3dnt_ligand
   43    45     1     0     0
SMALL
GAST_HUCK


@<TRIPOS>ATOM
      1 PG         -4.4040   12.0620   48.3560 P.3       1 ATP         0.1879
      2 O1G        -5.8210   11.6230   48.2870 O.co2     1 ATP        -0.6091
      3 O2G        -3.5360   11.4430   47.3560 O.co2     1 ATP        -0.6091
      4 O3G        -4.3480   13.5790   48.2820 O.co2     1 ATP        -0.6091
      5 PB         -2.9320   12.6450   50.8000 P.3       1 ATP         0.3553
      6 O1B        -1.4770   12.6360   50.6150 O.co2     1 ATP        -0.5652
      7 O2B        -3.8390   13.3630   51.6890 O.co2     1 ATP        -0.5652
      8 O3B        -3.7160   11.5890   49.8090 O.3       1 ATP        -0.1546
      9 PA         -3.3040   10.5290   53.0940 P.3       1 ATP         0.3266
     10 O1A        -3.5970   11.2620   54.3700 O.co2     1 ATP        -0.5692
     11 O2A        -4.4220    9.8050   52.5150 O.co2     1 ATP        -0.5692
     12 O3A        -2.6170   11.4660   51.8690 O.3       1 ATP        -0.1171
     13 O5'        -2.0980    9.5820   53.4610 O.3       1 ATP        -0.2441
     14 C5'        -1.4020    8.7800   52.4690 C.3       1 ATP         0.1131
     15 C4'        -1.6530    7.2860   52.6040 C.3       1 ATP         0.1189
     16 O4'        -0.9880    6.7640   53.7870 O.3       1 ATP        -0.3364
     17 C3'        -3.1030    6.8060   52.7250 C.3       1 ATP         0.1149
     18 O3'        -3.5620    6.5010   51.3910 O.3       1 ATP        -0.3864
     19 C2'        -3.0000    5.6310   53.6770 C.3       1 ATP         0.1385
     20 O2'        -2.7460    4.4200   52.9960 O.3       1 ATP        -0.3836
     21 C1'        -1.8480    5.9300   54.5970 C.3       1 ATP         0.2010
     22 N9         -2.1270    6.6630   55.8760 N.pl3     1 ATP        -0.1919
     23 C8         -2.5890    7.9540   56.1000 C.2       1 ATP         0.1123
     24 N7         -2.7000    8.2910   57.3520 N.2       1 ATP        -0.2958
     25 C5         -2.2780    7.1350   58.0100 C.ar      1 ATP         0.1045
     26 C6         -2.1270    6.8020   59.4060 C.ar      1 ATP         0.1298
     27 N6         -2.4200    7.7100   60.3560 N.pl3     1 ATP        -0.3152
     28 N1         -1.6740    5.5410   59.7580 N.ar      1 ATP        -0.2698
     29 C2         -1.3740    4.6250   58.7900 C.ar      1 ATP         0.0533
     30 N3         -1.4680    4.8210   57.4230 N.ar      1 ATP        -0.2714
     31 C4         -1.9340    6.1260   57.1120 C.ar      1 ATP         0.1613
     32 H1         -0.3219    8.9612   52.5718 H         1 ATP         0.0648
     33 H2         -1.7338    9.0988   51.4699 H         1 ATP         0.0648
     34 H3         -1.2207    6.8142   51.7093 H         1 ATP         0.0651
     35 H4         -3.7519    7.5809   53.1592 H         1 ATP         0.0648
     36 H5         -3.0139    5.8215   51.0164 H         1 ATP         0.2100
     37 H6         -3.9331    5.5347   54.2514 H         1 ATP         0.0676
     38 H7         -2.6886    3.7104   53.6249 H         1 ATP         0.2101
     39 H8         -1.3482    4.9844   54.8539 H         1 ATP         0.0996
     40 H9         -2.8399    8.6341   55.2873 H         1 ATP         0.1349
     41 H10        -2.3107    7.4678   61.3511 H         1 ATP         0.1820
     42 H11        -2.7535    8.6468   60.0876 H         1 ATP         0.1820
     43 H12        -1.0298    3.6528   59.1239 H         1 ATP         0.0996
@<TRIPOS>BOND
     1    1    2 ar 
     2    1    3 ar 
     3    1    4 ar 
     4    8    1 1  
     5    5    6 ar 
     6    5    7 ar 
     7    5    8 1  
     8   12    5 1  
     9    9   10 ar 
    10    9   11 ar 
    11    9   12 1  
    12    9   13 1  
    13   13   14 1  
    14   14   15 1  
    15   15   16 1  
    16   15   17 1  
    17   16   21 1  
    18   17   18 1  
    19   17   19 1  
    20   19   20 1  
    21   19   21 1  
    22   21   22 1  
    23   22   23 1  
    24   22   31 1  
    25   23   24 2  
    26   24   25 1  
    27   25   26 ar 
    28   25   31 ar 
    29   26   27 1  
    30   26   28 ar 
    31   28   29 ar 
    32   29   30 ar 
    33   30   31 ar 
    34   14   32 1  
    35   14   33 1  
    36   15   34 1  
    37   17   35 1  
    38   18   36 1  
    39   19   37 1  
    40   20   38 1  
    41   21   39 1  
    42   23   40 1  
    43   27   41 1  
    44   27   42 1  
    45   29   43 1  
@<TRIPOS>SUBSTRUCTURE
     1 ATP         1

