5cc2_ligand
  -I-interpret- 

 21 22  0  0  0  0  0  0  0  0999 V2000
   13.4810    4.0170   23.7140 C   0  0  0  0  0
   14.8290    3.8580   23.4270 C   0  0  0  0  0
   15.5900    5.0010   23.1060 C   0  0  0  0  0
   15.0430    6.2730   23.0660 C   0  0  0  0  0
   13.6690    6.4230   23.3600 C   0  0  0  0  0
   11.7610    7.8590   23.6060 C   0  0  0  0  0
   11.3130    9.3380   23.5200 C   0  0  0  0  0
   13.0750    7.6590   23.3350 N   0  0  0  0  0
   12.8750    5.2910   23.6880 C   0  0  0  0  0
   10.9380    6.8080   23.9310 C   0  0  0  0  0
   11.4290    5.4450   23.9960 C   0  0  0  0  0
   10.7160    4.4670   24.2830 O   0  0  0  0  0
   17.2930    4.8030   22.7440 Cl  0  0  0  0  0
   12.2300   10.1370   23.2090 O   0  0  0  0  0
   10.1140    9.5750   23.7720 O   0  0  0  0  0
   12.8798    3.1428   23.9638 H   0  0  0  0  0
   15.2901    2.8706   23.4492 H   0  0  0  0  0
   15.6575    7.1372   22.8139 H   0  0  0  0  0
   10.2163    6.7835   23.1145 H   0  0  0  0  0
   10.6377    7.0231   24.9565 H   0  0  0  0  0
   13.0464    9.6496   23.0768 H   0  0  0  0  0
  1  2  4  0  0  0
  9  1  4  0  0  0
  3  2  4  0  0  0
  4  3  4  0  0  0
  3 13  1  0  0  0
  5  4  4  0  0  0
  8  5  1  0  0  0
  5  9  4  0  0  0
  6  7  1  0  0  0
  6  8  2  0  0  0
  6 10  1  0  0  0
  7 14  1  0  0  0
  7 15  2  0  0  0
  9 11  1  0  0  0
 10 11  1  0  0  0
 11 12  2  0  0  0
  1 16  1  0  0  0
  2 17  1  0  0  0
  4 18  1  0  0  0
 10 19  1  0  0  0
 10 20  1  0  0  0
 14 21  1  0  0  0
M  END
$$$$
