4bda_ligand
  -I-interpret- 

 17 19  0  0  0  0  0  0  0  0999 V2000
  -38.0500   33.8920    5.3340 N   0  0  0  0  0
  -39.3030   31.6980    5.4990 C   0  0  0  0  0
  -39.1530   30.6970    7.6980 C   0  0  0  0  0
  -38.5540   32.7730    5.9750 C   0  0  0  0  0
  -38.4160   31.7780    8.1780 C   0  0  0  0  0
  -36.1640   35.6640    7.6140 C   0  0  0  0  0
  -37.2960   34.6090    6.1990 C   0  0  0  0  0
  -36.5450   35.6930    6.3090 N   0  0  0  0  0
  -36.5980   34.6550    8.3340 N   0  0  0  0  0
  -39.5860   30.6560    6.3730 C   0  0  0  0  0
  -38.1110   32.8070    7.2970 C   0  0  0  0  0
  -37.3430   33.9440    7.4190 N   0  0  0  0  0
  -39.6572   31.6756    4.4684 H   0  0  0  0  0
  -39.3945   29.8717    8.3678 H   0  0  0  0  0
  -38.0879   31.8147    9.2168 H   0  0  0  0  0
  -35.5294   36.4402    8.0416 H   0  0  0  0  0
  -40.1536   29.7955    6.0187 H   0  0  0  0  0
  1  4  4  0  0  0
  7  1  4  0  0  0
  4  2  4  0  0  0
  2 10  4  0  0  0
  5  3  4  0  0  0
 10  3  4  0  0  0
  4 11  4  0  0  0
 11  5  4  0  0  0
  8  6  4  0  0  0
  6  9  4  0  0  0
  7  8  4  0  0  0
  7 12  4  0  0  0
  9 12  4  0  0  0
 11 12  4  0  0  0
  2 13  1  0  0  0
  3 14  1  0  0  0
  5 15  1  0  0  0
  6 16  1  0  0  0
 10 17  1  0  0  0
M  END
$$$$
