4z2b_ligand
  -I-interpret- 

 61 66  0  0  0  0  0  0  0  0999 V2000
  -10.2460  -10.3460   30.4420 C   0  0  0  0  0
  -10.0610   -8.8890   30.1440 C   0  0  0  0  0
  -12.4980   -8.6120   30.4260 C   0  0  0  0  0
  -10.8370  -13.5930   27.3290 C   0  0  0  0  0
  -10.7910  -13.6660   28.7950 N   0  0  0  0  0
  -10.9840  -14.7400   29.6240 C   0  0  0  0  0
  -10.7660  -14.4570   30.8960 N   0  0  0  0  0
  -10.5520  -13.0780   30.9170 C   0  0  0  0  0
  -10.3570  -12.2100   31.9930 C   0  0  0  0  0
  -10.1720  -10.8580   31.7420 C   0  0  0  0  0
  -10.4480  -11.2120   29.3640 C   0  0  0  0  0
  -10.5880  -12.5680   29.6250 C   0  0  0  0  0
   -8.9530   -8.4620   29.8810 O   0  0  0  0  0
  -11.1530   -8.0800   30.1600 N   0  0  0  0  0
  -13.1870   -7.7610   31.4660 C   0  0  0  0  0
  -13.2510   -6.3860   31.0350 O   0  0  0  0  0
  -11.9560   -5.8190   30.7900 C   0  0  0  0  0
  -11.1500   -6.6490   29.7810 C   0  0  0  0  0
  -11.6350   -6.4440   28.3450 C   0  0  0  0  0
  -11.0330   -7.3730   27.4520 O   0  0  0  0  0
  -11.2660   -5.5030   32.1130 C   0  0  0  0  0
  -11.9120   -4.7140   33.0580 C   0  0  0  0  0
  -11.2840   -4.3710   34.2490 C   0  0  0  0  0
  -10.0070   -4.8220   34.5180 C   0  0  0  0  0
   -9.3400   -5.5900   33.5810 C   0  0  0  0  0
   -9.9690   -5.9410   32.3890 C   0  0  0  0  0
  -11.0870  -16.1320   29.1720 C   0  0  0  0  0
  -10.3950  -17.2090   29.6720 C   0  0  0  0  0
  -10.7620  -18.3520   29.0130 N   0  0  0  0  0
  -11.6090  -18.0260   27.9800 C   0  0  0  0  0
  -12.1890  -18.8290   27.0010 C   0  0  0  0  0
  -13.0770  -18.2430   26.1000 C   0  0  0  0  0
  -13.3810  -16.8820   26.1810 C   0  0  0  0  0
  -12.8050  -16.0910   27.1750 C   0  0  0  0  0
  -11.9050  -16.6470   28.0860 C   0  0  0  0  0
  -13.6260  -19.0350   25.0320 C   0  0  0  0  0
  -14.0530  -19.6360   24.1700 N   0  0  0  0  0
  -12.4152   -9.6347   30.7938 H   0  0  0  0  0
  -13.0803   -8.5978   29.5047 H   0  0  0  0  0
  -10.0855  -14.2618   26.9094 H   0  0  0  0  0
  -11.8260  -13.8927   26.9824 H   0  0  0  0  0
  -10.6335  -12.5705   27.0108 H   0  0  0  0  0
  -10.3502  -12.5888   33.0150 H   0  0  0  0  0
   -9.9653  -10.1828   32.5723 H   0  0  0  0  0
  -10.4945  -10.8320   28.3434 H   0  0  0  0  0
  -12.6219   -7.8137   32.3966 H   0  0  0  0  0
  -14.2011   -8.1332   31.6118 H   0  0  0  0  0
  -12.0548   -4.8570   30.2871 H   0  0  0  0  0
  -10.1203   -6.2929   29.8122 H   0  0  0  0  0
  -11.3625   -5.4368   28.0297 H   0  0  0  0  0
  -12.7145   -6.5931   28.3213 H   0  0  0  0  0
  -11.3583   -7.2169   26.5624 H   0  0  0  0  0
  -12.9241   -4.3600   32.8621 H   0  0  0  0  0
  -11.8017   -3.7431   34.9742 H   0  0  0  0  0
   -9.5268   -4.5739   35.4645 H   0  0  0  0  0
   -8.3200   -5.9213   33.7758 H   0  0  0  0  0
   -9.4439   -6.5635   31.6646 H   0  0  0  0  0
   -9.6608  -17.1605   30.4762 H   0  0  0  0  0
  -11.9540  -19.8916   26.9406 H   0  0  0  0  0
  -14.0711  -16.4364   25.4646 H   0  0  0  0  0
  -13.0589  -15.0330   27.2409 H   0  0  0  0  0
  1  2  1  0  0  0
 10  1  4  0  0  0
  1 11  4  0  0  0
  2 13  2  0  0  0
  2 14  1  0  0  0
 14  3  1  0  0  0
  3 15  1  0  0  0
  5  4  1  0  0  0
  5  6  4  0  0  0
 12  5  4  0  0  0
  7  6  4  0  0  0
  6 27  1  0  0  0
  8  7  4  0  0  0
  9  8  4  0  0  0
  8 12  4  0  0  0
  9 10  4  0  0  0
 11 12  4  0  0  0
 14 18  1  0  0  0
 15 16  1  0  0  0
 16 17  1  0  0  0
 17 18  1  0  0  0
 17 21  1  0  0  0
 18 19  1  0  0  0
 19 20  1  0  0  0
 21 22  4  0  0  0
 21 26  4  0  0  0
 22 23  4  0  0  0
 23 24  4  0  0  0
 24 25  4  0  0  0
 25 26  4  0  0  0
 27 28  4  0  0  0
 27 35  4  0  0  0
 28 29  4  0  0  0
 29 30  4  0  0  0
 30 31  4  0  0  0
 30 35  4  0  0  0
 31 32  4  0  0  0
 32 33  4  0  0  0
 32 36  1  0  0  0
 33 34  4  0  0  0
 34 35  4  0  0  0
 36 37  3  0  0  0
  3 38  1  0  0  0
  3 39  1  0  0  0
  4 40  1  0  0  0
  4 41  1  0  0  0
  4 42  1  0  0  0
  9 43  1  0  0  0
 10 44  1  0  0  0
 11 45  1  0  0  0
 15 46  1  0  0  0
 15 47  1  0  0  0
 17 48  1  0  0  0
 18 49  1  0  0  0
 19 50  1  0  0  0
 19 51  1  0  0  0
 20 52  1  0  0  0
 22 53  1  0  0  0
 23 54  1  0  0  0
 24 55  1  0  0  0
 25 56  1  0  0  0
 26 57  1  0  0  0
 28 58  1  0  0  0
 31 59  1  0  0  0
 33 60  1  0  0  0
 34 61  1  0  0  0
M  END
$$$$
