5ngt_ligand
  -I-interpret- 

 26 28  0  0  0  0  0  0  0  0999 V2000
  -14.1360  -16.0660   11.0970 C   0  0  0  0  0
  -14.5520  -17.3860   11.0640 C   0  0  0  0  0
  -17.3830  -17.2630    8.5610 C   0  0  0  0  0
  -16.2220  -16.8480    9.4470 C   0  0  0  0  0
  -15.7480  -15.5090    9.4360 C   0  0  0  0  0
  -14.7200  -15.0770   10.2790 C   0  0  0  0  0
  -14.1960  -13.7530   10.2610 C   0  0  0  0  0
  -14.7930  -12.6320    9.7010 C   0  0  0  0  0
  -13.9270  -11.5390    9.8250 C   0  0  0  0  0
  -12.7800  -11.9990   10.4010 C   0  0  0  0  0
  -12.9490  -13.3460   10.6530 O   0  0  0  0  0
  -13.1000  -15.9430   11.9920 O   0  0  0  0  0
  -12.9170  -17.2200   12.4780 C   0  0  0  0  0
  -11.9410  -17.4910   13.4730 N   0  0  0  0  0
  -13.7700  -18.0730   11.9270 N   0  0  0  0  0
  -15.6000  -17.8020   10.2300 C   0  0  0  0  0
  -18.2636  -16.6748    8.8190 H   0  0  0  0  0
  -17.1218  -17.0897    7.5171 H   0  0  0  0  0
  -17.5942  -18.3215    8.7131 H   0  0  0  0  0
  -16.2006  -14.7951    8.7478 H   0  0  0  0  0
  -15.7795  -12.6067    9.2381 H   0  0  0  0  0
  -14.1313  -10.5131    9.5186 H   0  0  0  0  0
  -11.8902  -11.4097   10.6226 H   0  0  0  0  0
  -11.3623  -16.7350   13.8391 H   0  0  0  0  0
  -11.8185  -18.4417   13.8217 H   0  0  0  0  0
  -15.9142  -18.8453   10.2003 H   0  0  0  0  0
  2  1  4  0  0  0
  1  6  4  0  0  0
  1 12  4  0  0  0
  2 15  4  0  0  0
 16  2  4  0  0  0
  4  3  1  0  0  0
  4  5  4  0  0  0
  4 16  4  0  0  0
  5  6  4  0  0  0
  6  7  1  0  0  0
  7  8  4  0  0  0
  7 11  4  0  0  0
  8  9  4  0  0  0
  9 10  4  0  0  0
 10 11  4  0  0  0
 12 13  4  0  0  0
 13 14  1  0  0  0
 13 15  4  0  0  0
  3 17  1  0  0  0
  3 18  1  0  0  0
  3 19  1  0  0  0
  5 20  1  0  0  0
  8 21  1  0  0  0
  9 22  1  0  0  0
 10 23  1  0  0  0
 14 24  1  0  0  0
 14 25  1  0  0  0
 16 26  1  0  0  0
M  END
$$$$
