3zm5_ligand
  -I-interpret- 

 64 68  0  0  0  0  0  0  0  0999 V2000
  -29.9260   41.3280   -4.0830 O   0  0  0  0  0
  -29.0830   41.6910   -2.9870 S   0  0  0  0  0
  -29.6750   42.8310   -2.3350 O   0  0  0  0  0
  -27.6470   42.0600   -3.4110 N   0  0  0  0  0
  -27.0240   41.0780   -4.3150 C   0  0  0  0  0
  -25.5980   41.4970   -4.6620 C   0  0  0  0  0
  -25.2530   42.7240   -3.9970 O   0  0  0  0  0
  -26.1230   43.8290   -4.2630 C   0  0  0  0  0
  -27.5600   43.4510   -3.9070 C   0  0  0  0  0
  -29.0500   40.4010   -1.9160 C   0  0  0  0  0
  -28.0540   40.3280   -0.9710 C   0  0  0  0  0
  -26.7850   41.6080   -0.9010 Cl  0  0  0  0  0
  -28.0320   39.2730   -0.0810 C   0  0  0  0  0
  -29.0060   38.3050   -0.1540 C   0  0  0  0  0
  -28.9490   36.9560    1.0050 Cl  0  0  0  0  0
  -30.0370   39.4340   -1.9950 C   0  0  0  0  0
  -30.0050   38.3850   -1.1010 C   0  0  0  0  0
  -31.0710   37.3540   -1.2070 C   0  0  0  0  0
  -31.2340   36.8690   -2.3080 O   0  0  0  0  0
  -31.8130   37.0120   -0.1500 N   0  0  0  0  0
  -32.7840   36.0640   -0.2990 C   0  0  0  0  0
  -33.7230   35.5900    0.7400 C   0  0  0  0  0
  -33.7030   36.0720    2.0660 C   0  0  0  0  0
  -33.6900   36.3930    3.1780 N   0  0  0  0  0
  -33.1110   35.2270   -1.7720 S   0  0  0  0  0
  -34.4100   34.2560   -1.1450 C   0  0  0  0  0
  -34.6780   34.5290    0.2750 C   0  0  0  0  0
  -35.1190   33.2670   -2.0050 C   0  0  0  0  0
  -36.3530   32.8890   -1.3260 N   0  3  0  0  0
  -36.8270   33.3660   -0.0220 C   0  0  0  0  0
  -35.7530   33.7640    0.9840 C   0  0  0  0  0
  -37.2330   32.0230   -2.0780 C   0  0  0  0  0
  -37.8040   30.8790   -1.2750 C   0  0  0  0  0
  -39.1800   30.6920   -1.2600 C   0  0  0  0  0
  -39.7420   29.6400   -0.5440 C   0  0  0  0  0
  -38.9240   28.7520    0.1430 C   0  0  0  0  0
  -39.4780   27.7140    0.8470 O   0  0  0  0  0
  -37.5460   28.9360    0.1050 C   0  0  0  0  0
  -36.9850   29.9890   -0.6040 C   0  0  0  0  0
  -27.6091   41.0219   -5.2330 H   0  0  0  0  0
  -26.9963   40.1082   -3.8182 H   0  0  0  0  0
  -25.5273   41.6480   -5.7392 H   0  0  0  0  0
  -24.9119   40.7149   -4.3368 H   0  0  0  0  0
  -26.0685   44.0850   -5.3211 H   0  0  0  0  0
  -25.8149   44.6842   -3.6614 H   0  0  0  0  0
  -27.9087   44.1206   -3.1208 H   0  0  0  0  0
  -28.1723   43.5366   -4.8047 H   0  0  0  0  0
  -27.2485   39.2077    0.6739 H   0  0  0  0  0
  -30.8226   39.5004   -2.7477 H   0  0  0  0  0
  -31.6561   37.4532    0.7561 H   0  0  0  0  0
  -34.4928   32.3898   -2.1678 H   0  0  0  0  0
  -35.3414   33.7033   -2.9788 H   0  0  0  0  0
  -35.6824   33.0044   -0.5661 H   0  0  0  0  0
  -37.3690   32.5335    0.4266 H   0  0  0  0  0
  -37.4051   34.2683   -0.2211 H   0  0  0  0  0
  -36.1928   34.3860    1.7636 H   0  0  0  0  0
  -35.3275   32.8699    1.4397 H   0  0  0  0  0
  -36.6450   31.5883   -2.8863 H   0  0  0  0  0
  -38.0723   32.6306   -2.4164 H   0  0  0  0  0
  -39.8246   31.3748   -1.8135 H   0  0  0  0  0
  -40.8243   29.5125   -0.5221 H   0  0  0  0  0
  -38.7800   27.1999    1.2594 H   0  0  0  0  0
  -36.8969   28.2428    0.6400 H   0  0  0  0  0
  -35.9026   30.1142   -0.6319 H   0  0  0  0  0
  1  2  2  0  0  0
  2  3  2  0  0  0
  2  4  1  0  0  0
  2 10  1  0  0  0
  4  5  1  0  0  0
  4  9  1  0  0  0
  5  6  1  0  0  0
  6  7  1  0  0  0
  7  8  1  0  0  0
  8  9  1  0  0  0
 10 11  4  0  0  0
 10 16  4  0  0  0
 11 12  1  0  0  0
 11 13  4  0  0  0
 13 14  4  0  0  0
 14 15  1  0  0  0
 14 17  4  0  0  0
 16 17  4  0  0  0
 17 18  1  0  0  0
 18 19  2  0  0  0
 18 20  1  0  0  0
 20 21  1  0  0  0
 21 22  4  0  0  0
 21 25  4  0  0  0
 22 23  1  0  0  0
 22 27  4  0  0  0
 23 24  3  0  0  0
 25 26  4  0  0  0
 26 27  4  0  0  0
 26 28  1  0  0  0
 27 31  1  0  0  0
 28 29  1  0  0  0
 29 30  1  0  0  0
 29 32  1  0  0  0
 30 31  1  0  0  0
 32 33  1  0  0  0
 33 34  4  0  0  0
 33 39  4  0  0  0
 34 35  4  0  0  0
 35 36  4  0  0  0
 36 37  1  0  0  0
 36 38  4  0  0  0
 38 39  4  0  0  0
  5 40  1  0  0  0
  5 41  1  0  0  0
  6 42  1  0  0  0
  6 43  1  0  0  0
  8 44  1  0  0  0
  8 45  1  0  0  0
  9 46  1  0  0  0
  9 47  1  0  0  0
 13 48  1  0  0  0
 16 49  1  0  0  0
 20 50  1  0  0  0
 28 51  1  0  0  0
 28 52  1  0  0  0
 29 53  1  0  0  0
 30 54  1  0  0  0
 30 55  1  0  0  0
 31 56  1  0  0  0
 31 57  1  0  0  0
 32 58  1  0  0  0
 32 59  1  0  0  0
 34 60  1  0  0  0
 35 61  1  0  0  0
 37 62  1  0  0  0
 38 63  1  0  0  0
 39 64  1  0  0  0
M  END
$$$$
