1kdk_ligand
  -I-interpret- 

 51 54  0  0  0  0  0  0  0  0999 V2000
   24.0520   10.0270   31.5730 C   0  0  0  0  0
   25.5770   10.2030   31.4680 C   0  0  0  0  0
   26.0140   11.6250   31.6660 C   0  0  0  0  0
   26.8450   12.2080   30.9600 O   0  0  0  0  0
   25.3430   12.3870   32.7590 C   0  0  0  0  0
   23.8560   12.1460   32.9140 C   0  0  0  0  0
   23.2530   12.8000   34.1710 C   0  0  0  0  0
   21.7230   12.7710   34.0700 C   0  0  0  0  0
   21.2400   11.2890   34.0470 C   0  0  0  0  0
   21.8950   10.5780   32.8330 C   0  0  0  0  0
   23.4260   10.6590   32.8330 C   0  0  0  0  0
   21.4010    9.0980   32.7140 C   0  0  0  0  0
   19.8740    9.0050   32.7010 C   0  0  0  0  0
   19.2260    9.7660   33.8590 C   0  0  0  0  0
   19.7430   11.2230   33.8270 C   0  0  0  0  0
   18.8410   11.9420   34.8510 C   0  0  0  0  0
   17.4550   11.2710   34.6930 C   0  0  0  0  0
   17.7560   10.0950   33.7410 C   0  0  0  0  0
   16.8200    9.0140   33.9480 O   0  0  0  0  0
   19.5610    9.0160   35.1640 C   0  0  0  0  0
   24.0270    9.9370   34.0760 C   0  0  0  0  0
   23.6111   10.5267   30.7104 H   0  0  0  0  0
   23.8550    8.9560   31.6195 H   0  0  0  0  0
   25.8799    9.8973   30.4665 H   0  0  0  0  0
   26.0370    9.6005   32.2513 H   0  0  0  0  0
   25.4598   13.4428   32.5146 H   0  0  0  0  0
   25.8062   12.0614   33.6904 H   0  0  0  0  0
   23.4413   12.6435   32.0373 H   0  0  0  0  0
   23.5951   13.8322   34.2462 H   0  0  0  0  0
   23.5715   12.2513   35.0574 H   0  0  0  0  0
   21.4067   13.2735   33.1559 H   0  0  0  0  0
   21.2895   13.2842   34.9284 H   0  0  0  0  0
   21.5065   10.8225   34.9954 H   0  0  0  0  0
   21.5680   11.1232   31.9476 H   0  0  0  0  0
   21.7696    8.5444   33.5776 H   0  0  0  0  0
   21.7762    8.6870   31.7768 H   0  0  0  0  0
   19.6020    7.9539   32.7976 H   0  0  0  0  0
   19.5198    9.4476   31.7700 H   0  0  0  0  0
   19.6625   11.7254   32.8630 H   0  0  0  0  0
   18.7960   13.0159   34.6699 H   0  0  0  0  0
   19.2246   11.8487   35.8670 H   0  0  0  0  0
   16.6953   11.9494   34.3048 H   0  0  0  0  0
   17.0261   10.9510   35.6426 H   0  0  0  0  0
   17.5937   10.3494   32.6936 H   0  0  0  0  0
   15.9242    9.3443   33.8477 H   0  0  0  0  0
   19.1662    8.0015   35.1101 H   0  0  0  0  0
   20.6427    8.9799   35.2934 H   0  0  0  0  0
   19.1101    9.5384   36.0078 H   0  0  0  0  0
   23.6527   10.4085   34.9847 H   0  0  0  0  0
   23.7332    8.8874   34.0622 H   0  0  0  0  0
   25.1141   10.0117   34.0476 H   0  0  0  0  0
  1 11  1  0  0  0
  1  2  1  0  0  0
  2  3  1  0  0  0
  3  5  1  0  0  0
  3  4  2  0  0  0
  5  6  1  0  0  0
  6 11  1  0  0  0
  6  7  1  0  0  0
  7  8  1  0  0  0
  8  9  1  0  0  0
  9 15  1  0  0  0
  9 10  1  0  0  0
 10 12  1  0  0  0
 10 11  1  0  0  0
 11 21  1  0  0  0
 12 13  1  0  0  0
 13 14  1  0  0  0
 14 20  1  0  0  0
 14 18  1  0  0  0
 14 15  1  0  0  0
 15 16  1  0  0  0
 16 17  1  0  0  0
 17 18  1  0  0  0
 18 19  1  0  0  0
  1 22  1  0  0  0
  1 23  1  0  0  0
  2 24  1  0  0  0
  2 25  1  0  0  0
  5 26  1  0  0  0
  5 27  1  0  0  0
  6 28  1  0  0  0
  7 29  1  0  0  0
  7 30  1  0  0  0
  8 31  1  0  0  0
  8 32  1  0  0  0
  9 33  1  0  0  0
 10 34  1  0  0  0
 12 35  1  0  0  0
 12 36  1  0  0  0
 13 37  1  0  0  0
 13 38  1  0  0  0
 15 39  1  0  0  0
 16 40  1  0  0  0
 16 41  1  0  0  0
 17 42  1  0  0  0
 17 43  1  0  0  0
 18 44  1  0  0  0
 19 45  1  0  0  0
 20 46  1  0  0  0
 20 47  1  0  0  0
 20 48  1  0  0  0
 21 49  1  0  0  0
 21 50  1  0  0  0
 21 51  1  0  0  0
M  END
$$$$
