### 
### Created by X-TOOL on Mon Sep 10 21:13:02 2018
### 

@<TRIPOS>MOLECULE
3iqv_ligand
   97    96     1     0     0
SMALL
GAST_HUCK


@<TRIPOS>ATOM
      1 N          -9.4450   -5.4840   15.2650 N.4       1 GLN         0.2380
      2 CA         -9.6870   -6.7550   14.4760 C.3       1 GLN         0.0671
      3 C         -10.8650   -7.5420   15.0280 C.2       1 GLN         0.2269
      4 O         -10.9470   -7.8540   16.2330 O.2       1 GLN        -0.3907
      5 CB         -8.4940   -7.7050   14.4920 C.3       1 GLN         0.0247
      6 CG         -8.5250   -8.7360   13.3790 C.3       1 GLN         0.0443
      7 CD         -7.2910   -9.5980   13.3850 C.2       1 GLN         0.1738
      8 OE1        -6.1920   -9.1070   13.7670 O.2       1 GLN        -0.3973
      9 NE2        -7.4260  -10.8830   12.9320 N.am      1 GLN        -0.3009
     10 N         -11.8110   -7.8130   14.1550 N.am      1 ARG        -0.2610
     11 CA        -12.9520   -8.6590   14.5450 C.3       1 ARG         0.1312
     12 C         -12.6240  -10.1100   14.2710 C.2       1 ARG         0.2040
     13 O         -11.7740  -10.4060   13.4060 O.2       1 ARG        -0.3944
     14 CB        -14.2150   -8.2170   13.7930 C.3       1 ARG        -0.0092
     15 CG        -14.8150   -6.9570   14.3860 C.3       1 ARG        -0.0156
     16 CD        -16.0750   -6.4510   13.6660 C.3       1 ARG         0.0627
     17 NE        -17.0570   -7.5120   13.3900 N.pl3     1 ARG        -0.2723
     18 CZ        -17.1970   -8.1540   12.2330 C.cat     1 ARG         0.2882
     19 NH1       -16.4860   -7.7940   11.1540 N.pl3     1 ARG        -0.2849
     20 NH2       -18.1060   -9.1230   12.1720 N.pl3     1 ARG        -0.2849
     21 N         -13.3590  -11.0430   14.9160 N.am      1 SER        -0.2616
     22 CA        -13.3200  -12.4490   14.4770 C.3       1 SER         0.1539
     23 C         -13.7860  -12.5480   13.0370 C.2       1 SER         0.2063
     24 O         -14.7240  -11.8440   12.6340 O.2       1 SER        -0.3943
     25 CB        -14.1930  -13.3080   15.3930 C.3       1 SER         0.0843
     26 OG        -13.6930  -13.2800   16.7320 O.3       1 SER        -0.3903
     27 N         -13.1370  -13.4090   12.2430 N.am      1 THR        -0.2613
     28 CA        -13.4810  -13.6090   10.8630 C.3       1 THR         0.1565
     29 C         -14.4630  -14.8100   10.6390 C.2       1 THR         0.2065
     30 O         -14.2210  -15.8590   11.1670 O.2       1 THR        -0.3943
     31 CB        -12.2210  -13.8960   10.0020 C.3       1 THR         0.0924
     32 OG1       -11.2520  -12.8790   10.1700 O.3       1 THR        -0.3874
     33 CG2       -12.5730  -13.9630    8.5960 C.3       1 THR        -0.0346
     34 N         -15.5090  -14.5920    9.8260 N.am      1 SEP        -0.2612
     35 CA        -16.4490  -15.6670    9.4680 C.3       1 SEP         0.1586
     36 CB        -17.7830  -15.3120   10.0210 C.3       1 SEP         0.1184
     37 OG        -18.2410  -14.0590    9.4680 O.3       1 SEP        -0.2714
     38 C         -16.4970  -15.7620    7.9870 C.2       1 SEP         0.2061
     39 O         -15.8760  -14.9250    7.3250 O.2       1 SEP        -0.3943
     40 P         -19.6070  -13.4160    9.9390 P.3       1 SEP         0.2010
     41 O1P       -19.5280  -13.1520   11.4460 O.co2     1 SEP        -0.5537
     42 O2P       -20.6980  -14.3940    9.5710 O.co2     1 SEP        -0.5537
     43 O3P       -19.6490  -12.1200    9.1580 O.co2     1 SEP        -0.5537
     44 N         -17.1720  -16.7480    7.4350 N.am      1 THR        -0.2669
     45 CA        -17.3960  -16.8890    6.0140 C.3       1 THR         0.1198
     46 C         -18.8190  -17.2810    5.6260 C.2       1 THR         0.0626
     47 O         -19.1270  -17.2410    4.4090 O.co2     1 THR        -0.5665
     48 CB        -16.4180  -17.9330    5.4650 C.3       1 THR         0.0869
     49 OG1       -16.2650  -17.6680    4.0720 O.3       1 THR        -0.3880
     50 CG2       -16.9270  -19.4040    5.9320 C.3       1 THR        -0.0352
     51 OXT       -19.6860  -17.5900    6.4550 O.co2     1 THR        -0.5665
     52 H1         -8.6594   -4.9893   14.8724 H         1 GLN         0.2015
     53 H2         -9.2490   -5.7171   16.2259 H         1 GLN         0.2015
     54 H3        -10.2655   -4.9001   15.2215 H         1 GLN         0.2015
     55 H4         -9.8999   -6.4694   13.4353 H         1 GLN         0.1100
     56 H5         -8.4834   -8.2342   15.4563 H         1 GLN         0.0370
     57 H6         -7.5742   -7.1104   14.3899 H         1 GLN         0.0370
     58 H7         -8.5915   -8.2153   12.4123 H         1 GLN         0.0506
     59 H8         -9.4087   -9.3775   13.5116 H         1 GLN         0.0506
     60 H9         -6.6342  -11.4936   12.9170 H         1 GLN         0.1814
     61 H10        -8.3164  -11.2109   12.6162 H         1 GLN         0.1814
     62 H11       -11.7555   -7.4448   13.2269 H         1 ARG         0.1884
     63 H12       -13.1299   -8.5389   15.6238 H         1 ARG         0.0800
     64 H13       -14.9605   -9.0242   13.8449 H         1 ARG         0.0313
     65 H14       -13.9542   -8.0258   12.7416 H         1 ARG         0.0313
     66 H15       -14.0547   -6.1630   14.3467 H         1 ARG         0.0301
     67 H16       -15.0774   -7.1619   15.4344 H         1 ARG         0.0301
     68 H17       -15.7724   -5.9990   12.7100 H         1 ARG         0.0689
     69 H18       -16.5543   -5.6880   14.2969 H         1 ARG         0.0689
     70 H19       -17.6894   -7.7802   14.1575 H         1 ARG         0.2642
     71 H20       -16.6059   -8.3011   10.2655 H         1 ARG         0.2615
     72 H21       -15.8201   -7.0104   11.2139 H         1 ARG         0.2615
     73 H22       -18.6398   -9.3821   13.0139 H         1 ARG         0.2615
     74 H23       -18.2761   -9.6143   11.2829 H         1 ARG         0.2615
     75 H24       -13.9305  -10.7785   15.6928 H         1 SER         0.1884
     76 H25       -12.2834  -12.8121   14.5379 H         1 SER         0.0823
     77 H26       -14.1902  -14.3454   15.0272 H         1 SER         0.0606
     78 H27       -15.2216  -12.9183   15.3825 H         1 SER         0.0606
     79 H28       -13.6965  -12.3853   17.0515 H         1 SER         0.2097
     80 H29       -12.3793  -13.9360   12.6279 H         1 THR         0.1884
     81 H30       -13.9617  -12.6886   10.5001 H         1 THR         0.0826
     82 H31       -11.7913  -14.8591   10.3146 H         1 THR         0.0639
     83 H32       -10.4921  -13.0757    9.6349 H         1 THR         0.2101
     84 H33       -11.6703  -14.1666    8.0013 H         1 THR         0.0257
     85 H34       -13.0106  -13.0041    8.2815 H         1 THR         0.0257
     86 H35       -13.3049  -14.7691    8.4392 H         1 THR         0.0257
     87 H36       -15.6534  -13.6752    9.4538 H         1 SEP         0.1884
     88 H37       -16.1136  -16.6253    9.8913 H         1 SEP         0.0827
     89 H38       -17.7090  -15.2198   11.1146 H         1 SEP         0.0662
     90 H39       -18.5027  -16.1043    9.7677 H         1 SEP         0.0662
     91 H40       -17.5556  -17.4464    8.0393 H         1 THR         0.1876
     92 H41       -17.1791  -15.9185    5.5438 H         1 THR         0.0752
     93 H42       -15.4325  -17.7795    5.9290 H         1 THR         0.0632
     94 H43       -15.9215  -16.7902    3.9536 H         1 THR         0.2100
     95 H44       -16.2373  -20.1698    5.5475 H         1 THR         0.0256
     96 H45       -17.9361  -19.5863    5.5339 H         1 THR         0.0256
     97 H46       -16.9521  -19.4516    7.0307 H         1 THR         0.0256
@<TRIPOS>BOND
     1    1    2 1  
     2    2    3 1  
     3    2    5 1  
     4    3    4 2  
     5    3   10 am 
     6    5    6 1  
     7    6    7 1  
     8    7    8 2  
     9    7    9 am 
    10   10   11 1  
    11   11   12 1  
    12   11   14 1  
    13   12   13 2  
    14   12   21 am 
    15   14   15 1  
    16   15   16 1  
    17   16   17 1  
    18   17   18 ar 
    19   18   19 ar 
    20   18   20 ar 
    21   21   22 1  
    22   22   23 1  
    23   22   25 1  
    24   23   24 2  
    25   23   27 am 
    26   25   26 1  
    27   27   28 1  
    28   28   29 1  
    29   28   31 1  
    30   29   30 2  
    31   29   34 am 
    32   31   32 1  
    33   31   33 1  
    34   34   35 1  
    35   35   36 1  
    36   35   38 1  
    37   36   37 1  
    38   37   40 1  
    39   38   39 2  
    40   38   44 am 
    41   40   41 ar 
    42   40   42 ar 
    43   40   43 ar 
    44   44   45 1  
    45   45   46 1  
    46   45   48 1  
    47   46   47 ar 
    48   46   51 ar 
    49   48   49 1  
    50   48   50 1  
    51    1   52 1  
    52    1   53 1  
    53    1   54 1  
    54    2   55 1  
    55    5   56 1  
    56    5   57 1  
    57    6   58 1  
    58    6   59 1  
    59    9   60 1  
    60    9   61 1  
    61   10   62 1  
    62   11   63 1  
    63   14   64 1  
    64   14   65 1  
    65   15   66 1  
    66   15   67 1  
    67   16   68 1  
    68   16   69 1  
    69   17   70 1  
    70   19   71 1  
    71   19   72 1  
    72   20   73 1  
    73   20   74 1  
    74   21   75 1  
    75   22   76 1  
    76   25   77 1  
    77   25   78 1  
    78   26   79 1  
    79   27   80 1  
    80   28   81 1  
    81   31   82 1  
    82   32   83 1  
    83   33   84 1  
    84   33   85 1  
    85   33   86 1  
    86   34   87 1  
    87   35   88 1  
    88   36   89 1  
    89   36   90 1  
    90   44   91 1  
    91   45   92 1  
    92   48   93 1  
    93   49   94 1  
    94   50   95 1  
    95   50   96 1  
    96   50   97 1  
@<TRIPOS>SUBSTRUCTURE
     1 GLN         1

