3iqv_ligand
  -I-interpret- 

 99 98  0  0  0  0  0  0  0  0999 V2000
   -9.4450   -5.4840   15.2650 N   0  3  0  0  0
   -9.6870   -6.7550   14.4760 C   0  0  0  0  0
  -10.8650   -7.5420   15.0280 C   0  0  0  0  0
  -10.9470   -7.8540   16.2330 O   0  0  0  0  0
   -8.4940   -7.7050   14.4920 C   0  0  0  0  0
   -8.5250   -8.7360   13.3790 C   0  0  0  0  0
   -7.2910   -9.5980   13.3850 C   0  0  0  0  0
   -6.1920   -9.1070   13.7670 O   0  0  0  0  0
   -7.4260  -10.8830   12.9320 N   0  0  0  0  0
  -11.8110   -7.8130   14.1550 N   0  0  0  0  0
  -12.9520   -8.6590   14.5450 C   0  0  0  0  0
  -12.6240  -10.1100   14.2710 C   0  0  0  0  0
  -11.7740  -10.4060   13.4060 O   0  0  0  0  0
  -14.2150   -8.2170   13.7930 C   0  0  0  0  0
  -14.8150   -6.9570   14.3860 C   0  0  0  0  0
  -16.0750   -6.4510   13.6660 C   0  0  0  0  0
  -17.0570   -7.5120   13.3900 N   0  0  0  0  0
  -17.1970   -8.1540   12.2330 C   0  0  0  0  0
  -16.4860   -7.7940   11.1540 N   0  0  0  0  0
  -18.1060   -9.1230   12.1720 N   0  0  0  0  0
  -13.3590  -11.0430   14.9160 N   0  0  0  0  0
  -13.3200  -12.4490   14.4770 C   0  0  0  0  0
  -13.7860  -12.5480   13.0370 C   0  0  0  0  0
  -14.7240  -11.8440   12.6340 O   0  0  0  0  0
  -14.1930  -13.3080   15.3930 C   0  0  0  0  0
  -13.6930  -13.2800   16.7320 O   0  0  0  0  0
  -13.1370  -13.4090   12.2430 N   0  0  0  0  0
  -13.4810  -13.6090   10.8630 C   0  0  0  0  0
  -14.4630  -14.8100   10.6390 C   0  0  0  0  0
  -14.2210  -15.8590   11.1670 O   0  0  0  0  0
  -12.2210  -13.8960   10.0020 C   0  0  0  0  0
  -11.2520  -12.8790   10.1700 O   0  0  0  0  0
  -12.5730  -13.9630    8.5960 C   0  0  0  0  0
  -15.5090  -14.5920    9.8260 N   0  0  0  0  0
  -16.4490  -15.6670    9.4680 C   0  0  0  0  0
  -17.7830  -15.3120   10.0210 C   0  0  0  0  0
  -18.2410  -14.0590    9.4680 O   0  0  0  0  0
  -16.4970  -15.7620    7.9870 C   0  0  0  0  0
  -15.8760  -14.9250    7.3250 O   0  0  0  0  0
  -19.6070  -13.4160    9.9390 P   0  0  0  0  0
  -19.5280  -13.1520   11.4460 O   0  0  0  0  0
  -20.6980  -14.3940    9.5710 O   0  0  0  0  0
  -19.6490  -12.1200    9.1580 O   0  0  0  0  0
  -17.1720  -16.7480    7.4350 N   0  0  0  0  0
  -17.3960  -16.8890    6.0140 C   0  0  0  0  0
  -18.8190  -17.2810    5.6260 C   0  0  0  0  0
  -19.1270  -17.2410    4.4090 O   0  0  0  0  0
  -16.4180  -17.9330    5.4650 C   0  0  0  0  0
  -16.2650  -17.6680    4.0720 O   0  0  0  0  0
  -16.9270  -19.4040    5.9320 C   0  0  0  0  0
  -19.6860  -17.5900    6.4550 O   0  0  0  0  0
  -10.2744   -4.8923   15.2170 H   0  0  0  0  0
   -9.2508   -5.7210   16.2379 H   0  0  0  0  0
   -8.6474   -4.9863   14.8693 H   0  0  0  0  0
   -9.8771   -6.4118   13.4591 H   0  0  0  0  0
   -8.5181   -8.2446   15.4387 H   0  0  0  0  0
   -7.5950   -7.1037   14.3562 H   0  0  0  0  0
   -8.5726   -8.2107   12.4251 H   0  0  0  0  0
   -9.3932   -9.3777   13.5290 H   0  0  0  0  0
   -6.6127  -11.4972   12.8905 H   0  0  0  0  0
   -8.3398  -11.2261   12.6360 H   0  0  0  0  0
  -11.7544   -7.4374   13.2084 H   0  0  0  0  0
  -13.1443   -8.5484   15.6122 H   0  0  0  0  0
  -14.9538   -9.0150   13.8676 H   0  0  0  0  0
  -13.9418   -8.0109   12.7581 H   0  0  0  0  0
  -14.0619   -6.1738   14.2993 H   0  0  0  0  0
  -15.1058   -7.1934   15.4096 H   0  0  0  0  0
  -15.7615   -6.0364   12.7079 H   0  0  0  0  0
  -16.5548   -5.7210   14.3179 H   0  0  0  0  0
  -17.6833   -7.7776   14.1500 H   0  0  0  0  0
  -16.6372   -8.2664   10.2627 H   0  0  0  0  0
  -15.7941   -7.0479   11.2248 H   0  0  0  0  0
  -18.6653   -9.3501   12.9942 H   0  0  0  0  0
  -13.9419  -10.7732   15.7084 H   0  0  0  0  0
  -12.2966  -12.8193   14.5364 H   0  0  0  0  0
  -14.1804  -14.3363   15.0318 H   0  0  0  0  0
  -15.2090  -12.9132   15.3861 H   0  0  0  0  0
  -14.2518  -13.8234   17.2925 H   0  0  0  0  0
  -12.3642  -13.9466   12.6356 H   0  0  0  0  0
  -13.9664  -12.6807   10.5617 H   0  0  0  0  0
  -11.8102  -14.8504   10.3312 H   0  0  0  0  0
  -10.4841  -13.0778    9.6293 H   0  0  0  0  0
  -13.2982  -14.7620    8.4420 H   0  0  0  0  0
  -13.0065  -13.0123    8.2856 H   0  0  0  0  0
  -11.6778  -14.1648    8.0079 H   0  0  0  0  0
  -15.6563  -13.6568    9.4463 H   0  0  0  0  0
  -16.1395  -16.6297    9.8748 H   0  0  0  0  0
  -17.7035  -15.2139   11.1037 H   0  0  0  0  0
  -18.4947  -16.0956    9.7611 H   0  0  0  0  0
  -18.8216  -12.5267   11.6236 H   0  0  0  0  0
  -18.9301  -11.5518    9.4443 H   0  0  0  0  0
  -17.5632  -17.4604    8.0513 H   0  0  0  0  0
  -17.2327  -15.9029    5.5793 H   0  0  0  0  0
  -18.3575  -16.9886    3.8935 H   0  0  0  0  0
  -15.4041  -17.8873    5.8626 H   0  0  0  0  0
  -15.6562  -18.3051    3.6912 H   0  0  0  0  0
  -16.9515  -19.4499    7.0208 H   0  0  0  0  0
  -17.9269  -19.5834    5.5370 H   0  0  0  0  0
  -16.2428  -20.1619    5.5504 H   0  0  0  0  0
  1  2  1  0  0  0
  2  3  1  0  0  0
  2  5  1  0  0  0
  3  4  2  0  0  0
  3 10  1  0  0  0
  5  6  1  0  0  0
  6  7  1  0  0  0
  7  8  2  0  0  0
  7  9  1  0  0  0
 10 11  1  0  0  0
 11 12  1  0  0  0
 11 14  1  0  0  0
 12 13  2  0  0  0
 12 21  1  0  0  0
 14 15  1  0  0  0
 15 16  1  0  0  0
 16 17  1  0  0  0
 17 18  1  0  0  0
 18 19  1  0  0  0
 18 20  2  0  0  0
 21 22  1  0  0  0
 22 23  1  0  0  0
 22 25  1  0  0  0
 23 24  2  0  0  0
 23 27  1  0  0  0
 25 26  1  0  0  0
 27 28  1  0  0  0
 28 29  1  0  0  0
 28 31  1  0  0  0
 29 30  2  0  0  0
 29 34  1  0  0  0
 31 32  1  0  0  0
 31 33  1  0  0  0
 34 35  1  0  0  0
 35 36  1  0  0  0
 35 38  1  0  0  0
 36 37  1  0  0  0
 37 40  1  0  0  0
 38 39  2  0  0  0
 38 44  1  0  0  0
 40 41  1  0  0  0
 40 42  2  0  0  0
 40 43  1  0  0  0
 44 45  1  0  0  0
 45 46  1  0  0  0
 45 48  1  0  0  0
 46 47  1  0  0  0
 46 51  2  0  0  0
 48 49  1  0  0  0
 48 50  1  0  0  0
  1 52  1  0  0  0
  1 53  1  0  0  0
  1 54  1  0  0  0
  2 55  1  0  0  0
  5 56  1  0  0  0
  5 57  1  0  0  0
  6 58  1  0  0  0
  6 59  1  0  0  0
  9 60  1  0  0  0
  9 61  1  0  0  0
 10 62  1  0  0  0
 11 63  1  0  0  0
 14 64  1  0  0  0
 14 65  1  0  0  0
 15 66  1  0  0  0
 15 67  1  0  0  0
 16 68  1  0  0  0
 16 69  1  0  0  0
 17 70  1  0  0  0
 19 71  1  0  0  0
 19 72  1  0  0  0
 20 73  1  0  0  0
 21 74  1  0  0  0
 22 75  1  0  0  0
 25 76  1  0  0  0
 25 77  1  0  0  0
 26 78  1  0  0  0
 27 79  1  0  0  0
 28 80  1  0  0  0
 31 81  1  0  0  0
 32 82  1  0  0  0
 33 83  1  0  0  0
 33 84  1  0  0  0
 33 85  1  0  0  0
 34 86  1  0  0  0
 35 87  1  0  0  0
 36 88  1  0  0  0
 36 89  1  0  0  0
 41 90  1  0  0  0
 43 91  1  0  0  0
 44 92  1  0  0  0
 45 93  1  0  0  0
 47 94  1  0  0  0
 48 95  1  0  0  0
 49 96  1  0  0  0
 50 97  1  0  0  0
 50 98  1  0  0  0
 50 99  1  0  0  0
M  END
$$$$
