4wvt_ligand
  -I-interpret- 

109114  0  0  0  0  0  0  0  0999 V2000
   15.4380   -1.0640    5.4610 N   0  3  0  0  0
   16.7650   -0.7680    5.9930 C   0  0  0  0  0
   14.5600    0.1030    5.2960 C   0  0  0  0  0
   13.2810   -0.2730    4.5500 C   0  0  0  0  0
   14.2050    0.7320    6.6350 C   0  0  0  0  0
   14.1360    0.0490    7.6500 O   0  0  0  0  0
   13.9200    2.0330    6.6020 N   0  0  0  0  0
   13.6370    2.8170    7.7840 C   0  0  0  0  0
   12.1400    3.1480    7.8190 C   0  0  0  0  0
   11.6290    3.6810    6.8410 O   0  0  0  0  0
   14.4550    4.1180    7.7200 C   0  0  0  0  0
   14.1650    5.0720    8.8510 C   0  0  0  0  0
   13.4780    6.2550    8.6210 C   0  0  0  0  0
   14.5730    4.7860   10.1450 C   0  0  0  0  0
   13.1880    7.1270    9.6600 C   0  0  0  0  0
   14.2780    5.6370   11.1950 C   0  0  0  0  0
   13.5570    6.8010   10.9540 C   0  0  0  0  0
   11.4150    2.8700    8.9230 N   0  0  0  0  0
    9.9990    3.2810    8.9460 C   0  0  0  0  0
    9.9020    4.7570    9.3470 C   0  0  0  0  0
   10.7520    5.2610   10.0780 O   0  0  0  0  0
    9.3790    2.3650   10.0070 C   0  0  0  0  0
   10.5130    2.1440   11.0020 C   0  0  0  0  0
   11.8100    2.1800   10.1660 C   0  0  0  0  0
    8.8640    5.4410    8.8580 N   0  0  0  0  0
    8.6910    6.8590    9.1330 C   0  0  0  0  0
    7.2230    7.2370    8.9730 C   0  0  0  0  0
    6.4120    6.4130    8.5730 O   0  0  0  0  0
    9.6420    7.7180    8.2750 C   0  0  0  0  0
    9.1850    7.9190    6.8480 C   0  0  0  0  0
    8.5830    9.1100    6.4570 C   0  0  0  0  0
    9.3720    6.9290    5.8930 C   0  0  0  0  0
    8.1910    9.3100    5.1410 C   0  0  0  0  0
    8.9930    7.1340    4.5740 C   0  0  0  0  0
    8.3990    8.3230    4.1980 C   0  0  0  0  0
    6.8870    8.4750    9.3240 N   0  0  0  0  0
    5.5280    8.9620    9.2030 C   0  0  0  0  0
    5.5300   10.4210    8.7760 C   0  0  0  0  0
    4.5830   10.9070    8.1980 O   0  0  0  0  0
    4.7710    8.7860   10.5300 C   0  0  0  0  0
    5.4970    9.3690   11.7130 C   0  0  0  0  0
    5.4500   10.7290   11.9850 C   0  0  0  0  0
    6.2390    8.5550   12.5550 C   0  0  0  0  0
    6.1290   11.2670   13.0660 C   0  0  0  0  0
    6.8840    9.0710   13.6630 C   0  0  0  0  0
    6.8170   10.4300   13.9280 C   0  0  0  0  0
    6.6050   11.0750    9.1150 O   0  0  0  0  0
   12.9560    8.7510   13.9140 C   0  0  0  0  0
   11.8120    9.0230   14.5970 C   0  0  0  0  0
    7.6240   10.5170   15.0280 O   0  0  0  0  0
    8.4360   11.6710   15.2490 C   0  0  0  0  0
    9.7290   11.1940   14.6710 C   0  0  0  0  0
   10.9110   11.1230   15.6140 C   0  0  0  0  0
   11.9610   10.2720   15.0530 N   0  0  0  0  0
   13.1580   10.7700   14.6940 N   0  0  0  0  0
   13.7530    9.8480   13.9760 N   0  0  0  0  0
   13.1230    7.7140   11.8830 O   0  0  0  0  0
   13.3970    7.4940   13.2460 C   0  0  0  0  0
   14.9828   -1.6822    6.1326 H   0  0  0  0  0
   15.5754   -1.4626    4.5322 H   0  0  0  0  0
   17.2799   -0.0819    5.3205 H   0  0  0  0  0
   16.6666   -0.3091    6.9768 H   0  0  0  0  0
   17.3358   -1.6928    6.0775 H   0  0  0  0  0
   15.1127    0.8351    4.7072 H   0  0  0  0  0
   12.7108   -0.9860    5.1455 H   0  0  0  0  0
   12.6830    0.6227    4.3824 H   0  0  0  0  0
   13.5399   -0.7231    3.5916 H   0  0  0  0  0
   13.9004    2.5006    5.6957 H   0  0  0  0  0
   13.9040    2.2591    8.6816 H   0  0  0  0  0
   14.1912    4.6237    6.7911 H   0  0  0  0  0
   15.5081    3.8446    7.7859 H   0  0  0  0  0
   13.1611    6.5032    7.6080 H   0  0  0  0  0
   15.1368    3.8734   10.3385 H   0  0  0  0  0
   12.6715    8.0655    9.4585 H   0  0  0  0  0
   14.6089    5.3963   12.2053 H   0  0  0  0  0
    9.4942    3.1921    7.9841 H   0  0  0  0  0
    9.0089    1.4308    9.5845 H   0  0  0  0  0
    8.4975    2.8057   10.4727 H   0  0  0  0  0
   10.4034    1.1953   11.5275 H   0  0  0  0  0
   10.5174    2.9092   11.7782 H   0  0  0  0  0
   12.6207    2.6930   10.6834 H   0  0  0  0  0
   12.2070    1.1827    9.9765 H   0  0  0  0  0
    8.1772    4.9581    8.2787 H   0  0  0  0  0
    8.9676    7.0654   10.1669 H   0  0  0  0  0
   10.5972    7.1945    8.2344 H   0  0  0  0  0
    9.6884    8.7037    8.7380 H   0  0  0  0  0
    8.4170    9.8963    7.1934 H   0  0  0  0  0
    9.8219    5.9794    6.1827 H   0  0  0  0  0
    7.7179   10.2482    4.8510 H   0  0  0  0  0
    9.1646    6.3541    3.8321 H   0  0  0  0  0
    8.0962    8.4812    3.1629 H   0  0  0  0  0
    7.6065    9.0993    9.6887 H   0  0  0  0  0
    5.0148    8.3777    8.4392 H   0  0  0  0  0
    4.6606    7.7160   10.7064 H   0  0  0  0  0
    3.8192    9.3091   10.4377 H   0  0  0  0  0
    4.8689   11.3851   11.3370 H   0  0  0  0  0
    6.3150    7.4893   12.3393 H   0  0  0  0  0
    6.1217   12.3435   13.2370 H   0  0  0  0  0
    7.4436    8.4115   14.3264 H   0  0  0  0  0
    7.2129   10.4803    9.5604 H   0  0  0  0  0
   10.9560    8.3639   14.7421 H   0  0  0  0  0
    8.4975   11.9853   16.2909 H   0  0  0  0  0
    8.0512   12.5853   14.7973 H   0  0  0  0  0
   10.0004   11.9193   13.9039 H   0  0  0  0  0
    9.5495   10.1719   14.3375 H   0  0  0  0  0
   10.5823   10.7016   16.5640 H   0  0  0  0  0
   11.3087   12.1272   15.7609 H   0  0  0  0  0
   12.8779    6.6176   13.6340 H   0  0  0  0  0
   14.4508    7.2806   13.4249 H   0  0  0  0  0
  1  2  1  0  0  0
  3  1  1  0  0  0
  3  4  1  0  0  0
  5  3  1  0  0  0
  5  6  2  0  0  0
  7  5  1  0  0  0
  8  7  1  0  0  0
  9  8  1  0  0  0
  8 11  1  0  0  0
  9 10  2  0  0  0
 18  9  1  0  0  0
 11 12  1  0  0  0
 12 13  4  0  0  0
 12 14  4  0  0  0
 13 15  4  0  0  0
 14 16  4  0  0  0
 15 17  4  0  0  0
 16 17  4  0  0  0
 17 57  1  0  0  0
 19 18  1  0  0  0
 18 24  1  0  0  0
 20 19  1  0  0  0
 19 22  1  0  0  0
 20 21  2  0  0  0
 25 20  1  0  0  0
 22 23  1  0  0  0
 23 24  1  0  0  0
 26 25  1  0  0  0
 27 26  1  0  0  0
 26 29  1  0  0  0
 27 28  2  0  0  0
 36 27  1  0  0  0
 29 30  1  0  0  0
 30 31  4  0  0  0
 30 32  4  0  0  0
 31 33  4  0  0  0
 32 34  4  0  0  0
 33 35  4  0  0  0
 34 35  4  0  0  0
 37 36  1  0  0  0
 37 38  1  0  0  0
 40 37  1  0  0  0
 38 39  2  0  0  0
 38 47  1  0  0  0
 41 40  1  0  0  0
 42 41  4  0  0  0
 43 41  4  0  0  0
 44 42  4  0  0  0
 45 43  4  0  0  0
 46 44  4  0  0  0
 46 45  4  0  0  0
 50 46  1  0  0  0
 49 48  4  0  0  0
 48 56  4  0  0  0
 48 58  1  0  0  0
 54 49  4  0  0  0
 51 50  1  0  0  0
 52 51  1  0  0  0
 53 52  1  0  0  0
 53 54  1  0  0  0
 54 55  4  0  0  0
 55 56  4  0  0  0
 57 58  1  0  0  0
  1 59  1  0  0  0
  1 60  1  0  0  0
  2 61  1  0  0  0
  2 62  1  0  0  0
  2 63  1  0  0  0
  3 64  1  0  0  0
  4 65  1  0  0  0
  4 66  1  0  0  0
  4 67  1  0  0  0
  7 68  1  0  0  0
  8 69  1  0  0  0
 11 70  1  0  0  0
 11 71  1  0  0  0
 13 72  1  0  0  0
 14 73  1  0  0  0
 15 74  1  0  0  0
 16 75  1  0  0  0
 19 76  1  0  0  0
 22 77  1  0  0  0
 22 78  1  0  0  0
 23 79  1  0  0  0
 23 80  1  0  0  0
 24 81  1  0  0  0
 24 82  1  0  0  0
 25 83  1  0  0  0
 26 84  1  0  0  0
 29 85  1  0  0  0
 29 86  1  0  0  0
 31 87  1  0  0  0
 32 88  1  0  0  0
 33 89  1  0  0  0
 34 90  1  0  0  0
 35 91  1  0  0  0
 36 92  1  0  0  0
 37 93  1  0  0  0
 40 94  1  0  0  0
 40 95  1  0  0  0
 42 96  1  0  0  0
 43 97  1  0  0  0
 44 98  1  0  0  0
 45 99  1  0  0  0
 47100  1  0  0  0
 49101  1  0  0  0
 51102  1  0  0  0
 51103  1  0  0  0
 52104  1  0  0  0
 52105  1  0  0  0
 53106  1  0  0  0
 53107  1  0  0  0
 58108  1  0  0  0
 58109  1  0  0  0
M  END
$$$$
