4oas_ligand
  -I-interpret- 

 72 74  0  0  0  0  0  0  0  0999 V2000
  -16.0120    3.0270  -15.7780 C   0  0  0  0  0
  -16.9390    4.0660  -15.5440 C   0  0  0  0  0
  -16.4520    5.3650  -14.5300 Cl  0  0  0  0  0
  -18.2000    4.0670  -16.1460 C   0  0  0  0  0
  -18.5400    3.0040  -17.0060 C   0  0  0  0  0
  -17.6060    1.9560  -17.2510 C   0  0  0  0  0
  -16.3300    1.9580  -16.6380 C   0  0  0  0  0
  -15.3130    0.8650  -16.9090 C   0  0  0  0  0
  -15.8930   -0.5580  -16.7550 C   0  0  0  0  0
  -14.8150   -1.6680  -16.8590 C   0  0  0  0  0
  -13.9810   -1.7520  -15.5640 C   0  0  0  0  0
  -14.7430   -2.2270  -14.3030 C   0  0  0  0  0
  -15.6060   -1.5260  -13.7570 O   0  0  0  0  0
  -14.4850   -3.3320  -13.8150 O   0  0  0  0  0
  -15.5690   -2.9800  -17.1800 C   0  0  0  0  0
  -13.7840   -1.4060  -17.9750 C   0  0  0  0  0
  -13.0070   -2.3110  -18.2850 O   0  0  0  0  0
  -13.7240   -0.1990  -18.6130 N   0  0  0  0  0
  -12.7590   -0.0730  -19.7620 C   0  0  0  0  0
  -11.2920   -0.2550  -19.2930 C   0  0  0  0  0
  -10.3320    0.7970  -19.7760 C   0  0  0  0  0
  -13.0510   -0.9050  -21.0210 C   0  0  0  0  0
  -14.5420    0.9960  -18.2490 C   0  0  0  0  0
  -13.7610    2.2980  -18.3030 C   0  0  0  0  0
  -12.6780    2.5490  -17.4350 C   0  0  0  0  0
  -11.9870    3.7670  -17.4780 C   0  0  0  0  0
  -12.4110    4.7400  -18.4200 C   0  0  0  0  0
  -11.6260    6.2370  -18.5030 Cl  0  0  0  0  0
  -13.4680    4.5220  -19.2870 C   0  0  0  0  0
  -14.1400    3.3010  -19.2280 C   0  0  0  0  0
  -14.7810   -0.7010  -21.5250 S   0  0  0  0  0
  -15.0860    0.6900  -21.6010 O   0  0  0  0  0
  -15.5960   -1.5430  -20.6980 O   0  0  0  0  0
  -14.9900   -1.3470  -23.1900 C   0  0  0  0  0
  -16.4900   -1.3880  -23.5080 C   0  0  0  0  0
  -14.4570   -2.7830  -23.2730 C   0  0  0  0  0
  -14.3180   -0.3760  -24.1630 C   0  0  0  0  0
  -15.0390    3.0526  -15.2874 H   0  0  0  0  0
  -18.9068    4.8743  -15.9540 H   0  0  0  0  0
  -19.5190    2.9832  -17.4847 H   0  0  0  0  0
  -17.8783    1.1403  -17.9207 H   0  0  0  0  0
  -14.5752    1.0218  -16.1221 H   0  0  0  0  0
  -16.6081   -0.7137  -17.5627 H   0  0  0  0  0
  -16.3449   -0.6265  -15.7655 H   0  0  0  0  0
  -13.6366   -0.7396  -15.3529 H   0  0  0  0  0
  -13.1995   -2.4893  -15.7479 H   0  0  0  0  0
  -15.7004   -0.7021  -14.2406 H   0  0  0  0  0
  -16.2767   -3.1960  -16.3796 H   0  0  0  0  0
  -16.1066   -2.8676  -18.1215 H   0  0  0  0  0
  -14.8532   -3.7977  -17.2643 H   0  0  0  0  0
  -12.9177    0.9505  -20.1017 H   0  0  0  0  0
  -10.9477   -1.2051  -19.7016 H   0  0  0  0  0
  -11.3010   -0.1954  -18.2047 H   0  0  0  0  0
  -10.3131    0.7969  -20.8658 H   0  0  0  0  0
  -10.6550    1.7742  -19.4170 H   0  0  0  0  0
   -9.3345    0.5797  -19.3940 H   0  0  0  0  0
  -12.8662   -1.9568  -20.8026 H   0  0  0  0  0
  -12.4031   -0.5658  -21.8292 H   0  0  0  0  0
  -15.2992    1.0332  -19.0322 H   0  0  0  0  0
  -12.3742    1.7842  -16.7203 H   0  0  0  0  0
  -11.1492    3.9613  -16.8083 H   0  0  0  0  0
  -13.7689    5.2886  -20.0010 H   0  0  0  0  0
  -14.9725    3.1155  -19.9067 H   0  0  0  0  0
  -16.9947   -2.0346  -22.7902 H   0  0  0  0  0
  -16.9014   -0.3807  -23.4436 H   0  0  0  0  0
  -16.6360   -1.7778  -24.5154 H   0  0  0  0  0
  -13.3975   -2.7913  -23.0172 H   0  0  0  0  0
  -15.0058   -3.4139  -22.5738 H   0  0  0  0  0
  -14.5903   -3.1606  -24.2868 H   0  0  0  0  0
  -14.7868    0.6043  -24.0778 H   0  0  0  0  0
  -13.2584   -0.2958  -23.9204 H   0  0  0  0  0
  -14.4318   -0.7473  -25.1815 H   0  0  0  0  0
  1  2  4  0  0  0
  1  7  4  0  0  0
  2  3  1  0  0  0
  2  4  4  0  0  0
  4  5  4  0  0  0
  5  6  4  0  0  0
  6  7  4  0  0  0
  7  8  1  0  0  0
  8  9  1  0  0  0
  8 23  1  0  0  0
  9 10  1  0  0  0
 10 11  1  0  0  0
 10 15  1  0  0  0
 10 16  1  0  0  0
 11 12  1  0  0  0
 12 13  1  0  0  0
 12 14  2  0  0  0
 16 17  2  0  0  0
 16 18  1  0  0  0
 18 19  1  0  0  0
 18 23  1  0  0  0
 19 20  1  0  0  0
 19 22  1  0  0  0
 20 21  1  0  0  0
 22 31  1  0  0  0
 23 24  1  0  0  0
 24 25  4  0  0  0
 24 30  4  0  0  0
 25 26  4  0  0  0
 26 27  4  0  0  0
 27 28  1  0  0  0
 27 29  4  0  0  0
 29 30  4  0  0  0
 31 32  2  0  0  0
 31 33  2  0  0  0
 31 34  1  0  0  0
 34 35  1  0  0  0
 34 36  1  0  0  0
 34 37  1  0  0  0
  1 38  1  0  0  0
  4 39  1  0  0  0
  5 40  1  0  0  0
  6 41  1  0  0  0
  8 42  1  0  0  0
  9 43  1  0  0  0
  9 44  1  0  0  0
 11 45  1  0  0  0
 11 46  1  0  0  0
 13 47  1  0  0  0
 15 48  1  0  0  0
 15 49  1  0  0  0
 15 50  1  0  0  0
 19 51  1  0  0  0
 20 52  1  0  0  0
 20 53  1  0  0  0
 21 54  1  0  0  0
 21 55  1  0  0  0
 21 56  1  0  0  0
 22 57  1  0  0  0
 22 58  1  0  0  0
 23 59  1  0  0  0
 25 60  1  0  0  0
 26 61  1  0  0  0
 29 62  1  0  0  0
 30 63  1  0  0  0
 35 64  1  0  0  0
 35 65  1  0  0  0
 35 66  1  0  0  0
 36 67  1  0  0  0
 36 68  1  0  0  0
 36 69  1  0  0  0
 37 70  1  0  0  0
 37 71  1  0  0  0
 37 72  1  0  0  0
M  END
$$$$
