3oag_ligand
  -I-interpret- 

 85 90  0  0  0  0  0  0  0  0999 V2000
   24.5230   -6.0440    2.9490 C   0  0  0  0  0
   24.1430   -6.3550    4.4020 C   0  0  0  0  0
   25.1640   -7.0420    5.1710 N   0  3  0  0  0
   26.5340   -6.5420    5.0810 C   0  0  0  0  0
   26.9580   -6.5630    3.6080 C   0  0  0  0  0
   26.0030   -5.7140    2.7330 C   0  0  0  0  0
   26.4060   -5.9330    1.3080 C   0  0  0  0  0
   25.8840   -6.9640    0.5150 C   0  0  0  0  0
   26.2980   -7.1330   -0.7570 N   0  0  0  0  0
   27.2550   -6.3340   -1.3050 C   0  0  0  0  0
   27.8080   -5.3070   -0.5490 C   0  0  0  0  0
   27.3860   -5.1070    0.7580 C   0  0  0  0  0
   27.7150   -6.4780   -2.5960 O   0  0  0  0  0
   27.5980   -7.6750   -3.3600 C   0  0  0  0  0
   28.3770   -6.1370    3.2840 C   0  0  0  0  0
   28.7510   -5.0350    3.6700 O   0  0  0  0  0
   29.1760   -6.9380    2.5360 N   0  0  0  0  0
   28.8810   -7.9000   -4.1510 C   0  0  0  0  0
   29.4640   -9.1500   -3.7520 O   0  0  0  0  0
   30.8190   -9.2030   -3.5710 C   0  0  0  0  0
   31.6330   -9.4900   -4.6450 C   0  0  0  0  0
   33.0180   -9.5310   -4.5060 C   0  0  0  0  0
   33.5790   -9.2960   -3.2560 C   0  0  0  0  0
   32.7690   -9.0080   -2.1660 C   0  0  0  0  0
   31.3900   -8.9610   -2.3340 C   0  0  0  0  0
   30.8500   -9.8110   -6.2030 Cl  0  0  0  0  0
   30.3270   -8.5940   -0.9540 Cl  0  0  0  0  0
   35.0700   -9.3470   -3.0830 C   0  0  0  0  0
   30.5130   -6.5740    2.0410 C   0  0  0  0  0
   28.7560   -8.2480    1.9840 C   0  0  0  0  0
   31.7500   -6.6210    2.9030 C   0  0  0  0  0
   31.6620   -6.8330    4.2670 C   0  0  0  0  0
   32.8200   -6.8680    5.0310 C   0  0  0  0  0
   34.0690   -6.6940    4.4470 C   0  0  0  0  0
   34.1610   -6.4870    3.0730 C   0  0  0  0  0
   33.0000   -6.4520    2.3090 C   0  0  0  0  0
   33.1700   -6.1840    0.5440 Cl  0  0  0  0  0
   32.7090   -7.0760    6.5160 C   0  0  0  0  0
   32.6750   -5.7730    7.1880 N   0  3  0  0  0
   28.5070   -9.2610    3.0980 C   0  0  0  0  0
   29.8030   -9.3240    2.3130 C   0  0  0  0  0
   31.6180   -4.7750    6.9790 C   0  0  0  0  0
   30.9260   -4.4060    8.2910 C   0  0  0  0  0
   30.2260   -5.3180    7.2850 C   0  0  0  0  0
   23.9543   -5.1624    2.6534 H   0  0  0  0  0
   24.3085   -6.9395    2.3657 H   0  0  0  0  0
   23.2782   -7.0176    4.3656 H   0  0  0  0  0
   23.9708   -5.3974    4.8934 H   0  0  0  0  0
   25.1947   -7.9907    4.7975 H   0  0  0  0  0
   24.8946   -6.9253    6.1478 H   0  0  0  0  0
   27.2010   -7.1705    5.6711 H   0  0  0  0  0
   26.5875   -5.5256    5.4711 H   0  0  0  0  0
   26.9044   -7.6271    3.3779 H   0  0  0  0  0
   26.0957   -4.6656    3.0163 H   0  0  0  0  0
   25.1346   -7.6371    0.9314 H   0  0  0  0  0
   28.5713   -4.6602   -0.9816 H   0  0  0  0  0
   27.8203   -4.3047    1.3544 H   0  0  0  0  0
   26.7576   -7.5861   -4.0484 H   0  0  0  0  0
   27.4313   -8.5187   -2.6903 H   0  0  0  0  0
   29.5813   -7.0885   -3.9535 H   0  0  0  0  0
   28.6557   -7.9235   -5.2172 H   0  0  0  0  0
   33.6535   -9.7444   -5.3655 H   0  0  0  0  0
   33.2104   -8.8204   -1.1872 H   0  0  0  0  0
   35.4322  -10.3387   -3.3540 H   0  0  0  0  0
   35.5349   -8.6005   -3.7269 H   0  0  0  0  0
   35.3211   -9.1387   -2.0430 H   0  0  0  0  0
   30.4117   -5.5135    1.8104 H   0  0  0  0  0
   30.7109   -7.3309    1.2820 H   0  0  0  0  0
   28.2148   -7.9238    1.0951 H   0  0  0  0  0
   30.6893   -6.9717    4.7388 H   0  0  0  0  0
   34.9700   -6.7194    5.0599 H   0  0  0  0  0
   35.1343   -6.3536    2.6008 H   0  0  0  0  0
   33.5683   -7.6459    6.8694 H   0  0  0  0  0
   31.7945   -7.6253    6.7397 H   0  0  0  0  0
   33.5038   -5.3062    6.8197 H   0  0  0  0  0
   32.5567   -6.0267    8.1688 H   0  0  0  0  0
   27.7162   -9.9407    3.4154 H   0  0  0  0  0
   28.1884   -9.2595    4.1404 H   0  0  0  0  0
   30.8736   -9.3912    2.5062 H   0  0  0  0  0
   30.4064  -10.0652    1.7889 H   0  0  0  0  0
   32.0640   -4.2265    6.1493 H   0  0  0  0  0
   30.7067   -3.5142    8.8781 H   0  0  0  0  0
   31.1513   -4.3839    9.3572 H   0  0  0  0  0
   29.7019   -6.2737    7.2758 H   0  0  0  0  0
   29.2558   -5.4011    6.7951 H   0  0  0  0  0
  1  2  1  0  0  0
  1  6  1  0  0  0
  2  3  1  0  0  0
  3  4  1  0  0  0
  4  5  1  0  0  0
  5  6  1  0  0  0
  5 15  1  0  0  0
  6  7  1  0  0  0
  7  8  4  0  0  0
  7 12  4  0  0  0
  8  9  4  0  0  0
  9 10  4  0  0  0
 10 11  4  0  0  0
 10 13  1  0  0  0
 11 12  4  0  0  0
 13 14  1  0  0  0
 14 18  1  0  0  0
 15 16  2  0  0  0
 15 17  1  0  0  0
 17 29  1  0  0  0
 17 30  1  0  0  0
 18 19  1  0  0  0
 19 20  1  0  0  0
 20 21  4  0  0  0
 20 25  4  0  0  0
 21 22  4  0  0  0
 21 26  1  0  0  0
 22 23  4  0  0  0
 23 24  4  0  0  0
 23 28  1  0  0  0
 24 25  4  0  0  0
 25 27  1  0  0  0
 29 31  1  0  0  0
 30 40  1  0  0  0
 30 41  1  0  0  0
 31 32  4  0  0  0
 31 36  4  0  0  0
 32 33  4  0  0  0
 33 34  4  0  0  0
 33 38  1  0  0  0
 34 35  4  0  0  0
 35 36  4  0  0  0
 36 37  1  0  0  0
 38 39  1  0  0  0
 39 42  1  0  0  0
 40 41  1  0  0  0
 42 43  1  0  0  0
 42 44  1  0  0  0
 43 44  1  0  0  0
  1 45  1  0  0  0
  1 46  1  0  0  0
  2 47  1  0  0  0
  2 48  1  0  0  0
  3 49  1  0  0  0
  3 50  1  0  0  0
  4 51  1  0  0  0
  4 52  1  0  0  0
  5 53  1  0  0  0
  6 54  1  0  0  0
  8 55  1  0  0  0
 11 56  1  0  0  0
 12 57  1  0  0  0
 14 58  1  0  0  0
 14 59  1  0  0  0
 18 60  1  0  0  0
 18 61  1  0  0  0
 22 62  1  0  0  0
 24 63  1  0  0  0
 28 64  1  0  0  0
 28 65  1  0  0  0
 28 66  1  0  0  0
 29 67  1  0  0  0
 29 68  1  0  0  0
 30 69  1  0  0  0
 32 70  1  0  0  0
 34 71  1  0  0  0
 35 72  1  0  0  0
 38 73  1  0  0  0
 38 74  1  0  0  0
 39 75  1  0  0  0
 39 76  1  0  0  0
 40 77  1  0  0  0
 40 78  1  0  0  0
 41 79  1  0  0  0
 41 80  1  0  0  0
 42 81  1  0  0  0
 43 82  1  0  0  0
 43 83  1  0  0  0
 44 84  1  0  0  0
 44 85  1  0  0  0
M  END
$$$$
