3eoc_ligand
  -I-interpret- 

 50 53  0  0  0  0  0  0  0  0999 V2000
    0.0510   91.8050   30.5140 N   0  0  0  0  0
    0.6360   91.9280   32.8490 C   0  0  0  0  0
    0.4750   91.2270   31.6810 C   0  0  0  0  0
    0.6800   89.9050   31.3650 C   0  0  0  0  0
   -0.4080   91.1640   28.0970 C   0  0  0  0  0
   -1.0430   91.5730   25.4700 C   0  0  0  0  0
   -1.6450   91.6780   27.7820 C   0  0  0  0  0
   -0.6700   96.9130   28.5480 C   0  0  0  0  0
   -1.5440   97.9240   28.8830 C   0  0  0  0  0
   -2.0090   98.0210   30.1790 C   0  0  0  0  0
   -0.2530   93.2240   30.5070 N   0  0  0  0  0
   -0.0710   93.8260   31.6920 C   0  0  0  0  0
    0.3520   93.2350   32.8200 N   0  0  0  0  0
    0.3580   89.7700   30.0290 N   0  0  0  0  0
   -0.0260   90.9350   29.5040 C   0  0  0  0  0
    0.5120   90.8520   27.1190 C   0  0  0  0  0
    0.1940   91.0590   25.7960 C   0  0  0  0  0
   -1.9580   91.8800   26.4550 C   0  0  0  0  0
    1.1310   88.7590   32.1470 C   0  0  0  0  0
   -0.3290   95.2020   31.8210 N   0  0  0  0  0
   -0.7180   96.0940   30.8040 C   0  0  0  0  0
   -0.2560   96.0090   29.5070 C   0  0  0  0  0
   -1.5920   97.1090   31.1270 C   0  0  0  0  0
   -2.8960   99.0400   30.5040 O   0  0  0  0  0
   -2.7070   99.3690   31.8750 C   0  0  0  0  0
   -1.9560   98.8260   27.9150 O   0  0  0  0  0
   -1.0530   99.9230   27.9700 C   0  0  0  0  0
   -0.2110   96.8350   27.2440 O   0  0  0  0  0
    0.2610   95.5090   27.0460 C   0  0  0  0  0
    0.9805   91.4412   33.7614 H   0  0  0  0  0
   -1.3002   91.7383   24.4238 H   0  0  0  0  0
   -2.3626   91.9204   28.5658 H   0  0  0  0  0
    1.4852   90.4439   27.3917 H   0  0  0  0  0
    0.9135   90.8188   25.0132 H   0  0  0  0  0
   -2.9330   92.2842   26.1829 H   0  0  0  0  0
    2.1289   88.9576   32.5380 H   0  0  0  0  0
    0.4417   88.5916   32.9747 H   0  0  0  0  0
    1.1582   87.8745   31.5106 H   0  0  0  0  0
   -0.2225   95.5978   32.7550 H   0  0  0  0  0
    0.4442   95.2190   29.2356 H   0  0  0  0  0
   -1.9605   97.1931   32.1494 H   0  0  0  0  0
   -2.9027   98.4897   32.4887 H   0  0  0  0  0
   -1.6801   99.7003   32.0296 H   0  0  0  0  0
   -3.3938  100.1682   32.1536 H   0  0  0  0  0
   -1.0902  100.3732   28.9620 H   0  0  0  0  0
   -0.0418   99.5701   27.7674 H   0  0  0  0  0
   -1.3372  100.6637   27.2226 H   0  0  0  0  0
    1.0665   95.3024   27.7507 H   0  0  0  0  0
   -0.5557   94.8058   27.2094 H   0  0  0  0  0
    0.6328   95.4055   26.0266 H   0  0  0  0  0
  1  3  4  0  0  0
 11  1  4  0  0  0
  1 15  4  0  0  0
  2  3  4  0  0  0
 13  2  4  0  0  0
  3  4  4  0  0  0
  4 14  4  0  0  0
  4 19  1  0  0  0
  5  7  4  0  0  0
 15  5  1  0  0  0
  5 16  4  0  0  0
 17  6  4  0  0  0
 18  6  4  0  0  0
  7 18  4  0  0  0
  8  9  4  0  0  0
 22  8  4  0  0  0
  8 28  1  0  0  0
  9 10  4  0  0  0
  9 26  1  0  0  0
 10 23  4  0  0  0
 10 24  1  0  0  0
 12 11  4  0  0  0
 12 13  4  0  0  0
 20 12  1  0  0  0
 15 14  4  0  0  0
 16 17  4  0  0  0
 21 20  1  0  0  0
 21 22  4  0  0  0
 21 23  4  0  0  0
 24 25  1  0  0  0
 26 27  1  0  0  0
 28 29  1  0  0  0
  2 30  1  0  0  0
  6 31  1  0  0  0
  7 32  1  0  0  0
 16 33  1  0  0  0
 17 34  1  0  0  0
 18 35  1  0  0  0
 19 36  1  0  0  0
 19 37  1  0  0  0
 19 38  1  0  0  0
 20 39  1  0  0  0
 22 40  1  0  0  0
 23 41  1  0  0  0
 25 42  1  0  0  0
 25 43  1  0  0  0
 25 44  1  0  0  0
 27 45  1  0  0  0
 27 46  1  0  0  0
 27 47  1  0  0  0
 29 48  1  0  0  0
 29 49  1  0  0  0
 29 50  1  0  0  0
M  END
$$$$
