2zgm_ligand
  -I-interpret- 

 45 46  0  0  0  0  0  0  0  0999 V2000
    9.5060   -8.0180   40.8820 C   0  0  0  0  0
   10.7320   -7.9960   39.9460 C   0  0  0  0  0
   10.4040   -7.1080   38.7420 C   0  0  0  0  0
    9.1630   -7.6750   38.0200 C   0  0  0  0  0
    7.9920   -7.7170   39.0530 C   0  0  0  0  0
    6.7630   -8.2950   38.3670 C   0  0  0  0  0
    9.8470   -8.8610   42.0000 O   0  0  0  0  0
   11.8810   -7.4560   40.6390 O   0  0  0  0  0
   11.5270   -7.0720   37.8460 O   0  0  0  0  0
    9.4520   -9.0030   37.5230 O   0  0  0  0  0
    8.3540   -8.5640   40.1890 O   0  0  0  0  0
    5.6630   -8.3480   39.2860 O   0  0  0  0  0
    7.9870   -9.6400   45.6890 C   0  0  0  0  0
    7.5830  -10.5300   44.4890 C   0  0  0  0  0
    8.6700  -10.4210   43.4340 C   0  0  0  0  0
    8.7900   -8.9450   42.9960 C   0  0  0  0  0
    9.1300   -8.1060   44.2720 C   0  0  0  0  0
    9.2110   -6.6170   43.9020 C   0  0  0  0  0
    6.9690   -9.7430   46.6960 O   0  0  0  0  0
    7.4800  -11.9000   44.8940 O   0  0  0  0  0
    8.3320  -11.2280   42.3090 O   0  0  0  0  0
    8.0900   -8.2560   45.2810 O   0  0  0  0  0
    9.5130   -5.8360   45.0640 O   0  0  0  0  0
    9.2532   -7.0099   41.2105 H   0  0  0  0  0
   10.9638   -9.0106   39.6221 H   0  0  0  0  0
   10.1930   -6.0928   39.0779 H   0  0  0  0  0
    8.8882   -7.0504   37.1700 H   0  0  0  0  0
    7.7873   -6.7096   39.4155 H   0  0  0  0  0
    6.9883   -9.3038   38.0210 H   0  0  0  0  0
    6.4932   -7.6600   37.5232 H   0  0  0  0  0
   12.0880   -8.0115   41.3941 H   0  0  0  0  0
   12.2912   -6.7179   38.3066 H   0  0  0  0  0
   10.1729   -8.9570   36.8907 H   0  0  0  0  0
    4.8943   -8.7139   38.8424 H   0  0  0  0  0
    8.9521   -9.9728   46.0711 H   0  0  0  0  0
    6.6190  -10.2001   44.1018 H   0  0  0  0  0
    9.6192  -10.7656   43.8443 H   0  0  0  0  0
    7.8699   -8.5607   42.5556 H   0  0  0  0  0
   10.0814   -8.4633   44.6660 H   0  0  0  0  0
    8.2515   -6.2970   43.4957 H   0  0  0  0  0
    9.9981   -6.4750   43.1615 H   0  0  0  0  0
    7.2071   -9.1950   47.4474 H   0  0  0  0  0
    7.2291  -12.4376   44.1393 H   0  0  0  0  0
    9.0221  -11.1554   41.6456 H   0  0  0  0  0
    9.5611   -4.9085   44.8211 H   0  0  0  0  0
  1  2  1  0  0  0
  7  1  1  0  0  0
  1 11  1  0  0  0
  2  3  1  0  0  0
  2  8  1  0  0  0
  3  4  1  0  0  0
  3  9  1  0  0  0
  5  4  1  0  0  0
  4 10  1  0  0  0
  5  6  1  0  0  0
 11  5  1  0  0  0
  6 12  1  0  0  0
 16  7  1  0  0  0
 14 13  1  0  0  0
 13 19  1  0  0  0
 13 22  1  0  0  0
 15 14  1  0  0  0
 14 20  1  0  0  0
 15 16  1  0  0  0
 15 21  1  0  0  0
 16 17  1  0  0  0
 17 18  1  0  0  0
 17 22  1  0  0  0
 18 23  1  0  0  0
  1 24  1  0  0  0
  2 25  1  0  0  0
  3 26  1  0  0  0
  4 27  1  0  0  0
  5 28  1  0  0  0
  6 29  1  0  0  0
  6 30  1  0  0  0
  8 31  1  0  0  0
  9 32  1  0  0  0
 10 33  1  0  0  0
 12 34  1  0  0  0
 13 35  1  0  0  0
 14 36  1  0  0  0
 15 37  1  0  0  0
 16 38  1  0  0  0
 17 39  1  0  0  0
 18 40  1  0  0  0
 18 41  1  0  0  0
 19 42  1  0  0  0
 20 43  1  0  0  0
 21 44  1  0  0  0
 23 45  1  0  0  0
M  END
$$$$
