3vap_ligand
  -I-interpret- 

 70 75  0  0  0  0  0  0  0  0999 V2000
    9.7650   24.4620    5.5840 C   0  0  0  0  0
    2.3940   35.8260    4.9610 C   0  0  0  0  0
    7.3380   29.1230    9.3820 C   0  0  0  0  0
    8.5590   29.9720    7.7370 C   0  0  0  0  0
    9.8050   23.1890    4.9920 C   0  0  0  0  0
   12.1970   23.1590    5.1710 C   0  0  0  0  0
    5.7560   32.0320    8.9780 C   0  0  0  0  0
    7.3680   30.1210    8.4410 C   0  0  0  0  0
   10.9960   25.0890    5.9840 C   0  0  0  0  0
   12.2440   24.3790    5.7520 C   0  0  0  0  0
    6.4080   31.1670    8.1410 C   0  0  0  0  0
    1.9280   36.1660    3.6520 C   0  0  0  0  0
    3.2030   34.7300    4.8330 C   0  0  0  0  0
    5.1680   32.5230    6.9140 C   0  0  0  0  0
    6.2650   30.8280    5.5900 C   0  0  0  0  0
    4.6740   33.0930    5.7140 C   0  0  0  0  0
    5.7200   31.3930    4.4940 C   0  0  0  0  0
    9.9730   27.1620    6.9330 C   0  0  0  0  0
    3.2330   39.6030    1.1670 C   0  0  0  0  0
    2.1350   39.9810    0.1350 C   0  0  0  0  0
    2.6170   39.0780    2.4840 C   0  0  0  0  0
    0.4640   38.6600    1.3870 C   0  0  0  0  0
    0.9720   38.9430   -0.0220 C   0  0  0  0  0
    6.0990   30.9290    3.1290 C   0  0  0  0  0
    1.1800   37.6040   -0.7900 C   0  0  0  0  0
    1.0780   37.3240    3.3970 C   0  0  0  0  0
   10.3670   28.3090    7.8390 C   0  0  0  0  0
    8.4290   28.3490    9.2640 N   0  0  0  0  0
    2.3520   35.4420    2.5990 N   0  0  0  0  0
    4.9700   32.5370    4.5400 N   0  0  0  0  0
    9.1310   28.9020    8.2810 N   0  0  0  0  0
    5.9480   31.4210    6.8410 N   0  0  0  0  0
   11.0000   22.6330    4.8150 N   0  0  0  0  0
    5.0830   32.8690    8.1780 N   0  0  0  0  0
   11.0540   26.3840    6.5700 N   0  0  0  0  0
    3.8110   34.1780    5.8820 N   0  0  0  0  0
    1.5670   38.0580    2.1950 N   0  3  0  0  0
    8.8160   26.9910    6.5910 O   0  0  0  0  0
   13.5110   24.8080    6.0590 F   0  0  0  0  0
    3.3980   34.2750    3.0950 S   0  0  0  0  0
    8.8124   24.9687    5.7384 H   0  0  0  0  0
    2.1499   36.3440    5.8885 H   0  0  0  0  0
    6.5457   28.9796   10.1167 H   0  0  0  0  0
    8.9372   30.5918    6.9240 H   0  0  0  0  0
    8.8918   22.6766    4.6893 H   0  0  0  0  0
   13.1163   22.6020    4.9901 H   0  0  0  0  0
    5.7797   32.0382   10.0677 H   0  0  0  0  0
    6.9176   29.9578    5.5194 H   0  0  0  0  0
    3.8176   40.4952    1.3912 H   0  0  0  0  0
    3.8531   38.8158    0.7383 H   0  0  0  0  0
    2.6286   40.0436   -0.8348 H   0  0  0  0  0
    1.6802   40.9058    0.4900 H   0  0  0  0  0
    2.1648   39.9112    3.0220 H   0  0  0  0  0
    3.4018   38.6197    3.0858 H   0  0  0  0  0
   -0.3759   37.9669    1.3407 H   0  0  0  0  0
    0.1359   39.5900    1.8513 H   0  0  0  0  0
    0.2767   39.4336   -0.7031 H   0  0  0  0  0
    7.1703   31.0681    2.9838 H   0  0  0  0  0
    5.8509   29.8729    3.0237 H   0  0  0  0  0
    5.5520   31.5080    2.3849 H   0  0  0  0  0
    1.4661   37.8179   -1.8198 H   0  0  0  0  0
    1.9675   37.0271   -0.3051 H   0  0  0  0  0
    0.2514   37.0332   -0.7806 H   0  0  0  0  0
    1.1074   37.9885    4.2605 H   0  0  0  0  0
    0.0560   36.9880    3.2218 H   0  0  0  0  0
   10.9891   29.0337    7.3137 H   0  0  0  0  0
   10.9640   27.9614    8.6822 H   0  0  0  0  0
   11.9813   26.7743    6.7377 H   0  0  0  0  0
    3.6446   34.5513    6.8165 H   0  0  0  0  0
    2.0106   37.3311    1.6334 H   0  0  0  0  0
  1  5  4  0  0  0
  9  1  4  0  0  0
  2 12  4  0  0  0
 13  2  4  0  0  0
  8  3  4  0  0  0
  3 28  4  0  0  0
  4  8  4  0  0  0
 31  4  4  0  0  0
  5 33  4  0  0  0
 10  6  4  0  0  0
  6 33  4  0  0  0
 11  7  4  0  0  0
  7 34  4  0  0  0
  8 11  1  0  0  0
  9 10  4  0  0  0
 35  9  1  0  0  0
 10 39  1  0  0  0
 11 32  4  0  0  0
 12 26  1  0  0  0
 12 29  4  0  0  0
 36 13  1  0  0  0
 13 40  4  0  0  0
 14 16  4  0  0  0
 32 14  4  0  0  0
 14 34  4  0  0  0
 15 17  4  0  0  0
 32 15  4  0  0  0
 16 30  4  0  0  0
 16 36  1  0  0  0
 17 24  1  0  0  0
 17 30  4  0  0  0
 27 18  1  0  0  0
 18 35  1  0  0  0
 18 38  2  0  0  0
 19 20  1  0  0  0
 21 19  1  0  0  0
 23 20  1  0  0  0
 37 21  1  0  0  0
 22 23  1  0  0  0
 37 22  1  0  0  0
 23 25  1  0  0  0
 26 37  1  0  0  0
 27 31  1  0  0  0
 28 31  4  0  0  0
 29 40  4  0  0  0
  1 41  1  0  0  0
  2 42  1  0  0  0
  3 43  1  0  0  0
  4 44  1  0  0  0
  5 45  1  0  0  0
  6 46  1  0  0  0
  7 47  1  0  0  0
 15 48  1  0  0  0
 19 49  1  0  0  0
 19 50  1  0  0  0
 20 51  1  0  0  0
 20 52  1  0  0  0
 21 53  1  0  0  0
 21 54  1  0  0  0
 22 55  1  0  0  0
 22 56  1  0  0  0
 23 57  1  0  0  0
 24 58  1  0  0  0
 24 59  1  0  0  0
 24 60  1  0  0  0
 25 61  1  0  0  0
 25 62  1  0  0  0
 25 63  1  0  0  0
 26 64  1  0  0  0
 26 65  1  0  0  0
 27 66  1  0  0  0
 27 67  1  0  0  0
 35 68  1  0  0  0
 36 69  1  0  0  0
 37 70  1  0  0  0
M  END
$$$$
