6fgl_ligand
  -I-interpret- 

 42 44  0  0  0  0  0  0  0  0999 V2000
  -33.8620   37.6930  -20.1520 C   0  0  0  0  0
  -33.9350   39.1130  -20.7040 C   0  0  0  0  0
  -32.9340   39.7370  -20.9870 O   0  0  0  0  0
  -35.2360   39.6880  -20.8760 N   0  0  0  0  0
  -36.3620   39.0220  -20.5870 C   0  0  0  0  0
  -37.4370   39.8530  -20.8840 C   0  0  0  0  0
  -38.8270   39.4720  -20.7160 N   0  0  0  0  0
  -39.5240   39.7980  -19.5130 C   0  0  0  0  0
  -38.7600   40.5380  -18.4560 C   0  0  0  0  0
  -40.6900   39.4760  -19.3570 O   0  0  0  0  0
  -39.5350   38.7640  -21.7670 C   0  0  0  0  0
  -39.8280   37.3830  -21.7130 C   0  0  0  0  0
  -39.4000   36.5220  -20.5410 C   0  0  0  0  0
  -40.5310   36.7840  -22.7740 C   0  0  0  0  0
  -40.9320   37.5480  -23.8730 C   0  0  0  0  0
  -40.6390   38.9110  -23.9190 C   0  0  0  0  0
  -39.9470   39.5160  -22.8650 C   0  0  0  0  0
  -41.0440   39.7080  -25.0130 O   0  0  0  0  0
  -36.8940   41.1060  -21.3850 C   0  0  0  0  0
  -35.5100   40.9480  -21.3650 C   0  0  0  0  0
  -34.6480   41.9920  -21.7950 C   0  0  0  0  0
  -35.2020   43.1910  -22.2360 C   0  0  0  0  0
  -36.6040   43.3620  -22.2620 C   0  0  0  0  0
  -37.4580   42.3330  -21.8430 C   0  0  0  0  0
  -33.3640   37.0482  -20.8761 H   0  0  0  0  0
  -33.2991   37.6959  -19.2186 H   0  0  0  0  0
  -34.8709   37.3237  -19.9682 H   0  0  0  0  0
  -36.4245   38.0089  -20.1897 H   0  0  0  0  0
  -39.2525   41.4887  -18.2520 H   0  0  0  0  0
  -38.7302   39.9400  -17.5452 H   0  0  0  0  0
  -37.7438   40.7213  -18.8052 H   0  0  0  0  0
  -38.3141   36.5474  -20.4506 H   0  0  0  0  0
  -39.8512   36.9058  -19.6260 H   0  0  0  0  0
  -39.7281   35.4959  -20.7067 H   0  0  0  0  0
  -40.7638   35.7197  -22.7387 H   0  0  0  0  0
  -41.4737   37.0790  -24.6943 H   0  0  0  0  0
  -39.7285   40.5832  -22.9028 H   0  0  0  0  0
  -40.7567   40.6131  -24.8718 H   0  0  0  0  0
  -33.5666   41.8563  -21.7799 H   0  0  0  0  0
  -34.5506   44.0016  -22.5628 H   0  0  0  0  0
  -37.0260   44.3042  -22.6116 H   0  0  0  0  0
  -38.5393   42.4687  -21.8669 H   0  0  0  0  0
  1  2  1  0  0  0
  2  3  2  0  0  0
  2  4  1  0  0  0
  4  5  4  0  0  0
  4 20  4  0  0  0
  5  6  4  0  0  0
  6  7  1  0  0  0
  6 19  4  0  0  0
  7  8  1  0  0  0
  7 11  1  0  0  0
  8  9  1  0  0  0
  8 10  2  0  0  0
 11 12  4  0  0  0
 11 17  4  0  0  0
 12 13  1  0  0  0
 12 14  4  0  0  0
 14 15  4  0  0  0
 15 16  4  0  0  0
 16 17  4  0  0  0
 16 18  1  0  0  0
 19 20  4  0  0  0
 19 24  4  0  0  0
 20 21  4  0  0  0
 21 22  4  0  0  0
 22 23  4  0  0  0
 23 24  4  0  0  0
  1 25  1  0  0  0
  1 26  1  0  0  0
  1 27  1  0  0  0
  5 28  1  0  0  0
  9 29  1  0  0  0
  9 30  1  0  0  0
  9 31  1  0  0  0
 13 32  1  0  0  0
 13 33  1  0  0  0
 13 34  1  0  0  0
 14 35  1  0  0  0
 15 36  1  0  0  0
 17 37  1  0  0  0
 18 38  1  0  0  0
 21 39  1  0  0  0
 22 40  1  0  0  0
 23 41  1  0  0  0
 24 42  1  0  0  0
M  END
$$$$
