5lb7_ligand
  -I-interpret- 

 54 54  0  0  0  0  0  0  0  0999 V2000
  109.1530  173.5940   61.4700 N   0  3  0  0  0
  109.4710  175.0130   61.3420 C   0  0  0  0  0
  109.4380  175.4550   59.8840 C   0  0  0  0  0
  109.3010  176.6440   59.5880 O   0  0  0  0  0
  110.8450  175.3170   61.9460 C   0  0  0  0  0
  110.8620  175.0560   63.3380 O   0  0  0  0  0
  109.5620  174.4880   58.9760 N   0  0  0  0  0
  109.6240  174.7610   57.5460 C   0  0  0  0  0
  108.3590  174.3530   56.8060 C   0  0  0  0  0
  108.3290  174.4010   55.5720 O   0  0  0  0  0
  110.8730  174.1270   56.9320 C   0  0  0  0  0
  112.1400  174.7720   57.3930 C   0  0  0  0  0
  112.7090  174.4180   58.6040 C   0  0  0  0  0
  112.7390  175.7680   56.6390 C   0  0  0  0  0
  113.8630  175.0230   59.0440 C   0  0  0  0  0
  113.8940  176.3770   57.0730 C   0  0  0  0  0
  114.4590  176.0020   58.2770 C   0  0  0  0  0
  107.3180  173.9550   57.5280 N   0  0  0  0  0
  106.0190  173.7460   56.9180 C   0  0  0  0  0
  105.5490  175.0690   56.3250 C   0  0  0  0  0
  105.3870  176.0590   57.0400 O   0  0  0  0  0
  105.0190  173.2280   57.9530 C   0  0  0  0  0
  105.2850  171.8170   58.4770 C   0  0  0  0  0
  104.2160  171.4120   59.4770 C   0  0  0  0  0
  105.3480  170.8280   57.3250 C   0  0  0  0  0
  105.3220  175.1750   55.1190 O   0  0  0  0  0
  108.2356  173.4143   61.0621 H   0  0  0  0  0
  109.8581  173.0433   60.9801 H   0  0  0  0  0
  109.1440  173.3365   62.4569 H   0  0  0  0  0
  108.7118  175.5711   61.8899 H   0  0  0  0  0
  111.0691  176.3718   61.7871 H   0  0  0  0  0
  111.5858  174.6794   61.4635 H   0  0  0  0  0
  111.7331  175.2548   63.6891 H   0  0  0  0  0
  109.6155  173.5202   59.2937 H   0  0  0  0  0
  109.6954  175.8424   57.4298 H   0  0  0  0  0
  110.8113  174.2501   55.8507 H   0  0  0  0  0
  110.9009  173.0816   57.2395 H   0  0  0  0  0
  112.2366  173.6501   59.2166 H   0  0  0  0  0
  112.2911  176.0721   55.6930 H   0  0  0  0  0
  114.3052  174.7296   59.9961 H   0  0  0  0  0
  114.3623  177.1536   56.4683 H   0  0  0  0  0
  115.3762  176.4802   58.6207 H   0  0  0  0  0
  107.4340  173.7936   58.5284 H   0  0  0  0  0
  106.0929  172.9966   56.1300 H   0  0  0  0  0
  105.5989  175.8340   57.9489 H   0  0  0  0  0
  104.0483  173.1973   57.4581 H   0  0  0  0  0
  105.0874  173.8958   58.8117 H   0  0  0  0  0
  106.2485  171.8105   58.9867 H   0  0  0  0  0
  104.2215  172.1090   60.3150 H   0  0  0  0  0
  103.2401  171.4326   58.9920 H   0  0  0  0  0
  104.4220  170.4048   59.8391 H   0  0  0  0  0
  104.3989  170.8355   56.7890 H   0  0  0  0  0
  106.1521  171.1131   56.6466 H   0  0  0  0  0
  105.5380  169.8284   57.7159 H   0  0  0  0  0
  1  2  1  0  0  0
  2  3  1  0  0  0
  2  5  1  0  0  0
  3  4  2  0  0  0
  3  7  1  0  0  0
  5  6  1  0  0  0
  7  8  1  0  0  0
  8  9  1  0  0  0
  8 11  1  0  0  0
  9 10  2  0  0  0
  9 18  1  0  0  0
 11 12  1  0  0  0
 12 13  4  0  0  0
 12 14  4  0  0  0
 13 15  4  0  0  0
 14 16  4  0  0  0
 15 17  4  0  0  0
 16 17  4  0  0  0
 18 19  1  0  0  0
 19 20  1  0  0  0
 19 22  1  0  0  0
 20 21  1  0  0  0
 20 26  2  0  0  0
 22 23  1  0  0  0
 23 24  1  0  0  0
 23 25  1  0  0  0
  1 27  1  0  0  0
  1 28  1  0  0  0
  1 29  1  0  0  0
  2 30  1  0  0  0
  5 31  1  0  0  0
  5 32  1  0  0  0
  6 33  1  0  0  0
  7 34  1  0  0  0
  8 35  1  0  0  0
 11 36  1  0  0  0
 11 37  1  0  0  0
 13 38  1  0  0  0
 14 39  1  0  0  0
 15 40  1  0  0  0
 16 41  1  0  0  0
 17 42  1  0  0  0
 18 43  1  0  0  0
 19 44  1  0  0  0
 21 45  1  0  0  0
 22 46  1  0  0  0
 22 47  1  0  0  0
 23 48  1  0  0  0
 24 49  1  0  0  0
 24 50  1  0  0  0
 24 51  1  0  0  0
 25 52  1  0  0  0
 25 53  1  0  0  0
 25 54  1  0  0  0
M  END
$$$$
