5nw2_ligand
  -I-interpret- 

 70 73  0  0  0  0  0  0  0  0999 V2000
   10.6230   57.0060   97.9340 C   0  0  0  0  0
   10.3430   58.3720   97.5480 O   0  0  0  0  0
    9.9810   57.9640   96.2120 C   0  0  0  0  0
   10.3360   56.5460   96.4970 C   0  0  0  0  0
   11.6230   56.1470   95.7720 C   0  0  0  0  0
   12.6420   56.8250   95.9050 O   0  0  0  0  0
   11.6220   55.0110   95.0790 N   0  0  0  0  0
   12.5640   54.2390   94.2560 C   0  0  0  0  0
   12.6410   52.7630   94.7300 C   0  0  0  0  0
   13.6080   51.9770   93.8270 C   0  0  0  0  0
   11.2730   52.0700   94.7170 C   0  0  0  0  0
   13.2050   52.7810   96.1580 C   0  0  0  0  0
   12.1680   54.4630   92.7700 C   0  0  0  0  0
   11.0100   54.3110   92.4230 O   0  0  0  0  0
   13.1290   54.8710   91.9030 N   0  0  0  0  0
   14.5740   55.1910   92.1520 C   0  0  0  0  0
   14.9850   56.0650   90.9720 C   0  0  0  0  0
   14.6380   57.4520   91.1930 O   0  0  0  0  0
   14.1730   55.5010   89.8230 C   0  0  0  0  0
   12.8200   55.0680   90.4360 C   0  0  0  0  0
   12.3870   53.8750   89.7860 C   0  0  0  0  0
   12.8180   52.7830   90.1250 O   0  0  0  0  0
   11.5360   54.0140   88.7550 N   0  0  0  0  0
   11.0600   52.8870   87.9190 C   0  0  0  0  0
   11.9050   52.6690   86.7570 C   0  0  0  0  0
   11.8260   51.4780   86.0470 C   0  0  0  0  0
   12.6210   51.2260   84.9140 C   0  0  0  0  0
   12.8280   53.6090   86.2850 C   0  0  0  0  0
   13.6270   53.3650   85.1450 C   0  0  0  0  0
   13.5440   52.1710   84.4320 C   0  0  0  0  0
   14.3180   51.9470   83.3340 C   0  0  0  0  0
   15.9540   52.3920   83.1170 S   0  0  0  0  0
   16.1140   51.7690   81.5980 C   0  0  0  0  0
   14.9380   51.2460   81.2470 N   0  0  0  0  0
   13.9600   51.3490   82.1740 C   0  0  0  0  0
   12.5710   50.7600   81.8640 C   0  0  0  0  0
   10.0890   56.5537   98.7697 H   0  0  0  0  0
   11.5716   56.7557   98.4089 H   0  0  0  0  0
   10.4474   58.4641   95.3632 H   0  0  0  0  0
    8.9813   58.1935   95.8431 H   0  0  0  0  0
    9.6717   55.7123   96.2695 H   0  0  0  0  0
   10.7154   54.5468   95.1343 H   0  0  0  0  0
   13.5929   54.5815   94.3666 H   0  0  0  0  0
   13.2489   52.0082   92.7983 H   0  0  0  0  0
   14.5996   52.4263   93.8808 H   0  0  0  0  0
   13.6579   50.9418   94.1645 H   0  0  0  0  0
   10.5916   52.6014   95.3814 H   0  0  0  0  0
   10.8732   52.0771   93.7030 H   0  0  0  0  0
   11.3853   51.0406   95.0574 H   0  0  0  0  0
   14.1952   53.2366   96.1505 H   0  0  0  0  0
   12.5424   53.3595   96.8017 H   0  0  0  0  0
   13.2764   51.7597   96.5320 H   0  0  0  0  0
   15.1838   54.2904   92.2232 H   0  0  0  0  0
   14.7198   55.6993   93.1051 H   0  0  0  0  0
   16.0610   56.0511   90.7984 H   0  0  0  0  0
   14.9094   57.9734   90.4340 H   0  0  0  0  0
   14.6825   54.6601   89.3525 H   0  0  0  0  0
   14.0328   56.2414   89.0354 H   0  0  0  0  0
   12.0096   55.7863   90.3125 H   0  0  0  0  0
   11.1978   54.9508   88.5350 H   0  0  0  0  0
   10.0562   53.1261   87.5678 H   0  0  0  0  0
   11.0798   51.9824   88.5268 H   0  0  0  0  0
   11.1244   50.7127   86.3788 H   0  0  0  0  0
   12.5187   50.2725   84.3958 H   0  0  0  0  0
   12.9338   54.5572   86.8120 H   0  0  0  0  0
   14.3274   54.1321   84.8146 H   0  0  0  0  0
   17.0186   51.7823   80.9900 H   0  0  0  0  0
   12.3424   49.9737   82.5834 H   0  0  0  0  0
   11.8202   51.5472   81.9334 H   0  0  0  0  0
   12.5708   50.3438   80.8566 H   0  0  0  0  0
  1  2  1  0  0  0
  1  4  1  0  0  0
  2  3  1  0  0  0
  3  4  1  0  0  0
  4  5  1  0  0  0
  5  6  2  0  0  0
  5  7  1  0  0  0
  7  8  1  0  0  0
  8  9  1  0  0  0
  8 13  1  0  0  0
  9 10  1  0  0  0
  9 11  1  0  0  0
  9 12  1  0  0  0
 13 14  2  0  0  0
 13 15  1  0  0  0
 15 16  1  0  0  0
 15 20  1  0  0  0
 16 17  1  0  0  0
 17 18  1  0  0  0
 17 19  1  0  0  0
 19 20  1  0  0  0
 20 21  1  0  0  0
 21 22  2  0  0  0
 21 23  1  0  0  0
 23 24  1  0  0  0
 24 25  1  0  0  0
 25 26  4  0  0  0
 25 28  4  0  0  0
 26 27  4  0  0  0
 27 30  4  0  0  0
 28 29  4  0  0  0
 29 30  4  0  0  0
 30 31  1  0  0  0
 31 32  4  0  0  0
 31 35  4  0  0  0
 32 33  4  0  0  0
 33 34  4  0  0  0
 34 35  4  0  0  0
 35 36  1  0  0  0
  1 37  1  0  0  0
  1 38  1  0  0  0
  3 39  1  0  0  0
  3 40  1  0  0  0
  4 41  1  0  0  0
  7 42  1  0  0  0
  8 43  1  0  0  0
 10 44  1  0  0  0
 10 45  1  0  0  0
 10 46  1  0  0  0
 11 47  1  0  0  0
 11 48  1  0  0  0
 11 49  1  0  0  0
 12 50  1  0  0  0
 12 51  1  0  0  0
 12 52  1  0  0  0
 16 53  1  0  0  0
 16 54  1  0  0  0
 17 55  1  0  0  0
 18 56  1  0  0  0
 19 57  1  0  0  0
 19 58  1  0  0  0
 20 59  1  0  0  0
 23 60  1  0  0  0
 24 61  1  0  0  0
 24 62  1  0  0  0
 26 63  1  0  0  0
 27 64  1  0  0  0
 28 65  1  0  0  0
 29 66  1  0  0  0
 33 67  1  0  0  0
 36 68  1  0  0  0
 36 69  1  0  0  0
 36 70  1  0  0  0
M  END
$$$$
