1y2b_ligand
  -I-interpret- 

 23 23  0  0  0  0  0  0  0  0999 V2000
   15.6700   45.7620    9.5570 O   0  0  0  0  0
   14.5740   45.6030   10.0890 C   0  0  0  0  0
   13.3850   45.6210    9.4050 O   0  0  0  0  0
   13.4510   45.6730    7.9680 C   0  0  0  0  0
   12.0460   45.7730    7.4160 C   0  0  0  0  0
   14.4040   45.6220   11.5430 C   0  0  0  0  0
   13.2490   45.7810   12.3090 C   0  0  0  0  0
   11.8200   45.9840   11.9680 C   0  0  0  0  0
   15.4360   45.4790   12.5170 C   0  0  0  0  0
   16.8870   45.2740   12.2810 C   0  0  0  0  0
   14.9680   45.5390   13.7700 N   0  0  0  0  0
   13.6520   45.7250   13.6140 N   0  0  0  0  0
   13.9326   44.7718    7.5885 H   0  0  0  0  0
   14.0316   46.5415    7.6571 H   0  0  0  0  0
   11.4716   44.9006    7.7277 H   0  0  0  0  0
   11.5710   46.6773    7.7965 H   0  0  0  0  0
   12.0866   45.8129    6.3275 H   0  0  0  0  0
   11.7127   46.9011   11.3888 H   0  0  0  0  0
   11.4643   45.1378   11.3802 H   0  0  0  0  0
   11.2364   46.0618   12.8853 H   0  0  0  0  0
   17.0356   44.3525   11.7181 H   0  0  0  0  0
   17.2840   46.1158   11.7138 H   0  0  0  0  0
   17.4031   45.2036   13.2385 H   0  0  0  0  0
  2  1  2  0  0  0
  2  3  1  0  0  0
  2  6  1  0  0  0
  3  4  1  0  0  0
  4  5  1  0  0  0
  6  7  4  0  0  0
  6  9  4  0  0  0
  7  8  1  0  0  0
  7 12  4  0  0  0
  9 10  1  0  0  0
  9 11  4  0  0  0
 11 12  4  0  0  0
  4 13  1  0  0  0
  4 14  1  0  0  0
  5 15  1  0  0  0
  5 16  1  0  0  0
  5 17  1  0  0  0
  8 18  1  0  0  0
  8 19  1  0  0  0
  8 20  1  0  0  0
 10 21  1  0  0  0
 10 22  1  0  0  0
 10 23  1  0  0  0
M  END
$$$$
