5i5x_ligand
  -I-interpret- 

 26 28  0  0  0  0  0  0  0  0999 V2000
  -12.5170   38.3800   23.7810 C   0  0  0  0  0
  -14.6840   37.9580   23.8110 C   0  0  0  0  0
   -6.5100   38.5290   22.2620 C   0  0  0  0  0
  -10.2190   36.4100   21.5670 C   0  0  0  0  0
  -10.8200   37.3580   22.5310 C   0  0  0  0  0
  -10.1320   38.3170   23.2570 C   0  0  0  0  0
  -11.1340   39.2650   24.2960 S   0  0  0  0  0
  -13.7290   38.6900   24.2890 N   0  0  0  0  0
  -14.5210   36.9540   22.8820 N   0  0  0  0  0
  -13.3020   36.6140   22.3440 C   0  0  0  0  0
  -13.2050   35.7200   21.5170 O   0  0  0  0  0
  -12.2090   37.4170   22.8500 C   0  0  0  0  0
   -8.6730   38.6870   23.3350 C   0  0  0  0  0
   -8.2460   39.2990   24.2990 O   0  0  0  0  0
   -7.8620   38.2740   22.3220 N   0  0  0  0  0
   -5.7780   38.3030   21.1950 N   0  0  0  0  0
   -4.4800   38.6600   21.4420 N   0  0  0  0  0
   -4.2730   39.1090   22.6380 C   0  0  0  0  0
   -5.6790   39.1650   23.6270 S   0  0  0  0  0
  -15.6945   38.1510   24.1713 H   0  0  0  0  0
   -9.7342   36.9673   20.7655 H   0  0  0  0  0
   -9.4816   35.7918   22.0790 H   0  0  0  0  0
  -11.0000   35.7750   21.1488 H   0  0  0  0  0
  -15.3459   36.4368   22.5779 H   0  0  0  0  0
   -8.2824   37.7423   21.5597 H   0  0  0  0  0
   -3.2906   39.4250   22.9889 H   0  0  0  0  0
  7  1  4  0  0  0
  1  8  1  0  0  0
  1 12  4  0  0  0
  8  2  2  0  0  0
  2  9  1  0  0  0
 15  3  1  0  0  0
  3 16  4  0  0  0
  3 19  4  0  0  0
  5  4  1  0  0  0
  6  5  4  0  0  0
  5 12  4  0  0  0
  6  7  4  0  0  0
 13  6  1  0  0  0
 10  9  1  0  0  0
 10 11  2  0  0  0
 12 10  1  0  0  0
 13 14  2  0  0  0
 13 15  1  0  0  0
 16 17  4  0  0  0
 17 18  4  0  0  0
 18 19  4  0  0  0
  2 20  1  0  0  0
  4 21  1  0  0  0
  4 22  1  0  0  0
  4 23  1  0  0  0
  9 24  1  0  0  0
 15 25  1  0  0  0
 18 26  1  0  0  0
M  END
$$$$
