5m0m_ligand
  -I-interpret- 

 97102  0  0  0  0  0  0  0  0999 V2000
  -17.3650  -23.0060    3.3360 C   0  0  0  0  0
  -16.6280  -22.9710    4.6750 C   0  0  0  0  0
  -16.4040  -21.5260    5.1150 C   0  0  0  0  0
  -17.6280  -20.8300    5.6710 C   0  0  0  0  0
  -17.5480  -19.3290    5.5470 C   0  0  0  0  0
  -18.5300  -18.6790    5.1880 O   0  0  0  0  0
  -16.3540  -18.7780    5.8300 N   0  0  0  0  0
  -16.0510  -17.3600    5.6920 C   0  0  0  0  0
  -13.8780  -16.9680    4.8860 N   0  0  0  0  0
  -12.5200  -17.0130    4.8130 C   0  0  0  0  0
  -11.7990  -17.1550    5.7900 O   0  0  0  0  0
  -12.1060  -16.8290    3.5280 O   0  0  0  0  0
  -10.6860  -16.9570    3.2050 C   0  0  0  0  0
  -10.4900  -17.0090    1.7100 C   0  0  0  0  0
   -9.8390  -15.9850    1.0150 C   0  0  0  0  0
   -9.6730  -16.0730   -0.3570 C   0  0  0  0  0
   -8.8740  -14.8110   -1.2680 Cl  0  0  0  0  0
  -10.1330  -17.1680   -1.0640 C   0  0  0  0  0
  -10.7630  -18.1760   -0.3640 C   0  0  0  0  0
  -11.3450  -19.5550   -1.2560 Cl  0  0  0  0  0
  -10.9450  -18.1090    0.9980 C   0  0  0  0  0
  -15.2790  -23.7180    4.6510 C   0  0  0  0  0
  -14.7240  -23.9720    6.0800 C   0  0  0  0  0
  -13.8500  -25.2390    5.9900 C   0  0  0  0  0
  -13.7940  -25.5420    4.4940 C   0  0  0  0  0
  -13.3240  -26.9190    4.0320 C   0  0  0  0  0
  -11.9360  -27.2850    4.5810 C   0  0  0  0  0
  -11.9480  -27.3610    6.0210 O   0  0  0  0  0
  -11.4420  -28.6230    4.0300 C   0  0  0  0  0
  -11.5090  -28.7290    2.5000 C   0  0  0  0  0
  -10.3920  -27.9020    1.8320 C   0  0  0  0  0
  -10.4270  -27.9820    0.3120 C   0  0  0  0  0
   -9.4160  -27.1420   -0.2690 O   0  0  0  0  0
  -11.7880  -27.5690   -0.1980 C   0  0  0  0  0
  -12.8670  -28.4610    0.4110 C   0  0  0  0  0
  -12.9340  -28.4160    1.9580 C   0  0  0  0  0
  -13.9370  -29.5160    2.4000 C   0  0  0  0  0
  -13.3570  -27.0070    2.4860 C   0  0  0  0  0
  -14.6890  -26.5010    1.9100 C   0  0  0  0  0
  -15.1250  -25.1370    2.4550 C   0  0  0  0  0
  -15.1830  -25.1160    3.9870 C   0  0  0  0  0
  -16.3180  -26.0240    4.5020 C   0  0  0  0  0
  -14.6360  -16.9890    6.1470 C   0  0  0  0  0
  -16.1590  -16.8480    4.2460 C   0  0  0  0  0
  -14.7500  -16.8720    3.6990 C   0  0  0  0  0
  -16.7456  -22.5402    2.5695 H   0  0  0  0  0
  -17.5680  -24.0411    3.0614 H   0  0  0  0  0
  -18.3050  -22.4615    3.4258 H   0  0  0  0  0
  -17.2666  -23.4908    5.3892 H   0  0  0  0  0
  -16.1015  -20.9700    4.2276 H   0  0  0  0  0
  -15.6653  -21.5517    5.9161 H   0  0  0  0  0
  -17.7013  -21.0757    6.7304 H   0  0  0  0  0
  -18.4938  -21.1680    5.1015 H   0  0  0  0  0
  -15.6121  -19.3936    6.1631 H   0  0  0  0  0
  -16.8025  -16.8961    6.3308 H   0  0  0  0  0
  -10.3030  -17.8774    3.6457 H   0  0  0  0  0
  -10.1519  -16.0945    3.6035 H   0  0  0  0  0
   -9.4616  -15.1161    1.5541 H   0  0  0  0  0
  -10.0017  -17.2332   -2.1441 H   0  0  0  0  0
  -11.4485  -18.9231    1.5194 H   0  0  0  0  0
  -14.7243  -23.0112    4.0339 H   0  0  0  0  0
  -15.5349  -24.1067    6.7958 H   0  0  0  0  0
  -14.1417  -23.1197    6.4302 H   0  0  0  0  0
  -14.2628  -26.0680    6.5648 H   0  0  0  0  0
  -12.8593  -25.0895    6.4192 H   0  0  0  0  0
  -12.9722  -24.9866    4.0420 H   0  0  0  0  0
  -14.0181  -27.6531    4.4411 H   0  0  0  0  0
  -11.2602  -26.4930    4.2583 H   0  0  0  0  0
  -11.0705  -27.5906    6.3355 H   0  0  0  0  0
  -12.0891  -29.3999    4.4373 H   0  0  0  0  0
  -10.3952  -28.7247    4.3163 H   0  0  0  0  0
  -11.3192  -29.7661    2.2232 H   0  0  0  0  0
   -9.4349  -28.3032    2.1654 H   0  0  0  0  0
  -10.5345  -26.8590    2.1147 H   0  0  0  0  0
  -10.2295  -29.0138    0.0213 H   0  0  0  0  0
   -9.4572  -27.2087   -1.2258 H   0  0  0  0  0
  -11.8099  -27.6698   -1.2831 H   0  0  0  0  0
  -11.9775  -26.5334    0.0844 H   0  0  0  0  0
  -12.6305  -29.4873    0.1302 H   0  0  0  0  0
  -13.8267  -28.1032    0.0381 H   0  0  0  0  0
  -13.6124  -30.4802    2.0089 H   0  0  0  0  0
  -13.9725  -29.5573    3.4886 H   0  0  0  0  0
  -14.9277  -29.2798    2.0116 H   0  0  0  0  0
  -12.5959  -26.3245    2.1078 H   0  0  0  0  0
  -15.4572  -27.2218    2.1900 H   0  0  0  0  0
  -14.5553  -26.3917    0.8338 H   0  0  0  0  0
  -16.1243  -24.9241    2.0752 H   0  0  0  0  0
  -14.3947  -24.3945    2.1334 H   0  0  0  0  0
  -16.2319  -26.1333    5.5831 H   0  0  0  0  0
  -17.2804  -25.5751    4.2564 H   0  0  0  0  0
  -16.2411  -27.0031    4.0293 H   0  0  0  0  0
  -14.2280  -17.6916    6.8736 H   0  0  0  0  0
  -14.5987  -16.0380    6.6783 H   0  0  0  0  0
  -16.5832  -15.8446    4.2096 H   0  0  0  0  0
  -16.8274  -17.4712    3.6519 H   0  0  0  0  0
  -14.5965  -17.7088    3.0176 H   0  0  0  0  0
  -14.5314  -15.9816    3.1094 H   0  0  0  0  0
  2  1  1  0  0  0
  3  2  1  0  0  0
  2 22  1  0  0  0
  4  3  1  0  0  0
  5  4  1  0  0  0
  5  6  2  0  0  0
  7  5  1  0  0  0
  8  7  1  0  0  0
 43  8  1  0  0  0
  8 44  1  0  0  0
  9 10  1  0  0  0
  9 43  1  0  0  0
  9 45  1  0  0  0
 10 11  2  0  0  0
 10 12  1  0  0  0
 12 13  1  0  0  0
 13 14  1  0  0  0
 14 15  4  0  0  0
 14 21  4  0  0  0
 15 16  4  0  0  0
 16 17  1  0  0  0
 16 18  4  0  0  0
 18 19  4  0  0  0
 19 20  1  0  0  0
 19 21  4  0  0  0
 22 23  1  0  0  0
 22 41  1  0  0  0
 23 24  1  0  0  0
 24 25  1  0  0  0
 25 26  1  0  0  0
 25 41  1  0  0  0
 26 27  1  0  0  0
 26 38  1  0  0  0
 27 28  1  0  0  0
 27 29  1  0  0  0
 29 30  1  0  0  0
 30 31  1  0  0  0
 30 36  1  0  0  0
 31 32  1  0  0  0
 32 33  1  0  0  0
 32 34  1  0  0  0
 34 35  1  0  0  0
 35 36  1  0  0  0
 36 37  1  0  0  0
 36 38  1  0  0  0
 38 39  1  0  0  0
 39 40  1  0  0  0
 40 41  1  0  0  0
 41 42  1  0  0  0
 44 45  1  0  0  0
  1 46  1  0  0  0
  1 47  1  0  0  0
  1 48  1  0  0  0
  2 49  1  0  0  0
  3 50  1  0  0  0
  3 51  1  0  0  0
  4 52  1  0  0  0
  4 53  1  0  0  0
  7 54  1  0  0  0
  8 55  1  0  0  0
 13 56  1  0  0  0
 13 57  1  0  0  0
 15 58  1  0  0  0
 18 59  1  0  0  0
 21 60  1  0  0  0
 22 61  1  0  0  0
 23 62  1  0  0  0
 23 63  1  0  0  0
 24 64  1  0  0  0
 24 65  1  0  0  0
 25 66  1  0  0  0
 26 67  1  0  0  0
 27 68  1  0  0  0
 28 69  1  0  0  0
 29 70  1  0  0  0
 29 71  1  0  0  0
 30 72  1  0  0  0
 31 73  1  0  0  0
 31 74  1  0  0  0
 32 75  1  0  0  0
 33 76  1  0  0  0
 34 77  1  0  0  0
 34 78  1  0  0  0
 35 79  1  0  0  0
 35 80  1  0  0  0
 37 81  1  0  0  0
 37 82  1  0  0  0
 37 83  1  0  0  0
 38 84  1  0  0  0
 39 85  1  0  0  0
 39 86  1  0  0  0
 40 87  1  0  0  0
 40 88  1  0  0  0
 42 89  1  0  0  0
 42 90  1  0  0  0
 42 91  1  0  0  0
 43 92  1  0  0  0
 43 93  1  0  0  0
 44 94  1  0  0  0
 44 95  1  0  0  0
 45 96  1  0  0  0
 45 97  1  0  0  0
M  END
$$$$
