5ur5_ligand
  -I-interpret- 

 43 44  0  0  0  0  0  0  0  0999 V2000
   -2.9500   -8.2090  -20.4210 C   0  0  0  0  0
   -1.5660   -8.8350  -20.4190 C   0  0  0  0  0
   -1.6990  -10.3410  -20.6190 C   0  0  0  0  0
   -1.7060  -11.2140  -19.5220 C   0  0  0  0  0
   -1.8050  -10.8470  -21.9130 C   0  0  0  0  0
   -1.7940   -9.9380  -23.0520 C   0  0  0  0  0
   -1.7910   -9.2010  -23.9790 N   0  0  0  0  0
   -1.9110  -12.2230  -22.1110 C   0  0  0  0  0
   -2.0270  -12.8000  -23.5150 C   0  0  0  0  0
   -1.9150  -13.0860  -21.0180 C   0  0  0  0  0
   -1.8110  -12.5960  -19.7170 C   0  0  0  0  0
   -1.8320  -13.5680  -18.6490 N   0  0  0  0  0
   -1.0030  -13.3730  -17.2150 S   0  0  0  0  0
   -1.0730  -12.0170  -16.7800 O   0  0  0  0  0
   -1.4840  -14.3860  -16.3190 O   0  0  0  0  0
    0.7310  -13.7560  -17.5200 C   0  0  0  0  0
    1.3220  -12.7620  -18.5130 C   0  0  0  0  0
    1.3350  -13.0410  -19.8810 C   0  0  0  0  0
    1.8720  -12.1190  -20.7780 C   0  0  0  0  0
    2.4100  -10.9230  -20.2990 C   0  0  0  0  0
    3.0090   -9.8950  -21.2480 C   0  0  0  0  0
    2.4020  -10.6530  -18.9410 C   0  0  0  0  0
    1.8620  -11.5700  -18.0440 C   0  0  0  0  0
   -3.4374   -8.4112  -21.3748 H   0  0  0  0  0
   -3.5417   -8.6361  -19.6114 H   0  0  0  0  0
   -2.8605   -7.1321  -20.2783 H   0  0  0  0  0
   -1.0739   -8.6336  -19.4675 H   0  0  0  0  0
   -0.9699   -8.4092  -21.2261 H   0  0  0  0  0
   -1.6292  -10.8140  -18.5110 H   0  0  0  0  0
   -2.9194  -12.4014  -23.9977 H   0  0  0  0  0
   -1.1454  -12.5243  -24.0937 H   0  0  0  0  0
   -2.0990  -13.8860  -23.4553 H   0  0  0  0  0
   -2.0007  -14.1602  -21.1821 H   0  0  0  0  0
   -2.3820  -14.4172  -18.7783 H   0  0  0  0  0
    0.8072  -14.7617  -17.9333 H   0  0  0  0  0
    1.2811  -13.6928  -16.5812 H   0  0  0  0  0
    0.9245  -13.9816  -20.2483 H   0  0  0  0  0
    1.8719  -12.3306  -21.8473 H   0  0  0  0  0
    3.8385  -10.3455  -21.7931 H   0  0  0  0  0
    2.2459   -9.5651  -21.9529 H   0  0  0  0  0
    3.3701   -9.0408  -20.6753 H   0  0  0  0  0
    2.8211   -9.7168  -18.5723 H   0  0  0  0  0
    1.8625  -11.3539  -16.9756 H   0  0  0  0  0
  1  2  1  0  0  0
  2  3  1  0  0  0
  3  4  4  0  0  0
  3  5  4  0  0  0
  4 11  4  0  0  0
  5  6  1  0  0  0
  5  8  4  0  0  0
  6  7  3  0  0  0
  8  9  1  0  0  0
  8 10  4  0  0  0
 10 11  4  0  0  0
 11 12  1  0  0  0
 12 13  1  0  0  0
 13 14  2  0  0  0
 13 15  2  0  0  0
 13 16  1  0  0  0
 16 17  1  0  0  0
 17 18  4  0  0  0
 17 23  4  0  0  0
 18 19  4  0  0  0
 19 20  4  0  0  0
 20 21  1  0  0  0
 20 22  4  0  0  0
 22 23  4  0  0  0
  1 24  1  0  0  0
  1 25  1  0  0  0
  1 26  1  0  0  0
  2 27  1  0  0  0
  2 28  1  0  0  0
  4 29  1  0  0  0
  9 30  1  0  0  0
  9 31  1  0  0  0
  9 32  1  0  0  0
 10 33  1  0  0  0
 12 34  1  0  0  0
 16 35  1  0  0  0
 16 36  1  0  0  0
 18 37  1  0  0  0
 19 38  1  0  0  0
 21 39  1  0  0  0
 21 40  1  0  0  0
 21 41  1  0  0  0
 22 42  1  0  0  0
 23 43  1  0  0  0
M  END
$$$$
