2a2x_ligand
  -I-interpret- 

 67 68  0  0  0  0  0  0  0  0999 V2000
   12.4160   20.9810   22.4580 C   0  0  0  0  0
   12.1040   22.2140   23.0930 C   0  0  0  0  0
   12.7230   23.3480   22.7090 N   0  0  0  0  0
   13.6450   23.3730   21.7340 C   0  0  0  0  0
   14.0050   22.1920   21.0610 C   0  0  0  0  0
   13.3810   20.9770   21.4290 C   0  0  0  0  0
   15.0460   22.2250   19.9720 C   0  0  0  0  0
   11.1000   22.2730   24.1850 C   0  0  0  0  0
   10.3980   21.1890   24.5240 N   0  0  0  0  0
   10.9090   23.4190   24.8350 N   0  0  0  0  0
   16.3750   22.1220   20.5990 N   0  0  0  0  0
   17.1270   20.9880   20.5150 C   0  0  0  0  0
   18.4710   20.9460   21.1980 C   0  0  0  0  0
   16.7290   20.0050   19.9140 O   0  0  0  0  0
   19.5720   21.3730   20.2110 C   0  0  0  0  0
   19.7050   18.6630   21.1420 C   0  0  0  0  0
   18.7030   19.5640   21.7630 N   0  0  0  0  0
   17.9700   19.1410   22.8710 C   0  0  0  0  0
   18.1620   17.7540   23.4920 C   0  0  0  0  0
   17.1470   19.8810   23.3700 O   0  0  0  0  0
   16.9170   16.9810   23.3260 N   0  3  0  0  0
   16.3280   16.7280   22.0020 C   0  0  0  0  0
   14.8510   16.4450   22.1540 C   0  0  0  0  0
   14.3770   16.2070   23.2590 O   0  0  0  0  0
   14.1270   16.4540   21.1660 O   0  0  0  0  0
   18.4380   17.8530   24.9980 C   0  0  0  0  0
   19.8950   18.0940   25.4300 C   0  0  0  0  0
   20.9610   17.6870   24.3790 C   0  0  0  0  0
   22.3790   17.9240   24.9520 C   0  0  0  0  0
   22.5640   19.4070   25.3530 C   0  0  0  0  0
   21.4970   19.8170   26.3920 C   0  0  0  0  0
   20.0780   19.5860   25.8140 C   0  0  0  0  0
   11.9202   20.0584   22.7597 H   0  0  0  0  0
   14.1185   24.3163   21.4617 H   0  0  0  0  0
   13.6430   20.0478   20.9230 H   0  0  0  0  0
   14.9692   23.1555   19.4095 H   0  0  0  0  0
   14.8925   21.3946   19.2828 H   0  0  0  0  0
    9.7158   21.2392   25.2806 H   0  0  0  0  0
   10.5439   20.3107   24.0263 H   0  0  0  0  0
   10.2267   23.4686   25.5915 H   0  0  0  0  0
   16.7437   22.9232   21.1114 H   0  0  0  0  0
   18.4967   21.6498   22.0299 H   0  0  0  0  0
   19.5787   20.6925   19.3595 H   0  0  0  0  0
   19.3747   22.3877   19.8653 H   0  0  0  0  0
   20.5397   21.3401   20.7116 H   0  0  0  0  0
   19.4319   18.4793   20.1029 H   0  0  0  0  0
   20.6882   19.1318   21.1832 H   0  0  0  0  0
   19.7284   17.7184   21.6853 H   0  0  0  0  0
   19.0071   17.2768   22.9958 H   0  0  0  0  0
   16.2150   17.5529   23.7956 H   0  0  0  0  0
   17.1663   16.0499   23.6596 H   0  0  0  0  0
   16.8177   15.8683   21.5445 H   0  0  0  0  0
   16.4670   17.6043   21.3688 H   0  0  0  0  0
   15.0739   16.2389   23.9185 H   0  0  0  0  0
   18.1617   16.8843   25.4143 H   0  0  0  0  0
   17.8782   18.7213   25.3455 H   0  0  0  0  0
   20.0657   17.4407   26.2856 H   0  0  0  0  0
   20.8299   18.2899   23.4805 H   0  0  0  0  0
   20.8424   16.6312   24.1355 H   0  0  0  0  0
   23.1150   17.6701   24.1891 H   0  0  0  0  0
   22.5114   17.3001   25.8359 H   0  0  0  0  0
   22.4567   20.0319   24.4664 H   0  0  0  0  0
   23.5545   19.5374   25.7889 H   0  0  0  0  0
   21.6184   20.8731   26.6331 H   0  0  0  0  0
   21.6208   19.2128   27.2907 H   0  0  0  0  0
   19.3370   19.8551   26.5667 H   0  0  0  0  0
   19.9494   20.2027   24.9245 H   0  0  0  0  0
  1  2  4  0  0  0
  1  6  4  0  0  0
  2  3  4  0  0  0
  2  8  1  0  0  0
  3  4  4  0  0  0
  4  5  4  0  0  0
  5  6  4  0  0  0
  5  7  1  0  0  0
  7 11  1  0  0  0
  8  9  1  0  0  0
  8 10  2  0  0  0
 11 12  1  0  0  0
 12 13  1  0  0  0
 12 14  2  0  0  0
 13 15  1  0  0  0
 13 17  1  0  0  0
 17 16  1  0  0  0
 17 18  1  0  0  0
 18 19  1  0  0  0
 18 20  2  0  0  0
 19 21  1  0  0  0
 19 26  1  0  0  0
 21 22  1  0  0  0
 22 23  1  0  0  0
 23 24  1  0  0  0
 23 25  2  0  0  0
 26 27  1  0  0  0
 27 28  1  0  0  0
 27 32  1  0  0  0
 28 29  1  0  0  0
 29 30  1  0  0  0
 30 31  1  0  0  0
 31 32  1  0  0  0
  1 33  1  0  0  0
  4 34  1  0  0  0
  6 35  1  0  0  0
  7 36  1  0  0  0
  7 37  1  0  0  0
  9 38  1  0  0  0
  9 39  1  0  0  0
 10 40  1  0  0  0
 11 41  1  0  0  0
 13 42  1  0  0  0
 15 43  1  0  0  0
 15 44  1  0  0  0
 15 45  1  0  0  0
 16 46  1  0  0  0
 16 47  1  0  0  0
 16 48  1  0  0  0
 19 49  1  0  0  0
 21 50  1  0  0  0
 21 51  1  0  0  0
 22 52  1  0  0  0
 22 53  1  0  0  0
 24 54  1  0  0  0
 26 55  1  0  0  0
 26 56  1  0  0  0
 27 57  1  0  0  0
 28 58  1  0  0  0
 28 59  1  0  0  0
 29 60  1  0  0  0
 29 61  1  0  0  0
 30 62  1  0  0  0
 30 63  1  0  0  0
 31 64  1  0  0  0
 31 65  1  0  0  0
 32 66  1  0  0  0
 32 67  1  0  0  0
M  END
$$$$
