5zxi_ligand
  -I-interpret- 

 61 64  0  0  0  0  0  0  0  0999 V2000
   -0.9300    2.3540   47.9520 C   0  0  0  0  0
   -0.2310    1.0200   47.6800 C   0  0  0  0  0
   -1.0140   -0.0190   48.4650 C   0  0  0  0  0
   -0.5570   -1.4270   48.1570 C   0  0  0  0  0
    0.9130   -3.7830   47.5690 C   0  0  0  0  0
    3.5470   -3.9610   48.4780 C   0  0  0  0  0
    3.4660   -1.5010   49.1710 C   0  0  0  0  0
    5.7620   -1.3960   48.1750 C   0  0  0  0  0
    5.7560   -1.7320   50.2640 C   0  0  0  0  0
    5.3320   -1.9870   51.6710 C   0  0  0  0  0
    4.0590   -3.2250   53.2730 C   0  0  0  0  0
    4.3750   -2.7520   55.6820 C   0  0  0  0  0
    3.4340   -3.4270   57.5360 C   0  0  0  0  0
   -0.9270    3.3320   45.4570 O   0  0  0  0  0
    0.0010    3.7840   46.1730 C   0  0  0  0  0
    0.0600    3.4530   47.6350 C   0  0  0  0  0
    0.8540   -1.4740   48.2340 O   0  0  0  0  0
    1.5250   -2.6810   48.1220 C   0  0  0  0  0
    1.6140   -5.0170   47.5130 C   0  0  0  0  0
    2.9340   -5.0900   47.9350 C   0  0  0  0  0
    2.8410   -2.7590   48.5820 C   0  0  0  0  0
    4.9480   -1.5590   49.2230 N   0  0  0  0  0
    5.4620   -1.1800   46.7210 C   0  0  0  0  0
    7.0940   -1.4670   48.5300 C   0  0  0  0  0
    7.0810   -1.7050   49.8720 N   0  0  0  0  0
    4.3700   -2.9820   51.9480 C   0  0  0  0  0
    4.7050   -2.4790   54.2910 C   0  0  0  0  0
    3.3630   -3.5250   56.1830 C   0  0  0  0  0
    4.4430   -2.5690   57.8870 C   0  0  0  0  0
    5.0220   -2.1100   56.7220 O   0  0  0  0  0
    5.6460   -1.5440   53.9990 C   0  0  0  0  0
    5.9660   -1.2950   52.6710 C   0  0  0  0  0
    0.9110    4.5530   45.7440 O   0  0  0  0  0
   -1.2490    2.4142   48.9925 H   0  0  0  0  0
   -1.8222    2.4521   47.3336 H   0  0  0  0  0
    0.8142    1.0477   47.9880 H   0  0  0  0  0
   -0.2167    0.7875   46.6152 H   0  0  0  0  0
   -2.0648    0.0659   48.1879 H   0  0  0  0  0
   -0.8544    0.1658   49.5273 H   0  0  0  0  0
   -0.8824   -1.7108   47.1561 H   0  0  0  0  0
   -0.9900   -2.1220   48.8765 H   0  0  0  0  0
   -0.1015   -3.7092   47.1772 H   0  0  0  0  0
    4.5797   -4.0161   48.8223 H   0  0  0  0  0
    3.1019   -1.3968   50.1931 H   0  0  0  0  0
    3.1889   -0.6624   48.5322 H   0  0  0  0  0
    3.3222   -3.9849   53.5332 H   0  0  0  0  0
    2.7855   -3.9522   58.2373 H   0  0  0  0  0
    1.0654    3.1163   47.8880 H   0  0  0  0  0
   -0.1892    4.3410   48.2159 H   0  0  0  0  0
    1.1136   -5.9095   47.1374 H   0  0  0  0  0
    3.4883   -6.0240   47.8427 H   0  0  0  0  0
    4.8922   -2.0271   46.3391 H   0  0  0  0  0
    4.8797   -0.2661   46.6033 H   0  0  0  0  0
    6.3969   -1.0904   46.1678 H   0  0  0  0  0
    7.9631   -1.3572   47.8813 H   0  0  0  0  0
    3.8887   -3.5398   51.1447 H   0  0  0  0  0
    2.6412   -4.1057   55.6087 H   0  0  0  0  0
    4.7350   -2.2984   58.9017 H   0  0  0  0  0
    6.1443   -0.9953   54.7982 H   0  0  0  0  0
    6.7214   -0.5493   52.4232 H   0  0  0  0  0
    1.5095    4.7706   46.4624 H   0  0  0  0  0
  2  1  1  0  0  0
  1 16  1  0  0  0
  3  2  1  0  0  0
  4  3  1  0  0  0
 17  4  1  0  0  0
 18  5  4  0  0  0
  5 19  4  0  0  0
  6 20  4  0  0  0
 21  6  4  0  0  0
 21  7  1  0  0  0
  7 22  1  0  0  0
 22  8  4  0  0  0
  8 23  1  0  0  0
  8 24  4  0  0  0
  9 10  1  0  0  0
 22  9  4  0  0  0
  9 25  4  0  0  0
 10 26  4  0  0  0
 10 32  4  0  0  0
 26 11  4  0  0  0
 11 27  4  0  0  0
 27 12  1  0  0  0
 12 28  4  0  0  0
 12 30  4  0  0  0
 28 13  4  0  0  0
 13 29  4  0  0  0
 15 14  2  0  0  0
 16 15  1  0  0  0
 15 33  1  0  0  0
 18 17  1  0  0  0
 18 21  4  0  0  0
 19 20  4  0  0  0
 24 25  4  0  0  0
 27 31  4  0  0  0
 29 30  4  0  0  0
 31 32  4  0  0  0
  1 34  1  0  0  0
  1 35  1  0  0  0
  2 36  1  0  0  0
  2 37  1  0  0  0
  3 38  1  0  0  0
  3 39  1  0  0  0
  4 40  1  0  0  0
  4 41  1  0  0  0
  5 42  1  0  0  0
  6 43  1  0  0  0
  7 44  1  0  0  0
  7 45  1  0  0  0
 11 46  1  0  0  0
 13 47  1  0  0  0
 16 48  1  0  0  0
 16 49  1  0  0  0
 19 50  1  0  0  0
 20 51  1  0  0  0
 23 52  1  0  0  0
 23 53  1  0  0  0
 23 54  1  0  0  0
 24 55  1  0  0  0
 26 56  1  0  0  0
 28 57  1  0  0  0
 29 58  1  0  0  0
 31 59  1  0  0  0
 32 60  1  0  0  0
 33 61  1  0  0  0
M  END
$$$$
