6e4t_ligand
  -I-interpret- 

 59 63  0  0  0  0  0  0  0  0999 V2000
   49.1960  -81.6870  -38.3170 C   0  0  0  0  0
   46.0770  -79.8140  -39.5820 C   0  0  0  0  0
   47.2000  -80.8110  -39.4380 C   0  0  0  0  0
   43.7340  -79.3360  -39.6930 C   0  0  0  0  0
   41.7750  -78.2020  -39.7980 C   0  0  0  0  0
   38.0390  -83.0630  -41.0080 C   0  0  0  0  0
   37.4840  -82.9040  -42.4130 C   0  0  0  0  0
   44.7700  -80.2820  -39.6330 C   0  0  0  0  0
   37.7470  -83.0050  -38.5170 C   0  0  0  0  0
   39.5280  -81.7530  -39.7080 C   0  0  0  0  0
   37.0240  -83.1550  -39.8650 C   0  0  0  0  0
   47.2430  -81.9130  -40.3300 C   0  0  0  0  0
   48.2400  -82.8880  -40.2070 C   0  0  0  0  0
   49.2290  -82.8080  -39.2050 C   0  0  0  0  0
   48.1970  -80.7100  -38.4230 C   0  0  0  0  0
   43.9940  -77.9400  -39.7130 C   0  0  0  0  0
   45.2780  -77.4380  -39.6800 C   0  0  0  0  0
   46.2650  -78.3890  -39.6180 C   0  0  0  0  0
   47.8030  -77.7370  -39.5700 Cl  0  0  0  0  0
   42.7840  -77.2680  -39.7740 N   0  0  0  0  0
   42.3400  -79.4660  -39.7420 C   0  0  0  0  0
   41.7010  -80.7310  -39.6810 C   0  0  0  0  0
   42.2450  -81.8420  -39.5390 O   0  0  0  0  0
   40.3280  -80.5700  -39.7520 O   0  0  0  0  0
   38.5950  -81.7310  -38.4950 C   0  0  0  0  0
   38.7800  -81.8350  -40.9080 O   0  0  0  0  0
   36.3370  -82.7390  -42.7620 O   0  0  0  0  0
   38.4910  -82.9340  -43.3390 O   0  0  0  0  0
   36.3160  -84.3920  -39.9240 O   0  0  0  0  0
   36.8650  -83.0680  -37.3930 O   0  0  0  0  0
   39.3080  -81.6020  -37.2600 O   0  0  0  0  0
   50.2930  -83.9070  -39.0460 C   0  0  0  0  0
   51.6570  -83.4040  -38.5130 C   0  0  0  0  0
   52.3680  -84.1280  -39.6530 C   0  0  0  0  0
   51.0200  -84.3160  -40.3520 C   0  0  0  0  0
   49.8230  -85.0320  -38.3010 O   0  0  0  0  0
   49.9601  -81.5912  -37.5456 H   0  0  0  0  0
   40.7083  -77.9843  -39.8521 H   0  0  0  0  0
   38.5762  -84.0045  -40.8938 H   0  0  0  0  0
   44.5553  -81.3506  -39.6266 H   0  0  0  0  0
   38.4104  -83.8646  -38.4215 H   0  0  0  0  0
   40.1720  -82.6273  -39.6128 H   0  0  0  0  0
   36.2990  -82.3474  -39.9666 H   0  0  0  0  0
   46.4942  -82.0013  -41.1171 H   0  0  0  0  0
   48.2521  -83.7280  -40.9015 H   0  0  0  0  0
   48.1818  -79.8706  -37.7279 H   0  0  0  0  0
   45.4920  -76.3694  -39.7015 H   0  0  0  0  0
   37.9526  -80.8528  -38.5595 H   0  0  0  0  0
   39.3300  -83.0724  -42.8934 H   0  0  0  0  0
   35.8725  -84.4655  -40.7723 H   0  0  0  0  0
   37.3720  -82.9687  -36.5839 H   0  0  0  0  0
   39.8294  -80.7961  -37.2755 H   0  0  0  0  0
   51.9443  -83.5989  -37.4798 H   0  0  0  0  0
   51.8221  -82.3379  -38.3568 H   0  0  0  0  0
   53.0063  -84.9872  -39.4468 H   0  0  0  0  0
   53.1978  -83.6520  -40.1754 H   0  0  0  0  0
   50.8086  -83.7909  -41.2835 H   0  0  0  0  0
   50.7824  -85.2628  -40.8371 H   0  0  0  0  0
   50.5239  -85.6844  -38.2325 H   0  0  0  0  0
  1 14  4  0  0  0
 15  1  4  0  0  0
  2  3  1  0  0  0
  8  2  4  0  0  0
  2 18  4  0  0  0
  3 12  4  0  0  0
  3 15  4  0  0  0
  4  8  4  0  0  0
  4 16  4  0  0  0
 21  4  4  0  0  0
  5 20  4  0  0  0
 21  5  4  0  0  0
  6  7  1  0  0  0
  6 11  1  0  0  0
 26  6  1  0  0  0
  7 27  2  0  0  0
  7 28  1  0  0  0
  9 11  1  0  0  0
 25  9  1  0  0  0
  9 30  1  0  0  0
 24 10  1  0  0  0
 10 25  1  0  0  0
 10 26  1  0  0  0
 11 29  1  0  0  0
 12 13  4  0  0  0
 13 14  4  0  0  0
 14 32  1  0  0  0
 16 17  4  0  0  0
 20 16  4  0  0  0
 17 18  4  0  0  0
 18 19  1  0  0  0
 22 21  1  0  0  0
 22 23  2  0  0  0
 22 24  1  0  0  0
 25 31  1  0  0  0
 32 33  1  0  0  0
 32 35  1  0  0  0
 32 36  1  0  0  0
 33 34  1  0  0  0
 34 35  1  0  0  0
  1 37  1  0  0  0
  5 38  1  0  0  0
  6 39  1  0  0  0
  8 40  1  0  0  0
  9 41  1  0  0  0
 10 42  1  0  0  0
 11 43  1  0  0  0
 12 44  1  0  0  0
 13 45  1  0  0  0
 15 46  1  0  0  0
 17 47  1  0  0  0
 25 48  1  0  0  0
 28 49  1  0  0  0
 29 50  1  0  0  0
 30 51  1  0  0  0
 31 52  1  0  0  0
 33 53  1  0  0  0
 33 54  1  0  0  0
 34 55  1  0  0  0
 34 56  1  0  0  0
 35 57  1  0  0  0
 35 58  1  0  0  0
 36 59  1  0  0  0
M  END
$$$$
