5izu_ligand
  -I-interpret- 

245246  0  0  0  0  0  0  0  0999 V2000
   23.5100   26.0560  -16.5210 N   0  3  0  0  0
   23.3010   25.3320  -15.2670 C   0  0  0  0  0
   24.5660   25.2390  -14.4150 C   0  0  0  0  0
   25.6660   25.0240  -14.9340 O   0  0  0  0  0
   22.7450   23.9380  -15.5380 C   0  0  0  0  0
   24.4040   25.3920  -13.1010 N   0  0  0  0  0
   25.5270   25.2430  -12.1930 C   0  0  0  0  0
   25.1190   24.8790  -10.7520 C   0  0  0  0  0
   23.9990   25.1490  -10.3010 O   0  0  0  0  0
   26.3870   26.5110  -12.2130 C   0  0  0  0  0
   27.8660   26.2180  -12.0280 C   0  0  0  0  0
   28.2080   25.1190  -11.5320 O   0  0  0  0  0
   28.6900   27.0910  -12.3770 O   0  0  0  0  0
   26.0440   24.2660  -10.0280 N   0  0  0  0  0
   25.8290   23.9910   -8.6200 C   0  0  0  0  0
   27.0500   24.4390   -7.8220 C   0  0  0  0  0
   28.1680   23.9830   -8.0790 O   0  0  0  0  0
   25.5540   22.5060   -8.4000 C   0  0  0  0  0
   25.0110   22.3090   -7.1150 O   0  0  0  0  0
   26.8470   25.3450   -6.8690 N   0  0  0  0  0
   27.9740   25.9050   -6.1290 C   0  0  0  0  0
   27.7240   25.9370   -4.6360 C   0  0  0  0  0
   26.6280   26.2900   -4.1850 O   0  0  0  0  0
   28.3210   27.3300   -6.6180 C   0  0  0  0  0
   28.7340   27.3030   -8.0890 C   0  0  0  0  0
   29.4480   27.9330   -5.7960 C   0  0  0  0  0
   27.6820   27.8340   -9.0190 C   0  0  0  0  0
   28.7410   25.5590   -3.8670 N   0  0  0  0  0
   28.6550   25.6100   -2.4090 C   0  0  0  0  0
   29.2380   26.9060   -1.8770 C   0  0  0  0  0
   30.2830   27.3610   -2.3380 O   0  0  0  0  0
   29.3540   24.4080   -1.7820 C   0  0  0  0  0
   28.6320   23.0950   -2.0220 C   0  0  0  0  0
   29.4200   21.8850   -1.5560 C   0  0  0  0  0
   30.5060   22.0600   -0.9520 O   0  0  0  0  0
   28.9500   20.7530   -1.7980 O   0  0  0  0  0
   28.5500   27.5000   -0.9100 N   0  0  0  0  0
   28.9790   28.7600   -0.3180 C   0  0  0  0  0
   28.7030   28.8230    1.1760 C   0  0  0  0  0
   27.6320   28.4260    1.6610 O   0  0  0  0  0
   28.2400   29.9500   -0.9410 C   0  0  0  0  0
   26.7500   29.6300   -1.0260 C   0  0  0  0  0
   28.7900   30.2610   -2.3140 C   0  0  0  0  0
   25.9350   30.7380   -1.5720 C   0  0  0  0  0
   29.6720   29.3460    1.9070 N   0  0  0  0  0
   29.4490   29.6280    3.3020 C   0  0  0  0  0
   28.7960   30.9910    3.4250 C   0  0  0  0  0
   29.3620   32.0010    3.0140 O   0  0  0  0  0
   30.7520   29.5880    4.0770 C   0  0  0  0  0
   31.2590   28.1960    4.3290 C   0  0  0  0  0
   30.8220   27.4680    5.4260 C   0  0  0  0  0
   32.1880   27.6140    3.4800 C   0  0  0  0  0
   31.2920   26.1950    5.6710 C   0  0  0  0  0
   32.6690   26.3470    3.7140 C   0  0  0  0  0
   32.2190   25.6390    4.8130 C   0  0  0  0  0
   32.6980   24.3680    5.0470 O   0  0  0  0  0
   27.5820   30.9960    3.9580 N   0  0  0  0  0
   26.9090   32.2250    4.3260 C   0  0  0  0  0
   27.1170   32.4400    5.8080 C   0  0  0  0  0
   26.9310   31.5250    6.6050 O   0  0  0  0  0
   25.4070   32.1520    4.0220 C   0  0  0  0  0
   25.1960   31.9650    2.5170 C   0  0  0  0  0
   24.6720   33.4050    4.5530 C   0  0  0  0  0
   23.7440   31.8660    2.1440 C   0  0  0  0  0
   27.5340   33.6470    6.1840 N   0  0  0  0  0
   27.7780   33.9240    7.6010 C   0  0  0  0  0
   26.4870   33.9060    8.4420 C   0  0  0  0  0
   25.4000   34.2180    7.9540 O   0  0  0  0  0
   28.4250   35.3110    7.5760 C   0  0  0  0  0
   27.9670   35.9200    6.2820 C   0  0  0  0  0
   27.8660   34.7910    5.3180 C   0  0  0  0  0
   26.6230   33.5090    9.7030 N   0  0  0  0  0
   25.4900   33.4120   10.6200 C   0  0  0  0  0
   25.7690   34.1870   11.9070 C   0  0  0  0  0
   26.9160   34.3230   12.3440 O   0  0  0  0  0
   25.1910   31.9490   10.9620 C   0  0  0  0  0
   24.3510   31.1990    9.9450 C   0  0  0  0  0
   24.0660   29.7500   10.3710 C   0  0  0  0  0
   24.9500   29.1170   10.9890 O   0  0  0  0  0
   22.9560   29.2390   10.0850 O   0  0  0  0  0
   24.7110   34.6990   12.5150 N   0  0  0  0  0
   24.8610   35.4160   13.7580 C   0  0  0  0  0
   24.1540   34.6670   14.8750 C   0  0  0  0  0
   23.2300   33.8900   14.6240 O   0  0  0  0  0
   24.3160   36.8280   13.6170 C   0  0  0  0  0
   24.6130   34.9000   16.1020 N   0  0  0  0  0
   23.9870   34.3720   17.3140 C   0  0  0  0  0
   23.5630   35.5180   18.2140 C   0  0  0  0  0
   24.2900   36.5010   18.3880 O   0  0  0  0  0
   24.9580   33.4930   18.0890 C   0  0  0  0  0
   25.3340   32.2170   17.3960 C   0  0  0  0  0
   26.6460   31.6610   17.9050 C   0  0  0  0  0
   27.7070   32.2630   17.7180 O   0  0  0  0  0
   26.5830   30.5110   18.5590 N   0  0  0  0  0
   22.3860   35.3830   18.7990 N   0  0  0  0  0
   21.8560   36.4220   19.6580 C   0  0  0  0  0
   21.0490   35.8080   20.7880 C   0  0  0  0  0
   20.0600   35.1150   20.5550 O   0  0  0  0  0
   20.9900   37.4150   18.8650 C   0  0  0  0  0
   21.8130   38.1020   17.9110 O   0  0  0  0  0
   20.3670   38.4260   19.8070 C   0  0  0  0  0
   21.4950   36.0450   22.0150 N   0  0  0  0  0
   20.7600   35.5930   23.1800 C   0  0  0  0  0
   19.6070   36.5540   23.4290 C   0  0  0  0  0
   19.8020   37.7700   23.4450 O   0  0  0  0  0
   21.6830   35.4910   24.4050 C   0  0  0  0  0
   20.9520   35.3920   25.7430 C   0  0  0  0  0
   21.8650   34.8880   26.8450 C   0  0  0  0  0
   22.3540   33.5410   26.5560 N   0  0  0  0  0
   21.7010   32.4210   26.8630 C   0  0  0  0  0
   20.5220   32.4780   27.4760 N   0  0  0  0  0
   22.2270   31.2410   26.5540 N   0  0  0  0  0
   18.4060   36.0020   23.5960 N   0  0  0  0  0
   17.2220   36.7990   23.9020 C   0  0  0  0  0
   16.4400   36.2460   25.1050 C   0  0  0  0  0
   16.7920   35.2070   25.6720 O   0  0  0  0  0
   16.3240   36.9110   22.6670 C   0  0  0  0  0
   17.0370   37.5630   21.4680 C   0  0  0  0  0
   16.5100   37.0540   20.1310 C   0  0  0  0  0
   16.9310   39.0860   21.5420 C   0  0  0  0  0
   15.4460   36.8290   25.5600 O   0  0  0  0  0
   23.8814   26.9841  -16.3185 H   0  0  0  0  0
   24.1726   25.5427  -17.1022 H   0  0  0  0  0
   22.6211   26.1442  -17.0135 H   0  0  0  0  0
   22.5739   25.9079  -14.6945 H   0  0  0  0  0
   23.4913   23.3476  -16.0695 H   0  0  0  0  0
   22.5037   23.4541  -14.5915 H   0  0  0  0  0
   21.8440   24.0195  -16.1460 H   0  0  0  0  0
   23.4810   25.6162  -12.7292 H   0  0  0  0  0
   26.1093   24.3957  -12.5550 H   0  0  0  0  0
   26.0657   27.1468  -11.3880 H   0  0  0  0  0
   26.2589   26.9874  -13.1849 H   0  0  0  0  0
   27.4245   24.5998  -11.3365 H   0  0  0  0  0
   26.9202   23.9833  -10.4671 H   0  0  0  0  0
   24.9570   24.5470   -8.2755 H   0  0  0  0  0
   26.4868   21.9489   -8.4874 H   0  0  0  0  0
   24.8449   22.1549   -9.1497 H   0  0  0  0  0
   24.8397   21.3739   -6.9811 H   0  0  0  0  0
   25.8978   25.6503   -6.6540 H   0  0  0  0  0
   28.8179   25.2427   -6.3219 H   0  0  0  0  0
   27.4289   27.9448   -6.4986 H   0  0  0  0  0
   28.9133   26.2623   -8.3588 H   0  0  0  0  0
   29.6131   27.9389   -8.1931 H   0  0  0  0  0
   29.1445   27.9874   -4.7505 H   0  0  0  0  0
   30.3363   27.3077   -5.8858 H   0  0  0  0  0
   29.6687   28.9349   -6.1642 H   0  0  0  0  0
   26.7776   27.2332   -8.9233 H   0  0  0  0  0
   27.4606   28.8698   -8.7616 H   0  0  0  0  0
   28.0467   27.7832  -10.0449 H   0  0  0  0  0
   29.6002   25.2261   -4.3045 H   0  0  0  0  0
   27.6011   25.5736   -2.1331 H   0  0  0  0  0
   29.3856   24.5724   -0.7049 H   0  0  0  0  0
   30.3405   24.3277   -2.2386 H   0  0  0  0  0
   28.4777   22.9947   -3.0964 H   0  0  0  0  0
   27.7016   23.1214   -1.4548 H   0  0  0  0  0
   30.6787   23.0010   -0.8727 H   0  0  0  0  0
   27.6943   27.0606   -0.5708 H   0  0  0  0  0
   30.0510   28.8129   -0.5080 H   0  0  0  0  0
   28.3867   30.8286   -0.3128 H   0  0  0  0  0
   26.3996   29.4359   -0.0123 H   0  0  0  0  0
   26.6367   28.7795   -1.6982 H   0  0  0  0  0
   29.8489   30.5065   -2.2328 H   0  0  0  0  0
   28.6658   29.3914   -2.9593 H   0  0  0  0  0
   28.2506   31.1087   -2.7366 H   0  0  0  0  0
   26.0437   31.6156   -0.9347 H   0  0  0  0  0
   26.2752   30.9750   -2.5801 H   0  0  0  0  0
   24.8879   30.4366   -1.6019 H   0  0  0  0  0
   30.5773   29.5499    1.4836 H   0  0  0  0  0
   28.7931   28.8671    3.7250 H   0  0  0  0  0
   30.5698   30.0503    5.0472 H   0  0  0  0  0
   31.5030   30.1067    3.4811 H   0  0  0  0  0
   30.0942   27.9101    6.1064 H   0  0  0  0  0
   32.5431   28.1701    2.6124 H   0  0  0  0  0
   30.9348   25.6332    6.5341 H   0  0  0  0  0
   33.4000   25.9040    3.0376 H   0  0  0  0  0
   33.3295   24.1342    4.3627 H   0  0  0  0  0
   27.1071   30.1068    4.1138 H   0  0  0  0  0
   27.3221   33.0511    3.7472 H   0  0  0  0  0
   24.9793   31.2923    4.5379 H   0  0  0  0  0
   25.6815   31.0342    2.2237 H   0  0  0  0  0
   25.6137   32.8345    2.0095 H   0  0  0  0  0
   24.8077   33.4741    5.6323 H   0  0  0  0  0
   25.0828   34.2949    4.0762 H   0  0  0  0  0
   23.6094   33.3259    4.3234 H   0  0  0  0  0
   23.2967   31.0125    2.6535 H   0  0  0  0  0
   23.2302   32.7796    2.4432 H   0  0  0  0  0
   23.6554   31.7344    1.0656 H   0  0  0  0  0
   28.4035   33.1658    8.0721 H   0  0  0  0  0
   29.5118   35.2547    7.6375 H   0  0  0  0  0
   28.1314   35.9130    8.4359 H   0  0  0  0  0
   28.6653   36.6801    5.9317 H   0  0  0  0  0
   27.0103   36.4289    6.3992 H   0  0  0  0  0
   27.1213   34.9635    4.5409 H   0  0  0  0  0
   28.7824   34.6382    4.7480 H   0  0  0  0  0
   27.5527   33.2630   10.0430 H   0  0  0  0  0
   24.6226   33.8456   10.1223 H   0  0  0  0  0
   24.6199   31.9577   11.8904 H   0  0  0  0  0
   26.1528   31.4381   11.0075 H   0  0  0  0  0
   24.9047   31.1709    9.0065 H   0  0  0  0  0
   23.3960   31.7159    9.8508 H   0  0  0  0  0
   22.4210   29.8818    9.6136 H   0  0  0  0  0
   23.7848   34.5862   12.1028 H   0  0  0  0  0
   25.9197   35.4856   14.0080 H   0  0  0  0  0
   24.8643   37.3512   12.8336 H   0  0  0  0  0
   23.2589   36.7836   13.3548 H   0  0  0  0  0
   24.4353   37.3582   14.5619 H   0  0  0  0  0
   25.4470   35.4785   16.2030 H   0  0  0  0  0
   23.1225   33.7801   17.0132 H   0  0  0  0  0
   24.4630   33.2158   19.0197 H   0  0  0  0  0
   25.8752   34.0679   18.2169 H   0  0  0  0  0
   25.4424   32.4262   16.3318 H   0  0  0  0  0
   24.5537   31.4810   17.5900 H   0  0  0  0  0
   27.4336   30.0887   18.9312 H   0  0  0  0  0
   25.6839   30.0477   18.6905 H   0  0  0  0  0
   21.8423   34.5342   18.6434 H   0  0  0  0  0
   22.6978   36.9718   20.0789 H   0  0  0  0  0
   20.1989   36.8699   18.3500 H   0  0  0  0  0
   21.2750   38.7228   17.4143 H   0  0  0  0  0
   19.7434   37.9066   20.5346 H   0  0  0  0  0
   21.1554   38.9713   20.3258 H   0  0  0  0  0
   19.7558   39.1246   19.2356 H   0  0  0  0  0
   22.3700   36.5539   22.1407 H   0  0  0  0  0
   20.3618   34.5942   23.0012 H   0  0  0  0  0
   22.2775   36.4042   24.4332 H   0  0  0  0  0
   22.2645   34.5761   24.2909 H   0  0  0  0  0
   20.1266   34.6888   25.6323 H   0  0  0  0  0
   20.6000   36.3867   26.0166 H   0  0  0  0  0
   21.3005   34.8594   27.7770 H   0  0  0  0  0
   22.7208   35.5589   26.9202 H   0  0  0  0  0
   23.2559   33.4527   26.0878 H   0  0  0  0  0
   20.0252   31.6177   27.7071 H   0  0  0  0  0
   20.1146   33.3821   27.7150 H   0  0  0  0  0
   23.1300   31.1930   26.0821 H   0  0  0  0  0
   18.3108   34.9903   23.5072 H   0  0  0  0  0
   17.5620   37.7960   24.1822 H   0  0  0  0  0
   15.4717   37.5377   22.9297 H   0  0  0  0  0
   16.0323   35.9025   22.3738 H   0  0  0  0  0
   18.0871   37.2770   21.5277 H   0  0  0  0  0
   16.6621   35.9765   20.0684 H   0  0  0  0  0
   15.4460   37.2772   20.0526 H   0  0  0  0  0
   17.0465   37.5457   19.3195 H   0  0  0  0  0
   15.8806   39.3768   21.5297 H   0  0  0  0  0
   17.3957   39.4369   22.4634 H   0  0  0  0  0
   17.4413   39.5265   20.6855 H   0  0  0  0  0
   15.2724   37.6168   25.0396 H   0  0  0  0  0
  1  2  1  0  0  0
  2  3  1  0  0  0
  2  5  1  0  0  0
  3  4  2  0  0  0
  3  6  1  0  0  0
  6  7  1  0  0  0
  7  8  1  0  0  0
  7 10  1  0  0  0
  8  9  2  0  0  0
  8 14  1  0  0  0
 10 11  1  0  0  0
 11 12  1  0  0  0
 11 13  2  0  0  0
 14 15  1  0  0  0
 15 16  1  0  0  0
 15 18  1  0  0  0
 16 17  2  0  0  0
 16 20  1  0  0  0
 18 19  1  0  0  0
 20 21  1  0  0  0
 21 22  1  0  0  0
 21 24  1  0  0  0
 22 23  2  0  0  0
 22 28  1  0  0  0
 24 25  1  0  0  0
 24 26  1  0  0  0
 25 27  1  0  0  0
 28 29  1  0  0  0
 29 30  1  0  0  0
 29 32  1  0  0  0
 30 31  2  0  0  0
 30 37  1  0  0  0
 32 33  1  0  0  0
 33 34  1  0  0  0
 34 35  1  0  0  0
 34 36  2  0  0  0
 37 38  1  0  0  0
 38 39  1  0  0  0
 38 41  1  0  0  0
 39 40  2  0  0  0
 39 45  1  0  0  0
 41 42  1  0  0  0
 41 43  1  0  0  0
 42 44  1  0  0  0
 45 46  1  0  0  0
 46 47  1  0  0  0
 46 49  1  0  0  0
 47 48  2  0  0  0
 47 57  1  0  0  0
 49 50  1  0  0  0
 50 51  4  0  0  0
 50 52  4  0  0  0
 51 53  4  0  0  0
 52 54  4  0  0  0
 53 55  4  0  0  0
 54 55  4  0  0  0
 55 56  1  0  0  0
 57 58  1  0  0  0
 58 59  1  0  0  0
 58 61  1  0  0  0
 59 60  2  0  0  0
 59 65  1  0  0  0
 61 62  1  0  0  0
 61 63  1  0  0  0
 62 64  1  0  0  0
 65 66  1  0  0  0
 65 71  1  0  0  0
 66 67  1  0  0  0
 66 69  1  0  0  0
 67 68  2  0  0  0
 67 72  1  0  0  0
 69 70  1  0  0  0
 70 71  1  0  0  0
 72 73  1  0  0  0
 73 74  1  0  0  0
 73 76  1  0  0  0
 74 75  2  0  0  0
 74 81  1  0  0  0
 76 77  1  0  0  0
 77 78  1  0  0  0
 78 79  2  0  0  0
 78 80  1  0  0  0
 81 82  1  0  0  0
 82 83  1  0  0  0
 82 85  1  0  0  0
 83 84  2  0  0  0
 83 86  1  0  0  0
 86 87  1  0  0  0
 87 88  1  0  0  0
 87 90  1  0  0  0
 88 89  2  0  0  0
 88 95  1  0  0  0
 90 91  1  0  0  0
 91 92  1  0  0  0
 92 93  2  0  0  0
 92 94  1  0  0  0
 95 96  1  0  0  0
 96 97  1  0  0  0
 96 99  1  0  0  0
 97 98  2  0  0  0
 97102  1  0  0  0
 99100  1  0  0  0
 99101  1  0  0  0
102103  1  0  0  0
103104  1  0  0  0
103106  1  0  0  0
104105  2  0  0  0
104113  1  0  0  0
106107  1  0  0  0
107108  1  0  0  0
108109  1  0  0  0
109110  1  0  0  0
110111  1  0  0  0
110112  2  0  0  0
113114  1  0  0  0
114115  1  0  0  0
114117  1  0  0  0
115116  2  0  0  0
115121  1  0  0  0
117118  1  0  0  0
118119  1  0  0  0
118120  1  0  0  0
  1122  1  0  0  0
  1123  1  0  0  0
  1124  1  0  0  0
  2125  1  0  0  0
  5126  1  0  0  0
  5127  1  0  0  0
  5128  1  0  0  0
  6129  1  0  0  0
  7130  1  0  0  0
 10131  1  0  0  0
 10132  1  0  0  0
 12133  1  0  0  0
 14134  1  0  0  0
 15135  1  0  0  0
 18136  1  0  0  0
 18137  1  0  0  0
 19138  1  0  0  0
 20139  1  0  0  0
 21140  1  0  0  0
 24141  1  0  0  0
 25142  1  0  0  0
 25143  1  0  0  0
 26144  1  0  0  0
 26145  1  0  0  0
 26146  1  0  0  0
 27147  1  0  0  0
 27148  1  0  0  0
 27149  1  0  0  0
 28150  1  0  0  0
 29151  1  0  0  0
 32152  1  0  0  0
 32153  1  0  0  0
 33154  1  0  0  0
 33155  1  0  0  0
 35156  1  0  0  0
 37157  1  0  0  0
 38158  1  0  0  0
 41159  1  0  0  0
 42160  1  0  0  0
 42161  1  0  0  0
 43162  1  0  0  0
 43163  1  0  0  0
 43164  1  0  0  0
 44165  1  0  0  0
 44166  1  0  0  0
 44167  1  0  0  0
 45168  1  0  0  0
 46169  1  0  0  0
 49170  1  0  0  0
 49171  1  0  0  0
 51172  1  0  0  0
 52173  1  0  0  0
 53174  1  0  0  0
 54175  1  0  0  0
 56176  1  0  0  0
 57177  1  0  0  0
 58178  1  0  0  0
 61179  1  0  0  0
 62180  1  0  0  0
 62181  1  0  0  0
 63182  1  0  0  0
 63183  1  0  0  0
 63184  1  0  0  0
 64185  1  0  0  0
 64186  1  0  0  0
 64187  1  0  0  0
 66188  1  0  0  0
 69189  1  0  0  0
 69190  1  0  0  0
 70191  1  0  0  0
 70192  1  0  0  0
 71193  1  0  0  0
 71194  1  0  0  0
 72195  1  0  0  0
 73196  1  0  0  0
 76197  1  0  0  0
 76198  1  0  0  0
 77199  1  0  0  0
 77200  1  0  0  0
 80201  1  0  0  0
 81202  1  0  0  0
 82203  1  0  0  0
 85204  1  0  0  0
 85205  1  0  0  0
 85206  1  0  0  0
 86207  1  0  0  0
 87208  1  0  0  0
 90209  1  0  0  0
 90210  1  0  0  0
 91211  1  0  0  0
 91212  1  0  0  0
 94213  1  0  0  0
 94214  1  0  0  0
 95215  1  0  0  0
 96216  1  0  0  0
 99217  1  0  0  0
100218  1  0  0  0
101219  1  0  0  0
101220  1  0  0  0
101221  1  0  0  0
102222  1  0  0  0
103223  1  0  0  0
106224  1  0  0  0
106225  1  0  0  0
107226  1  0  0  0
107227  1  0  0  0
108228  1  0  0  0
108229  1  0  0  0
109230  1  0  0  0
111231  1  0  0  0
111232  1  0  0  0
112233  1  0  0  0
113234  1  0  0  0
114235  1  0  0  0
117236  1  0  0  0
117237  1  0  0  0
118238  1  0  0  0
119239  1  0  0  0
119240  1  0  0  0
119241  1  0  0  0
120242  1  0  0  0
120243  1  0  0  0
120244  1  0  0  0
121245  1  0  0  0
M  END
$$$$
