### 
### Created by X-TOOL on Mon Sep 10 21:13:28 2018
### 

@<TRIPOS>MOLECULE
5izu_ligand
  242   243     1     0     0
SMALL
GAST_HUCK


@<TRIPOS>ATOM
      1 N          23.5100   26.0560  -16.5210 N.4       1 ALA         0.2377
      2 CA         23.3010   25.3320  -15.2670 C.3       1 ALA         0.0621
      3 C          24.5660   25.2390  -14.4150 C.2       1 ALA         0.2265
      4 O          25.6660   25.0240  -14.9340 O.2       1 ALA        -0.3907
      5 CB         22.7450   23.9380  -15.5380 C.3       1 ALA        -0.0040
      6 N          24.4040   25.3920  -13.1010 N.am      1 ASP        -0.2595
      7 CA         25.5270   25.2430  -12.1930 C.3       1 ASP         0.1424
      8 C          25.1190   24.8790  -10.7520 C.2       1 ASP         0.2057
      9 O          23.9990   25.1490  -10.3010 O.2       1 ASP        -0.3943
     10 CB         26.3870   26.5110  -12.2130 C.3       1 ASP         0.0406
     11 CG         27.8660   26.2180  -12.0280 C.2       1 ASP         0.0393
     12 OD1        28.2080   25.1190  -11.5320 O.co2     1 ASP        -0.5688
     13 OD2        28.6900   27.0910  -12.3770 O.co2     1 ASP        -0.5688
     14 N          26.0440   24.2660  -10.0280 N.am      1 SER        -0.2615
     15 CA         25.8290   23.9910   -8.6200 C.3       1 SER         0.1539
     16 C          27.0500   24.4390   -7.8220 C.2       1 SER         0.2062
     17 O          28.1680   23.9830   -8.0790 O.2       1 SER        -0.3943
     18 CB         25.5540   22.5060   -8.4000 C.3       1 SER         0.0843
     19 OG         25.0110   22.3090   -7.1150 O.3       1 SER        -0.3903
     20 N          26.8470   25.3450   -6.8690 N.am      1 ILE        -0.2634
     21 CA         27.9740   25.9050   -6.1290 C.3       1 ILE         0.1335
     22 C          27.7240   25.9370   -4.6360 C.2       1 ILE         0.2042
     23 O          26.6280   26.2900   -4.1850 O.2       1 ILE        -0.3944
     24 CB         28.3210   27.3300   -6.6180 C.3       1 ILE        -0.0037
     25 CG1        28.7340   27.3030   -8.0890 C.3       1 ILE        -0.0491
     26 CG2        29.4480   27.9330   -5.7960 C.3       1 ILE        -0.0582
     27 CD1        27.6820   27.8340   -9.0190 C.3       1 ILE        -0.0648
     28 N          28.7410   25.5590   -3.8670 N.am      1 GLU        -0.2636
     29 CA         28.6550   25.6100   -2.4090 C.3       1 GLU         0.1325
     30 C          29.2380   26.9060   -1.8770 C.2       1 GLU         0.2040
     31 O          30.2830   27.3610   -2.3380 O.2       1 GLU        -0.3944
     32 CB         29.3540   24.4080   -1.7820 C.3       1 GLU        -0.0008
     33 CG         28.6320   23.0950   -2.0220 C.3       1 GLU         0.0044
     34 CD         29.4200   21.8850   -1.5560 C.2       1 GLU         0.0350
     35 OE1        30.5060   22.0600   -0.9520 O.co2     1 GLU        -0.5690
     36 OE2        28.9500   20.7530   -1.7980 O.co2     1 GLU        -0.5690
     37 N          28.5500   27.5000   -0.9100 N.am      1 ILE        -0.2635
     38 CA         28.9790   28.7600   -0.3180 C.3       1 ILE         0.1335
     39 C          28.7030   28.8230    1.1760 C.2       1 ILE         0.2043
     40 O          27.6320   28.4260    1.6610 O.2       1 ILE        -0.3944
     41 CB         28.2400   29.9500   -0.9410 C.3       1 ILE        -0.0037
     42 CG1        26.7500   29.6300   -1.0260 C.3       1 ILE        -0.0491
     43 CG2        28.7900   30.2610   -2.3140 C.3       1 ILE        -0.0582
     44 CD1        25.9350   30.7380   -1.5720 C.3       1 ILE        -0.0648
     45 N          29.6720   29.3460    1.9070 N.am      1 TYR        -0.2621
     46 CA         29.4490   29.6280    3.3020 C.3       1 TYR         0.1390
     47 C          28.7960   30.9910    3.4250 C.2       1 TYR         0.2057
     48 O          29.3620   32.0010    3.0140 O.2       1 TYR        -0.3942
     49 CB         30.7520   29.5880    4.0770 C.3       1 TYR         0.0163
     50 CG         31.2590   28.1960    4.3290 C.ar      1 TYR        -0.0493
     51 CD1        30.8220   27.4680    5.4260 C.ar      1 TYR        -0.0685
     52 CD2        32.1880   27.6140    3.4800 C.ar      1 TYR        -0.0685
     53 CE1        31.2920   26.1950    5.6710 C.ar      1 TYR        -0.0398
     54 CE2        32.6690   26.3470    3.7140 C.ar      1 TYR        -0.0398
     55 CZ         32.2190   25.6390    4.8130 C.ar      1 TYR         0.0805
     56 OH         32.6980   24.3680    5.0470 O.3       1 TYR        -0.3376
     57 N          27.5820   30.9960    3.9580 N.am      1 ILE        -0.2633
     58 CA         26.9090   32.2250    4.3260 C.3       1 ILE         0.1337
     59 C          27.1170   32.4400    5.8080 C.2       1 ILE         0.2067
     60 O          26.9310   31.5250    6.6050 O.2       1 ILE        -0.3942
     61 CB         25.4070   32.1520    4.0220 C.3       1 ILE        -0.0037
     62 CG1        25.1960   31.9650    2.5170 C.3       1 ILE        -0.0491
     63 CG2        24.6720   33.4050    4.5530 C.3       1 ILE        -0.0582
     64 CD1        23.7440   31.8660    2.1440 C.3       1 ILE        -0.0648
     65 N          27.5340   33.6470    6.1840 N.am      1 PRO        -0.2498
     66 CA         27.7780   33.9240    7.6010 C.3       1 PRO         0.1338
     67 C          26.4870   33.9060    8.4420 C.2       1 PRO         0.2041
     68 O          25.4000   34.2180    7.9540 O.2       1 PRO        -0.3944
     69 CB         28.4250   35.3110    7.5760 C.3       1 PRO        -0.0104
     70 CG         27.9670   35.9200    6.2820 C.3       1 PRO        -0.0281
     71 CD         27.8660   34.7910    5.3180 C.3       1 PRO         0.0369
     72 N          26.6230   33.5090    9.7030 N.am      1 GLU        -0.2636
     73 CA         25.4900   33.4120   10.6200 C.3       1 GLU         0.1325
     74 C          25.7690   34.1870   11.9070 C.2       1 GLU         0.2040
     75 O          26.9160   34.3230   12.3440 O.2       1 GLU        -0.3944
     76 CB         25.1910   31.9490   10.9620 C.3       1 GLU        -0.0008
     77 CG         24.3510   31.1990    9.9450 C.3       1 GLU         0.0044
     78 CD         24.0660   29.7500   10.3710 C.2       1 GLU         0.0350
     79 OE1        24.9500   29.1170   10.9890 O.co2     1 GLU        -0.5690
     80 OE2        22.9560   29.2390   10.0850 O.co2     1 GLU        -0.5690
     81 N          24.7110   34.6990   12.5150 N.am      1 ALA        -0.2640
     82 CA         24.8610   35.4160   13.7580 C.3       1 ALA         0.1282
     83 C          24.1540   34.6670   14.8750 C.2       1 ALA         0.2036
     84 O          23.2300   33.8900   14.6240 O.2       1 ALA        -0.3944
     85 CB         24.3160   36.8280   13.6170 C.3       1 ALA        -0.0244
     86 N          24.6130   34.9000   16.1020 N.am      1 GLN        -0.2636
     87 CA         23.9870   34.3720   17.3140 C.3       1 GLN         0.1330
     88 C          23.5630   35.5180   18.2140 C.2       1 GLN         0.2041
     89 O          24.2900   36.5010   18.3880 O.2       1 GLN        -0.3944
     90 CB         24.9580   33.4930   18.0890 C.3       1 GLN         0.0045
     91 CG         25.3340   32.2170   17.3960 C.3       1 GLN         0.0412
     92 CD         26.6460   31.6610   17.9050 C.2       1 GLN         0.1737
     93 OE1        27.7070   32.2630   17.7180 O.2       1 GLN        -0.3973
     94 NE2        26.5830   30.5110   18.5590 N.am      1 GLN        -0.3009
     95 N          22.3860   35.3830   18.7990 N.am      1 THR        -0.2613
     96 CA         21.8560   36.4220   19.6580 C.3       1 THR         0.1565
     97 C          21.0490   35.8080   20.7880 C.2       1 THR         0.2065
     98 O          20.0600   35.1150   20.5550 O.2       1 THR        -0.3943
     99 CB         20.9900   37.4150   18.8650 C.3       1 THR         0.0924
    100 OG1        21.8130   38.1020   17.9110 O.3       1 THR        -0.3874
    101 CG2        20.3670   38.4260   19.8070 C.3       1 THR        -0.0346
    102 N          21.4950   36.0450   22.0150 N.am      1 ARG        -0.2637
    103 CA         20.7600   35.5930   23.1800 C.3       1 ARG         0.1310
    104 C          19.6070   36.5540   23.4290 C.2       1 ARG         0.2033
    105 O          19.8020   37.7700   23.4450 O.2       1 ARG        -0.3944
    106 CB         21.6830   35.4910   24.4050 C.3       1 ARG        -0.0092
    107 CG         20.9520   35.3920   25.7430 C.3       1 ARG        -0.0156
    108 CD         21.8650   34.8880   26.8450 C.3       1 ARG         0.0627
    109 NE         22.3540   33.5410   26.5560 N.pl3     1 ARG        -0.2723
    110 CZ         21.7010   32.4210   26.8630 C.cat     1 ARG         0.2882
    111 NH1        20.5220   32.4780   27.4760 N.pl3     1 ARG        -0.2849
    112 NH2        22.2270   31.2410   26.5540 N.pl3     1 ARG        -0.2849
    113 N          18.4060   36.0020   23.5960 N.am      1 LEU        -0.2695
    114 CA         17.2220   36.7990   23.9020 C.3       1 LEU         0.0946
    115 C          16.4400   36.2460   25.1050 C.2       1 LEU         0.0601
    116 O          16.7920   35.2070   25.6720 O.co2     1 LEU        -0.5666
    117 CB         16.3240   36.9110   22.6670 C.3       1 LEU        -0.0156
    118 CG         17.0370   37.5630   21.4680 C.3       1 LEU        -0.0431
    119 CD1        16.5100   37.0540   20.1310 C.3       1 LEU        -0.0625
    120 CD2        16.9310   39.0860   21.5420 C.3       1 LEU        -0.0625
    121 OXT        15.4460   36.8290   25.5600 O.co2     1 LEU        -0.5666
    122 H1         22.6462   26.0860  -17.0396 H         1 ALA         0.2015
    123 H2         24.2139   25.5850  -17.0676 H         1 ALA         0.2015
    124 H3         23.8139   26.9958  -16.3198 H         1 ALA         0.2015
    125 H4         22.5512   25.8891  -14.6861 H         1 ALA         0.1095
    126 H5         22.5953   23.4112  -14.5840 H         1 ALA         0.0310
    127 H6         23.4556   23.3744  -16.1605 H         1 ALA         0.0310
    128 H7         21.7831   24.0229  -16.0648 H         1 ALA         0.0310
    129 H8         23.4991   25.6118  -12.7365 H         1 ASP         0.1886
    130 H9         26.1429   24.4140  -12.5717 H         1 ASP         0.0819
    131 H10        26.0552   27.1743  -11.4007 H         1 ASP         0.0478
    132 H11        26.2465   27.0165  -13.1798 H         1 ASP         0.0478
    133 H12        26.9030   23.9888  -10.4585 H         1 SER         0.1884
    134 H13        24.9539   24.5627   -8.2773 H         1 SER         0.0823
    135 H14        26.4945   21.9427   -8.4898 H         1 SER         0.0606
    136 H15        24.8398   22.1503   -9.1572 H         1 SER         0.0606
    137 H16        24.8415   21.3837   -6.9825 H         1 SER         0.2097
    138 H17        25.9164   25.6443   -6.6582 H         1 ILE         0.1883
    139 H18        28.8448   25.2586   -6.3132 H         1 ILE         0.0803
    140 H19        27.4276   27.9627   -6.5105 H         1 ILE         0.0345
    141 H20        28.9527   26.2622   -8.3696 H         1 ILE         0.0267
    142 H21        29.6418   27.9130   -8.2065 H         1 ILE         0.0267
    143 H22        29.1569   27.9553   -4.7355 H         1 ILE         0.0235
    144 H23        29.6474   28.9576   -6.1431 H         1 ILE         0.0235
    145 H24        30.3554   27.3226   -5.9143 H         1 ILE         0.0235
    146 H25        28.0489   27.7832  -10.0548 H         1 ILE         0.0230
    147 H26        27.4577   28.8793   -8.7603 H         1 ILE         0.0230
    148 H27        26.7686   27.2285   -8.9235 H         1 ILE         0.0230
    149 H28        29.5833   25.2326   -4.2959 H         1 GLU         0.1883
    150 H29        27.5921   25.5725   -2.1282 H         1 GLU         0.0801
    151 H30        29.4245   24.5732   -0.6968 H         1 GLU         0.0330
    152 H31        30.3654   24.3321   -2.2079 H         1 GLU         0.0330
    153 H32        28.4408   22.9933   -3.1005 H         1 GLU         0.0433
    154 H33        27.6748   23.1184   -1.4805 H         1 GLU         0.0433
    155 H34        27.7110   27.0693   -0.5774 H         1 ILE         0.1883
    156 H35        30.0597   28.8700   -0.4908 H         1 ILE         0.0803
    157 H36        28.3797   30.8316   -0.2981 H         1 ILE         0.0345
    158 H37        26.3863   29.3969   -0.0144 H         1 ILE         0.0267
    159 H38        26.6198   28.7508   -1.6741 H         1 ILE         0.0267
    160 H39        29.8632   30.4892   -2.2360 H         1 ILE         0.0235
    161 H40        28.2602   31.1290   -2.7333 H         1 ILE         0.0235
    162 H41        28.6470   29.3912   -2.9720 H         1 ILE         0.0235
    163 H42        24.8780   30.4350   -1.6027 H         1 ILE         0.0230
    164 H43        26.2773   30.9782   -2.5894 H         1 ILE         0.0230
    165 H44        26.0438   31.6243   -0.9297 H         1 ILE         0.0230
    166 H45        30.5596   29.5459    1.4919 H         1 TYR         0.1885
    167 H46        28.7712   28.8672    3.7165 H         1 TYR         0.0821
    168 H47        30.5950   30.0819    5.0472 H         1 TYR         0.0453
    169 H48        31.5141   30.1375    3.5049 H         1 TYR         0.0453
    170 H49        30.0982   27.9077    6.1026 H         1 TYR         0.0530
    171 H50        32.5412   28.1670    2.6172 H         1 TYR         0.0530
    172 H51        30.9367   25.6363    6.5293 H         1 TYR         0.0525
    173 H52        33.3960   25.9064    3.0414 H         1 TYR         0.0525
    174 H53        32.2953   24.0188    5.8333 H         1 TYR         0.2458
    175 H54        27.1164   30.1243    4.1107 H         1 ILE         0.1883
    176 H55        27.3476   33.0630    3.7645 H         1 ILE         0.0803
    177 H56        24.9924   31.2735    4.5380 H         1 ILE         0.0345
    178 H57        25.7041   31.0416    2.2023 H         1 ILE         0.0267
    179 H58        25.6370   32.8240    1.9902 H         1 ILE         0.0267
    180 H59        24.8485   33.5028    5.6343 H         1 ILE         0.0235
    181 H60        23.5928   33.3042    4.3653 H         1 ILE         0.0235
    182 H61        25.0519   34.2991    4.0371 H         1 ILE         0.0235
    183 H62        23.6532   31.7331    1.0558 H         1 ILE         0.0230
    184 H63        23.2243   32.7874    2.4454 H         1 ILE         0.0230
    185 H64        23.2914   31.0050    2.6575 H         1 ILE         0.0230
    186 H65        28.4761   33.1834    8.0182 H         1 PRO         0.0802
    187 H66        29.5216   35.2283    7.5994 H         1 PRO         0.0313
    188 H67        28.0843   35.9138    8.4307 H         1 PRO         0.0313
    189 H68        28.6975   36.6622    5.9278 H         1 PRO         0.0287
    190 H69        26.9870   36.4026    6.4111 H         1 PRO         0.0287
    191 H70        27.0714   34.9716    4.5791 H         1 PRO         0.0524
    192 H71        28.8212   34.6289    4.7971 H         1 PRO         0.0524
    193 H72        27.5344   33.2678   10.0364 H         1 GLU         0.1883
    194 H73        24.6068   33.8474   10.1297 H         1 GLU         0.0801
    195 H74        24.6575   31.9280   11.9237 H         1 GLU         0.0330
    196 H75        26.1510   31.4217   11.0636 H         1 GLU         0.0330
    197 H76        24.8881   31.1853    8.9851 H         1 GLU         0.0433
    198 H77        23.3930   31.7253    9.8217 H         1 GLU         0.0433
    199 H78        23.8030   34.5884   12.1109 H         1 ALA         0.1883
    200 H79        25.9317   35.4785   14.0022 H         1 ALA         0.0797
    201 H80        24.4358   37.3641   14.5700 H         1 ALA         0.0277
    202 H81        23.2492   36.7846   13.3524 H         1 ALA         0.0277
    203 H82        24.8686   37.3571   12.8267 H         1 ALA         0.0277
    204 H83        25.4307   35.4671   16.2010 H         1 GLN         0.1883
    205 H84        23.1044   33.7789   17.0324 H         1 GLN         0.0801
    206 H85        24.4942   33.2362   19.0528 H         1 GLN         0.0337
    207 H86        25.8771   34.0707   18.2667 H         1 GLN         0.0337
    208 H87        25.4257   32.4123   16.3174 H         1 GLN         0.0504
    209 H88        24.5424   31.4728   17.5679 H         1 GLN         0.0504
    210 H89        27.4176   30.0942   18.9192 H         1 GLN         0.1814
    211 H90        25.7008   30.0595   18.6926 H         1 GLN         0.1814
    212 H91        21.8529   34.5508   18.6464 H         1 THR         0.1884
    213 H92        22.7019   36.9739   20.0936 H         1 THR         0.0826
    214 H93        20.1945   36.8673   18.3385 H         1 THR         0.0639
    215 H94        22.2008   37.4707   17.3162 H         1 THR         0.2101
    216 H95        19.7498   39.1316   19.2315 H         1 THR         0.0257
    217 H96        21.1617   38.9771   20.3312 H         1 THR         0.0257
    218 H97        19.7373   37.9031   20.5418 H         1 THR         0.0257
    219 H98        22.3528   36.5440   22.1382 H         1 ARG         0.1883
    220 H99        20.3485   34.5938   22.9746 H         1 ARG         0.0800
    221 H100       22.3228   36.3855   24.4285 H         1 ARG         0.0313
    222 H101       22.3100   34.5947   24.2890 H         1 ARG         0.0313
    223 H102       20.1053   34.6979   25.6362 H         1 ARG         0.0301
    224 H103       20.5767   36.3885   26.0189 H         1 ARG         0.0301
    225 H104       21.3069   34.8707   27.7927 H         1 ARG         0.0689
    226 H105       22.7241   35.5687   26.9377 H         1 ARG         0.0689
    227 H106       23.2647   33.4518   26.0832 H         1 ARG         0.2642
    228 H107       20.0213   31.6092   27.7111 H         1 ARG         0.2615
    229 H108       20.1097   33.3910   27.7156 H         1 ARG         0.2615
    230 H109       23.1398   31.1924   26.0793 H         1 ARG         0.2615
    231 H110       21.7221   30.3746   26.7891 H         1 ARG         0.2615
    232 H111       18.3127   35.0102   23.5090 H         1 LEU         0.1875
    233 H112       17.5612   37.8116   24.1658 H         1 LEU         0.0726
    234 H113       15.4445   37.5189   22.9259 H         1 LEU         0.0308
    235 H114       15.9990   35.9012   22.3760 H         1 LEU         0.0308
    236 H115       18.1019   37.2944   21.5291 H         1 LEU         0.0297
    237 H116       17.0507   37.5495   19.3112 H         1 LEU         0.0232
    238 H117       15.4362   37.2787   20.0506 H         1 LEU         0.0232
    239 H118       16.6629   35.9666   20.0665 H         1 LEU         0.0232
    240 H119       17.3154   39.4336   22.5123 H         1 LEU         0.0232
    241 H120       15.8780   39.3859   21.4361 H         1 LEU         0.0232
    242 H121       17.5234   39.5347   20.7310 H         1 LEU         0.0232
@<TRIPOS>BOND
     1    1    2 1  
     2    2    3 1  
     3    2    5 1  
     4    3    4 2  
     5    3    6 am 
     6    6    7 1  
     7    7    8 1  
     8    7   10 1  
     9    8    9 2  
    10    8   14 am 
    11   10   11 1  
    12   11   12 ar 
    13   11   13 ar 
    14   14   15 1  
    15   15   16 1  
    16   15   18 1  
    17   16   17 2  
    18   16   20 am 
    19   18   19 1  
    20   20   21 1  
    21   21   22 1  
    22   21   24 1  
    23   22   23 2  
    24   22   28 am 
    25   24   25 1  
    26   24   26 1  
    27   25   27 1  
    28   28   29 1  
    29   29   30 1  
    30   29   32 1  
    31   30   31 2  
    32   30   37 am 
    33   32   33 1  
    34   33   34 1  
    35   34   35 ar 
    36   34   36 ar 
    37   37   38 1  
    38   38   39 1  
    39   38   41 1  
    40   39   40 2  
    41   39   45 am 
    42   41   42 1  
    43   41   43 1  
    44   42   44 1  
    45   45   46 1  
    46   46   47 1  
    47   46   49 1  
    48   47   48 2  
    49   47   57 am 
    50   49   50 1  
    51   50   51 ar 
    52   50   52 ar 
    53   51   53 ar 
    54   52   54 ar 
    55   53   55 ar 
    56   54   55 ar 
    57   55   56 1  
    58   57   58 1  
    59   58   59 1  
    60   58   61 1  
    61   59   60 2  
    62   59   65 am 
    63   61   62 1  
    64   61   63 1  
    65   62   64 1  
    66   65   66 1  
    67   65   71 1  
    68   66   67 1  
    69   66   69 1  
    70   67   68 2  
    71   67   72 am 
    72   69   70 1  
    73   70   71 1  
    74   72   73 1  
    75   73   74 1  
    76   73   76 1  
    77   74   75 2  
    78   74   81 am 
    79   76   77 1  
    80   77   78 1  
    81   78   79 ar 
    82   78   80 ar 
    83   81   82 1  
    84   82   83 1  
    85   82   85 1  
    86   83   84 2  
    87   83   86 am 
    88   86   87 1  
    89   87   88 1  
    90   87   90 1  
    91   88   89 2  
    92   88   95 am 
    93   90   91 1  
    94   91   92 1  
    95   92   93 2  
    96   92   94 am 
    97   95   96 1  
    98   96   97 1  
    99   96   99 1  
   100   97   98 2  
   101   97  102 am 
   102   99  100 1  
   103   99  101 1  
   104  102  103 1  
   105  103  104 1  
   106  103  106 1  
   107  104  105 2  
   108  104  113 am 
   109  106  107 1  
   110  107  108 1  
   111  108  109 1  
   112  109  110 ar 
   113  110  111 ar 
   114  110  112 ar 
   115  113  114 1  
   116  114  115 1  
   117  114  117 1  
   118  115  116 ar 
   119  115  121 ar 
   120  117  118 1  
   121  118  119 1  
   122  118  120 1  
   123    1  122 1  
   124    1  123 1  
   125    1  124 1  
   126    2  125 1  
   127    5  126 1  
   128    5  127 1  
   129    5  128 1  
   130    6  129 1  
   131    7  130 1  
   132   10  131 1  
   133   10  132 1  
   134   14  133 1  
   135   15  134 1  
   136   18  135 1  
   137   18  136 1  
   138   19  137 1  
   139   20  138 1  
   140   21  139 1  
   141   24  140 1  
   142   25  141 1  
   143   25  142 1  
   144   26  143 1  
   145   26  144 1  
   146   26  145 1  
   147   27  146 1  
   148   27  147 1  
   149   27  148 1  
   150   28  149 1  
   151   29  150 1  
   152   32  151 1  
   153   32  152 1  
   154   33  153 1  
   155   33  154 1  
   156   37  155 1  
   157   38  156 1  
   158   41  157 1  
   159   42  158 1  
   160   42  159 1  
   161   43  160 1  
   162   43  161 1  
   163   43  162 1  
   164   44  163 1  
   165   44  164 1  
   166   44  165 1  
   167   45  166 1  
   168   46  167 1  
   169   49  168 1  
   170   49  169 1  
   171   51  170 1  
   172   52  171 1  
   173   53  172 1  
   174   54  173 1  
   175   56  174 1  
   176   57  175 1  
   177   58  176 1  
   178   61  177 1  
   179   62  178 1  
   180   62  179 1  
   181   63  180 1  
   182   63  181 1  
   183   63  182 1  
   184   64  183 1  
   185   64  184 1  
   186   64  185 1  
   187   66  186 1  
   188   69  187 1  
   189   69  188 1  
   190   70  189 1  
   191   70  190 1  
   192   71  191 1  
   193   71  192 1  
   194   72  193 1  
   195   73  194 1  
   196   76  195 1  
   197   76  196 1  
   198   77  197 1  
   199   77  198 1  
   200   81  199 1  
   201   82  200 1  
   202   85  201 1  
   203   85  202 1  
   204   85  203 1  
   205   86  204 1  
   206   87  205 1  
   207   90  206 1  
   208   90  207 1  
   209   91  208 1  
   210   91  209 1  
   211   94  210 1  
   212   94  211 1  
   213   95  212 1  
   214   96  213 1  
   215   99  214 1  
   216  100  215 1  
   217  101  216 1  
   218  101  217 1  
   219  101  218 1  
   220  102  219 1  
   221  103  220 1  
   222  106  221 1  
   223  106  222 1  
   224  107  223 1  
   225  107  224 1  
   226  108  225 1  
   227  108  226 1  
   228  109  227 1  
   229  111  228 1  
   230  111  229 1  
   231  112  230 1  
   232  112  231 1  
   233  113  232 1  
   234  114  233 1  
   235  117  234 1  
   236  117  235 1  
   237  118  236 1  
   238  119  237 1  
   239  119  238 1  
   240  119  239 1  
   241  120  240 1  
   242  120  241 1  
   243  120  242 1  
@<TRIPOS>SUBSTRUCTURE
     1 ALA         1

