4zb6_ligand
  -I-interpret- 

 74 73  0  0  0  0  0  0  0  0999 V2000
   25.0480   -4.1520   12.9860 N   0  3  0  0  0
   23.8700   -3.4370   12.4330 C   0  0  0  0  0
   22.6210   -3.6800   13.2840 C   0  0  0  0  0
   21.7480   -2.7650   13.2600 O   0  0  0  0  0
   22.5490   -4.7100   13.9490 O   0  0  0  0  0
   23.6100   -3.8950   10.9710 C   0  0  0  0  0
   22.5700   -2.9880   10.3290 C   0  0  0  0  0
   23.1490   -1.6000   10.1010 C   0  0  0  0  0
   24.3540   -1.3560   10.0230 O   0  0  0  0  0
   22.2160   -0.5880    9.9760 N   0  0  0  0  0
   22.6590    0.7740    9.7400 C   0  0  0  0  0
   22.1120    1.7250   10.7820 C   0  0  0  0  0
   21.0300    1.4870   11.3460 O   0  0  0  0  0
   22.1320    1.2720    8.3990 C   0  0  0  0  0
   23.0500    0.4150    7.1070 S   0  0  0  0  0
   22.8270    2.8360   11.0220 N   0  0  0  0  0
   22.3230    3.7920   11.9660 C   0  0  0  0  0
   22.6700    5.1680   11.4420 C   0  0  0  0  0
   22.6710    6.0820   12.3110 O   0  0  0  0  0
   22.9140    5.2920   10.2450 O   0  0  0  0  0
   27.0200   -1.4910    9.2970 N   0  0  0  0  0
   27.9840   -2.5750    9.5540 C   0  0  0  0  0
   27.6750   -3.3060   10.8510 C   0  0  0  0  0
   27.0100   -2.6510   11.7040 O   0  0  0  0  0
   28.0820   -4.4540   10.9820 O   0  0  0  0  0
   27.4840   -0.3060    8.8210 C   0  0  0  0  0
   28.6940   -0.1010    8.6090 O   0  0  0  0  0
   26.4870    0.8140    8.5510 C   0  0  0  0  0
   27.1430    2.1010    8.9070 N   0  0  0  0  0
   26.1040    0.6830    7.0780 C   0  0  0  0  0
   24.6200    1.6680    6.7270 S   0  0  0  0  0
   27.4830    6.0410   11.9460 C   0  0  0  0  0
   27.8560    7.0560   10.8690 C   0  0  0  0  0
   27.0070    7.9620   10.6470 O   0  0  0  0  0
   28.9490    6.9530   10.3160 O   0  0  0  0  0
   26.7990    6.7050   13.0910 N   0  3  0  0  0
   26.5670    4.9520   11.3220 C   0  0  0  0  0
   27.3790    4.1630   10.2930 C   0  0  0  0  0
   26.6430    2.8710    9.9650 C   0  0  0  0  0
   25.6440    2.4810   10.5720 O   0  0  0  0  0
   25.2110   -3.8453   13.9451 H   0  0  0  0  0
   24.8708   -5.1564   12.9744 H   0  0  0  0  0
   25.8686   -3.9437   12.4171 H   0  0  0  0  0
   24.0869   -2.3689   12.4472 H   0  0  0  0  0
   22.0338   -2.0671   12.6660 H   0  0  0  0  0
   23.2435   -4.9215   10.9729 H   0  0  0  0  0
   24.5389   -3.8393   10.4034 H   0  0  0  0  0
   21.7082   -2.9097   10.9918 H   0  0  0  0  0
   22.2720   -3.4113    9.3698 H   0  0  0  0  0
   21.2204   -0.7973   10.0493 H   0  0  0  0  0
   23.7484    0.7558    9.7706 H   0  0  0  0  0
   22.2668    2.3501    8.3122 H   0  0  0  0  0
   21.0650    1.0684    8.3085 H   0  0  0  0  0
   23.7124    2.9975   10.5420 H   0  0  0  0  0
   22.7691    3.6325   12.9477 H   0  0  0  0  0
   21.2440    3.6862   12.0790 H   0  0  0  0  0
   22.4461    5.7089   13.1665 H   0  0  0  0  0
   26.0246   -1.6273    9.4728 H   0  0  0  0  0
   28.9792   -2.1378    9.6347 H   0  0  0  0  0
   27.9235   -3.2902    8.7337 H   0  0  0  0  0
   26.8166   -1.7777   11.3553 H   0  0  0  0  0
   25.5734    0.7662    9.1435 H   0  0  0  0  0
   27.9559    2.4223    8.3813 H   0  0  0  0  0
   25.8989   -0.3639    6.8541 H   0  0  0  0  0
   26.9269    1.0450    6.4616 H   0  0  0  0  0
   28.3922    5.5776   12.3290 H   0  0  0  0  0
   26.2378    7.8217   11.2040 H   0  0  0  0  0
   26.5610    6.0062   13.7949 H   0  0  0  0  0
   27.4214    7.4024   13.4993 H   0  0  0  0  0
   25.9479    7.1594   12.7599 H   0  0  0  0  0
   25.7097    5.4203   10.8385 H   0  0  0  0  0
   26.2032    4.2819   12.1009 H   0  0  0  0  0
   28.3631    3.9319   10.7006 H   0  0  0  0  0
   27.5002    4.7569    9.3871 H   0  0  0  0  0
  2  1  1  0  0  0
  2  3  1  0  0  0
  6  2  1  0  0  0
  3  4  1  0  0  0
  3  5  2  0  0  0
  7  6  1  0  0  0
  8  7  1  0  0  0
  8  9  2  0  0  0
 10  8  1  0  0  0
 11 10  1  0  0  0
 11 12  1  0  0  0
 14 11  1  0  0  0
 12 13  2  0  0  0
 12 16  1  0  0  0
 15 14  1  0  0  0
 31 15  1  0  0  0
 16 17  1  0  0  0
 17 18  1  0  0  0
 18 19  1  0  0  0
 18 20  2  0  0  0
 21 22  1  0  0  0
 26 21  1  0  0  0
 22 23  1  0  0  0
 23 24  1  0  0  0
 23 25  2  0  0  0
 26 27  2  0  0  0
 28 26  1  0  0  0
 29 28  1  0  0  0
 28 30  1  0  0  0
 39 29  1  0  0  0
 30 31  1  0  0  0
 32 33  1  0  0  0
 32 36  1  0  0  0
 37 32  1  0  0  0
 33 34  1  0  0  0
 33 35  2  0  0  0
 38 37  1  0  0  0
 38 39  1  0  0  0
 39 40  2  0  0  0
  1 41  1  0  0  0
  1 42  1  0  0  0
  1 43  1  0  0  0
  2 44  1  0  0  0
  4 45  1  0  0  0
  6 46  1  0  0  0
  6 47  1  0  0  0
  7 48  1  0  0  0
  7 49  1  0  0  0
 10 50  1  0  0  0
 11 51  1  0  0  0
 14 52  1  0  0  0
 14 53  1  0  0  0
 16 54  1  0  0  0
 17 55  1  0  0  0
 17 56  1  0  0  0
 19 57  1  0  0  0
 21 58  1  0  0  0
 22 59  1  0  0  0
 22 60  1  0  0  0
 24 61  1  0  0  0
 28 62  1  0  0  0
 29 63  1  0  0  0
 30 64  1  0  0  0
 30 65  1  0  0  0
 32 66  1  0  0  0
 34 67  1  0  0  0
 36 68  1  0  0  0
 36 69  1  0  0  0
 36 70  1  0  0  0
 37 71  1  0  0  0
 37 72  1  0  0  0
 38 73  1  0  0  0
 38 74  1  0  0  0
M  END
$$$$
