4i9s_ligand
  -I-interpret- 

 50 50  0  0  0  0  0  0  0  0999 V2000
   25.5640   -7.3150  -10.0770 C   0  0  0  0  0
   26.1150   -6.6540  -11.2500 C   0  0  0  0  0
   25.4020   -5.3620  -11.4840 C   0  0  0  0  0
   25.8100   -4.4180  -10.4060 C   0  0  0  0  0
   25.4680   -5.0320   -9.0740 C   0  0  0  0  0
   25.3750   -6.3760   -8.9120 C   0  0  0  0  0
   24.9970   -6.8780   -7.5360 C   0  0  0  0  0
   24.7710   -8.1730   -7.2870 C   0  0  0  0  0
   24.4120   -8.6130   -5.9240 C   0  0  0  0  0
   24.7640   -9.8290   -5.5110 C   0  0  0  0  0
   24.4280  -10.2730   -4.1630 C   0  0  0  0  0
   25.1450  -11.2290   -3.5990 C   0  0  0  0  0
   24.8200  -11.7100   -2.2490 C   0  0  0  0  0
   25.5800  -12.6530   -1.6840 C   0  0  0  0  0
   25.2550  -13.1790   -0.3770 C   0  0  0  0  0
   24.3220   -7.9940  -10.4060 C   0  0  0  0  0
   26.5860   -8.3810   -9.6730 C   0  0  0  0  0
   25.2510   -4.1220   -7.8950 C   0  0  0  0  0
   23.6260   -7.7020   -5.0160 C   0  0  0  0  0
   23.6080  -11.1780   -1.5250 C   0  0  0  0  0
   25.9882   -7.2985  -12.1199 H   0  0  0  0  0
   27.1747   -6.4568  -11.0883 H   0  0  0  0  0
   24.3230   -5.5154  -11.4656 H   0  0  0  0  0
   25.6623   -4.9567  -12.4618 H   0  0  0  0  0
   25.2838   -3.4707  -10.5238 H   0  0  0  0  0
   26.8822   -4.2303  -10.4636 H   0  0  0  0  0
   24.9057   -6.1609   -6.7202 H   0  0  0  0  0
   24.8520   -8.9041   -8.0913 H   0  0  0  0  0
   25.3053  -10.4951   -6.1829 H   0  0  0  0  0
   23.5940   -9.8209   -3.6263 H   0  0  0  0  0
   25.9850  -11.6647   -4.1400 H   0  0  0  0  0
   26.4546  -13.0298   -2.2144 H   0  0  0  0  0
   25.2662  -12.3690    0.3523 H   0  0  0  0  0
   24.2634  -13.6308   -0.4049 H   0  0  0  0  0
   25.9912  -13.9323   -0.0966 H   0  0  0  0  0
   24.4948   -8.6854  -11.2307 H   0  0  0  0  0
   23.9696   -8.5463   -9.5349 H   0  0  0  0  0
   23.5733   -7.2577  -10.6983 H   0  0  0  0  0
   26.2136   -8.9303   -8.8083 H   0  0  0  0  0
   26.7389   -9.0694  -10.5041 H   0  0  0  0  0
   27.5306   -7.8995   -9.4199 H   0  0  0  0  0
   24.2467   -4.2746   -7.4999 H   0  0  0  0  0
   25.9853   -4.3494   -7.1222 H   0  0  0  0  0
   25.3645   -3.0853   -8.2121 H   0  0  0  0  0
   22.6787   -8.1762   -4.7592 H   0  0  0  0  0
   24.1982   -7.5149   -4.1073 H   0  0  0  0  0
   23.4347   -6.7585   -5.5272 H   0  0  0  0  0
   22.9128  -11.9954   -1.3337 H   0  0  0  0  0
   23.9175  -10.7336   -0.5790 H   0  0  0  0  0
   23.1212  -10.4220   -2.1410 H   0  0  0  0  0
  1  2  1  0  0  0
  1  6  1  0  0  0
  1 16  1  0  0  0
  1 17  1  0  0  0
  2  3  1  0  0  0
  3  4  1  0  0  0
  4  5  1  0  0  0
  5  6  2  0  0  0
  5 18  1  0  0  0
  6  7  1  0  0  0
  7  8  2  0  0  0
  8  9  1  0  0  0
  9 10  2  0  0  0
  9 19  1  0  0  0
 10 11  1  0  0  0
 11 12  2  0  0  0
 12 13  1  0  0  0
 13 14  2  0  0  0
 13 20  1  0  0  0
 14 15  1  0  0  0
  2 21  1  0  0  0
  2 22  1  0  0  0
  3 23  1  0  0  0
  3 24  1  0  0  0
  4 25  1  0  0  0
  4 26  1  0  0  0
  7 27  1  0  0  0
  8 28  1  0  0  0
 10 29  1  0  0  0
 11 30  1  0  0  0
 12 31  1  0  0  0
 14 32  1  0  0  0
 15 33  1  0  0  0
 15 34  1  0  0  0
 15 35  1  0  0  0
 16 36  1  0  0  0
 16 37  1  0  0  0
 16 38  1  0  0  0
 17 39  1  0  0  0
 17 40  1  0  0  0
 17 41  1  0  0  0
 18 42  1  0  0  0
 18 43  1  0  0  0
 18 44  1  0  0  0
 19 45  1  0  0  0
 19 46  1  0  0  0
 19 47  1  0  0  0
 20 48  1  0  0  0
 20 49  1  0  0  0
 20 50  1  0  0  0
M  END
$$$$
