5h63_ligand
  -I-interpret- 

 66 68  0  0  0  0  0  0  0  0999 V2000
    5.6590    9.4660    2.9460 C   0  0  0  0  0
    5.4710    7.9480    3.2380 C   0  0  0  0  0
    4.9180    7.2700    1.9900 C   0  0  0  0  0
    3.5860    7.9480    1.7210 C   0  0  0  0  0
    3.7960    9.4720    1.5510 C   0  0  0  0  0
    2.4830   10.1890    1.2520 C   0  0  0  0  0
    7.2070    7.3340    4.9470 C   0  0  0  0  0
    6.5030    8.1350    5.9270 C   0  0  0  0  0
    6.6970    7.3000    3.7380 N   0  0  0  0  0
    6.5630    9.7130    1.8440 O   0  0  0  0  0
    4.7620    5.8640    2.1590 O   0  0  0  0  0
    3.0500    7.5930    0.4680 O   0  0  0  0  0
    4.3640   10.0190    2.7260 O   0  0  0  0  0
    1.6590   10.0470    2.3690 O   0  0  0  0  0
    8.3000    6.7140    5.2620 O   0  0  0  0  0
    4.7850    8.8700   -4.7230 N   0  0  0  0  0
    4.0780    8.7750   -5.9430 C   0  0  0  0  0
    3.9430    9.8270   -6.7400 N   0  0  0  0  0
    4.4550   11.0150   -6.3850 C   0  0  0  0  0
    5.1540   11.1640   -5.1830 C   0  0  0  0  0
    5.3140   10.0600   -4.3390 C   0  0  0  0  0
    3.6100    7.6630   -6.3090 O   0  0  0  0  0
    4.2690   12.0040   -7.1340 O   0  0  0  0  0
    4.8730    7.6510   -3.9050 C   0  0  0  0  0
    6.0110    6.7580   -4.3390 C   0  0  0  0  0
    5.5890    5.4160   -4.2140 O   0  0  0  0  0
    7.1280    7.1270   -3.3760 C   0  0  0  0  0
    6.3210    7.4200   -2.1430 C   0  0  0  0  0
    5.0790    8.0250   -2.5810 O   0  0  0  0  0
    7.9840    6.0490   -3.0920 O   0  0  0  0  0
    7.0270    8.2440   -1.1070 C   0  0  0  0  0
    7.6830    9.3940   -1.6530 O   0  0  0  0  0
    8.7350   10.0370   -0.6380 P   0  0  0  0  0
    9.4140   10.9970   -1.5460 O   0  0  0  0  0
    9.5340    8.9980    0.0700 O   0  0  0  0  0
    7.9040   10.9260    0.4080 O   0  0  0  0  0
    7.7760   10.7880    1.9870 P   0  0  0  0  0
    8.8140   10.0960    2.7440 O   0  0  0  0  0
    7.1210   11.9530    2.5620 O   0  0  0  0  0
    6.1323    9.9529    3.7987 H   0  0  0  0  0
    4.7529    7.8379    4.0506 H   0  0  0  0  0
    5.6061    7.3754    1.1513 H   0  0  0  0  0
    2.9456    7.6582    2.5541 H   0  0  0  0  0
    4.4706    9.6173    0.7072 H   0  0  0  0  0
    2.0067    9.7574    0.3717 H   0  0  0  0  0
    2.6649   11.2438    1.0461 H   0  0  0  0  0
    6.2086    7.5045    6.7659 H   0  0  0  0  0
    7.1575    8.9313    6.2815 H   0  0  0  0  0
    5.6149    8.5700    5.4686 H   0  0  0  0  0
    7.2184    6.7523    3.0534 H   0  0  0  0  0
    5.6193    5.4660    2.3270 H   0  0  0  0  0
    2.8743    6.6493    0.4521 H   0  0  0  0  0
    0.8231   10.4905    2.2071 H   0  0  0  0  0
    3.4477    9.7321   -7.6266 H   0  0  0  0  0
    5.5707   12.1324   -4.9061 H   0  0  0  0  0
    5.8509   10.1529   -3.3950 H   0  0  0  0  0
    3.9446    7.0925   -4.0243 H   0  0  0  0  0
    6.3362    6.8770   -5.3725 H   0  0  0  0  0
    6.3003    4.8314   -4.4858 H   0  0  0  0  0
    7.7730    7.9198   -3.7548 H   0  0  0  0  0
    6.1379    6.4826   -1.6178 H   0  0  0  0  0
    8.6674    6.3366   -2.4822 H   0  0  0  0  0
    7.7898    7.6151   -0.6478 H   0  0  0  0  0
    6.2779    8.5963   -0.3979 H   0  0  0  0  0
    8.9510    8.4625    0.6131 H   0  0  0  0  0
    9.1431    9.3550    2.2300 H   0  0  0  0  0
  1  2  1  0  0  0
 10  1  1  0  0  0
  1 13  1  0  0  0
  2  3  1  0  0  0
  2  9  1  0  0  0
  3  4  1  0  0  0
  3 11  1  0  0  0
  5  4  1  0  0  0
  4 12  1  0  0  0
  5  6  1  0  0  0
 13  5  1  0  0  0
  6 14  1  0  0  0
  7  8  1  0  0  0
  9  7  1  0  0  0
  7 15  2  0  0  0
 37 10  1  0  0  0
 16 17  1  0  0  0
 16 21  1  0  0  0
 24 16  1  0  0  0
 17 18  1  0  0  0
 17 22  2  0  0  0
 18 19  1  0  0  0
 20 19  1  0  0  0
 19 23  2  0  0  0
 21 20  2  0  0  0
 24 25  1  0  0  0
 29 24  1  0  0  0
 25 26  1  0  0  0
 27 25  1  0  0  0
 28 27  1  0  0  0
 27 30  1  0  0  0
 28 29  1  0  0  0
 31 28  1  0  0  0
 32 31  1  0  0  0
 33 32  1  0  0  0
 33 34  2  0  0  0
 33 35  1  0  0  0
 36 33  1  0  0  0
 36 37  1  0  0  0
 37 38  1  0  0  0
 37 39  2  0  0  0
  1 40  1  0  0  0
  2 41  1  0  0  0
  3 42  1  0  0  0
  4 43  1  0  0  0
  5 44  1  0  0  0
  6 45  1  0  0  0
  6 46  1  0  0  0
  8 47  1  0  0  0
  8 48  1  0  0  0
  8 49  1  0  0  0
  9 50  1  0  0  0
 11 51  1  0  0  0
 12 52  1  0  0  0
 14 53  1  0  0  0
 18 54  1  0  0  0
 20 55  1  0  0  0
 21 56  1  0  0  0
 24 57  1  0  0  0
 25 58  1  0  0  0
 26 59  1  0  0  0
 27 60  1  0  0  0
 28 61  1  0  0  0
 30 62  1  0  0  0
 31 63  1  0  0  0
 31 64  1  0  0  0
 35 65  1  0  0  0
 38 66  1  0  0  0
M  END
$$$$
