### 
### Created by X-TOOL on Wed Jan  1 15:39:34 2020
### 

@<TRIPOS>MOLECULE
5h63_ligand
   64    66     1     0     0
SMALL
GAST_HUCK


@<TRIPOS>ATOM
      1 C1'         5.6590    9.4660    2.9460 C.3       1 UD1         0.2196
      2 C2'         5.4710    7.9480    3.2380 C.3       1 UD1         0.1260
      3 C3'         4.9180    7.2700    1.9900 C.3       1 UD1         0.1114
      4 C4'         3.5860    7.9480    1.7210 C.3       1 UD1         0.1117
      5 C5'         3.7960    9.4720    1.5510 C.3       1 UD1         0.1133
      6 C6'         2.4830   10.1890    1.2520 C.3       1 UD1         0.0730
      7 C7'         7.2070    7.3340    4.9470 C.2       1 UD1         0.1734
      8 C8'         6.5030    8.1350    5.9270 C.3       1 UD1         0.0257
      9 N2'         6.6970    7.3000    3.7380 N.am      1 UD1        -0.2762
     10 O1'         6.5630    9.7130    1.8440 O.3       1 UD1        -0.2157
     11 O3'         4.7620    5.8640    2.1590 O.3       1 UD1        -0.3867
     12 O4'         3.0500    7.5930    0.4680 O.3       1 UD1        -0.3865
     13 O5'         4.3640   10.0190    2.7260 O.3       1 UD1        -0.3366
     14 O6'         1.6590   10.0470    2.3690 O.3       1 UD1        -0.3924
     15 O7'         8.3000    6.7140    5.2620 O.2       1 UD1        -0.3974
     16 N1          4.7850    8.8700   -4.7230 N.am      1 UD1        -0.1592
     17 C2          4.0780    8.7750   -5.9430 C.2       1 UD1         0.3328
     18 N3          3.9430    9.8270   -6.7400 N.am      1 UD1        -0.1865
     19 C4          4.4550   11.0150   -6.3850 C.2       1 UD1         0.1822
     20 C5          5.1540   11.1640   -5.1830 C.2       1 UD1         0.0062
     21 C6          5.3140   10.0600   -4.3390 C.2       1 UD1         0.0591
     22 O2          3.6100    7.6630   -6.3090 O.2       1 UD1        -0.3815
     23 O4          4.2690   12.0040   -7.1340 O.2       1 UD1        -0.4124
     24 C1B         4.8730    7.6510   -3.9050 C.3       1 UD1         0.2059
     25 C2B         6.0110    6.7580   -4.3390 C.3       1 UD1         0.1387
     26 O2'         5.5890    5.4160   -4.2140 O.3       1 UD1        -0.3836
     27 C3B         7.1280    7.1270   -3.3760 C.3       1 UD1         0.1149
     28 C4B         6.3210    7.4200   -2.1430 C.3       1 UD1         0.1189
     29 O4B         5.0790    8.0250   -2.5810 O.3       1 UD1        -0.3363
     30 O3B         7.9840    6.0490   -3.0920 O.3       1 UD1        -0.3864
     31 C5B         7.0270    8.2440   -1.1070 C.3       1 UD1         0.1128
     32 O5B         7.6830    9.3940   -1.6530 O.3       1 UD1        -0.2476
     33 PA          8.7350   10.0370   -0.6380 P.3       1 UD1         0.2972
     34 O1A         9.4140   10.9970   -1.5460 O.co2     1 UD1        -0.6127
     35 O2A         9.5340    8.9980    0.0700 O.co2     1 UD1        -0.6127
     36 O3A         7.9040   10.9260    0.4080 O.3       1 UD1        -0.1318
     37 PB          7.7760   10.7880    1.9870 P.3       1 UD1         0.2996
     38 O1B         8.8140   10.0960    2.7440 O.co2     1 UD1        -0.6127
     39 O2B         7.1210   11.9530    2.5620 O.co2     1 UD1        -0.6127
     40 H1          6.0922    9.9404    3.8389 H         1 UD1         0.0996
     41 H2          4.7149    7.8540    4.0314 H         1 UD1         0.0637
     42 H3          5.6002    7.4432    1.1447 H         1 UD1         0.0645
     43 H4          2.8827    7.7205    2.5356 H         1 UD1         0.0647
     44 H5          4.4863    9.6367    0.7105 H         1 UD1         0.0647
     45 H6          2.0018    9.7381    0.3716 H         1 UD1         0.0584
     46 H7          2.6735   11.2552    1.0600 H         1 UD1         0.0584
     47 H8          7.0288    8.0798    6.8916 H         1 UD1         0.0467
     48 H9          5.4785    7.7526    6.0455 H         1 UD1         0.0467
     49 H10         6.4671    9.1809    5.5883 H         1 UD1         0.0467
     50 H11         7.2081    6.7631    3.0668 H         1 UD1         0.1857
     51 H12         5.6104    5.4701    2.3252 H         1 UD1         0.2100
     52 H13         2.2407    8.0694    0.3246 H         1 UD1         0.2100
     53 H14         1.5029    9.1240    2.5307 H         1 UD1         0.2095
     54 H15         3.4574    9.7339   -7.6092 H         1 UD1         0.2259
     55 H16         5.5703   12.1315   -4.9063 H         1 UD1         0.0258
     56 H17         5.8504   10.1529   -3.3958 H         1 UD1         0.1178
     57 H18         3.9287    7.0933   -3.9899 H         1 UD1         0.0997
     58 H19         6.3121    6.9573   -5.3780 H         1 UD1         0.0676
     59 H20         6.2929    4.8375   -4.4830 H         1 UD1         0.2101
     60 H21         7.7064    7.9939   -3.7282 H         1 UD1         0.0648
     61 H22         6.0817    6.4577   -1.6669 H         1 UD1         0.0651
     62 H23         8.5583    6.2832   -2.3724 H         1 UD1         0.2100
     63 H24         7.7805    7.6135   -0.6124 H         1 UD1         0.0648
     64 H25         6.2880    8.5820   -0.3657 H         1 UD1         0.0648
@<TRIPOS>BOND
     1    1    2 1  
     2   10    1 1  
     3    1   13 1  
     4    2    3 1  
     5    2    9 1  
     6    3    4 1  
     7    3   11 1  
     8    5    4 1  
     9    4   12 1  
    10    5    6 1  
    11   13    5 1  
    12    6   14 1  
    13    7    8 1  
    14    9    7 am 
    15    7   15 2  
    16   37   10 1  
    17   16   17 am 
    18   16   21 1  
    19   24   16 1  
    20   17   18 am 
    21   17   22 2  
    22   18   19 am 
    23   20   19 1  
    24   19   23 2  
    25   21   20 2  
    26   24   25 1  
    27   29   24 1  
    28   25   26 1  
    29   27   25 1  
    30   28   27 1  
    31   27   30 1  
    32   28   29 1  
    33   31   28 1  
    34   32   31 1  
    35   33   32 1  
    36   33   34 ar 
    37   33   35 ar 
    38   36   33 1  
    39   36   37 1  
    40   37   38 ar 
    41   37   39 ar 
    42    1   40 1  
    43    2   41 1  
    44    3   42 1  
    45    4   43 1  
    46    5   44 1  
    47    6   45 1  
    48    6   46 1  
    49    8   47 1  
    50    8   48 1  
    51    8   49 1  
    52    9   50 1  
    53   11   51 1  
    54   12   52 1  
    55   14   53 1  
    56   18   54 1  
    57   20   55 1  
    58   21   56 1  
    59   24   57 1  
    60   25   58 1  
    61   26   59 1  
    62   27   60 1  
    63   28   61 1  
    64   30   62 1  
    65   31   63 1  
    66   31   64 1  
@<TRIPOS>SUBSTRUCTURE
     1 UD1         1

