3n3j_ligand
  -I-interpret- 

 42 43  0  0  0  0  0  0  0  0999 V2000
   -5.0880    2.1690   15.6700 C   0  0  0  0  0
   -5.4980   -0.4460   16.0270 N   0  0  0  0  0
   -7.3660    1.2150   16.5180 O   0  0  0  0  0
   -5.8960    0.9650   16.6410 S   0  0  0  0  0
   -5.7990    3.2670   15.1410 C   0  0  0  0  0
   -5.4030    1.0890   18.0710 O   0  0  0  0  0
   -5.1360    4.2520   14.3890 C   0  0  0  0  0
   -3.7490    4.1260   14.2030 C   0  0  0  0  0
   -3.0540    3.0380   14.7230 C   0  0  0  0  0
   -3.7050    2.0600   15.4760 C   0  0  0  0  0
   -2.9170    5.0450   13.4940 N   0  0  0  0  0
   -3.2770    6.2130   12.9800 C   0  0  0  0  0
   -4.4530    6.5730   12.9330 O   0  0  0  0  0
   -2.2520    6.9240   12.4670 N   0  0  0  0  0
   -2.4220    8.2090   11.9720 C   0  0  0  0  0
   -1.8080    9.2710   12.6480 C   0  0  0  0  0
   -1.9760   10.5720   12.1720 C   0  0  0  0  0
   -2.7370   10.7960   11.0150 C   0  0  0  0  0
   -3.3530    9.7290   10.3500 C   0  0  0  0  0
   -3.2000    8.4250   10.8280 C   0  0  0  0  0
   -0.9670    9.0060   13.9320 C   0  0  0  0  0
    0.0480   10.1280   14.2090 C   0  0  0  0  0
   -1.8220    8.7470   15.1880 C   0  0  0  0  0
   -6.2155   -1.0455   15.6193 H   0  0  0  0  0
   -4.5251   -0.7520   16.0407 H   0  0  0  0  0
   -6.8713    3.3520   15.3170 H   0  0  0  0  0
   -5.6835    5.0918   13.9612 H   0  0  0  0  0
   -1.9834    2.9484   14.5390 H   0  0  0  0  0
   -3.1479    1.2271   15.9051 H   0  0  0  0  0
   -1.9416    4.7739   13.3697 H   0  0  0  0  0
   -1.3229    6.5039   12.4422 H   0  0  0  0  0
   -1.5180   11.4104   12.6968 H   0  0  0  0  0
   -2.8497   11.8096   10.6304 H   0  0  0  0  0
   -3.9523    9.9157    9.4589 H   0  0  0  0  0
   -3.6788    7.5889   10.3183 H   0  0  0  0  0
   -0.4210    8.0873   13.7177 H   0  0  0  0  0
    0.7349   10.2109   13.3667 H   0  0  0  0  0
   -0.4821   11.0712   14.3414 H   0  0  0  0  0
    0.6079    9.8942   15.1145 H   0  0  0  0  0
   -2.4504    9.6158   15.3837 H   0  0  0  0  0
   -2.4507    7.8718   15.0239 H   0  0  0  0  0
   -1.1674    8.5708   16.0416 H   0  0  0  0  0
  1  4  1  0  0  0
  1  5  4  0  0  0
  1 10  4  0  0  0
  4  2  1  0  0  0
  4  3  2  0  0  0
  4  6  2  0  0  0
  5  7  4  0  0  0
  7  8  4  0  0  0
  8  9  4  0  0  0
  8 11  1  0  0  0
  9 10  4  0  0  0
 11 12  1  0  0  0
 12 13  2  0  0  0
 12 14  1  0  0  0
 14 15  1  0  0  0
 15 16  4  0  0  0
 15 20  4  0  0  0
 16 17  4  0  0  0
 16 21  1  0  0  0
 17 18  4  0  0  0
 18 19  4  0  0  0
 19 20  4  0  0  0
 21 22  1  0  0  0
 21 23  1  0  0  0
  2 24  1  0  0  0
  2 25  1  0  0  0
  5 26  1  0  0  0
  7 27  1  0  0  0
  9 28  1  0  0  0
 10 29  1  0  0  0
 11 30  1  0  0  0
 14 31  1  0  0  0
 17 32  1  0  0  0
 18 33  1  0  0  0
 19 34  1  0  0  0
 20 35  1  0  0  0
 21 36  1  0  0  0
 22 37  1  0  0  0
 22 38  1  0  0  0
 22 39  1  0  0  0
 23 40  1  0  0  0
 23 41  1  0  0  0
 23 42  1  0  0  0
M  END
$$$$
