3sym_ligand
  -I-interpret- 

 37 38  0  0  0  0  0  0  0  0999 V2000
   35.4460   23.6790   28.5790 C   0  0  0  0  0
   37.5560   24.4340   29.2400 F   0  0  0  0  0
   34.0590   23.5780   28.8140 N   0  0  0  0  0
   36.2410   24.3630   29.4830 C   0  0  0  0  0
   35.6780   24.9610   30.6270 C   0  0  0  0  0
   36.3660   25.5960   31.4320 O   0  0  0  0  0
   34.3020   24.8610   30.8630 N   0  0  0  0  0
   33.4920   24.1670   29.9630 C   0  0  0  0  0
   32.2870   24.0740   30.1940 O   0  0  0  0  0
   33.1880   22.8650   27.8630 C   0  0  0  0  0
   33.5520   23.1870   26.3850 C   0  0  0  0  0
   33.7100   24.5930   26.1930 O   0  0  0  0  0
   32.4960   22.5890   25.4140 C   0  0  0  0  0
   32.9720   22.5240   24.0760 O   0  0  0  0  0
   32.2110   21.1210   25.8210 C   0  0  0  0  0
   31.0840   20.6420   25.0890 O   0  0  0  0  0
   32.0420   20.8900   27.3480 C   0  0  0  0  0
   33.1610   21.4250   28.0870 O   0  0  0  0  0
   32.0070   19.4220   27.7640 C   0  0  0  0  0
   33.1240   18.7230   27.2370 O   0  0  0  0  0
   31.2510   23.5010   25.4080 C   0  0  0  0  0
   30.5590   23.7770   26.6240 O   0  0  0  0  0
   35.8882   23.2226   27.6934 H   0  0  0  0  0
   33.8923   25.2942   31.6906 H   0  0  0  0  0
   32.1806   23.2361   28.0515 H   0  0  0  0  0
   34.5094   22.7183   26.1575 H   0  0  0  0  0
   33.9338   24.7664   25.2757 H   0  0  0  0  0
   32.2904   22.1500   23.5129 H   0  0  0  0  0
   33.1001   20.5454   25.5633 H   0  0  0  0  0
   30.9046   19.7326   25.3388 H   0  0  0  0  0
   31.0924   21.3782   27.5669 H   0  0  0  0  0
   31.0941   18.9686   27.3778 H   0  0  0  0  0
   32.0370   19.3639   28.8520 H   0  0  0  0  0
   33.0826   17.8036   27.5100 H   0  0  0  0  0
   30.5244   22.9639   24.7984 H   0  0  0  0  0
   31.6272   24.4713   25.0839 H   0  0  0  0  0
   29.8148   24.3558   26.4431 H   0  0  0  0  0
  1  3  1  0  0  0
  1  4  2  0  0  0
  4  2  1  0  0  0
  3  8  1  0  0  0
  3 10  1  0  0  0
  4  5  1  0  0  0
  5  6  2  0  0  0
  5  7  1  0  0  0
  7  8  1  0  0  0
  8  9  2  0  0  0
 10 11  1  0  0  0
 10 18  1  0  0  0
 11 12  1  0  0  0
 11 13  1  0  0  0
 13 14  1  0  0  0
 13 15  1  0  0  0
 13 21  1  0  0  0
 15 16  1  0  0  0
 15 17  1  0  0  0
 17 18  1  0  0  0
 17 19  1  0  0  0
 19 20  1  0  0  0
 21 22  1  0  0  0
  1 23  1  0  0  0
  7 24  1  0  0  0
 10 25  1  0  0  0
 11 26  1  0  0  0
 12 27  1  0  0  0
 14 28  1  0  0  0
 15 29  1  0  0  0
 16 30  1  0  0  0
 17 31  1  0  0  0
 19 32  1  0  0  0
 19 33  1  0  0  0
 20 34  1  0  0  0
 21 35  1  0  0  0
 21 36  1  0  0  0
 22 37  1  0  0  0
M  END
$$$$
