2g6q_ligand
  -I-interpret- 

146145  0  0  0  0  0  0  0  0999 V2000
   -9.0380   36.6630   13.6420 N   0  3  0  0  0
   -7.6960   37.2800   13.8610 C   0  0  0  0  0
   -6.7980   37.0640   12.6440 C   0  0  0  0  0
   -7.1570   36.3330   11.7260 O   0  0  0  0  0
   -7.0460   36.6810   15.1030 C   0  0  0  0  0
   -5.6390   37.7160   12.6350 N   0  0  0  0  0
   -4.6890   37.5710   11.5250 C   0  0  0  0  0
   -3.5290   36.7140   12.0160 C   0  0  0  0  0
   -2.7980   37.1040   12.9250 O   0  0  0  0  0
   -4.1350   38.9300   11.0770 C   0  0  0  0  0
   -5.1510   39.8840   10.4760 C   0  0  0  0  0
   -4.4560   41.0650    9.8080 C   0  0  0  0  0
   -3.5660   41.7720   10.7260 N   0  0  0  0  0
   -2.2380   41.7880   10.6310 C   0  0  0  0  0
   -1.6260   41.1350    9.6510 N   0  0  0  0  0
   -1.5190   42.4560   11.5260 N   0  0  0  0  0
   -3.3620   35.5460   11.4160 N   0  0  0  0  0
   -2.2810   34.6660   11.8140 C   0  0  0  0  0
   -1.6600   34.0740   10.5580 C   0  0  0  0  0
   -2.2560   34.1010    9.4780 O   0  0  0  0  0
   -2.7880   33.5070   12.6930 C   0  0  0  0  0
   -3.6010   32.6360   11.9030 O   0  0  0  0  0
   -3.6060   34.0310   13.8580 C   0  0  0  0  0
   -0.4560   33.5380   10.7030 N   0  0  0  0  0
    0.2200   32.9230    9.5800 C   0  0  0  0  0
    1.0350   33.9320    8.7640 C   0  0  0  0  0
    2.2720   34.4460    9.4970 C   0  0  0  0  0
    3.0940   35.4370    8.6830 C   0  0  0  0  0
    4.1130   36.1920    9.5470 C   0  0  0  0  0
    5.3180   36.7200    8.7770 N   0  3  0  0  0
    1.1280   31.8190   10.0950 C   0  0  0  0  0
    1.5680   31.8370   11.2470 O   0  0  0  0  0
    4.9030   37.6410    7.6770 C   0  0  0  0  0
    6.1860   35.7110    8.0870 C   0  0  0  0  0
    6.1920   37.4940    9.7060 C   0  0  0  0  0
    1.3870   30.8520    9.2280 N   0  0  0  0  0
    2.2580   29.7360    9.5460 C   0  0  0  0  0
    3.6070   30.0830    8.9400 C   0  0  0  0  0
    3.6820   30.4470    7.7700 O   0  0  0  0  0
    1.7270   28.4600    8.8960 C   0  0  0  0  0
    0.3200   28.0780    9.3020 C   0  0  0  0  0
    0.2990   27.2380   10.5550 C   0  0  0  0  0
    0.8210   27.6400   11.5870 O   0  0  0  0  0
   -0.3030   26.0570   10.4680 N   0  0  0  0  0
    4.6680   29.9860    9.7300 N   0  0  0  0  0
    6.0010   30.2880    9.2190 C   0  0  0  0  0
    6.2600   29.3540    8.0340 C   0  0  0  0  0
    5.9750   28.1570    8.1030 O   0  0  0  0  0
    7.0740   30.0730   10.3000 C   0  0  0  0  0
    6.8190   30.9540   11.4000 O   0  0  0  0  0
    8.4650   30.3550    9.7380 C   0  0  0  0  0
    6.7880   29.9100    6.9480 N   0  0  0  0  0
    7.0580   29.1250    5.7450 C   0  0  0  0  0
    8.4020   29.5360    5.1500 C   0  0  0  0  0
    8.7320   30.7190    5.1060 O   0  0  0  0  0
    5.9460   29.3420    4.7250 C   0  0  0  0  0
    9.1570   28.5400    4.6900 N   0  0  0  0  0
   10.4780   28.7350    4.0700 C   0  0  0  0  0
   11.4990   29.0900    5.1510 C   0  0  0  0  0
   12.4870   28.3400    5.2880 O   0  0  0  0  0
   10.4160   29.8450    3.0180 C   0  0  0  0  0
    9.3780   29.6000    1.9360 C   0  0  0  0  0
    9.2350   30.8090    1.0270 C   0  0  0  0  0
    8.8630   32.0080    1.7740 N   0  0  0  0  0
    8.6490   33.1990    1.2230 C   0  0  0  0  0
    8.7660   33.3600   -0.0900 N   0  0  0  0  0
    8.3190   34.2340    1.9850 N   0  0  0  0  0
   11.3395   30.1631    5.9203 O   0  0  0  0  0
   -9.6207   36.8184   14.4647 H   0  0  0  0  0
   -9.4781   37.0896   12.8267 H   0  0  0  0  0
   -8.9288   35.6610   13.4856 H   0  0  0  0  0
   -7.8266   38.3523   14.0064 H   0  0  0  0  0
   -6.8958   35.6118   14.9532 H   0  0  0  0  0
   -6.0841   37.1635   15.2767 H   0  0  0  0  0
   -7.6949   36.8409   15.9641 H   0  0  0  0  0
   -5.4052   38.3296   13.4155 H   0  0  0  0  0
   -5.2015   37.1162   10.6773 H   0  0  0  0  0
   -3.4026   38.7245   10.2963 H   0  0  0  0  0
   -3.7442   39.4158   11.9711 H   0  0  0  0  0
   -5.7944   40.2592   11.2719 H   0  0  0  0  0
   -5.7342   39.3495    9.7261 H   0  0  0  0  0
   -5.2220   41.7640    9.4722 H   0  0  0  0  0
   -3.8570   40.6830    8.9813 H   0  0  0  0  0
   -3.9923   42.2901   11.4943 H   0  0  0  0  0
   -2.1733   40.6163    8.9641 H   0  0  0  0  0
   -0.5013   42.4655   11.4582 H   0  0  0  0  0
   -1.9846   42.9595   12.2811 H   0  0  0  0  0
   -3.9973   35.2637   10.6696 H   0  0  0  0  0
   -1.5583   35.2456   12.3883 H   0  0  0  0  0
   -1.9267   32.9667   13.0858 H   0  0  0  0  0
   -3.9179   31.9130   12.4493 H   0  0  0  0  0
   -2.9874   34.6899   14.4674 H   0  0  0  0  0
   -4.4641   34.5852   13.4776 H   0  0  0  0  0
   -3.9522   33.1931   14.4632 H   0  0  0  0  0
   -0.0010   33.5591   11.6157 H   0  0  0  0  0
   -0.5392   32.5144    8.9131 H   0  0  0  0  0
    0.3918   34.7889    8.5639 H   0  0  0  0  0
    1.3749   33.4259    7.8605 H   0  0  0  0  0
    2.9090   33.5866    9.7063 H   0  0  0  0  0
    1.9298   34.9632   10.3934 H   0  0  0  0  0
    2.4115   36.1669    8.2476 H   0  0  0  0  0
    3.6409   34.8800    7.9223 H   0  0  0  0  0
    4.4895   35.4876   10.2887 H   0  0  0  0  0
    3.5987   37.0551    9.9696 H   0  0  0  0  0
    4.2556   37.1063    6.9820 H   0  0  0  0  0
    4.3635   38.4890    8.0989 H   0  0  0  0  0
    5.7880   37.9976    7.1501 H   0  0  0  0  0
    6.5916   35.0179    8.8241 H   0  0  0  0  0
    5.5918   35.1608    7.3574 H   0  0  0  0  0
    7.0035   36.2233    7.5796 H   0  0  0  0  0
    5.6282   38.3289   10.1223 H   0  0  0  0  0
    6.5288   36.8431   10.5128 H   0  0  0  0  0
    7.0552   37.8735    9.1592 H   0  0  0  0  0
    0.9587   30.8933    8.3032 H   0  0  0  0  0
    2.3197   29.5690   10.6214 H   0  0  0  0  0
    2.3797   27.6474    9.2151 H   0  0  0  0  0
    1.7087   28.6370    7.8206 H   0  0  0  0  0
   -0.1203   27.4940    8.4938 H   0  0  0  0  0
   -0.2379   28.9938    9.4973 H   0  0  0  0  0
   -0.3436   25.4440   11.2823 H   0  0  0  0  0
   -0.7246   25.7632    9.5869 H   0  0  0  0  0
    4.5513   29.6983   10.7016 H   0  0  0  0  0
    6.0521   31.3333    8.9143 H   0  0  0  0  0
    7.0347   29.0362   10.6342 H   0  0  0  0  0
    7.4875   30.8217   12.0761 H   0  0  0  0  0
    8.6621   29.6811    8.9043 H   0  0  0  0  0
    8.5131   31.3874    9.3916 H   0  0  0  0  0
    9.2096   30.1972   10.5183 H   0  0  0  0  0
    7.0094   30.9057    6.9544 H   0  0  0  0  0
    7.0954   28.0678    6.0078 H   0  0  0  0  0
    4.9946   29.0282    5.1544 H   0  0  0  0  0
    5.8967   30.3988    4.4625 H   0  0  0  0  0
    6.1545   28.7537    3.8314 H   0  0  0  0  0
    8.7998   27.5881    4.7719 H   0  0  0  0  0
   10.7802   27.8114    3.5764 H   0  0  0  0  0
   11.3906   29.8895    2.5319 H   0  0  0  0  0
   10.1420   30.7668    3.5312 H   0  0  0  0  0
    8.4170   29.4082    2.4132 H   0  0  0  0  0
    9.6969   28.7487    1.3346 H   0  0  0  0  0
    8.4497   30.6005    0.3004 H   0  0  0  0  0
   10.1953   30.9902    0.5441 H   0  0  0  0  0
    8.7606   31.9261    2.7855 H   0  0  0  0  0
    8.6024   34.2759   -0.5081 H   0  0  0  0  0
    9.0194   32.5678   -0.6804 H   0  0  0  0  0
    8.2293   34.1163    2.9942 H   0  0  0  0  0
   10.5296   30.6153    5.6729 H   0  0  0  0  0
  2  1  1  0  0  0
  2  5  1  0  0  0
  3  2  1  0  0  0
  3  4  2  0  0  0
  7  6  1  0  0  0
  7 10  1  0  0  0
  8  7  1  0  0  0
  8  9  2  0  0  0
 10 11  1  0  0  0
 11 12  1  0  0  0
 12 13  1  0  0  0
 13 14  1  0  0  0
 14 16  1  0  0  0
 14 15  2  0  0  0
  6  3  1  0  0  0
 18 17  1  0  0  0
 18 21  1  0  0  0
 19 18  1  0  0  0
 19 20  2  0  0  0
 21 23  1  0  0  0
 21 22  1  0  0  0
 17  8  1  0  0  0
 36 37  1  0  0  0
 37 40  1  0  0  0
 37 38  1  0  0  0
 38 39  2  0  0  0
 40 41  1  0  0  0
 41 42  1  0  0  0
 42 44  1  0  0  0
 42 43  2  0  0  0
 45 46  1  0  0  0
 46 49  1  0  0  0
 46 47  1  0  0  0
 47 48  2  0  0  0
 49 51  1  0  0  0
 49 50  1  0  0  0
 38 45  1  0  0  0
 52 53  1  0  0  0
 53 56  1  0  0  0
 53 54  1  0  0  0
 54 55  2  0  0  0
 47 52  1  0  0  0
 57 58  1  0  0  0
 58 61  1  0  0  0
 58 59  1  0  0  0
 59 60  2  0  0  0
 61 62  1  0  0  0
 62 63  1  0  0  0
 63 64  1  0  0  0
 64 65  1  0  0  0
 65 67  2  0  0  0
 65 66  1  0  0  0
 54 57  1  0  0  0
 25 24  1  0  0  0
 25 26  1  0  0  0
 31 25  1  0  0  0
 26 27  1  0  0  0
 27 28  1  0  0  0
 28 29  1  0  0  0
 29 30  1  0  0  0
 30 33  1  0  0  0
 30 34  1  0  0  0
 30 35  1  0  0  0
 31 32  2  0  0  0
 24 19  1  0  0  0
 31 36  1  0  0  0
 59 68  1  0  0  0
  1 69  1  0  0  0
  1 70  1  0  0  0
  1 71  1  0  0  0
  2 72  1  0  0  0
  5 73  1  0  0  0
  5 74  1  0  0  0
  5 75  1  0  0  0
  6 76  1  0  0  0
  7 77  1  0  0  0
 10 78  1  0  0  0
 10 79  1  0  0  0
 11 80  1  0  0  0
 11 81  1  0  0  0
 12 82  1  0  0  0
 12 83  1  0  0  0
 13 84  1  0  0  0
 15 85  1  0  0  0
 16 86  1  0  0  0
 16 87  1  0  0  0
 17 88  1  0  0  0
 18 89  1  0  0  0
 21 90  1  0  0  0
 22 91  1  0  0  0
 23 92  1  0  0  0
 23 93  1  0  0  0
 23 94  1  0  0  0
 24 95  1  0  0  0
 25 96  1  0  0  0
 26 97  1  0  0  0
 26 98  1  0  0  0
 27 99  1  0  0  0
 27100  1  0  0  0
 28101  1  0  0  0
 28102  1  0  0  0
 29103  1  0  0  0
 29104  1  0  0  0
 33105  1  0  0  0
 33106  1  0  0  0
 33107  1  0  0  0
 34108  1  0  0  0
 34109  1  0  0  0
 34110  1  0  0  0
 35111  1  0  0  0
 35112  1  0  0  0
 35113  1  0  0  0
 36114  1  0  0  0
 37115  1  0  0  0
 40116  1  0  0  0
 40117  1  0  0  0
 41118  1  0  0  0
 41119  1  0  0  0
 44120  1  0  0  0
 44121  1  0  0  0
 45122  1  0  0  0
 46123  1  0  0  0
 49124  1  0  0  0
 50125  1  0  0  0
 51126  1  0  0  0
 51127  1  0  0  0
 51128  1  0  0  0
 52129  1  0  0  0
 53130  1  0  0  0
 56131  1  0  0  0
 56132  1  0  0  0
 56133  1  0  0  0
 57134  1  0  0  0
 58135  1  0  0  0
 61136  1  0  0  0
 61137  1  0  0  0
 62138  1  0  0  0
 62139  1  0  0  0
 63140  1  0  0  0
 63141  1  0  0  0
 64142  1  0  0  0
 66143  1  0  0  0
 66144  1  0  0  0
 67145  1  0  0  0
 68146  1  0  0  0
M  END
$$$$
