### 
### Created by X-TOOL on Mon Sep 10 21:12:54 2018
### 

@<TRIPOS>MOLECULE
2g6q_ligand
  148   147     1     0     0
SMALL
GAST_HUCK


@<TRIPOS>ATOM
      1 N          -9.0380   36.6630   13.6420 N.4       1 ALA         0.2377
      2 CA         -7.6960   37.2800   13.8610 C.3       1 ALA         0.0621
      3 C          -6.7980   37.0640   12.6440 C.2       1 ALA         0.2264
      4 O          -7.1570   36.3330   11.7260 O.2       1 ALA        -0.3907
      5 CB         -7.0460   36.6810   15.1030 C.3       1 ALA        -0.0040
      6 N          -5.6390   37.7160   12.6350 N.am      1 ARG        -0.2610
      7 CA         -4.6890   37.5710   11.5250 C.3       1 ARG         0.1312
      8 C          -3.5290   36.7140   12.0160 C.2       1 ARG         0.2040
      9 O          -2.7980   37.1040   12.9250 O.2       1 ARG        -0.3944
     10 CB         -4.1350   38.9300   11.0770 C.3       1 ARG        -0.0092
     11 CG         -5.1510   39.8840   10.4760 C.3       1 ARG        -0.0156
     12 CD         -4.4560   41.0650    9.8080 C.3       1 ARG         0.0627
     13 NE         -3.5660   41.7720   10.7260 N.pl3     1 ARG        -0.2723
     14 CZ         -2.2380   41.7880   10.6310 C.cat     1 ARG         0.2882
     15 NH1        -1.6260   41.1350    9.6510 N.pl3     1 ARG        -0.2849
     16 NH2        -1.5190   42.4560   11.5260 N.pl3     1 ARG        -0.2849
     17 N          -3.3620   35.5460   11.4160 N.am      1 THR        -0.2613
     18 CA         -2.2810   34.6660   11.8140 C.3       1 THR         0.1565
     19 C          -1.6600   34.0740   10.5580 C.2       1 THR         0.2065
     20 O          -2.2560   34.1010    9.4780 O.2       1 THR        -0.3943
     21 CB         -2.7880   33.5070   12.6930 C.3       1 THR         0.0924
     22 OG1        -3.6010   32.6360   11.9030 O.3       1 THR        -0.3874
     23 CG2        -3.6060   34.0310   13.8580 C.3       1 THR        -0.0346
     24 N          -0.4560   33.5380   10.7030 N.am      1 M3L        -0.2637
     25 CA          0.2200   32.9230    9.5800 C.3       1 M3L         0.1310
     26 CB          1.0350   33.9320    8.7640 C.3       1 M3L        -0.0122
     27 CG          2.2720   34.4460    9.4970 C.3       1 M3L        -0.0440
     28 CD          3.0940   35.4370    8.6830 C.3       1 M3L        -0.0123
     29 CE          4.1130   36.1920    9.5470 C.3       1 M3L        -0.0309
     30 NZ          5.3180   36.7200    8.7770 N.4       1 M3L         0.2369
     31 C           1.1280   31.8190   10.0950 C.2       1 M3L         0.2039
     32 O           1.5680   31.8370   11.2470 O.2       1 M3L        -0.3944
     33 CM1         4.9030   37.6410    7.6770 C.3       1 M3L        -0.0418
     34 CM2         6.1860   35.7110    8.0870 C.3       1 M3L        -0.0418
     35 CM3         6.1920   37.4940    9.7060 C.3       1 M3L        -0.0418
     36 N           1.3870   30.8520    9.2280 N.am      1 GLN        -0.2636
     37 CA          2.2580   29.7360    9.5460 C.3       1 GLN         0.1330
     38 C           3.6070   30.0830    8.9400 C.2       1 GLN         0.2041
     39 O           3.6820   30.4470    7.7700 O.2       1 GLN        -0.3944
     40 CB          1.7270   28.4600    8.8960 C.3       1 GLN         0.0045
     41 CG          0.3200   28.0780    9.3020 C.3       1 GLN         0.0412
     42 CD          0.2990   27.2380   10.5550 C.2       1 GLN         0.1737
     43 OE1         0.8210   27.6400   11.5870 O.2       1 GLN        -0.3973
     44 NE2        -0.3030   26.0570   10.4680 N.am      1 GLN        -0.3009
     45 N           4.6680   29.9860    9.7300 N.am      1 THR        -0.2613
     46 CA          6.0010   30.2880    9.2190 C.3       1 THR         0.1565
     47 C           6.2600   29.3540    8.0340 C.2       1 THR         0.2065
     48 O           5.9750   28.1570    8.1030 O.2       1 THR        -0.3943
     49 CB          7.0740   30.0730   10.3000 C.3       1 THR         0.0924
     50 OG1         6.8190   30.9540   11.4000 O.3       1 THR        -0.3874
     51 CG2         8.4650   30.3550    9.7380 C.3       1 THR        -0.0346
     52 N           6.7880   29.9100    6.9480 N.am      1 ALA        -0.2639
     53 CA          7.0580   29.1250    5.7450 C.3       1 ALA         0.1282
     54 C           8.4020   29.5360    5.1500 C.2       1 ALA         0.2037
     55 O           8.7320   30.7190    5.1060 O.2       1 ALA        -0.3944
     56 CB          5.9460   29.3420    4.7250 C.3       1 ALA        -0.0244
     57 N           9.1570   28.5400    4.6900 N.am      1 ARG        -0.2624
     58 CA         10.4780   28.7350    4.0700 C.3       1 ARG         0.1421
     59 C          11.4990   29.0900    5.1510 C.2       1 ARG         0.2571
     60 O          12.4870   28.3400    5.2880 O.2       1 ARG        -0.3680
     61 CB         10.4160   29.8450    3.0180 C.3       1 ARG        -0.0079
     62 CG          9.3780   29.6000    1.9360 C.3       1 ARG        -0.0155
     63 CD          9.2350   30.8090    1.0270 C.3       1 ARG         0.0627
     64 NE          8.8630   32.0080    1.7740 N.pl3     1 ARG        -0.2723
     65 CZ          8.6490   33.1990    1.2230 C.cat     1 ARG         0.2882
     66 NH1         8.7660   33.3600   -0.0900 N.pl3     1 ARG        -0.2849
     67 NH2         8.3190   34.2340    1.9850 N.pl3     1 ARG        -0.2849
     68 O1         11.3395   30.1631    5.9203 O.3       1 ARG        -0.2910
     69 H1         -9.6147   36.8159   14.4544 H         1 ALA         0.2015
     70 H2         -8.9313   35.6727   13.4873 H         1 ALA         0.2015
     71 H3         -9.4739   37.0839   12.8365 H         1 ALA         0.2015
     72 H4         -7.8260   38.3614   14.0150 H         1 ALA         0.1095
     73 H5         -6.0585   37.1402   15.2576 H         1 ALA         0.0310
     74 H6         -6.9286   35.5956   14.9682 H         1 ALA         0.0310
     75 H7         -7.6818   36.8750   15.9794 H         1 ALA         0.0310
     76 H8         -5.4097   38.3176   13.4002 H         1 ARG         0.1884
     77 H9         -5.1880   37.0821   10.6753 H         1 ARG         0.0800
     78 H10        -3.3554   38.7463   10.3231 H         1 ARG         0.0313
     79 H11        -3.6881   39.4198   11.9547 H         1 ARG         0.0313
     80 H12        -5.8105   40.2576   11.2732 H         1 ARG         0.0301
     81 H13        -5.7502   39.3470    9.7260 H         1 ARG         0.0301
     82 H14        -5.2209   41.7672    9.4448 H         1 ARG         0.0689
     83 H15        -3.8655   40.6938    8.9574 H         1 ARG         0.0689
     84 H16        -3.9965   42.2952   11.5018 H         1 ARG         0.2642
     85 H17        -0.5983   41.1520    9.5840 H         1 ARG         0.2615
     86 H18        -2.1787   40.6112    8.9574 H         1 ARG         0.2615
     87 H19        -1.9891   42.9644   12.2885 H         1 ARG         0.2615
     88 H20        -0.4913   42.4656   11.4575 H         1 ARG         0.2615
     89 H21        -3.9849   35.2692   10.6843 H         1 THR         0.1884
     90 H22        -1.5277   35.2430   12.3704 H         1 THR         0.0826
     91 H23        -1.9248   32.9474   13.0825 H         1 THR         0.0639
     92 H24        -3.0918   32.3057   11.1721 H         1 THR         0.2101
     93 H25        -3.9560   33.1863   14.4695 H         1 THR         0.0257
     94 H26        -4.4724   34.5905   13.4755 H         1 THR         0.0257
     95 H27        -2.9828   34.6961   14.4739 H         1 THR         0.0257
     96 H28        -0.0099   33.5587   11.5978 H         1 M3L         0.1883
     97 H29        -0.5391   32.4799    8.9186 H         1 M3L         0.0800
     98 H30         0.3895   34.7901    8.5253 H         1 M3L         0.0312
     99 H31         1.3588   33.4462    7.8318 H         1 M3L         0.0312
    100 H32         2.9110   33.5861    9.7465 H         1 M3L         0.0269
    101 H33         1.9466   34.9420   10.4233 H         1 M3L         0.0269
    102 H34         2.4129   36.1662    8.2199 H         1 M3L         0.0317
    103 H35         3.6335   34.8884    7.8969 H         1 M3L         0.0317
    104 H36         4.4760   35.5083   10.3285 H         1 M3L         0.0815
    105 H37         3.6021   37.0461   10.0154 H         1 M3L         0.0815
    106 H38         5.7954   38.0016    7.1444 H         1 M3L         0.0778
    107 H39         4.3584   38.4973    8.1015 H         1 M3L         0.0778
    108 H40         4.2496   37.1025    6.9748 H         1 M3L         0.0778
    109 H41         6.5485   34.9762    8.8209 H         1 M3L         0.0778
    110 H42         7.0439   36.2207    7.6241 H         1 M3L         0.0778
    111 H43         5.6026   35.1958    7.3098 H         1 M3L         0.0778
    112 H44         5.5894   38.2480   10.2336 H         1 M3L         0.0778
    113 H45         6.9850   37.9950    9.1315 H         1 M3L         0.0778
    114 H46         6.6459   36.8098   10.4380 H         1 M3L         0.0778
    115 H47         0.9671   30.8924    8.3213 H         1 GLN         0.1883
    116 H48         2.3387   29.6006   10.6346 H         1 GLN         0.0801
    117 H49         2.3982   27.6323    9.1687 H         1 GLN         0.0337
    118 H50         1.7420   28.6001    7.8051 H         1 GLN         0.0337
    119 H51        -0.1423   27.5062    8.4839 H         1 GLN         0.0504
    120 H52        -0.2592   28.9959    9.4807 H         1 GLN         0.0504
    121 H53        -0.3470   25.4581   11.2676 H         1 GLN         0.1814
    122 H54        -0.7122   25.7669    9.6029 H         1 GLN         0.1814
    123 H55         4.5536   29.7039   10.6825 H         1 THR         0.1884
    124 H56         6.0366   31.3346    8.8822 H         1 THR         0.0826
    125 H57         7.0308   29.0308   10.6492 H         1 THR         0.0639
    126 H58         5.9534   30.7791   11.7503 H         1 THR         0.2101
    127 H59         9.2174   30.1961   10.5246 H         1 THR         0.0257
    128 H60         8.5149   31.3966    9.3881 H         1 THR         0.0257
    129 H61         8.6652   29.6755    8.8965 H         1 THR         0.0257
    130 H62         7.0051   30.8861    6.9543 H         1 ALA         0.1883
    131 H63         7.0956   28.0587    6.0127 H         1 ALA         0.0797
    132 H64         6.1553   28.7487    3.8227 H         1 ALA         0.0277
    133 H65         5.8952   30.4082    4.4592 H         1 ALA         0.0277
    134 H66         4.9852   29.0256    5.1571 H         1 ALA         0.0277
    135 H67         8.8068   27.6068    4.7703 H         1 ARG         0.1885
    136 H68        10.7849   27.7990    3.5805 H         1 ARG         0.0816
    137 H69        11.4035   29.9271    2.5404 H         1 ARG         0.0315
    138 H70        10.1738   30.7910    3.5244 H         1 ARG         0.0315
    139 H71         8.4078   29.3912    2.4104 H         1 ARG         0.0301
    140 H72         9.6858   28.7327    1.3335 H         1 ARG         0.0301
    141 H73         8.4574   30.6010    0.2774 H         1 ARG         0.0689
    142 H74        10.1944   30.9888    0.5199 H         1 ARG         0.0689
    143 H75         8.7596   31.9253    2.7955 H         1 ARG         0.2642
    144 H76         8.5993   34.2845   -0.5124 H         1 ARG         0.2615
    145 H77         9.0235   32.5604   -0.6860 H         1 ARG         0.2615
    146 H78         8.2269   34.1147    3.0039 H         1 ARG         0.2615
    147 H79         8.1550   35.1567    1.5576 H         1 ARG         0.2615
    148 H80        10.5380   30.6106    5.6754 H         1 ARG         0.2540
@<TRIPOS>BOND
     1    2    1 1  
     2    2    5 1  
     3    3    2 1  
     4    3    4 2  
     5    7    6 1  
     6    7   10 1  
     7    8    7 1  
     8    8    9 2  
     9   10   11 1  
    10   11   12 1  
    11   12   13 1  
    12   13   14 ar 
    13   14   16 ar 
    14   14   15 ar 
    15    6    3 am 
    16   18   17 1  
    17   18   21 1  
    18   19   18 1  
    19   19   20 2  
    20   21   23 1  
    21   21   22 1  
    22   17    8 am 
    23   36   37 1  
    24   37   40 1  
    25   37   38 1  
    26   38   39 2  
    27   40   41 1  
    28   41   42 1  
    29   42   44 am 
    30   42   43 2  
    31   45   46 1  
    32   46   49 1  
    33   46   47 1  
    34   47   48 2  
    35   49   51 1  
    36   49   50 1  
    37   38   45 am 
    38   52   53 1  
    39   53   56 1  
    40   53   54 1  
    41   54   55 2  
    42   47   52 am 
    43   57   58 1  
    44   58   61 1  
    45   58   59 1  
    46   59   60 2  
    47   61   62 1  
    48   62   63 1  
    49   63   64 1  
    50   64   65 ar 
    51   65   67 ar 
    52   65   66 ar 
    53   54   57 am 
    54   25   24 1  
    55   25   26 1  
    56   31   25 1  
    57   26   27 1  
    58   27   28 1  
    59   28   29 1  
    60   29   30 1  
    61   30   33 1  
    62   30   34 1  
    63   30   35 1  
    64   31   32 2  
    65   24   19 am 
    66   31   36 am 
    67   59   68 1  
    68    1   69 1  
    69    1   70 1  
    70    1   71 1  
    71    2   72 1  
    72    5   73 1  
    73    5   74 1  
    74    5   75 1  
    75    6   76 1  
    76    7   77 1  
    77   10   78 1  
    78   10   79 1  
    79   11   80 1  
    80   11   81 1  
    81   12   82 1  
    82   12   83 1  
    83   13   84 1  
    84   15   85 1  
    85   15   86 1  
    86   16   87 1  
    87   16   88 1  
    88   17   89 1  
    89   18   90 1  
    90   21   91 1  
    91   22   92 1  
    92   23   93 1  
    93   23   94 1  
    94   23   95 1  
    95   24   96 1  
    96   25   97 1  
    97   26   98 1  
    98   26   99 1  
    99   27  100 1  
   100   27  101 1  
   101   28  102 1  
   102   28  103 1  
   103   29  104 1  
   104   29  105 1  
   105   33  106 1  
   106   33  107 1  
   107   33  108 1  
   108   34  109 1  
   109   34  110 1  
   110   34  111 1  
   111   35  112 1  
   112   35  113 1  
   113   35  114 1  
   114   36  115 1  
   115   37  116 1  
   116   40  117 1  
   117   40  118 1  
   118   41  119 1  
   119   41  120 1  
   120   44  121 1  
   121   44  122 1  
   122   45  123 1  
   123   46  124 1  
   124   49  125 1  
   125   50  126 1  
   126   51  127 1  
   127   51  128 1  
   128   51  129 1  
   129   52  130 1  
   130   53  131 1  
   131   56  132 1  
   132   56  133 1  
   133   56  134 1  
   134   57  135 1  
   135   58  136 1  
   136   61  137 1  
   137   61  138 1  
   138   62  139 1  
   139   62  140 1  
   140   63  141 1  
   141   63  142 1  
   142   64  143 1  
   143   66  144 1  
   144   66  145 1  
   145   67  146 1  
   146   67  147 1  
   147   68  148 1  
@<TRIPOS>SUBSTRUCTURE
     1 ALA         1

