1udu_ligand
  -I-interpret- 

 47 52  0  0  0  0  0  0  0  0999 V2000
   24.4350   39.2430  103.9130 C   0  0  0  0  0
   24.1360   38.3240  102.8310 C   0  0  0  0  0
   22.7830   38.0950  102.3810 C   0  0  0  0  0
   21.6780   38.8160  103.0450 C   0  0  0  0  0
   20.2650   38.8320  102.8660 C   0  0  0  0  0
   19.7770   39.7580  103.8580 C   0  0  0  0  0
   20.8310   40.3200  104.6440 N   0  0  0  0  0
   21.9880   39.7480  104.1500 C   0  0  0  0  0
   23.3840   39.9550  104.5770 C   0  0  0  0  0
   18.2200   40.0760  104.0230 C   0  0  0  0  0
   17.2740   38.9820  103.3870 N   0  0  0  0  0
   15.8670   39.0930  103.4970 C   0  0  0  0  0
   15.2510   40.0230  104.0710 O   0  0  0  0  0
   14.9650   37.9990  102.9000 C   0  0  0  0  0
   15.5520   37.1460  101.8010 N   0  0  0  0  0
   16.9480   37.0020  101.6110 C   0  0  0  0  0
   17.4320   36.2930  100.6780 O   0  0  0  0  0
   17.9280   37.7580  102.6480 C   0  0  0  0  0
   19.2610   38.1050  101.8980 C   0  0  0  0  0
   14.5570   36.4650  100.9360 C   0  0  0  0  0
   18.0370   41.5720  103.4140 C   0  0  0  0  0
   17.2470   42.5530  104.1340 C   0  0  0  0  0
   17.0790   43.8830  103.6150 C   0  0  0  0  0
   17.7210   44.2480  102.3330 C   0  0  0  0  0
   17.6890   45.4370  101.6740 O   0  0  0  0  0
   18.4970   45.1810  100.4870 C   0  0  0  0  0
   18.9980   43.8120  100.4840 O   0  0  0  0  0
   18.4950   43.2940  101.6250 C   0  0  0  0  0
   18.6630   41.9880  102.1300 C   0  0  0  0  0
   25.4689   39.3932  104.2237 H   0  0  0  0  0
   24.9541   37.7924  102.3449 H   0  0  0  0  0
   22.5806   37.4015  101.5648 H   0  0  0  0  0
   23.6142   40.6433  105.3902 H   0  0  0  0  0
   17.9080   40.0418  105.0668 H   0  0  0  0  0
   14.1218   38.5230  102.4501 H   0  0  0  0  0
   14.7454   37.3156  103.7203 H   0  0  0  0  0
   18.1478   37.0824  103.4746 H   0  0  0  0  0
   19.7179   37.1814  101.5426 H   0  0  0  0  0
   19.0347   38.7659  101.0613 H   0  0  0  0  0
   13.9375   35.8071  101.5455 H   0  0  0  0  0
   13.9282   37.2114  100.4505 H   0  0  0  0  0
   15.0770   35.8781  100.1788 H   0  0  0  0  0
   16.7761   42.2788  105.0780 H   0  0  0  0  0
   16.4843   44.6155  104.1607 H   0  0  0  0  0
   19.3458   45.8649  100.4866 H   0  0  0  0  0
   17.8774   45.3294   99.6026 H   0  0  0  0  0
   19.2623   41.2704  101.5695 H   0  0  0  0  0
  1  2  4  0  0  0
  1  9  4  0  0  0
  2  3  4  0  0  0
  3  4  4  0  0  0
  4  5  4  0  0  0
  4  8  4  0  0  0
  5  6  4  0  0  0
  5 19  1  0  0  0
  6  7  4  0  0  0
  6 10  1  0  0  0
  7  8  4  0  0  0
  8  9  4  0  0  0
 10 11  1  0  0  0
 10 21  1  0  0  0
 11 12  1  0  0  0
 11 18  1  0  0  0
 12 13  2  0  0  0
 12 14  1  0  0  0
 14 15  1  0  0  0
 15 16  1  0  0  0
 15 20  1  0  0  0
 16 17  2  0  0  0
 16 18  1  0  0  0
 18 19  1  0  0  0
 21 22  4  0  0  0
 21 29  4  0  0  0
 22 23  4  0  0  0
 23 24  4  0  0  0
 24 25  1  0  0  0
 24 28  4  0  0  0
 25 26  1  0  0  0
 26 27  1  0  0  0
 27 28  1  0  0  0
 28 29  4  0  0  0
  1 30  1  0  0  0
  2 31  1  0  0  0
  3 32  1  0  0  0
  9 33  1  0  0  0
 10 34  1  0  0  0
 14 35  1  0  0  0
 14 36  1  0  0  0
 18 37  1  0  0  0
 19 38  1  0  0  0
 19 39  1  0  0  0
 20 40  1  0  0  0
 20 41  1  0  0  0
 20 42  1  0  0  0
 22 43  1  0  0  0
 23 44  1  0  0  0
 26 45  1  0  0  0
 26 46  1  0  0  0
 29 47  1  0  0  0
M  END
$$$$
