4cd0_ligand
  -I-interpret- 

 56 59  0  0  0  0  0  0  0  0999 V2000
  -29.8650  -16.6240   61.5060 C   0  0  0  0  0
  -28.7830  -16.3740   62.3790 C   0  0  0  0  0
  -27.7500  -17.2760   62.5280 N   0  0  0  0  0
  -27.7740  -18.4490   61.8100 C   0  0  0  0  0
  -28.7970  -18.8000   60.9140 C   0  0  0  0  0
  -29.8340  -17.8500   60.7890 C   0  0  0  0  0
  -30.8500  -15.6430   61.4380 O   0  0  0  0  0
  -28.7520  -15.1840   63.1190 N   0  0  0  0  0
  -32.0210  -15.7850   60.5740 C   0  0  0  0  0
  -33.0600  -16.7620   61.1610 C   0  0  0  0  0
  -32.6020  -14.3720   60.3940 C   0  0  0  0  0
  -33.7390  -17.7880   60.4030 C   0  0  0  0  0
  -34.6800  -18.6560   61.0450 C   0  0  0  0  0
  -34.9600  -18.5260   62.4220 C   0  0  0  0  0
  -34.3010  -17.5270   63.1720 C   0  0  0  0  0
  -33.3690  -16.6570   62.5660 C   0  0  0  0  0
  -34.5630  -17.4060   64.4710 F   0  0  0  0  0
  -33.5250  -18.0030   59.0160 N   0  0  0  0  0
  -32.9210  -19.1390   58.5650 N   0  0  0  0  0
  -32.9120  -18.9510   57.2450 C   0  0  0  0  0
  -33.5000  -17.7270   56.9370 C   0  0  0  0  0
  -33.8920  -17.1180   58.0570 N   0  0  0  0  0
  -28.8360  -20.0590   60.1410 C   0  0  0  0  0
  -27.8510  -20.8620   59.5530 C   0  0  0  0  0
  -28.3290  -21.9930   58.8970 N   0  0  0  0  0
  -29.6450  -22.0700   58.9720 C   0  0  0  0  0
  -30.3770  -20.7870   59.8380 S   0  0  0  0  0
  -26.3750  -20.6650   59.5350 C   0  0  0  0  0
  -30.4640  -23.1960   58.3400 C   0  0  0  0  0
  -30.0550  -24.5870   58.8570 C   0  0  0  0  0
  -31.8620  -23.0180   58.5860 O   0  0  0  0  0
  -30.2670  -23.1540   56.8200 C   0  0  0  0  0
  -30.2270  -24.6790   60.2710 O   0  0  0  0  0
  -26.9490  -19.1486   61.9446 H   0  0  0  0  0
  -30.6546  -18.0690   60.1059 H   0  0  0  0  0
  -29.5076  -14.5053   63.0252 H   0  0  0  0  0
  -27.9739  -14.9968   63.7513 H   0  0  0  0  0
  -31.7392  -16.2149   59.6128 H   0  0  0  0  0
  -32.8810  -13.9686   61.3674 H   0  0  0  0  0
  -31.8524  -13.7282   59.9338 H   0  0  0  0  0
  -33.4828  -14.4215   59.7538 H   0  0  0  0  0
  -35.1860  -19.4263   60.4630 H   0  0  0  0  0
  -35.6782  -19.1904   62.9024 H   0  0  0  0  0
  -32.8755  -15.8946   63.1688 H   0  0  0  0  0
  -32.5049  -19.6513   56.5156 H   0  0  0  0  0
  -33.6218  -17.3263   55.9307 H   0  0  0  0  0
  -26.1420  -19.7186   59.0470 H   0  0  0  0  0
  -25.9992  -20.6500   60.5581 H   0  0  0  0  0
  -25.9072  -21.4828   58.9868 H   0  0  0  0  0
  -29.0036  -24.7520   58.6215 H   0  0  0  0  0
  -30.6854  -25.3367   58.3789 H   0  0  0  0  0
  -32.3514  -23.7368   58.1793 H   0  0  0  0  0
  -30.6043  -22.1906   56.4377 H   0  0  0  0  0
  -29.2105  -23.2887   56.5880 H   0  0  0  0  0
  -30.8466  -23.9529   56.3576 H   0  0  0  0  0
  -29.9657  -25.5538   60.5678 H   0  0  0  0  0
  1  2  4  0  0  0
  1  6  4  0  0  0
  1  7  1  0  0  0
  2  3  4  0  0  0
  2  8  1  0  0  0
  3  4  4  0  0  0
  4  5  4  0  0  0
  5  6  4  0  0  0
  5 23  1  0  0  0
  7  9  1  0  0  0
  9 10  1  0  0  0
  9 11  1  0  0  0
 10 12  4  0  0  0
 10 16  4  0  0  0
 12 13  4  0  0  0
 12 18  1  0  0  0
 13 14  4  0  0  0
 14 15  4  0  0  0
 15 16  4  0  0  0
 15 17  1  0  0  0
 18 19  4  0  0  0
 18 22  4  0  0  0
 19 20  4  0  0  0
 20 21  4  0  0  0
 21 22  4  0  0  0
 23 24  4  0  0  0
 23 27  4  0  0  0
 24 25  4  0  0  0
 24 28  1  0  0  0
 25 26  4  0  0  0
 26 27  4  0  0  0
 26 29  1  0  0  0
 29 30  1  0  0  0
 29 31  1  0  0  0
 29 32  1  0  0  0
 30 33  1  0  0  0
  4 34  1  0  0  0
  6 35  1  0  0  0
  8 36  1  0  0  0
  8 37  1  0  0  0
  9 38  1  0  0  0
 11 39  1  0  0  0
 11 40  1  0  0  0
 11 41  1  0  0  0
 13 42  1  0  0  0
 14 43  1  0  0  0
 16 44  1  0  0  0
 20 45  1  0  0  0
 21 46  1  0  0  0
 28 47  1  0  0  0
 28 48  1  0  0  0
 28 49  1  0  0  0
 30 50  1  0  0  0
 30 51  1  0  0  0
 31 52  1  0  0  0
 32 53  1  0  0  0
 32 54  1  0  0  0
 32 55  1  0  0  0
 33 56  1  0  0  0
M  END
$$$$
