### 
### Created by X-TOOL on Mon Aug  2 16:12:00 2021
### 

@<TRIPOS>MOLECULE
6esa_ligand
  290   292     1     0     0
SMALL
GAST_HUCK


@<TRIPOS>ATOM
      1 N          15.4170  -42.0080   17.2770 N.4       1 THR         0.2398
      2 CA         14.8250  -41.1400   16.2420 C.3       1 THR         0.0910
      3 C          14.1220  -39.9600   16.8980 C.2       1 THR         0.2293
      4 O          13.6980  -40.0410   18.0570 O.2       1 THR        -0.3906
      5 CB         13.7940  -41.8960   15.3950 C.3       1 THR         0.1120
      6 OG1        12.6530  -42.2190   16.2000 O.3       1 THR        -0.3840
      7 CG2        14.3810  -43.1630   14.7610 C.3       1 THR        -0.0314
      8 N          13.9630  -38.8570   16.1600 N.am      1 THR        -0.2585
      9 CA         13.2830  -37.6920   16.7070 C.3       1 THR         0.1566
     10 C          11.8320  -38.0230   17.0580 C.2       1 THR         0.2066
     11 O          11.3230  -37.6070   18.1150 O.2       1 THR        -0.3943
     12 CB         13.3620  -36.5400   15.7120 C.3       1 THR         0.0924
     13 OG1        14.7280  -36.3130   15.3720 O.3       1 THR        -0.3874
     14 CG2        12.7640  -35.2620   16.2880 C.3       1 THR        -0.0346
     15 N          11.1560  -38.7910   16.1970 N.am      1 THR        -0.2621
     16 CA          9.8050  -39.2700   16.4880 C.3       1 THR         0.1390
     17 C           9.7490  -40.0320   17.8160 C.2       1 THR         0.2057
     18 O           8.8620  -39.7720   18.6450 O.2       1 THR        -0.3942
     19 CB          9.3340  -40.1480   15.3090 C.3       1 THR         0.0163
     20 CG          8.0900  -40.9920   15.5780 C.ar      1 THR        -0.0493
     21 CD1         8.1680  -42.3540   15.8960 C.ar      1 THR        -0.0685
     22 CD2         6.8530  -40.4060   15.5740 C.ar      1 THR        -0.0685
     23 CE1         7.0280  -43.0880   16.1700 C.ar      1 THR        -0.0398
     24 CE2         5.6780  -41.1440   15.8390 C.ar      1 THR        -0.0398
     25 CZ          5.7800  -42.4860   16.1400 C.ar      1 THR         0.0805
     26 OH          4.6470  -43.2400   16.4460 O.3       1 THR        -0.3376
     27 N          10.6650  -40.9900   18.0350 N.am      1 THR        -0.2639
     28 CA         10.6390  -41.7570   19.2810 C.3       1 THR         0.1282
     29 C          10.8260  -40.8370   20.4830 C.2       1 THR         0.2037
     30 O          10.2100  -41.0310   21.5410 O.2       1 THR        -0.3944
     31 CB         11.7080  -42.8540   19.2670 C.3       1 THR        -0.0244
     32 N          11.6910  -39.8300   20.3460 N.am      1 THR        -0.2622
     33 CA         11.9280  -38.9080   21.4500 C.3       1 THR         0.1423
     34 C          10.6790  -38.0640   21.7250 C.2       1 THR         0.2057
     35 O          10.3370  -37.8200   22.8870 O.2       1 THR        -0.3943
     36 CB         13.1500  -38.0150   21.1500 C.3       1 THR         0.0406
     37 CG         14.4660  -38.7900   21.1330 C.2       1 THR         0.0393
     38 OD1        14.5400  -39.8620   21.7790 O.co2     1 THR        -0.5688
     39 OD2        15.4410  -38.3200   20.4960 O.co2     1 THR        -0.5688
     40 N           9.9660  -37.6270   20.6810 N.am      1 THR        -0.2618
     41 CA          8.7000  -36.9260   20.9180 C.3       1 THR         0.1404
     42 C           7.6760  -37.8240   21.6300 C.2       1 THR         0.2060
     43 O           7.0350  -37.4070   22.6090 O.2       1 THR        -0.3942
     44 CB          8.1180  -36.3710   19.6120 C.3       1 THR         0.0214
     45 CG          6.7950  -35.6760   19.8000 C.ar      1 THR        -0.0386
     46 CD1         5.6180  -36.1930   19.2570 C.ar      1 THR        -0.0601
     47 CD2         6.7030  -34.5180   20.5630 C.ar      1 THR        -0.0601
     48 CE1         4.3970  -35.5580   19.4280 C.ar      1 THR        -0.0686
     49 CE2         5.4690  -33.8900   20.7510 C.ar      1 THR        -0.0686
     50 CZ          4.3340  -34.4070   20.1830 C.ar      1 THR        -0.0687
     51 N           7.4990  -39.0630   21.1450 N.am      1 THR        -0.2633
     52 CA          6.4360  -39.9540   21.6500 C.3       1 THR         0.1335
     53 C           6.6730  -40.3210   23.1220 C.2       1 THR         0.2041
     54 O           5.7140  -40.5790   23.8630 O.2       1 THR        -0.3944
     55 CB          6.3060  -41.2040   20.7310 C.3       1 THR        -0.0037
     56 CG1         5.7960  -40.8180   19.3360 C.3       1 THR        -0.0491
     57 CG2         5.4420  -42.3150   21.3240 C.3       1 THR        -0.0582
     58 CD1         4.4240  -40.2220   19.3110 C.3       1 THR        -0.0648
     59 N           7.9440  -40.3540   23.5700 N.am      1 THR        -0.2640
     60 CA          8.3220  -40.6120   24.9630 C.3       1 THR         0.1282
     61 C           8.3200  -39.3670   25.8310 C.2       1 THR         0.2037
     62 O           8.5330  -39.4810   27.0460 O.2       1 THR        -0.3944
     63 CB          9.7070  -41.2620   25.0180 C.3       1 THR        -0.0244
     64 N           8.0510  -38.1990   25.2570 N.am      1 THR        -0.2616
     65 CA          8.0360  -36.9480   25.9920 C.3       1 THR         0.1539
     66 C           6.7060  -36.7380   26.7190 C.2       1 THR         0.2060
     67 O           5.6930  -37.4070   26.4660 O.2       1 THR        -0.3943
     68 CB          8.2930  -35.7750   25.0390 C.3       1 THR         0.0843
     69 OG          7.1040  -35.3410   24.3790 O.3       1 THR        -0.3903
     70 N           6.7050  -35.7420   27.5920 N.am      1 THR        -0.2663
     71 CA          5.5290  -35.4240   28.3890 C.3       1 THR         0.1201
     72 C           4.5050  -34.5160   27.7500 C.2       1 THR         0.2007
     73 O           3.5040  -34.1820   28.4040 O.2       1 THR        -0.3947
     74 N           4.7110  -34.0990   26.5000 N.am      1 THR        -0.2640
     75 CA          3.8530  -33.0940   25.8630 C.3       1 THR         0.1311
     76 C           3.2320  -33.5920   24.5480 C.2       1 THR         0.2040
     77 O           3.1510  -32.8460   23.5540 O.2       1 THR        -0.3944
     78 CB          4.5730  -31.7480   25.7260 C.3       1 THR        -0.0092
     79 CG          4.9780  -31.1680   27.0770 C.3       1 THR        -0.0156
     80 CD          5.6020  -29.7780   26.9300 C.3       1 THR         0.0627
     81 NE          4.6960  -28.7810   26.3750 N.pl3     1 THR        -0.2723
     82 CZ          3.8550  -28.0230   27.0770 C.cat     1 THR         0.2882
     83 NH1         3.0820  -27.1430   26.4450 N.pl3     1 THR        -0.2849
     84 NH2         3.7810  -28.1190   28.3960 N.pl3     1 THR        -0.2849
     85 N           2.7420  -34.8500   24.5530 N.am      1 THR        -0.2613
     86 CA          2.1010  -35.4460   23.3750 C.3       1 THR         0.1565
     87 C           0.5810  -35.3550   23.4140 C.2       1 THR         0.2063
     88 O          -0.0540  -35.6590   22.3940 O.2       1 THR        -0.3943
     89 CB          2.4990  -36.9250   23.1490 C.3       1 THR         0.0924
     90 OG1         1.9280  -37.7830   24.1530 O.3       1 THR        -0.3874
     91 CG2         3.9850  -37.1110   23.1490 C.3       1 THR        -0.0346
     92 N          -0.0040  -34.9470   24.5540 N.am      1 THR        -0.2663
     93 CA         -1.4360  -34.7600   24.6830 C.3       1 THR         0.1201
     94 C          -1.8500  -33.3090   24.4060 C.2       1 THR         0.2007
     95 O          -1.0530  -32.4500   24.0170 O.2       1 THR        -0.3947
     96 N          -3.1450  -33.0380   24.6090 N.am      1 THR        -0.2640
     97 CA         -3.6750  -31.6970   24.3550 C.3       1 THR         0.1311
     98 C          -2.9320  -30.6540   25.1920 C.2       1 THR         0.2039
     99 O          -2.7240  -30.8130   26.4010 O.2       1 THR        -0.3944
    100 CB         -5.1820  -31.6530   24.6490 C.3       1 THR        -0.0092
    101 CG         -6.0450  -32.5100   23.7270 C.3       1 THR        -0.0156
    102 CD         -7.5060  -32.5700   24.1890 C.3       1 THR         0.0627
    103 NE         -8.2490  -31.3370   23.8850 N.pl3     1 THR        -0.2723
    104 CZ         -8.5790  -30.3780   24.7570 C.cat     1 THR         0.2882
    105 NH1        -8.2330  -30.4600   26.0350 N.pl3     1 THR        -0.2849
    106 NH2        -9.2940  -29.3240   24.3500 N.pl3     1 THR        -0.2849
    107 N          -2.5480  -29.5470   24.5420 N.am      1 THR        -0.2637
    108 CA         -1.7440  -28.4890   25.1510 C.3       1 THR         0.1311
    109 C          -2.6040  -27.2660   25.4820 C.2       1 THR         0.2040
    110 O          -3.3740  -26.7980   24.6450 O.2       1 THR        -0.3944
    111 CB         -0.6050  -28.0790   24.2080 C.3       1 THR        -0.0092
    112 CG          0.3710  -29.2250   23.9380 C.3       1 THR        -0.0156
    113 CD          1.1610  -29.0680   22.6450 C.3       1 THR         0.0627
    114 NE          0.2950  -29.1820   21.4830 N.pl3     1 THR        -0.2723
    115 CZ          0.7090  -29.3590   20.2240 C.cat     1 THR         0.2882
    116 NH1        -0.1910  -29.3300   19.2420 N.pl3     1 THR        -0.2849
    117 NH2         2.0000  -29.5220   19.9390 N.pl3     1 THR        -0.2849
    118 N          -2.4450  -26.7410   26.6990 N.am      1 THR        -0.2616
    119 CA         -3.1970  -25.5890   27.1790 C.3       1 THR         0.1543
    120 C          -2.4480  -24.2880   26.9290 C.2       1 THR         0.2062
    121 O          -1.2190  -24.2520   26.8510 O.2       1 THR        -0.3943
    122 CB         -3.4200  -25.7270   28.6810 C.3       1 THR         0.0909
    123 OG         -4.0530  -26.9570   28.9340 O.3       1 THR        -0.3441
    124 N          -3.2160  -23.1980   26.8390 N.am      1 THR        -0.2639
    125 CA         -2.6500  -21.8610   26.7610 C.3       1 THR         0.1282
    126 C          -1.9810  -21.4770   28.0740 C.2       1 THR         0.2031
    127 O          -2.3990  -21.8990   29.1610 O.2       1 THR        -0.3944
    128 CB         -3.7510  -20.8440   26.4750 C.3       1 THR        -0.0244
    129 N          -0.9680  -20.6130   27.9740 N.am      1 THR        -0.2692
    130 CA         -0.1890  -20.1950   29.1420 C.3       1 THR         0.0969
    131 C          -0.9720  -19.1770   29.9600 C.2       1 THR         0.0604
    132 O          -0.7450  -19.0520   31.1720 O.co2     1 THR        -0.5666
    133 CB          1.2210  -19.6530   28.7830 C.3       1 THR        -0.0092
    134 CG1         1.1310  -18.3610   27.9630 C.3       1 THR        -0.0497
    135 CG2         2.0280  -20.6940   28.0210 C.3       1 THR        -0.0588
    136 CD1         2.4570  -17.7120   27.6890 C.3       1 THR        -0.0649
    137 OXT        -1.8340  -18.4660   29.4360 O.co2     1 THR        -0.5666
    138 C1         -5.3330  -27.2310   28.5140 C.3       1 THR         0.1853
    139 C2         -5.5620  -28.7300   28.7120 C.3       1 THR         0.1084
    140 C3         -5.4490  -29.0900   30.1850 C.3       1 THR         0.0062
    141 C4         -6.4360  -28.2490   30.9770 C.3       1 THR         0.0811
    142 C5         -6.1510  -26.7800   30.7260 C.3       1 THR         0.0768
    143 O2         -6.8590  -29.0850   28.2540 O.3       1 THR        -0.3867
    144 O4         -7.7670  -28.5550   30.5570 O.3       1 THR        -0.3894
    145 O5         -6.2290  -26.4690   29.3250 O.3       1 THR        -0.3463
    146 H1         16.0881  -41.4811   17.8137 H         1 THR         0.2016
    147 H2         15.8775  -42.7893   16.8371 H         1 THR         0.2016
    148 H3         14.6900  -42.3467   17.8876 H         1 THR         0.2016
    149 H4         15.6283  -40.7708   15.5874 H         1 THR         0.1125
    150 H5         13.4679  -41.2313   14.5815 H         1 THR         0.0674
    151 H6         12.2636  -41.4183   16.5312 H         1 THR         0.2102
    152 H7         13.6059  -43.6681   14.1659 H         1 THR         0.0258
    153 H8         14.7340  -43.8397   15.5531 H         1 THR         0.0258
    154 H9         15.2240  -42.8901   14.1092 H         1 THR         0.0258
    155 H10        14.3142  -38.8319   15.2240 H         1 THR         0.1885
    156 H11        13.7983  -37.3891   17.6304 H         1 THR         0.0826
    157 H12        12.8031  -36.8147   14.8053 H         1 THR         0.0639
    158 H13        15.2162  -36.0932   16.1568 H         1 THR         0.2101
    159 H14        12.8383  -34.4549   15.5444 H         1 THR         0.0257
    160 H15        13.3153  -34.9760   17.1959 H         1 THR         0.0257
    161 H16        11.7068  -35.4327   16.5394 H         1 THR         0.0257
    162 H17        11.5859  -39.0448   15.3305 H         1 THR         0.1885
    163 H18         9.1350  -38.4012   16.5674 H         1 THR         0.0821
    164 H19        10.1557  -40.8294   15.0436 H         1 THR         0.0453
    165 H20         9.1174  -39.4858   14.4578 H         1 THR         0.0453
    166 H21         9.1364  -42.8401   15.9278 H         1 THR         0.0530
    167 H22         6.7728  -39.3460   15.3616 H         1 THR         0.0530
    168 H23         7.1114  -44.1418   16.4100 H         1 THR         0.0525
    169 H24         4.7079  -40.6613   15.8062 H         1 THR         0.0525
    170 H25         4.2205  -42.8724   17.2111 H         1 THR         0.2458
    171 H26        11.3649  -41.1791   17.3463 H         1 THR         0.1883
    172 H27         9.6540  -42.2390   19.3670 H         1 THR         0.0797
    173 H28        11.6692  -43.4159   20.2119 H         1 THR         0.0277
    174 H29        12.7017  -42.3962   19.1532 H         1 THR         0.0277
    175 H30        11.5208  -43.5377   18.4259 H         1 THR         0.0277
    176 H31        12.1790  -39.7073   19.4818 H         1 THR         0.1884
    177 H32        12.1476  -39.4983   22.3519 H         1 THR         0.0819
    178 H33        13.2125  -37.2352   21.9233 H         1 THR         0.0478
    179 H34        13.0074  -37.5449   20.1658 H         1 THR         0.0478
    180 H35        10.2931  -37.7769   19.7480 H         1 THR         0.1885
    181 H36         8.9124  -36.0731   21.5794 H         1 THR         0.0823
    182 H37         7.9777  -37.2056   18.9093 H         1 THR         0.0474
    183 H38         8.8338  -35.6513   19.1883 H         1 THR         0.0474
    184 H39         5.6592  -37.1142   18.6871 H         1 THR         0.0557
    185 H40         7.5946  -34.0991   21.0153 H         1 THR         0.0557
    186 H41         3.5009  -35.9632   18.9721 H         1 THR         0.0599
    187 H42         5.4091  -32.9884   21.3498 H         1 THR         0.0599
    188 H43         3.3825  -33.9083   20.3283 H         1 THR         0.0559
    189 H44         8.1048  -39.3920   20.4206 H         1 THR         0.1883
    190 H45         5.4840  -39.4052   21.5990 H         1 THR         0.0803
    191 H46         7.3188  -41.6156   20.6096 H         1 THR         0.0345
    192 H47         5.7865  -41.7242   18.7125 H         1 THR         0.0267
    193 H48         6.4951  -40.0850   18.9070 H         1 THR         0.0267
    194 H49         5.8199  -42.5800   22.3225 H         1 THR         0.0235
    195 H50         5.4818  -43.1989   20.6705 H         1 THR         0.0235
    196 H51         4.4020  -41.9664   21.4063 H         1 THR         0.0235
    197 H52         4.1483  -39.9798   18.2740 H         1 THR         0.0230
    198 H53         4.4117  -39.3044   19.9175 H         1 THR         0.0230
    199 H54         3.7032  -40.9436   19.7230 H         1 THR         0.0230
    200 H55         8.6769  -40.1920   22.9092 H         1 THR         0.1883
    201 H56         7.5887  -41.3162   25.3829 H         1 THR         0.0797
    202 H57         9.9817  -41.4516   26.0661 H         1 THR         0.0277
    203 H58        10.4467  -40.5881   24.5613 H         1 THR         0.0277
    204 H59         9.6877  -42.2134   24.4662 H         1 THR         0.0277
    205 H60         7.8505  -38.1815   24.2775 H         1 THR         0.1884
    206 H61         8.8409  -36.9771   26.7412 H         1 THR         0.0823
    207 H62         9.0238  -36.0900   24.2796 H         1 THR         0.0606
    208 H63         8.7038  -34.9338   25.6165 H         1 THR         0.0606
    209 H64         6.7447  -36.0592   23.8715 H         1 THR         0.2097
    210 H65         7.5337  -35.1941   27.7067 H         1 THR         0.1881
    211 H66         5.8738  -34.9392   29.3142 H         1 THR         0.0763
    212 H67         5.0272  -36.3711   28.6363 H         1 THR         0.0763
    213 H68         5.4743  -34.4835   25.9807 H         1 THR         0.1883
    214 H69         3.0113  -32.9239   26.5504 H         1 THR         0.0800
    215 H70         3.9011  -31.0370   25.2230 H         1 THR         0.0313
    216 H71         5.4778  -31.8912   25.1170 H         1 THR         0.0313
    217 H72         5.7103  -31.8398   27.5487 H         1 THR         0.0301
    218 H73         4.0852  -31.0926   27.7151 H         1 THR         0.0301
    219 H74         6.4762  -29.8589   26.2673 H         1 THR         0.0689
    220 H75         5.9259  -29.4366   27.9242 H         1 THR         0.0689
    221 H76         4.7067  -28.6513   25.3533 H         1 THR         0.2642
    222 H77         2.4291  -26.5531   26.9804 H         1 THR         0.2615
    223 H78         3.1367  -27.0518   25.4205 H         1 THR         0.2615
    224 H79         4.3738  -28.7960   28.8972 H         1 THR         0.2615
    225 H80         3.1307  -27.5166   28.9205 H         1 THR         0.2615
    226 H81         2.8185  -35.3945   25.3883 H         1 THR         0.1884
    227 H82         2.4465  -34.8719   22.5026 H         1 THR         0.0826
    228 H83         2.1111  -37.2318   22.1665 H         1 THR         0.0639
    229 H84         2.2375  -37.5150   25.0103 H         1 THR         0.2101
    230 H85         4.2216  -38.1728   22.9858 H         1 THR         0.0257
    231 H86         4.3949  -36.7887   24.1176 H         1 THR         0.0257
    232 H87         4.4300  -36.5082   22.3436 H         1 THR         0.0257
    233 H88         0.5748  -34.7643   25.3487 H         1 THR         0.1881
    234 H89        -1.7389  -35.0272   25.7061 H         1 THR         0.0763
    235 H90        -1.9469  -35.4188   23.9654 H         1 THR         0.0763
    236 H91        -3.7562  -33.7582   24.9372 H         1 THR         0.1883
    237 H92        -3.5221  -31.4596   23.2919 H         1 THR         0.0800
    238 H93        -5.5171  -30.6093   24.5572 H         1 THR         0.0313
    239 H94        -5.3384  -31.9989   25.6814 H         1 THR         0.0313
    240 H95        -5.6373  -33.5315   23.7089 H         1 THR         0.0301
    241 H96        -6.0115  -32.0838   22.7135 H         1 THR         0.0301
    242 H97        -7.5247  -32.7329   25.2767 H         1 THR         0.0689
    243 H98        -8.0006  -33.4125   23.6835 H         1 THR         0.0689
    244 H99        -8.5430  -31.1992   22.9075 H         1 THR         0.2642
    245 H100       -8.4976  -29.7099   26.6893 H         1 THR         0.2615
    246 H101       -7.6997  -31.2738   26.3730 H         1 THR         0.2615
    247 H102       -9.5728  -29.2414   23.3619 H         1 THR         0.2615
    248 H103       -9.5660  -28.5947   25.0246 H         1 THR         0.2615
    249 H104       -2.8268  -29.4387   23.5878 H         1 THR         0.1883
    250 H105       -1.3088  -28.8750   26.0846 H         1 THR         0.0800
    251 H106       -0.0521  -27.2446   24.6641 H         1 THR         0.0313
    252 H107       -1.0389  -27.7521   23.2515 H         1 THR         0.0313
    253 H108       -0.2017  -30.1625   23.8828 H         1 THR         0.0301
    254 H109        1.0828  -29.2788   24.7749 H         1 THR         0.0301
    255 H110        1.9307  -29.8524   22.5972 H         1 THR         0.0689
    256 H111        1.6437  -28.0796   22.6371 H         1 THR         0.0689
    257 H112       -0.7208  -29.1215   21.6426 H         1 THR         0.2642
    258 H113        0.1078  -29.4642   18.2655 H         1 THR         0.2615
    259 H114       -1.1855  -29.1733   19.4594 H         1 THR         0.2615
    260 H115        2.6961  -29.5445   20.6979 H         1 THR         0.2615
    261 H116        2.3021  -29.6256   18.9598 H         1 THR         0.2615
    262 H117       -1.7756  -27.1598   27.3126 H         1 THR         0.1884
    263 H118       -4.1672  -25.5535   26.6618 H         1 THR         0.0824
    264 H119       -4.0563  -24.9036   29.0375 H         1 THR         0.0610
    265 H120       -2.4523  -25.6950   29.2029 H         1 THR         0.0610
    266 H121       -4.2101  -23.3052   26.8249 H         1 THR         0.1883
    267 H122       -1.9058  -21.8345   25.9514 H         1 THR         0.0797
    268 H123       -3.3135  -19.8364   26.4178 H         1 THR         0.0277
    269 H124       -4.4971  -20.8745   27.2827 H         1 THR         0.0277
    270 H125       -4.2360  -21.0879   25.5183 H         1 THR         0.0277
    271 H126       -0.7344  -20.2405   27.0759 H         1 THR         0.1875
    272 H127       -0.0415  -21.0859   29.7701 H         1 THR         0.0729
    273 H128        1.7476  -19.4280   29.7222 H         1 THR         0.0338
    274 H129        0.5042  -17.6451   28.5149 H         1 THR         0.0267
    275 H130        0.6566  -18.5966   26.9989 H         1 THR         0.0267
    276 H131        2.0884  -21.6179   28.6150 H         1 THR         0.0234
    277 H132        3.0420  -20.3094   27.8371 H         1 THR         0.0234
    278 H133        1.5369  -20.9074   27.0601 H         1 THR         0.0234
    279 H134        2.3022  -16.7967   27.0989 H         1 THR         0.0230
    280 H135        3.0963  -18.4076   27.1257 H         1 THR         0.0230
    281 H136        2.9439  -17.4561   28.6416 H         1 THR         0.0230
    282 H137       -5.4625  -26.9639   27.4548 H         1 THR         0.0936
    283 H138       -4.8062  -29.2889   28.1408 H         1 THR         0.0645
    284 H139       -4.4266  -28.8876   30.5368 H         1 THR         0.0317
    285 H140       -5.6797  -30.1567   30.3227 H         1 THR         0.0317
    286 H141       -6.3296  -28.4675   32.0498 H         1 THR         0.0617
    287 H142       -5.1407  -26.5427   31.0908 H         1 THR         0.0586
    288 H143       -6.8893  -26.1728   31.2702 H         1 THR         0.0586
    289 H144       -7.5115  -28.6087   28.7539 H         1 THR         0.2100
    290 H145       -7.8560  -28.3687   29.6297 H         1 THR         0.2099
@<TRIPOS>BOND
     1    1    2 1  
     2    2    3 1  
     3    2    5 1  
     4    3    4 2  
     5    3    8 am 
     6    5    6 1  
     7    5    7 1  
     8    8    9 1  
     9    9   10 1  
    10    9   12 1  
    11   10   11 2  
    12   10   15 am 
    13   12   13 1  
    14   12   14 1  
    15   15   16 1  
    16   16   17 1  
    17   16   19 1  
    18   17   18 2  
    19   17   27 am 
    20   19   20 1  
    21   20   21 ar 
    22   20   22 ar 
    23   21   23 ar 
    24   22   24 ar 
    25   23   25 ar 
    26   24   25 ar 
    27   25   26 1  
    28   27   28 1  
    29   28   29 1  
    30   28   31 1  
    31   29   30 2  
    32   29   32 am 
    33   32   33 1  
    34   33   34 1  
    35   33   36 1  
    36   34   35 2  
    37   34   40 am 
    38   36   37 1  
    39   37   38 ar 
    40   37   39 ar 
    41   40   41 1  
    42   41   42 1  
    43   41   44 1  
    44   42   43 2  
    45   42   51 am 
    46   44   45 1  
    47   45   46 ar 
    48   45   47 ar 
    49   46   48 ar 
    50   47   49 ar 
    51   48   50 ar 
    52   49   50 ar 
    53   51   52 1  
    54   52   53 1  
    55   52   55 1  
    56   53   54 2  
    57   53   59 am 
    58   55   56 1  
    59   55   57 1  
    60   56   58 1  
    61   59   60 1  
    62   60   61 1  
    63   60   63 1  
    64   61   62 2  
    65   61   64 am 
    66   64   65 1  
    67   65   66 1  
    68   65   68 1  
    69   66   67 2  
    70   66   70 am 
    71   68   69 1  
    72   70   71 1  
    73   71   72 1  
    74   72   73 2  
    75   72   74 am 
    76   74   75 1  
    77   75   76 1  
    78   75   78 1  
    79   76   77 2  
    80   76   85 am 
    81   78   79 1  
    82   79   80 1  
    83   80   81 1  
    84   81   82 ar 
    85   82   83 ar 
    86   82   84 ar 
    87   85   86 1  
    88   86   87 1  
    89   86   89 1  
    90   87   88 2  
    91   87   92 am 
    92   89   90 1  
    93   89   91 1  
    94   92   93 1  
    95   93   94 1  
    96   94   95 2  
    97   94   96 am 
    98   96   97 1  
    99   97   98 1  
   100   97  100 1  
   101   98   99 2  
   102   98  107 am 
   103  100  101 1  
   104  101  102 1  
   105  102  103 1  
   106  103  104 ar 
   107  104  105 ar 
   108  104  106 ar 
   109  107  108 1  
   110  108  109 1  
   111  108  111 1  
   112  109  110 2  
   113  109  118 am 
   114  111  112 1  
   115  112  113 1  
   116  113  114 1  
   117  114  115 ar 
   118  115  116 ar 
   119  115  117 ar 
   120  118  119 1  
   121  119  120 1  
   122  119  122 1  
   123  120  121 2  
   124  120  124 am 
   125  122  123 1  
   126  123  138 1  
   127  124  125 1  
   128  125  126 1  
   129  125  128 1  
   130  126  127 2  
   131  126  129 am 
   132  129  130 1  
   133  130  131 1  
   134  130  133 1  
   135  131  132 ar 
   136  131  137 ar 
   137  133  134 1  
   138  133  135 1  
   139  134  136 1  
   140  138  139 1  
   141  138  145 1  
   142  139  140 1  
   143  139  143 1  
   144  140  141 1  
   145  141  142 1  
   146  141  144 1  
   147  142  145 1  
   148    1  146 1  
   149    1  147 1  
   150    1  148 1  
   151    2  149 1  
   152    5  150 1  
   153    6  151 1  
   154    7  152 1  
   155    7  153 1  
   156    7  154 1  
   157    8  155 1  
   158    9  156 1  
   159   12  157 1  
   160   13  158 1  
   161   14  159 1  
   162   14  160 1  
   163   14  161 1  
   164   15  162 1  
   165   16  163 1  
   166   19  164 1  
   167   19  165 1  
   168   21  166 1  
   169   22  167 1  
   170   23  168 1  
   171   24  169 1  
   172   26  170 1  
   173   27  171 1  
   174   28  172 1  
   175   31  173 1  
   176   31  174 1  
   177   31  175 1  
   178   32  176 1  
   179   33  177 1  
   180   36  178 1  
   181   36  179 1  
   182   40  180 1  
   183   41  181 1  
   184   44  182 1  
   185   44  183 1  
   186   46  184 1  
   187   47  185 1  
   188   48  186 1  
   189   49  187 1  
   190   50  188 1  
   191   51  189 1  
   192   52  190 1  
   193   55  191 1  
   194   56  192 1  
   195   56  193 1  
   196   57  194 1  
   197   57  195 1  
   198   57  196 1  
   199   58  197 1  
   200   58  198 1  
   201   58  199 1  
   202   59  200 1  
   203   60  201 1  
   204   63  202 1  
   205   63  203 1  
   206   63  204 1  
   207   64  205 1  
   208   65  206 1  
   209   68  207 1  
   210   68  208 1  
   211   69  209 1  
   212   70  210 1  
   213   71  211 1  
   214   71  212 1  
   215   74  213 1  
   216   75  214 1  
   217   78  215 1  
   218   78  216 1  
   219   79  217 1  
   220   79  218 1  
   221   80  219 1  
   222   80  220 1  
   223   81  221 1  
   224   83  222 1  
   225   83  223 1  
   226   84  224 1  
   227   84  225 1  
   228   85  226 1  
   229   86  227 1  
   230   89  228 1  
   231   90  229 1  
   232   91  230 1  
   233   91  231 1  
   234   91  232 1  
   235   92  233 1  
   236   93  234 1  
   237   93  235 1  
   238   96  236 1  
   239   97  237 1  
   240  100  238 1  
   241  100  239 1  
   242  101  240 1  
   243  101  241 1  
   244  102  242 1  
   245  102  243 1  
   246  103  244 1  
   247  105  245 1  
   248  105  246 1  
   249  106  247 1  
   250  106  248 1  
   251  107  249 1  
   252  108  250 1  
   253  111  251 1  
   254  111  252 1  
   255  112  253 1  
   256  112  254 1  
   257  113  255 1  
   258  113  256 1  
   259  114  257 1  
   260  116  258 1  
   261  116  259 1  
   262  117  260 1  
   263  117  261 1  
   264  118  262 1  
   265  119  263 1  
   266  122  264 1  
   267  122  265 1  
   268  124  266 1  
   269  125  267 1  
   270  128  268 1  
   271  128  269 1  
   272  128  270 1  
   273  129  271 1  
   274  130  272 1  
   275  133  273 1  
   276  134  274 1  
   277  134  275 1  
   278  135  276 1  
   279  135  277 1  
   280  135  278 1  
   281  136  279 1  
   282  136  280 1  
   283  136  281 1  
   284  138  282 1  
   285  139  283 1  
   286  140  284 1  
   287  140  285 1  
   288  141  286 1  
   289  142  287 1  
   290  142  288 1  
   291  143  289 1  
   292  144  290 1  
@<TRIPOS>SUBSTRUCTURE
     1 THR         1

