6esa_ligand
  -I-interpret- 

289291  0  0  0  0  0  0  0  0999 V2000
   15.4170  -42.0080   17.2770 N   0  3  0  0  0
   14.8250  -41.1400   16.2420 C   0  0  0  0  0
   14.1220  -39.9600   16.8980 C   0  0  0  0  0
   13.6980  -40.0410   18.0570 O   0  0  0  0  0
   13.7940  -41.8960   15.3950 C   0  0  0  0  0
   12.6530  -42.2190   16.2000 O   0  0  0  0  0
   14.3810  -43.1630   14.7610 C   0  0  0  0  0
   13.9630  -38.8570   16.1600 N   0  0  0  0  0
   13.2830  -37.6920   16.7070 C   0  0  0  0  0
   11.8320  -38.0230   17.0580 C   0  0  0  0  0
   11.3230  -37.6070   18.1150 O   0  0  0  0  0
   13.3620  -36.5400   15.7120 C   0  0  0  0  0
   14.7280  -36.3130   15.3720 O   0  0  0  0  0
   12.7640  -35.2620   16.2880 C   0  0  0  0  0
   11.1560  -38.7910   16.1970 N   0  0  0  0  0
    9.8050  -39.2700   16.4880 C   0  0  0  0  0
    9.7490  -40.0320   17.8160 C   0  0  0  0  0
    8.8620  -39.7720   18.6450 O   0  0  0  0  0
    9.3340  -40.1480   15.3090 C   0  0  0  0  0
    8.0900  -40.9920   15.5780 C   0  0  0  0  0
    8.1680  -42.3540   15.8960 C   0  0  0  0  0
    6.8530  -40.4060   15.5740 C   0  0  0  0  0
    7.0280  -43.0880   16.1700 C   0  0  0  0  0
    5.6780  -41.1440   15.8390 C   0  0  0  0  0
    5.7800  -42.4860   16.1400 C   0  0  0  0  0
    4.6470  -43.2400   16.4460 O   0  0  0  0  0
   10.6650  -40.9900   18.0350 N   0  0  0  0  0
   10.6390  -41.7570   19.2810 C   0  0  0  0  0
   10.8260  -40.8370   20.4830 C   0  0  0  0  0
   10.2100  -41.0310   21.5410 O   0  0  0  0  0
   11.7080  -42.8540   19.2670 C   0  0  0  0  0
   11.6910  -39.8300   20.3460 N   0  0  0  0  0
   11.9280  -38.9080   21.4500 C   0  0  0  0  0
   10.6790  -38.0640   21.7250 C   0  0  0  0  0
   10.3370  -37.8200   22.8870 O   0  0  0  0  0
   13.1500  -38.0150   21.1500 C   0  0  0  0  0
   14.4660  -38.7900   21.1330 C   0  0  0  0  0
   14.5400  -39.8620   21.7790 O   0  0  0  0  0
   15.4410  -38.3200   20.4960 O   0  0  0  0  0
    9.9660  -37.6270   20.6810 N   0  0  0  0  0
    8.7000  -36.9260   20.9180 C   0  0  0  0  0
    7.6760  -37.8240   21.6300 C   0  0  0  0  0
    7.0350  -37.4070   22.6090 O   0  0  0  0  0
    8.1180  -36.3710   19.6120 C   0  0  0  0  0
    6.7950  -35.6760   19.8000 C   0  0  0  0  0
    5.6180  -36.1930   19.2570 C   0  0  0  0  0
    6.7030  -34.5180   20.5630 C   0  0  0  0  0
    4.3970  -35.5580   19.4280 C   0  0  0  0  0
    5.4690  -33.8900   20.7510 C   0  0  0  0  0
    4.3340  -34.4070   20.1830 C   0  0  0  0  0
    7.4990  -39.0630   21.1450 N   0  0  0  0  0
    6.4360  -39.9540   21.6500 C   0  0  0  0  0
    6.6730  -40.3210   23.1220 C   0  0  0  0  0
    5.7140  -40.5790   23.8630 O   0  0  0  0  0
    6.3060  -41.2040   20.7310 C   0  0  0  0  0
    5.7960  -40.8180   19.3360 C   0  0  0  0  0
    5.4420  -42.3150   21.3240 C   0  0  0  0  0
    4.4240  -40.2220   19.3110 C   0  0  0  0  0
    7.9440  -40.3540   23.5700 N   0  0  0  0  0
    8.3220  -40.6120   24.9630 C   0  0  0  0  0
    8.3200  -39.3670   25.8310 C   0  0  0  0  0
    8.5330  -39.4810   27.0460 O   0  0  0  0  0
    9.7070  -41.2620   25.0180 C   0  0  0  0  0
    8.0510  -38.1990   25.2570 N   0  0  0  0  0
    8.0360  -36.9480   25.9920 C   0  0  0  0  0
    6.7060  -36.7380   26.7190 C   0  0  0  0  0
    5.6930  -37.4070   26.4660 O   0  0  0  0  0
    8.2930  -35.7750   25.0390 C   0  0  0  0  0
    7.1040  -35.3410   24.3790 O   0  0  0  0  0
    6.7050  -35.7420   27.5920 N   0  0  0  0  0
    5.5290  -35.4240   28.3890 C   0  0  0  0  0
    4.5050  -34.5160   27.7500 C   0  0  0  0  0
    3.5040  -34.1820   28.4040 O   0  0  0  0  0
    4.7110  -34.0990   26.5000 N   0  0  0  0  0
    3.8530  -33.0940   25.8630 C   0  0  0  0  0
    3.2320  -33.5920   24.5480 C   0  0  0  0  0
    3.1510  -32.8460   23.5540 O   0  0  0  0  0
    4.5730  -31.7480   25.7260 C   0  0  0  0  0
    4.9780  -31.1680   27.0770 C   0  0  0  0  0
    5.6020  -29.7780   26.9300 C   0  0  0  0  0
    4.6960  -28.7810   26.3750 N   0  0  0  0  0
    3.8550  -28.0230   27.0770 C   0  0  0  0  0
    3.0820  -27.1430   26.4450 N   0  0  0  0  0
    3.7810  -28.1190   28.3960 N   0  0  0  0  0
    2.7420  -34.8500   24.5530 N   0  0  0  0  0
    2.1010  -35.4460   23.3750 C   0  0  0  0  0
    0.5810  -35.3550   23.4140 C   0  0  0  0  0
   -0.0540  -35.6590   22.3940 O   0  0  0  0  0
    2.4990  -36.9250   23.1490 C   0  0  0  0  0
    1.9280  -37.7830   24.1530 O   0  0  0  0  0
    3.9850  -37.1110   23.1490 C   0  0  0  0  0
   -0.0040  -34.9470   24.5540 N   0  0  0  0  0
   -1.4360  -34.7600   24.6830 C   0  0  0  0  0
   -1.8500  -33.3090   24.4060 C   0  0  0  0  0
   -1.0530  -32.4500   24.0170 O   0  0  0  0  0
   -3.1450  -33.0380   24.6090 N   0  0  0  0  0
   -3.6750  -31.6970   24.3550 C   0  0  0  0  0
   -2.9320  -30.6540   25.1920 C   0  0  0  0  0
   -2.7240  -30.8130   26.4010 O   0  0  0  0  0
   -5.1820  -31.6530   24.6490 C   0  0  0  0  0
   -6.0450  -32.5100   23.7270 C   0  0  0  0  0
   -7.5060  -32.5700   24.1890 C   0  0  0  0  0
   -8.2490  -31.3370   23.8850 N   0  0  0  0  0
   -8.5790  -30.3780   24.7570 C   0  0  0  0  0
   -8.2330  -30.4600   26.0350 N   0  0  0  0  0
   -9.2940  -29.3240   24.3500 N   0  0  0  0  0
   -2.5480  -29.5470   24.5420 N   0  0  0  0  0
   -1.7440  -28.4890   25.1510 C   0  0  0  0  0
   -2.6040  -27.2660   25.4820 C   0  0  0  0  0
   -3.3740  -26.7980   24.6450 O   0  0  0  0  0
   -0.6050  -28.0790   24.2080 C   0  0  0  0  0
    0.3710  -29.2250   23.9380 C   0  0  0  0  0
    1.1610  -29.0680   22.6450 C   0  0  0  0  0
    0.2950  -29.1820   21.4830 N   0  0  0  0  0
    0.7090  -29.3590   20.2240 C   0  0  0  0  0
   -0.1910  -29.3300   19.2420 N   0  0  0  0  0
    2.0000  -29.5220   19.9390 N   0  0  0  0  0
   -2.4450  -26.7410   26.6990 N   0  0  0  0  0
   -3.1970  -25.5890   27.1790 C   0  0  0  0  0
   -2.4480  -24.2880   26.9290 C   0  0  0  0  0
   -1.2190  -24.2520   26.8510 O   0  0  0  0  0
   -3.4200  -25.7270   28.6810 C   0  0  0  0  0
   -4.0530  -26.9570   28.9340 O   0  0  0  0  0
   -3.2160  -23.1980   26.8390 N   0  0  0  0  0
   -2.6500  -21.8610   26.7610 C   0  0  0  0  0
   -1.9810  -21.4770   28.0740 C   0  0  0  0  0
   -2.3990  -21.8990   29.1610 O   0  0  0  0  0
   -3.7510  -20.8440   26.4750 C   0  0  0  0  0
   -0.9680  -20.6130   27.9740 N   0  0  0  0  0
   -0.1890  -20.1950   29.1420 C   0  0  0  0  0
   -0.9720  -19.1770   29.9600 C   0  0  0  0  0
   -0.7450  -19.0520   31.1720 O   0  0  0  0  0
    1.2210  -19.6530   28.7830 C   0  0  0  0  0
    1.1310  -18.3610   27.9630 C   0  0  0  0  0
    2.0280  -20.6940   28.0210 C   0  0  0  0  0
    2.4570  -17.7120   27.6890 C   0  0  0  0  0
   -1.8340  -18.4660   29.4360 O   0  0  0  0  0
   -5.3330  -27.2310   28.5140 C   0  0  0  0  0
   -5.5620  -28.7300   28.7120 C   0  0  0  0  0
   -5.4490  -29.0900   30.1850 C   0  0  0  0  0
   -6.4360  -28.2490   30.9770 C   0  0  0  0  0
   -6.1510  -26.7800   30.7260 C   0  0  0  0  0
   -6.8590  -29.0850   28.2540 O   0  0  0  0  0
   -7.7670  -28.5550   30.5570 O   0  0  0  0  0
   -6.2290  -26.4690   29.3250 O   0  0  0  0  0
   16.0959  -41.4739   17.8194 H   0  0  0  0  0
   14.6805  -42.3501   17.8941 H   0  0  0  0  0
   15.8826  -42.7982   16.8307 H   0  0  0  0  0
   15.6369  -40.8006   15.5988 H   0  0  0  0  0
   13.4913  -41.2432   14.5763 H   0  0  0  0  0
   12.2990  -41.4156   16.5884 H   0  0  0  0  0
   14.6860  -43.8534   15.5474 H   0  0  0  0  0
   13.6265  -43.6364   14.1327 H   0  0  0  0  0
   15.2462  -42.8966   14.1539 H   0  0  0  0  0
   14.3212  -38.8314   15.2053 H   0  0  0  0  0
   13.7794  -37.3906   17.6294 H   0  0  0  0  0
   12.7875  -36.8106   14.8261 H   0  0  0  0  0
   14.7844  -35.5881   14.7452 H   0  0  0  0  0
   11.7165  -35.4325   16.5367 H   0  0  0  0  0
   13.3110  -34.9797   17.1875 H   0  0  0  0  0
   12.8382  -34.4630   15.5503 H   0  0  0  0  0
   11.5945  -39.0498   15.3132 H   0  0  0  0  0
    9.1339  -38.4182   16.5987 H   0  0  0  0  0
   10.1441  -40.8458   15.0972 H   0  0  0  0  0
    9.0792  -39.4678   14.4963 H   0  0  0  0  0
    9.1417  -42.8428   15.9280 H   0  0  0  0  0
    6.7723  -39.3402   15.3604 H   0  0  0  0  0
    7.1118  -44.1476   16.4113 H   0  0  0  0  0
    4.7026  -40.6587   15.8060 H   0  0  0  0  0
    3.8670  -42.6841   16.3812 H   0  0  0  0  0
   11.3789  -41.1828   17.3325 H   0  0  0  0  0
    9.6633  -42.2356   19.3654 H   0  0  0  0  0
   11.5214  -43.5308   18.4332 H   0  0  0  0  0
   12.6921  -42.3991   19.1542 H   0  0  0  0  0
   11.6685  -43.4100   20.2037 H   0  0  0  0  0
   12.1887  -39.7049   19.4645 H   0  0  0  0  0
   12.1440  -39.4862   22.3484 H   0  0  0  0  0
   13.2158  -37.2663   21.9394 H   0  0  0  0  0
   13.0083  -37.5798   20.1608 H   0  0  0  0  0
   15.1796  -37.4988   20.0730 H   0  0  0  0  0
   10.2997  -37.7799   19.7293 H   0  0  0  0  0
    8.9187  -36.0860   21.5773 H   0  0  0  0  0
    7.9562  -37.2127   18.9386 H   0  0  0  0  0
    8.8236  -35.6379   19.2212 H   0  0  0  0  0
    5.6594  -37.1193   18.6840 H   0  0  0  0  0
    7.5996  -34.0968   21.0178 H   0  0  0  0  0
    3.4959  -35.9654   18.9696 H   0  0  0  0  0
    5.4088  -32.9834   21.3531 H   0  0  0  0  0
    3.3773  -33.9056   20.3291 H   0  0  0  0  0
    8.1169  -39.3986   20.4061 H   0  0  0  0  0
    5.4830  -39.4259   21.6183 H   0  0  0  0  0
    7.3144  -41.6087   20.6449 H   0  0  0  0  0
    5.7524  -41.7362   18.7502 H   0  0  0  0  0
    6.4770  -40.0599   18.9492 H   0  0  0  0  0
    5.8771  -42.6481   22.2663 H   0  0  0  0  0
    4.4356  -41.9356   21.5010 H   0  0  0  0  0
    5.3988  -43.1515   20.6265 H   0  0  0  0  0
    3.7108  -40.9379   19.7195 H   0  0  0  0  0
    4.4131  -39.3129   19.9123 H   0  0  0  0  0
    4.1520  -39.9824   18.2830 H   0  0  0  0  0
    8.6915  -40.1887   22.8960 H   0  0  0  0  0
    7.5635  -41.2837   25.3651 H   0  0  0  0  0
    9.6866  -42.2045   24.4709 H   0  0  0  0  0
   10.4390  -40.5933   24.5651 H   0  0  0  0  0
    9.9780  -41.4493   26.0570 H   0  0  0  0  0
    7.8465  -38.1812   24.2579 H   0  0  0  0  0
    8.8276  -36.9941   26.7399 H   0  0  0  0  0
    8.9997  -36.1066   24.2782 H   0  0  0  0  0
    8.6770  -34.9408   25.6262 H   0  0  0  0  0
    7.3128  -34.6081   23.7951 H   0  0  0  0  0
    7.5502  -35.1832   27.7090 H   0  0  0  0  0
    5.8953  -34.8934   29.2679 H   0  0  0  0  0
    5.0212  -36.3717   28.5680 H   0  0  0  0  0
    5.4895  -34.4912   25.9704 H   0  0  0  0  0
    3.0060  -32.9237   26.5277 H   0  0  0  0  0
    3.8897  -31.0462   25.2479 H   0  0  0  0  0
    5.4789  -31.9071   25.1411 H   0  0  0  0  0
    5.7163  -31.8306   27.5286 H   0  0  0  0  0
    4.0849  -31.0806   27.6957 H   0  0  0  0  0
    6.4429  -29.8708   26.2427 H   0  0  0  0  0
    5.8832  -29.4413   27.9278 H   0  0  0  0  0
    4.7066  -28.6525   25.3632 H   0  0  0  0  0
    2.4421  -26.5523   26.9761 H   0  0  0  0  0
    3.1294  -27.0593   25.4296 H   0  0  0  0  0
    4.3749  -28.7827   28.8932 H   0  0  0  0  0
    2.8200  -35.4054   25.4050 H   0  0  0  0  0
    2.4721  -34.8486   22.5422 H   0  0  0  0  0
    2.1062  -37.1976   22.1694 H   0  0  0  0  0
    2.1928  -38.6904   23.9852 H   0  0  0  0  0
    4.4247  -36.5132   22.3506 H   0  0  0  0  0
    4.3899  -36.7913   24.1092 H   0  0  0  0  0
    4.2182  -38.1634   22.9872 H   0  0  0  0  0
    0.5864  -34.7606   25.3646 H   0  0  0  0  0
   -1.7227  -35.0083   25.7049 H   0  0  0  0  0
   -1.9317  -35.4020   23.9549 H   0  0  0  0  0
   -3.7684  -33.7726   24.9438 H   0  0  0  0  0
   -3.5210  -31.4598   23.3023 H   0  0  0  0  0
   -5.5000  -30.6201   24.5071 H   0  0  0  0  0
   -5.3170  -32.0426   25.6580 H   0  0  0  0  0
   -5.6454  -33.5241   23.7350 H   0  0  0  0  0
   -6.0225  -32.0653   22.7321 H   0  0  0  0  0
   -7.5096  -32.7047   25.2706 H   0  0  0  0  0
   -7.9904  -33.3914   23.6610 H   0  0  0  0  0
   -8.5402  -31.2005   22.9170 H   0  0  0  0  0
   -7.7049  -31.2659   26.3697 H   0  0  0  0  0
   -9.5633  -28.6018   25.0180 H   0  0  0  0  0
   -9.5701  -29.2422   23.3715 H   0  0  0  0  0
   -2.8324  -29.4365   23.5687 H   0  0  0  0  0
   -1.3237  -28.8782   26.0783 H   0  0  0  0  0
   -0.0505  -27.2689   24.6818 H   0  0  0  0  0
   -1.0460  -27.7810   23.2568 H   0  0  0  0  0
   -0.2168  -30.1388   23.8509 H   0  0  0  0  0
    1.0891  -29.2403   24.7579 H   0  0  0  0  0
    1.9120  -29.8566   22.5981 H   0  0  0  0  0
    1.6246  -28.0815   22.6380 H   0  0  0  0  0
   -0.7109  -29.1221   21.6410 H   0  0  0  0  0
    0.1086  -29.4326   18.2724 H   0  0  0  0  0
   -1.1796  -29.2052   19.4598 H   0  0  0  0  0
    2.6926  -29.5131   20.6877 H   0  0  0  0  0
   -1.7622  -27.1681   27.3249 H   0  0  0  0  0
   -4.1436  -25.5601   26.6394 H   0  0  0  0  0
   -4.0458  -24.9091   29.0382 H   0  0  0  0  0
   -2.4630  -25.6901   29.2014 H   0  0  0  0  0
   -4.2300  -23.3073   26.8246 H   0  0  0  0  0
   -1.9112  -21.8600   25.9596 H   0  0  0  0  0
   -4.2308  -21.0868   25.5269 H   0  0  0  0  0
   -4.4897  -20.8752   27.2759 H   0  0  0  0  0
   -3.3163  -19.8460   26.4186 H   0  0  0  0  0
   -0.7297  -20.2331   27.0579 H   0  0  0  0  0
   -0.0206  -21.0893   29.7420 H   0  0  0  0  0
   -0.0554  -19.6670   31.4323 H   0  0  0  0  0
    1.7299  -19.4311   29.7210 H   0  0  0  0  0
    0.5400  -17.6524   28.5433 H   0  0  0  0  0
    0.6954  -18.6220   26.9985 H   0  0  0  0  0
    2.1422  -21.5858   28.6373 H   0  0  0  0  0
    1.5071  -20.9522   27.0990 H   0  0  0  0  0
    3.0107  -20.2871   27.7828 H   0  0  0  0  0
    2.9384  -17.4590   28.6337 H   0  0  0  0  0
    3.0895  -18.4023   27.1309 H   0  0  0  0  0
    2.3023  -16.8052   27.1043 H   0  0  0  0  0
   -5.4940  -26.9726   27.4674 H   0  0  0  0  0
   -4.8055  -29.2719   28.1445 H   0  0  0  0  0
   -4.4354  -28.8937   30.5346 H   0  0  0  0  0
   -5.6735  -30.1476   30.3231 H   0  0  0  0  0
   -6.3340  -28.4664   32.0402 H   0  0  0  0  0
   -5.1439  -26.5554   31.0773 H   0  0  0  0  0
   -6.8942  -26.1851   31.2569 H   0  0  0  0  0
   -6.9955  -30.0267   28.3814 H   0  0  0  0  0
   -8.3897  -28.0231   31.0580 H   0  0  0  0  0
  1  2  1  0  0  0
  2  3  1  0  0  0
  2  5  1  0  0  0
  3  4  2  0  0  0
  3  8  1  0  0  0
  5  6  1  0  0  0
  5  7  1  0  0  0
  8  9  1  0  0  0
  9 10  1  0  0  0
  9 12  1  0  0  0
 10 11  2  0  0  0
 10 15  1  0  0  0
 12 13  1  0  0  0
 12 14  1  0  0  0
 15 16  1  0  0  0
 16 17  1  0  0  0
 16 19  1  0  0  0
 17 18  2  0  0  0
 17 27  1  0  0  0
 19 20  1  0  0  0
 20 21  4  0  0  0
 20 22  4  0  0  0
 21 23  4  0  0  0
 22 24  4  0  0  0
 23 25  4  0  0  0
 24 25  4  0  0  0
 25 26  1  0  0  0
 27 28  1  0  0  0
 28 29  1  0  0  0
 28 31  1  0  0  0
 29 30  2  0  0  0
 29 32  1  0  0  0
 32 33  1  0  0  0
 33 34  1  0  0  0
 33 36  1  0  0  0
 34 35  2  0  0  0
 34 40  1  0  0  0
 36 37  1  0  0  0
 37 38  2  0  0  0
 37 39  1  0  0  0
 40 41  1  0  0  0
 41 42  1  0  0  0
 41 44  1  0  0  0
 42 43  2  0  0  0
 42 51  1  0  0  0
 44 45  1  0  0  0
 45 46  4  0  0  0
 45 47  4  0  0  0
 46 48  4  0  0  0
 47 49  4  0  0  0
 48 50  4  0  0  0
 49 50  4  0  0  0
 51 52  1  0  0  0
 52 53  1  0  0  0
 52 55  1  0  0  0
 53 54  2  0  0  0
 53 59  1  0  0  0
 55 56  1  0  0  0
 55 57  1  0  0  0
 56 58  1  0  0  0
 59 60  1  0  0  0
 60 61  1  0  0  0
 60 63  1  0  0  0
 61 62  2  0  0  0
 61 64  1  0  0  0
 64 65  1  0  0  0
 65 66  1  0  0  0
 65 68  1  0  0  0
 66 67  2  0  0  0
 66 70  1  0  0  0
 68 69  1  0  0  0
 70 71  1  0  0  0
 71 72  1  0  0  0
 72 73  2  0  0  0
 72 74  1  0  0  0
 74 75  1  0  0  0
 75 76  1  0  0  0
 75 78  1  0  0  0
 76 77  2  0  0  0
 76 85  1  0  0  0
 78 79  1  0  0  0
 79 80  1  0  0  0
 80 81  1  0  0  0
 81 82  1  0  0  0
 82 83  1  0  0  0
 82 84  2  0  0  0
 85 86  1  0  0  0
 86 87  1  0  0  0
 86 89  1  0  0  0
 87 88  2  0  0  0
 87 92  1  0  0  0
 89 90  1  0  0  0
 89 91  1  0  0  0
 92 93  1  0  0  0
 93 94  1  0  0  0
 94 95  2  0  0  0
 94 96  1  0  0  0
 96 97  1  0  0  0
 97 98  1  0  0  0
 97100  1  0  0  0
 98 99  2  0  0  0
 98107  1  0  0  0
100101  1  0  0  0
101102  1  0  0  0
102103  1  0  0  0
103104  1  0  0  0
104105  2  0  0  0
104106  1  0  0  0
107108  1  0  0  0
108109  1  0  0  0
108111  1  0  0  0
109110  2  0  0  0
109118  1  0  0  0
111112  1  0  0  0
112113  1  0  0  0
113114  1  0  0  0
114115  1  0  0  0
115116  1  0  0  0
115117  2  0  0  0
118119  1  0  0  0
119120  1  0  0  0
119122  1  0  0  0
120121  2  0  0  0
120124  1  0  0  0
122123  1  0  0  0
123138  1  0  0  0
124125  1  0  0  0
125126  1  0  0  0
125128  1  0  0  0
126127  2  0  0  0
126129  1  0  0  0
129130  1  0  0  0
130131  1  0  0  0
130133  1  0  0  0
131132  1  0  0  0
131137  2  0  0  0
133134  1  0  0  0
133135  1  0  0  0
134136  1  0  0  0
138139  1  0  0  0
138145  1  0  0  0
139140  1  0  0  0
139143  1  0  0  0
140141  1  0  0  0
141142  1  0  0  0
141144  1  0  0  0
142145  1  0  0  0
  1146  1  0  0  0
  1147  1  0  0  0
  1148  1  0  0  0
  2149  1  0  0  0
  5150  1  0  0  0
  6151  1  0  0  0
  7152  1  0  0  0
  7153  1  0  0  0
  7154  1  0  0  0
  8155  1  0  0  0
  9156  1  0  0  0
 12157  1  0  0  0
 13158  1  0  0  0
 14159  1  0  0  0
 14160  1  0  0  0
 14161  1  0  0  0
 15162  1  0  0  0
 16163  1  0  0  0
 19164  1  0  0  0
 19165  1  0  0  0
 21166  1  0  0  0
 22167  1  0  0  0
 23168  1  0  0  0
 24169  1  0  0  0
 26170  1  0  0  0
 27171  1  0  0  0
 28172  1  0  0  0
 31173  1  0  0  0
 31174  1  0  0  0
 31175  1  0  0  0
 32176  1  0  0  0
 33177  1  0  0  0
 36178  1  0  0  0
 36179  1  0  0  0
 39180  1  0  0  0
 40181  1  0  0  0
 41182  1  0  0  0
 44183  1  0  0  0
 44184  1  0  0  0
 46185  1  0  0  0
 47186  1  0  0  0
 48187  1  0  0  0
 49188  1  0  0  0
 50189  1  0  0  0
 51190  1  0  0  0
 52191  1  0  0  0
 55192  1  0  0  0
 56193  1  0  0  0
 56194  1  0  0  0
 57195  1  0  0  0
 57196  1  0  0  0
 57197  1  0  0  0
 58198  1  0  0  0
 58199  1  0  0  0
 58200  1  0  0  0
 59201  1  0  0  0
 60202  1  0  0  0
 63203  1  0  0  0
 63204  1  0  0  0
 63205  1  0  0  0
 64206  1  0  0  0
 65207  1  0  0  0
 68208  1  0  0  0
 68209  1  0  0  0
 69210  1  0  0  0
 70211  1  0  0  0
 71212  1  0  0  0
 71213  1  0  0  0
 74214  1  0  0  0
 75215  1  0  0  0
 78216  1  0  0  0
 78217  1  0  0  0
 79218  1  0  0  0
 79219  1  0  0  0
 80220  1  0  0  0
 80221  1  0  0  0
 81222  1  0  0  0
 83223  1  0  0  0
 83224  1  0  0  0
 84225  1  0  0  0
 85226  1  0  0  0
 86227  1  0  0  0
 89228  1  0  0  0
 90229  1  0  0  0
 91230  1  0  0  0
 91231  1  0  0  0
 91232  1  0  0  0
 92233  1  0  0  0
 93234  1  0  0  0
 93235  1  0  0  0
 96236  1  0  0  0
 97237  1  0  0  0
100238  1  0  0  0
100239  1  0  0  0
101240  1  0  0  0
101241  1  0  0  0
102242  1  0  0  0
102243  1  0  0  0
103244  1  0  0  0
105245  1  0  0  0
106246  1  0  0  0
106247  1  0  0  0
107248  1  0  0  0
108249  1  0  0  0
111250  1  0  0  0
111251  1  0  0  0
112252  1  0  0  0
112253  1  0  0  0
113254  1  0  0  0
113255  1  0  0  0
114256  1  0  0  0
116257  1  0  0  0
116258  1  0  0  0
117259  1  0  0  0
118260  1  0  0  0
119261  1  0  0  0
122262  1  0  0  0
122263  1  0  0  0
124264  1  0  0  0
125265  1  0  0  0
128266  1  0  0  0
128267  1  0  0  0
128268  1  0  0  0
129269  1  0  0  0
130270  1  0  0  0
132271  1  0  0  0
133272  1  0  0  0
134273  1  0  0  0
134274  1  0  0  0
135275  1  0  0  0
135276  1  0  0  0
135277  1  0  0  0
136278  1  0  0  0
136279  1  0  0  0
136280  1  0  0  0
138281  1  0  0  0
139282  1  0  0  0
140283  1  0  0  0
140284  1  0  0  0
141285  1  0  0  0
142286  1  0  0  0
142287  1  0  0  0
143288  1  0  0  0
144289  1  0  0  0
M  END
$$$$
