5uov_ligand
  -I-interpret- 

 93 97  0  0  0  0  0  0  0  0999 V2000
   20.8710   27.7620   14.8590 C   0  0  0  0  0
   21.4890   28.9480   14.5930 O   0  0  0  0  0
   22.8480   28.9440   14.9780 C   0  0  0  0  0
   21.5110   26.6740   15.4400 C   0  0  0  0  0
   20.7320   25.5210   15.6860 C   0  0  0  0  0
   19.3640   25.4910   15.4530 C   0  0  0  0  0
   18.7590   26.5670   14.8220 C   0  0  0  0  0
   19.5380   27.6720   14.5280 C   0  0  0  0  0
   18.3920   24.0660   15.8510 S   0  0  0  0  0
   17.2910   23.9630   14.8580 O   0  0  0  0  0
   19.2890   22.9180   15.9800 O   0  0  0  0  0
   17.7370   24.3920   17.3460 N   0  0  0  0  0
   18.6760   24.6110   18.4020 C   0  0  0  0  0
   18.3570   23.9320   19.7730 C   0  0  0  0  0
   18.4960   22.4230   19.6480 C   0  0  0  0  0
   19.3970   24.4560   20.7850 C   0  0  0  0  0
   16.4180   25.0200   17.3340 C   0  0  0  0  0
   15.3670   24.0360   17.9230 C   0  0  0  0  0
   14.1980   24.8290   18.2730 O   0  0  0  0  0
   14.9920   22.9280   16.9160 C   0  0  0  0  0
   14.1590   21.8950   17.5700 N   0  0  0  0  0
   14.6800   20.7400   18.0180 C   0  0  0  0  0
   15.8030   20.3730   18.0610 O   0  0  0  0  0
   14.1930   23.4470   15.7010 C   0  0  0  0  0
   12.5480   21.8780   14.6320 C   0  0  0  0  0
   12.2510   20.7530   13.8310 C   0  0  0  0  0
   13.2790   20.0600   13.1710 C   0  0  0  0  0
   14.6030   20.5420   13.2310 C   0  0  0  0  0
   14.8990   21.6450   14.0530 C   0  0  0  0  0
   13.8740   22.2810   14.7480 C   0  0  0  0  0
   13.6500   19.7490   18.5960 C   0  0  0  0  0
   13.8420   19.1370   19.8290 C   0  0  0  0  0
   12.8790   18.2620   20.3420 C   0  0  0  0  0
   11.7270   17.9680   19.6280 C   0  0  0  0  0
   11.5800   18.5570   18.3690 C   0  0  0  0  0
   12.4970   19.4940   17.8690 C   0  0  0  0  0
   10.2950   18.3960   17.5590 C   0  0  0  0  0
    9.2440   18.7610   18.0760 O   0  0  0  0  0
   10.3320   18.1450   16.2730 N   0  0  0  0  0
   11.3870   17.4180   15.5990 C   0  0  0  0  0
   10.8180   17.0170   14.2490 C   0  0  0  0  0
    9.3150   17.0760   14.4110 C   0  0  0  0  0
    9.0680   18.0890   15.5230 C   0  0  0  0  0
    8.7400   19.4550   14.9970 C   0  0  0  0  0
    8.3720   19.8530   13.8120 N   0  0  0  0  0
    8.2150   21.1560   13.6110 C   0  0  0  0  0
    8.3470   21.9580   14.6610 C   0  0  0  0  0
    8.8760   20.9020   15.9520 S   0  0  0  0  0
    7.5940   21.6670   12.2980 C   0  0  0  0  0
   22.9202   28.7585   16.0497 H   0  0  0  0  0
   23.3756   28.1593   14.4358 H   0  0  0  0  0
   23.2933   29.9111   14.7445 H   0  0  0  0  0
   22.5701   26.7085   15.6954 H   0  0  0  0  0
   21.2212   24.6263   16.0712 H   0  0  0  0  0
   17.7000   26.5431   14.5649 H   0  0  0  0  0
   19.0740   28.5111   14.0096 H   0  0  0  0  0
   18.6732   25.6847   18.5897 H   0  0  0  0  0
   19.6170   24.1778   18.0630 H   0  0  0  0  0
   17.3400   24.1610   20.0914 H   0  0  0  0  0
   17.7995   22.0565   18.8939 H   0  0  0  0  0
   19.5159   22.1766   19.3528 H   0  0  0  0  0
   18.2719   21.9580   20.6080 H   0  0  0  0  0
   20.3982   24.1905   20.4455 H   0  0  0  0  0
   19.3134   25.5401   20.8615 H   0  0  0  0  0
   19.2115   24.0063   21.7604 H   0  0  0  0  0
   16.1452   25.2707   16.3089 H   0  0  0  0  0
   16.4431   25.9274   17.9374 H   0  0  0  0  0
   15.7764   23.5283   18.7963 H   0  0  0  0  0
   13.5224   24.2554   18.6421 H   0  0  0  0  0
   15.9424   22.5243   16.5670 H   0  0  0  0  0
   13.1597   22.0644   17.6843 H   0  0  0  0  0
   14.7867   24.1922   15.1716 H   0  0  0  0  0
   13.2611   23.8938   16.0474 H   0  0  0  0  0
   11.7548   22.4187   15.1482 H   0  0  0  0  0
   11.2183   20.4209   13.7245 H   0  0  0  0  0
   13.0538   19.1510   12.6132 H   0  0  0  0  0
   15.3894   20.0647   12.6463 H   0  0  0  0  0
   15.9256   21.9997   14.1451 H   0  0  0  0  0
   14.7483   19.3401   20.3995 H   0  0  0  0  0
   13.0364   17.8039   21.3185 H   0  0  0  0  0
   10.9648   17.3026   20.0334 H   0  0  0  0  0
   12.3069   20.0109   16.9284 H   0  0  0  0  0
   11.6959   16.5449   16.1737 H   0  0  0  0  0
   12.2808   18.0315   15.4856 H   0  0  0  0  0
   11.1495   16.0210   13.9555 H   0  0  0  0  0
   11.1610   17.6827   13.4570 H   0  0  0  0  0
    8.9003   16.0991   14.6597 H   0  0  0  0  0
    8.8235   17.3710   13.4839 H   0  0  0  0  0
    8.2142   17.7868   16.1295 H   0  0  0  0  0
    8.1665   23.0319   14.7081 H   0  0  0  0  0
    8.2079   21.3438   11.4573 H   0  0  0  0  0
    6.5877   21.2619   12.1917 H   0  0  0  0  0
    7.5484   22.7558   12.3188 H   0  0  0  0  0
  1  2  1  0  0  0
  4  1  4  0  0  0
  8  1  4  0  0  0
  2  3  1  0  0  0
  5  4  4  0  0  0
  6  5  4  0  0  0
  6  7  4  0  0  0
  9  6  1  0  0  0
  7  8  4  0  0  0
  9 10  2  0  0  0
  9 11  2  0  0  0
 12  9  1  0  0  0
 12 13  1  0  0  0
 17 12  1  0  0  0
 13 14  1  0  0  0
 14 15  1  0  0  0
 14 16  1  0  0  0
 18 17  1  0  0  0
 18 19  1  0  0  0
 20 18  1  0  0  0
 20 21  1  0  0  0
 24 20  1  0  0  0
 21 22  1  0  0  0
 22 23  2  0  0  0
 22 31  1  0  0  0
 30 24  1  0  0  0
 25 26  4  0  0  0
 25 30  4  0  0  0
 26 27  4  0  0  0
 27 28  4  0  0  0
 28 29  4  0  0  0
 29 30  4  0  0  0
 31 32  4  0  0  0
 31 36  4  0  0  0
 32 33  4  0  0  0
 33 34  4  0  0  0
 34 35  4  0  0  0
 35 36  4  0  0  0
 35 37  1  0  0  0
 37 38  2  0  0  0
 37 39  1  0  0  0
 39 40  1  0  0  0
 39 43  1  0  0  0
 40 41  1  0  0  0
 41 42  1  0  0  0
 42 43  1  0  0  0
 43 44  1  0  0  0
 44 45  4  0  0  0
 44 48  4  0  0  0
 45 46  4  0  0  0
 46 47  4  0  0  0
 46 49  1  0  0  0
 47 48  4  0  0  0
  3 50  1  0  0  0
  3 51  1  0  0  0
  3 52  1  0  0  0
  4 53  1  0  0  0
  5 54  1  0  0  0
  7 55  1  0  0  0
  8 56  1  0  0  0
 13 57  1  0  0  0
 13 58  1  0  0  0
 14 59  1  0  0  0
 15 60  1  0  0  0
 15 61  1  0  0  0
 15 62  1  0  0  0
 16 63  1  0  0  0
 16 64  1  0  0  0
 16 65  1  0  0  0
 17 66  1  0  0  0
 17 67  1  0  0  0
 18 68  1  0  0  0
 19 69  1  0  0  0
 20 70  1  0  0  0
 21 71  1  0  0  0
 24 72  1  0  0  0
 24 73  1  0  0  0
 25 74  1  0  0  0
 26 75  1  0  0  0
 27 76  1  0  0  0
 28 77  1  0  0  0
 29 78  1  0  0  0
 32 79  1  0  0  0
 33 80  1  0  0  0
 34 81  1  0  0  0
 36 82  1  0  0  0
 40 83  1  0  0  0
 40 84  1  0  0  0
 41 85  1  0  0  0
 41 86  1  0  0  0
 42 87  1  0  0  0
 42 88  1  0  0  0
 43 89  1  0  0  0
 47 90  1  0  0  0
 49 91  1  0  0  0
 49 92  1  0  0  0
 49 93  1  0  0  0
M  END
$$$$
