### 
### Created by X-TOOL on Mon Sep 10 21:13:09 2018
### 

@<TRIPOS>MOLECULE
4fvq_ligand
   43    45     1     0     0
SMALL
GAST_HUCK


@<TRIPOS>ATOM
      1 PG         -1.2260    7.6880   22.0030 P.3       1 ATP         0.1879
      2 O1G        -1.3880    6.3420   22.6320 O.co2     1 ATP        -0.6091
      3 O2G         0.1730    8.1650   21.7860 O.co2     1 ATP        -0.6091
      4 O3G        -2.1370    7.9390   20.8130 O.co2     1 ATP        -0.6091
      5 PB         -2.4660   10.0920   23.0010 P.3       1 ATP         0.3553
      6 O1B        -2.2840   10.7200   21.6410 O.co2     1 ATP        -0.5652
      7 O2B        -1.9590   10.9630   24.1250 O.co2     1 ATP        -0.5652
      8 O3B        -1.8610    8.6090   23.1770 O.3       1 ATP        -0.1546
      9 PA         -5.0920    9.2020   22.3450 P.3       1 ATP         0.3266
     10 O1A        -5.3940    7.8620   23.0000 O.co2     1 ATP        -0.5692
     11 O2A        -4.5710    9.2890   20.9290 O.co2     1 ATP        -0.5692
     12 O3A        -4.0470    9.9410   23.2990 O.3       1 ATP        -0.1171
     13 O5'        -6.3550   10.1430   22.5200 O.3       1 ATP        -0.2441
     14 C5'        -7.2190   10.1220   23.6450 C.3       1 ATP         0.1131
     15 C4'        -8.5740   10.6360   23.1800 C.3       1 ATP         0.1189
     16 O4'        -8.5230   12.0590   23.0080 O.3       1 ATP        -0.3364
     17 C3'        -8.9420   10.0860   21.7950 C.3       1 ATP         0.1149
     18 O3'        -9.8310    8.9670   21.7530 O.3       1 ATP        -0.3864
     19 C2'        -9.5880   11.2040   21.0280 C.3       1 ATP         0.1385
     20 O2'       -10.9780   10.9910   20.8480 O.3       1 ATP        -0.3836
     21 C1'        -9.2860   12.4470   21.8510 C.3       1 ATP         0.2010
     22 N9         -8.4560   13.3210   21.0080 N.pl3     1 ATP        -0.1919
     23 C8         -7.1420   13.1580   20.8210 C.2       1 ATP         0.1123
     24 N7         -6.6760   14.1100   19.9890 N.2       1 ATP        -0.2958
     25 C5         -7.7290   14.8750   19.6520 C.ar      1 ATP         0.1045
     26 C6         -7.9100   16.0740   18.8220 C.ar      1 ATP         0.1298
     27 N6         -6.8340   16.6020   18.2160 N.pl3     1 ATP        -0.3152
     28 N1         -9.1460   16.5840   18.7270 N.ar      1 ATP        -0.2698
     29 C2        -10.2200   16.0380   19.3480 C.ar      1 ATP         0.0533
     30 N3        -10.1250   14.9500   20.1380 N.ar      1 ATP        -0.2714
     31 C4         -8.9110   14.3520   20.3100 C.ar      1 ATP         0.1613
     32 H          -6.8240   10.7487   24.4446 H         1 ATP         0.0648
     33 H          -7.3074    9.1110   24.0428 H         1 ATP         0.0648
     34 H          -9.2963   10.3243   23.9345 H         1 ATP         0.0651
     35 H          -8.0053    9.7169   21.3773 H         1 ATP         0.0648
     36 H          -9.9847    8.7160   20.8392 H         1 ATP         0.2100
     37 H          -9.2017   11.2891   20.0123 H         1 ATP         0.0676
     38 H         -11.1152   10.1748   20.3617 H         1 ATP         0.2101
     39 H         -10.2000   12.9495   22.1676 H         1 ATP         0.0996
     40 H          -6.5378   12.3720   21.2741 H         1 ATP         0.1349
     41 H          -5.9176   16.1709   18.3373 H         1 ATP         0.1820
     42 H          -6.9332   17.4341   17.6345 H         1 ATP         0.1820
     43 H         -11.1982   16.4964   19.2030 H         1 ATP         0.0996
@<TRIPOS>BOND
     1    1    2 ar 
     2    1    3 ar 
     3    1    4 ar 
     4    8    1 1  
     5    5    6 ar 
     6    5    7 ar 
     7    5    8 1  
     8   12    5 1  
     9    9   10 ar 
    10    9   11 ar 
    11    9   12 1  
    12    9   13 1  
    13   13   14 1  
    14   14   15 1  
    15   15   16 1  
    16   15   17 1  
    17   16   21 1  
    18   17   18 1  
    19   17   19 1  
    20   19   20 1  
    21   19   21 1  
    22   21   22 1  
    23   22   23 1  
    24   22   31 1  
    25   23   24 2  
    26   24   25 1  
    27   25   26 ar 
    28   25   31 ar 
    29   26   27 1  
    30   26   28 ar 
    31   28   29 ar 
    32   29   30 ar 
    33   30   31 ar 
    34   14   32 1  
    35   14   33 1  
    36   15   34 1  
    37   17   35 1  
    38   18   36 1  
    39   19   37 1  
    40   20   38 1  
    41   21   39 1  
    42   23   40 1  
    43   27   41 1  
    44   27   42 1  
    45   29   43 1  
@<TRIPOS>SUBSTRUCTURE
     1 ATP         1

