4fvq_ligand
  -I-interpret- 

 47 49  0  0  0  0  0  0  0  0999 V2000
   -1.2260    7.6880   22.0030 P   0  0  0  0  0
   -1.3880    6.3420   22.6320 O   0  0  0  0  0
    0.1730    8.1650   21.7860 O   0  0  0  0  0
   -2.1370    7.9390   20.8130 O   0  0  0  0  0
   -2.4660   10.0920   23.0010 P   0  0  0  0  0
   -2.2840   10.7200   21.6410 O   0  0  0  0  0
   -1.9590   10.9630   24.1250 O   0  0  0  0  0
   -1.8610    8.6090   23.1770 O   0  0  0  0  0
   -5.0920    9.2020   22.3450 P   0  0  0  0  0
   -5.3940    7.8620   23.0000 O   0  0  0  0  0
   -4.5710    9.2890   20.9290 O   0  0  0  0  0
   -4.0470    9.9410   23.2990 O   0  0  0  0  0
   -6.3550   10.1430   22.5200 O   0  0  0  0  0
   -7.2190   10.1220   23.6450 C   0  0  0  0  0
   -8.5740   10.6360   23.1800 C   0  0  0  0  0
   -8.5230   12.0590   23.0080 O   0  0  0  0  0
   -8.9420   10.0860   21.7950 C   0  0  0  0  0
   -9.8310    8.9670   21.7530 O   0  0  0  0  0
   -9.5880   11.2040   21.0280 C   0  0  0  0  0
  -10.9780   10.9910   20.8480 O   0  0  0  0  0
   -9.2860   12.4470   21.8510 C   0  0  0  0  0
   -8.4560   13.3210   21.0080 N   0  0  0  0  0
   -7.1420   13.1580   20.8210 C   0  0  0  0  0
   -6.6760   14.1100   19.9890 N   0  0  0  0  0
   -7.7290   14.8750   19.6520 C   0  0  0  0  0
   -7.9100   16.0740   18.8220 C   0  0  0  0  0
   -6.8340   16.6020   18.2160 N   0  0  0  0  0
   -9.1460   16.5840   18.7270 N   0  0  0  0  0
  -10.2200   16.0380   19.3480 C   0  0  0  0  0
  -10.1250   14.9500   20.1380 N   0  0  0  0  0
   -8.9110   14.3520   20.3100 C   0  0  0  0  0
   -2.3227    6.1422   22.7214 H   0  0  0  0  0
   -3.0178    7.6127   21.0113 H   0  0  0  0  0
   -2.0995   10.5161   24.9629 H   0  0  0  0  0
   -5.7133    8.0085   23.8934 H   0  0  0  0  0
   -6.8240   10.7487   24.4446 H   0  0  0  0  0
   -7.3074    9.1110   24.0428 H   0  0  0  0  0
   -9.2963   10.3243   23.9345 H   0  0  0  0  0
   -8.0053    9.7169   21.3773 H   0  0  0  0  0
   -9.9847    8.7160   20.8392 H   0  0  0  0  0
   -9.2017   11.2891   20.0123 H   0  0  0  0  0
  -11.3519   11.7251   20.3552 H   0  0  0  0  0
  -10.2000   12.9495   22.1676 H   0  0  0  0  0
   -6.5378   12.3720   21.2741 H   0  0  0  0  0
   -5.9176   16.1709   18.3373 H   0  0  0  0  0
   -6.9332   17.4341   17.6345 H   0  0  0  0  0
  -11.1982   16.4964   19.2030 H   0  0  0  0  0
  1  2  1  0  0  0
  1  3  2  0  0  0
  1  4  1  0  0  0
  8  1  1  0  0  0
  5  6  2  0  0  0
  5  7  1  0  0  0
  5  8  1  0  0  0
 12  5  1  0  0  0
  9 10  1  0  0  0
  9 11  2  0  0  0
  9 12  1  0  0  0
  9 13  1  0  0  0
 13 14  1  0  0  0
 14 15  1  0  0  0
 15 16  1  0  0  0
 15 17  1  0  0  0
 16 21  1  0  0  0
 17 18  1  0  0  0
 17 19  1  0  0  0
 19 20  1  0  0  0
 19 21  1  0  0  0
 21 22  1  0  0  0
 22 23  4  0  0  0
 22 31  4  0  0  0
 23 24  4  0  0  0
 24 25  4  0  0  0
 25 26  4  0  0  0
 25 31  4  0  0  0
 26 27  1  0  0  0
 26 28  4  0  0  0
 28 29  4  0  0  0
 29 30  4  0  0  0
 30 31  4  0  0  0
  2 32  1  0  0  0
  4 33  1  0  0  0
  7 34  1  0  0  0
 10 35  1  0  0  0
 14 36  1  0  0  0
 14 37  1  0  0  0
 15 38  1  0  0  0
 17 39  1  0  0  0
 18 40  1  0  0  0
 19 41  1  0  0  0
 20 42  1  0  0  0
 21 43  1  0  0  0
 23 44  1  0  0  0
 27 45  1  0  0  0
 27 46  1  0  0  0
 29 47  1  0  0  0
M  END
$$$$
