6nlj_ligand
  -I-interpret- 

 32 34  0  0  0  0  0  0  0  0999 V2000
   -8.4540  103.2450  -40.9580 C   0  0  0  0  0
   -6.9830  103.7170  -42.7220 C   0  0  0  0  0
   -8.2760  104.5180  -42.9810 C   0  0  0  0  0
   -9.1500  104.2280  -41.9290 C   0  0  0  0  0
  -10.4340  104.8070  -41.9030 C   0  0  0  0  0
  -12.6500  104.8730  -40.6430 C   0  0  0  0  0
  -13.1100  104.4500  -39.2500 C   0  0  0  0  0
  -13.3000  103.1090  -38.9270 C   0  0  0  0  0
  -13.7150  102.7720  -37.6360 C   0  0  0  0  0
  -13.9390  103.7630  -36.6960 C   0  0  0  0  0
  -13.7550  105.0920  -37.0260 C   0  0  0  0  0
  -13.3370  105.4330  -38.3000 C   0  0  0  0  0
  -10.8240  105.6760  -42.9210 C   0  0  0  0  0
   -9.9480  105.9610  -43.9780 C   0  0  0  0  0
   -8.6710  105.3880  -44.0170 C   0  0  0  0  0
   -7.1500  102.9830  -41.4970 N   0  0  0  0  0
  -11.2710  104.4660  -40.7620 N   0  0  0  0  0
   -8.8340  102.7380  -39.9390 O   0  0  0  0  0
  -13.9100  101.4350  -37.2660 O   0  0  0  0  0
   -6.0180  103.6860  -43.3880 O   0  0  0  0  0
  -12.7513  105.9501  -40.7764 H   0  0  0  0  0
  -13.2622  104.4054  -41.4142 H   0  0  0  0  0
  -13.1272  102.3320  -39.6717 H   0  0  0  0  0
  -14.2622  103.4936  -35.6905 H   0  0  0  0  0
  -13.9387  105.8697  -36.2846 H   0  0  0  0  0
  -13.1853  106.4811  -38.5580 H   0  0  0  0  0
  -11.8123  106.1350  -42.8951 H   0  0  0  0  0
  -10.2635  106.6338  -44.7755 H   0  0  0  0  0
   -7.9907  105.6121  -44.8386 H   0  0  0  0  0
   -6.4505  102.3712  -41.0765 H   0  0  0  0  0
  -10.8624  103.9119  -40.0094 H   0  0  0  0  0
  -14.1924  101.3958  -36.3493 H   0  0  0  0  0
  4  1  1  0  0  0
  1 16  1  0  0  0
  1 18  2  0  0  0
  3  2  1  0  0  0
  2 16  1  0  0  0
  2 20  2  0  0  0
  4  3  4  0  0  0
  3 15  4  0  0  0
  5  4  4  0  0  0
  5 13  4  0  0  0
 17  5  1  0  0  0
  6  7  1  0  0  0
  6 17  1  0  0  0
  7  8  4  0  0  0
  7 12  4  0  0  0
  8  9  4  0  0  0
  9 10  4  0  0  0
  9 19  1  0  0  0
 10 11  4  0  0  0
 11 12  4  0  0  0
 13 14  4  0  0  0
 14 15  4  0  0  0
  6 21  1  0  0  0
  6 22  1  0  0  0
  8 23  1  0  0  0
 10 24  1  0  0  0
 11 25  1  0  0  0
 12 26  1  0  0  0
 13 27  1  0  0  0
 14 28  1  0  0  0
 15 29  1  0  0  0
 16 30  1  0  0  0
 17 31  1  0  0  0
 19 32  1  0  0  0
M  END
$$$$
