### 
### Created by X-TOOL on Mon Aug  2 16:13:46 2021
### 

@<TRIPOS>MOLECULE
6haj_ligand
  136   144     1     0     0
SMALL
GAST_HUCK


@<TRIPOS>ATOM
      1 C11         4.9560   13.3480  -13.8610 C.ar      1 EVB        -0.0521
      2 C12         4.6900   12.1130  -14.4560 C.ar      1 EVB        -0.0093
      3 C13         3.5660   11.3880  -14.0540 C.ar      1 EVB         0.0941
      4 C14         5.5770   11.6460  -15.6010 C.3       1 EVB         0.0073
      5 C15         0.6440    7.5510   -9.0490 C.3       1 EVB         0.0073
      6 C17         0.7790    8.5110   -6.6890 C.ar      1 EVB        -0.0521
      7 C18         0.2170    9.2300   -5.6190 C.ar      1 EVB         0.0277
      8 C19        -1.1100    9.6710   -5.7260 C.ar      1 EVB        -0.0521
      9 C20        -1.8670    9.4590   -6.8790 C.ar      1 EVB        -0.0093
     10 C21        -1.2920    8.7070   -7.9190 C.ar      1 EVB         0.0941
     11 C22         4.9640   11.8720  -16.9690 C.ar      1 EVB        -0.0093
     12 C23         4.3260   10.8150  -17.6210 C.ar      1 EVB         0.0941
     13 C1          3.5600    9.7810  -11.3500 C.ar      1 EVB        -0.0521
     14 C2          2.1790   10.0340  -11.5180 C.ar      1 EVB        -0.0093
     15 C3          1.2440    9.3140  -10.7630 C.ar      1 EVB         0.0941
     16 C4          1.6620    8.3830   -9.8230 C.ar      1 EVB        -0.0093
     17 C5          3.0350    8.1220   -9.6720 C.ar      1 EVB        -0.0521
     18 C6          3.9970    8.8340  -10.4150 C.ar      1 EVB         0.0277
     19 C7          1.6410   11.0690  -12.4990 C.3       1 EVB         0.0073
     20 C8          2.7820   11.9130  -13.0190 C.ar      1 EVB        -0.0093
     21 C9          3.1160   13.0960  -12.3530 C.ar      1 EVB        -0.0521
     22 C10         4.2040   13.8460  -12.7990 C.ar      1 EVB         0.0277
     23 C16         0.0450    8.3150   -7.8650 C.ar      1 EVB        -0.0093
     24 C24         3.8100   10.9790  -18.9150 C.ar      1 EVB        -0.0093
     25 C25         4.0880   12.1990  -19.5730 C.ar      1 EVB        -0.0521
     26 C26         4.7820   13.2490  -18.9450 C.ar      1 EVB         0.0277
     27 C27         5.1840   13.0860  -17.6220 C.ar      1 EVB        -0.0521
     28 C28         3.3420    9.7750  -19.7160 C.3       1 EVB         0.0073
     29 C29        -3.3560    9.7850   -6.8680 C.3       1 EVB         0.0073
     30 C30         1.8720    9.4210  -19.6840 C.ar      1 EVB        -0.0093
     31 C31         1.2930    8.7120  -18.6090 C.ar      1 EVB         0.0941
     32 C32        -0.0150    8.2720  -18.6850 C.ar      1 EVB        -0.0093
     33 C33        -0.7720    8.4950  -19.8310 C.ar      1 EVB        -0.0521
     34 C34        -0.2210    9.2230  -20.8970 C.ar      1 EVB         0.0277
     35 C35         1.1240    9.5970  -20.8450 C.ar      1 EVB        -0.0521
     36 C36        -3.8740   10.9990   -7.6370 C.ar      1 EVB        -0.0093
     37 C37        -4.1080   12.2420   -7.0030 C.ar      1 EVB        -0.0521
     38 C38        -4.7930   13.2860   -7.6560 C.ar      1 EVB         0.0277
     39 C39        -5.2010   13.0990   -8.9660 C.ar      1 EVB        -0.0521
     40 C40        -4.9950   11.8800   -9.5990 C.ar      1 EVB        -0.0093
     41 C41        -4.3390   10.8310   -8.9510 C.ar      1 EVB         0.0941
     42 C42        -0.6030    7.5260  -17.4820 C.3       1 EVB         0.0073
     43 C43        -5.5830   11.6580  -10.9750 C.3       1 EVB         0.0073
     44 C44        -1.6430    8.3520  -16.7380 C.ar      1 EVB        -0.0093
     45 C45        -1.2460    9.2940  -15.7870 C.ar      1 EVB         0.0941
     46 C46        -2.2120   10.0290  -15.0950 C.ar      1 EVB        -0.0093
     47 C47        -3.5740    9.6990  -15.2350 C.ar      1 EVB        -0.0521
     48 C48        -3.9950    8.7700  -16.1980 C.ar      1 EVB         0.0277
     49 C49        -3.0080    8.0950  -16.9400 C.ar      1 EVB        -0.0521
     50 C50        -4.6780   12.1710  -12.0840 C.ar      1 EVB        -0.0093
     51 C51        -4.9350   13.3970  -12.6940 C.ar      1 EVB        -0.0521
     52 C52        -4.1850   13.8530  -13.7860 C.ar      1 EVB         0.0277
     53 C53        -3.1180   13.0630  -14.2390 C.ar      1 EVB        -0.0521
     54 C54        -2.8180   11.8770  -13.5750 C.ar      1 EVB        -0.0093
     55 C55        -3.6210   11.3860  -12.5510 C.ar      1 EVB         0.0941
     56 O1          0.0600    9.6220  -15.5680 O.3       1 EVB        -0.3403
     57 O2          1.9990    8.4650  -17.4780 O.3       1 EVB        -0.3403
     58 O3          4.2520    9.6360  -16.9520 O.3       1 EVB        -0.3403
     59 O4          3.2110   10.1850  -14.6150 O.3       1 EVB        -0.3403
     60 O5         -0.0750    9.5960  -10.9500 O.3       1 EVB        -0.3403
     61 O6         -2.0140    8.4950   -9.0480 O.3       1 EVB        -0.3403
     62 O7         -4.2360    9.6340   -9.6090 O.3       1 EVB        -0.3403
     63 O8         -3.2730   10.2240  -11.9570 O.3       1 EVB        -0.3403
     64 S64        -5.5780    8.4320  -16.4220 S.o2      1 EVB        -0.1710
     65 S65        -1.1010    9.5090  -22.2270 S.o2      1 EVB        -0.1710
     66 S66         5.2230   14.6010  -19.7460 S.o2      1 EVB        -0.1710
     67 S67         4.6010   15.2530  -12.1180 S.o2      1 EVB        -0.1710
     68 S68         5.5850    8.5380  -10.1830 S.o2      1 EVB        -0.1710
     69 S69         1.1050    9.6420   -4.3170 S.o2      1 EVB        -0.1710
     70 S70        -5.1970   14.6740   -6.8870 S.o2      1 EVB        -0.1710
     71 S71        -4.5400   15.2300  -14.5560 S.o2      1 EVB        -0.1710
     72 C72        -1.6760   11.0160  -14.0690 C.3       1 EVB         0.0073
     73 O9         -5.8750    8.5290  -17.8610 O.co2     1 EVB        -0.4813
     74 O10        -6.3830    9.3860  -15.6370 O.co2     1 EVB        -0.4813
     75 O11        -5.7890    7.0460  -15.9630 O.co2     1 EVB        -0.4813
     76 O12        -0.2320    9.5920  -23.4220 O.co2     1 EVB        -0.4813
     77 O13        -2.0650    8.4030  -22.3760 O.co2     1 EVB        -0.4813
     78 O14        -1.8340   10.7830  -22.1410 O.co2     1 EVB        -0.4813
     79 O15         6.6030   14.4150  -20.2830 O.co2     1 EVB        -0.4813
     80 O16         5.2500   15.8030  -18.8760 O.co2     1 EVB        -0.4813
     81 O17         4.2520   14.7720  -20.8550 O.co2     1 EVB        -0.4813
     82 O18         4.0590   15.4270  -10.7570 O.co2     1 EVB        -0.4813
     83 O19         4.0770   16.3600  -12.9490 O.co2     1 EVB        -0.4813
     84 O20         6.0900   15.3020  -12.0530 O.co2     1 EVB        -0.4813
     85 O21         6.3820    9.0120  -11.3280 O.co2     1 EVB        -0.4813
     86 O22         5.6810    7.0740  -10.0250 O.co2     1 EVB        -0.4813
     87 O23         6.0220    9.2730   -8.9880 O.co2     1 EVB        -0.4813
     88 O24         2.3840    8.9130   -4.3120 O.co2     1 EVB        -0.4813
     89 O25         0.3640    9.3430   -3.0720 O.co2     1 EVB        -0.4813
     90 O26         1.3930   11.0900   -4.3340 O.co2     1 EVB        -0.4813
     91 O27        -4.2560   14.8600   -5.7610 O.co2     1 EVB        -0.4813
     92 O28        -6.5950   14.5120   -6.3830 O.co2     1 EVB        -0.4813
     93 O29        -5.1550   15.8360   -7.8040 O.co2     1 EVB        -0.4813
     94 O30        -4.2310   15.0920  -15.9980 O.co2     1 EVB        -0.4813
     95 O31        -5.9930   15.5030  -14.4270 O.co2     1 EVB        -0.4813
     96 O32        -3.7020   16.3170  -13.9900 O.co2     1 EVB        -0.4813
     97 H1          5.7795   13.9423  -14.2401 H         1 EVB         0.0493
     98 H2          5.7673   10.5696  -15.4779 H         1 EVB         0.0535
     99 H3          6.5290   12.1948  -15.5507 H         1 EVB         0.0535
    100 H4          1.1420    6.6464   -8.6701 H         1 EVB         0.0535
    101 H5         -0.1692    7.2633   -9.7315 H         1 EVB         0.0535
    102 H6          1.7817    8.1081   -6.6031 H         1 EVB         0.0493
    103 H7         -1.5607   10.1916   -4.8888 H         1 EVB         0.0493
    104 H8          4.2841   10.3226  -11.9478 H         1 EVB         0.0493
    105 H9          3.3589    7.3602   -8.9722 H         1 EVB         0.0493
    106 H10         0.9115   11.7142  -11.9876 H         1 EVB         0.0535
    107 H11         1.1512   10.5567  -13.3402 H         1 EVB         0.0535
    108 H12         2.5357   13.4267  -11.4993 H         1 EVB         0.0493
    109 H13         3.7550   12.3297  -20.5963 H         1 EVB         0.0493
    110 H14         5.6682   13.9025  -17.0986 H         1 EVB         0.0493
    111 H15         3.8958    8.9006  -19.3436 H         1 EVB         0.0535
    112 H16         3.6101    9.9586  -20.7669 H         1 EVB         0.0535
    113 H17        -3.6426    9.9287   -5.8158 H         1 EVB         0.0535
    114 H18        -3.8775    8.9053   -7.2732 H         1 EVB         0.0535
    115 H19        -1.7823    8.1084  -19.9002 H         1 EVB         0.0493
    116 H20         1.5921   10.0306  -21.7214 H         1 EVB         0.0493
    117 H21        -3.7518   12.3949   -5.9907 H         1 EVB         0.0493
    118 H22        -5.6841   13.9089   -9.5007 H         1 EVB         0.0493
    119 H23         0.2129    7.2771  -16.7876 H         1 EVB         0.0535
    120 H24        -1.0769    6.5994  -17.8382 H         1 EVB         0.0535
    121 H25        -6.5476   12.1832  -11.0355 H         1 EVB         0.0535
    122 H26        -5.7429   10.5795  -11.1206 H         1 EVB         0.0535
    123 H27        -4.3071   10.1694  -14.5897 H         1 EVB         0.0493
    124 H28        -3.3075    7.3630  -17.6813 H         1 EVB         0.0493
    125 H29        -5.7388   14.0162  -12.3125 H         1 EVB         0.0493
    126 H30        -2.5331   13.3730  -15.0974 H         1 EVB         0.0493
    127 H31         0.6188    9.0579  -16.0896 H         1 EVB         0.2433
    128 H32         2.8746    8.8223  -17.5682 H         1 EVB         0.2433
    129 H33         3.3406    9.3898  -16.8464 H         1 EVB         0.2433
    130 H34         3.8317    9.9600  -15.2981 H         1 EVB         0.2433
    131 H35        -0.4452    9.9256  -10.1395 H         1 EVB         0.2433
    132 H36        -2.8988    8.8168   -8.9218 H         1 EVB         0.2433
    133 H37        -3.7595    9.7603  -10.4211 H         1 EVB         0.2433
    134 H38        -3.9069   10.0126  -11.2816 H         1 EVB         0.2433
    135 H39        -0.9084   11.6519  -14.5341 H         1 EVB         0.0535
    136 H40        -1.2348   10.4672  -13.2239 H         1 EVB         0.0535
@<TRIPOS>BOND
     1    2    1 ar 
     2    1   22 ar 
     3    3    2 ar 
     4    2    4 1  
     5   20    3 ar 
     6    3   59 1  
     7    4   11 1  
     8   16    5 1  
     9    5   23 1  
    10    6    7 ar 
    11   23    6 ar 
    12    7    8 ar 
    13    7   69 1  
    14    9    8 ar 
    15   10    9 ar 
    16    9   29 1  
    17   23   10 ar 
    18   10   61 1  
    19   11   12 ar 
    20   11   27 ar 
    21   12   24 ar 
    22   12   58 1  
    23   14   13 ar 
    24   13   18 ar 
    25   14   15 ar 
    26   19   14 1  
    27   15   16 ar 
    28   15   60 1  
    29   16   17 ar 
    30   18   17 ar 
    31   18   68 1  
    32   19   20 1  
    33   20   21 ar 
    34   21   22 ar 
    35   22   67 1  
    36   24   25 ar 
    37   24   28 1  
    38   25   26 ar 
    39   26   27 ar 
    40   26   66 1  
    41   28   30 1  
    42   29   36 1  
    43   30   31 ar 
    44   30   35 ar 
    45   31   32 ar 
    46   31   57 1  
    47   32   33 ar 
    48   32   42 1  
    49   33   34 ar 
    50   34   35 ar 
    51   34   65 1  
    52   36   37 ar 
    53   36   41 ar 
    54   37   38 ar 
    55   38   39 ar 
    56   38   70 1  
    57   39   40 ar 
    58   40   41 ar 
    59   40   43 1  
    60   41   62 1  
    61   42   44 1  
    62   43   50 1  
    63   44   45 ar 
    64   44   49 ar 
    65   45   46 ar 
    66   45   56 1  
    67   46   47 ar 
    68   46   72 1  
    69   47   48 ar 
    70   48   49 ar 
    71   48   64 1  
    72   50   51 ar 
    73   50   55 ar 
    74   51   52 ar 
    75   52   53 ar 
    76   52   71 1  
    77   53   54 ar 
    78   54   55 ar 
    79   54   72 1  
    80   55   63 1  
    81   64   73 ar 
    82   64   74 ar 
    83   64   75 ar 
    84   65   76 ar 
    85   65   77 ar 
    86   65   78 ar 
    87   66   79 ar 
    88   66   80 ar 
    89   66   81 ar 
    90   67   82 ar 
    91   67   83 ar 
    92   67   84 ar 
    93   68   85 ar 
    94   68   86 ar 
    95   68   87 ar 
    96   69   88 ar 
    97   69   89 ar 
    98   69   90 ar 
    99   70   91 ar 
   100   70   92 ar 
   101   70   93 ar 
   102   71   94 ar 
   103   71   95 ar 
   104   71   96 ar 
   105    1   97 1  
   106    4   98 1  
   107    4   99 1  
   108    5  100 1  
   109    5  101 1  
   110    6  102 1  
   111    8  103 1  
   112   13  104 1  
   113   17  105 1  
   114   19  106 1  
   115   19  107 1  
   116   21  108 1  
   117   25  109 1  
   118   27  110 1  
   119   28  111 1  
   120   28  112 1  
   121   29  113 1  
   122   29  114 1  
   123   33  115 1  
   124   35  116 1  
   125   37  117 1  
   126   39  118 1  
   127   42  119 1  
   128   42  120 1  
   129   43  121 1  
   130   43  122 1  
   131   47  123 1  
   132   49  124 1  
   133   51  125 1  
   134   53  126 1  
   135   56  127 1  
   136   57  128 1  
   137   58  129 1  
   138   59  130 1  
   139   60  131 1  
   140   61  132 1  
   141   62  133 1  
   142   63  134 1  
   143   72  135 1  
   144   72  136 1  
@<TRIPOS>SUBSTRUCTURE
     1 EVB         1

