6haj_ligand
  -I-interpret- 

144152  0  0  0  0  0  0  0  0999 V2000
    4.9560   13.3480  -13.8610 C   0  0  0  0  0
    4.6900   12.1130  -14.4560 C   0  0  0  0  0
    3.5660   11.3880  -14.0540 C   0  0  0  0  0
    5.5770   11.6460  -15.6010 C   0  0  0  0  0
    0.6440    7.5510   -9.0490 C   0  0  0  0  0
    0.7790    8.5110   -6.6890 C   0  0  0  0  0
    0.2170    9.2300   -5.6190 C   0  0  0  0  0
   -1.1100    9.6710   -5.7260 C   0  0  0  0  0
   -1.8670    9.4590   -6.8790 C   0  0  0  0  0
   -1.2920    8.7070   -7.9190 C   0  0  0  0  0
    4.9640   11.8720  -16.9690 C   0  0  0  0  0
    4.3260   10.8150  -17.6210 C   0  0  0  0  0
    3.5600    9.7810  -11.3500 C   0  0  0  0  0
    2.1790   10.0340  -11.5180 C   0  0  0  0  0
    1.2440    9.3140  -10.7630 C   0  0  0  0  0
    1.6620    8.3830   -9.8230 C   0  0  0  0  0
    3.0350    8.1220   -9.6720 C   0  0  0  0  0
    3.9970    8.8340  -10.4150 C   0  0  0  0  0
    1.6410   11.0690  -12.4990 C   0  0  0  0  0
    2.7820   11.9130  -13.0190 C   0  0  0  0  0
    3.1160   13.0960  -12.3530 C   0  0  0  0  0
    4.2040   13.8460  -12.7990 C   0  0  0  0  0
    0.0450    8.3150   -7.8650 C   0  0  0  0  0
    3.8100   10.9790  -18.9150 C   0  0  0  0  0
    4.0880   12.1990  -19.5730 C   0  0  0  0  0
    4.7820   13.2490  -18.9450 C   0  0  0  0  0
    5.1840   13.0860  -17.6220 C   0  0  0  0  0
    3.3420    9.7750  -19.7160 C   0  0  0  0  0
   -3.3560    9.7850   -6.8680 C   0  0  0  0  0
    1.8720    9.4210  -19.6840 C   0  0  0  0  0
    1.2930    8.7120  -18.6090 C   0  0  0  0  0
   -0.0150    8.2720  -18.6850 C   0  0  0  0  0
   -0.7720    8.4950  -19.8310 C   0  0  0  0  0
   -0.2210    9.2230  -20.8970 C   0  0  0  0  0
    1.1240    9.5970  -20.8450 C   0  0  0  0  0
   -3.8740   10.9990   -7.6370 C   0  0  0  0  0
   -4.1080   12.2420   -7.0030 C   0  0  0  0  0
   -4.7930   13.2860   -7.6560 C   0  0  0  0  0
   -5.2010   13.0990   -8.9660 C   0  0  0  0  0
   -4.9950   11.8800   -9.5990 C   0  0  0  0  0
   -4.3390   10.8310   -8.9510 C   0  0  0  0  0
   -0.6030    7.5260  -17.4820 C   0  0  0  0  0
   -5.5830   11.6580  -10.9750 C   0  0  0  0  0
   -1.6430    8.3520  -16.7380 C   0  0  0  0  0
   -1.2460    9.2940  -15.7870 C   0  0  0  0  0
   -2.2120   10.0290  -15.0950 C   0  0  0  0  0
   -3.5740    9.6990  -15.2350 C   0  0  0  0  0
   -3.9950    8.7700  -16.1980 C   0  0  0  0  0
   -3.0080    8.0950  -16.9400 C   0  0  0  0  0
   -4.6780   12.1710  -12.0840 C   0  0  0  0  0
   -4.9350   13.3970  -12.6940 C   0  0  0  0  0
   -4.1850   13.8530  -13.7860 C   0  0  0  0  0
   -3.1180   13.0630  -14.2390 C   0  0  0  0  0
   -2.8180   11.8770  -13.5750 C   0  0  0  0  0
   -3.6210   11.3860  -12.5510 C   0  0  0  0  0
    0.0600    9.6220  -15.5680 O   0  0  0  0  0
    1.9990    8.4650  -17.4780 O   0  0  0  0  0
    4.2520    9.6360  -16.9520 O   0  0  0  0  0
    3.2110   10.1850  -14.6150 O   0  0  0  0  0
   -0.0750    9.5960  -10.9500 O   0  0  0  0  0
   -2.0140    8.4950   -9.0480 O   0  0  0  0  0
   -4.2360    9.6340   -9.6090 O   0  0  0  0  0
   -3.2730   10.2240  -11.9570 O   0  0  0  0  0
   -5.5780    8.4320  -16.4220 S   0  0  0  0  0
   -1.1010    9.5090  -22.2270 S   0  0  0  0  0
    5.2230   14.6010  -19.7460 S   0  0  0  0  0
    4.6010   15.2530  -12.1180 S   0  0  0  0  0
    5.5850    8.5380  -10.1830 S   0  0  0  0  0
    1.1050    9.6420   -4.3170 S   0  0  0  0  0
   -5.1970   14.6740   -6.8870 S   0  0  0  0  0
   -4.5400   15.2300  -14.5560 S   0  0  0  0  0
   -1.6760   11.0160  -14.0690 C   0  0  0  0  0
   -5.8750    8.5290  -17.8610 O   0  0  0  0  0
   -6.3830    9.3860  -15.6370 O   0  0  0  0  0
   -5.7890    7.0460  -15.9630 O   0  0  0  0  0
   -0.2320    9.5920  -23.4220 O   0  0  0  0  0
   -2.0650    8.4030  -22.3760 O   0  0  0  0  0
   -1.8340   10.7830  -22.1410 O   0  0  0  0  0
    6.6030   14.4150  -20.2830 O   0  0  0  0  0
    5.2500   15.8030  -18.8760 O   0  0  0  0  0
    4.2520   14.7720  -20.8550 O   0  0  0  0  0
    4.0590   15.4270  -10.7570 O   0  0  0  0  0
    4.0770   16.3600  -12.9490 O   0  0  0  0  0
    6.0900   15.3020  -12.0530 O   0  0  0  0  0
    6.3820    9.0120  -11.3280 O   0  0  0  0  0
    5.6810    7.0740  -10.0250 O   0  0  0  0  0
    6.0220    9.2730   -8.9880 O   0  0  0  0  0
    2.3840    8.9130   -4.3120 O   0  0  0  0  0
    0.3640    9.3430   -3.0720 O   0  0  0  0  0
    1.3930   11.0900   -4.3340 O   0  0  0  0  0
   -4.2560   14.8600   -5.7610 O   0  0  0  0  0
   -6.5950   14.5120   -6.3830 O   0  0  0  0  0
   -5.1550   15.8360   -7.8040 O   0  0  0  0  0
   -4.2310   15.0920  -15.9980 O   0  0  0  0  0
   -5.9930   15.5030  -14.4270 O   0  0  0  0  0
   -3.7020   16.3170  -13.9900 O   0  0  0  0  0
    5.7841   13.9456  -14.2422 H   0  0  0  0  0
    5.7287   10.5731  -15.4823 H   0  0  0  0  0
    6.5014   12.2219  -15.5562 H   0  0  0  0  0
    1.1548    6.6707   -8.6587 H   0  0  0  0  0
   -0.1677    7.2929   -9.7292 H   0  0  0  0  0
    1.7872    8.1058   -6.6027 H   0  0  0  0  0
   -1.5632   10.1945   -4.8842 H   0  0  0  0  0
    4.2881   10.3256  -11.9511 H   0  0  0  0  0
    3.3607    7.3560   -8.9683 H   0  0  0  0  0
    0.9184   11.7084  -11.9919 H   0  0  0  0  0
    1.1560   10.5611  -13.3326 H   0  0  0  0  0
    2.5324   13.4286  -11.4945 H   0  0  0  0  0
    3.7532   12.3304  -20.6019 H   0  0  0  0  0
    5.6709   13.9070  -17.0957 H   0  0  0  0  0
    3.8528    8.9198  -19.2734 H   0  0  0  0  0
    3.5551   10.0219  -20.7561 H   0  0  0  0  0
   -3.5803   10.0058   -5.8244 H   0  0  0  0  0
   -3.8269    8.9311   -7.3550 H   0  0  0  0  0
   -1.7879    8.1062  -19.9005 H   0  0  0  0  0
    1.5947   10.0329  -21.7262 H   0  0  0  0  0
   -3.7498   12.3957   -5.9851 H   0  0  0  0  0
   -5.6867   13.9133   -9.5036 H   0  0  0  0  0
    0.2108    7.3068  -16.7907 H   0  0  0  0  0
   -1.0902    6.6233  -17.8505 H   0  0  0  0  0
   -6.5252   12.2032  -11.0303 H   0  0  0  0  0
   -5.7132   10.5851  -11.1162 H   0  0  0  0  0
   -4.3111   10.1720  -14.5861 H   0  0  0  0  0
   -3.3091    7.3589  -17.6854 H   0  0  0  0  0
   -5.7433   14.0196  -12.3104 H   0  0  0  0  0
   -2.5298   13.3747  -15.1021 H   0  0  0  0  0
    0.1104   10.2856  -14.8761 H   0  0  0  0  0
    1.4507    7.9758  -16.8603 H   0  0  0  0  0
    3.7957    8.9892  -17.4952 H   0  0  0  0  0
    2.4116    9.8604  -14.1941 H   0  0  0  0  0
   -0.6049    9.0373  -10.3767 H   0  0  0  0  0
   -1.4967    7.9705   -9.6635 H   0  0  0  0  0
   -4.6080    9.7212  -10.4897 H   0  0  0  0  0
   -2.5284    9.8377  -12.4239 H   0  0  0  0  0
   -0.9115   11.6443  -14.5261 H   0  0  0  0  0
   -1.2338   10.4747  -13.2326 H   0  0  0  0  0
   -5.5942    6.9877  -15.0248 H   0  0  0  0  0
    0.3907   10.3146  -23.3139 H   0  0  0  0  0
    6.6221   13.6425  -20.8527 H   0  0  0  0  0
    6.4516   15.1895  -12.9352 H   0  0  0  0  0
    5.1519    6.7991   -9.2726 H   0  0  0  0  0
   -0.4700    9.8184   -3.0753 H   0  0  0  0  0
   -7.1903   14.3927   -7.1267 H   0  0  0  0  0
   -3.8951   16.4144  -13.0547 H   0  0  0  0  0
  2  1  4  0  0  0
  1 22  4  0  0  0
  3  2  4  0  0  0
  2  4  1  0  0  0
 20  3  4  0  0  0
  3 59  1  0  0  0
  4 11  1  0  0  0
 16  5  1  0  0  0
  5 23  1  0  0  0
  6  7  4  0  0  0
 23  6  4  0  0  0
  7  8  4  0  0  0
  7 69  1  0  0  0
  9  8  4  0  0  0
 10  9  4  0  0  0
  9 29  1  0  0  0
 23 10  4  0  0  0
 10 61  1  0  0  0
 11 12  4  0  0  0
 11 27  4  0  0  0
 12 24  4  0  0  0
 12 58  1  0  0  0
 14 13  4  0  0  0
 13 18  4  0  0  0
 14 15  4  0  0  0
 19 14  1  0  0  0
 15 16  4  0  0  0
 15 60  1  0  0  0
 16 17  4  0  0  0
 18 17  4  0  0  0
 18 68  1  0  0  0
 19 20  1  0  0  0
 20 21  4  0  0  0
 21 22  4  0  0  0
 22 67  1  0  0  0
 24 25  4  0  0  0
 24 28  1  0  0  0
 25 26  4  0  0  0
 26 27  4  0  0  0
 26 66  1  0  0  0
 28 30  1  0  0  0
 29 36  1  0  0  0
 30 31  4  0  0  0
 30 35  4  0  0  0
 31 32  4  0  0  0
 31 57  1  0  0  0
 32 33  4  0  0  0
 32 42  1  0  0  0
 33 34  4  0  0  0
 34 35  4  0  0  0
 34 65  1  0  0  0
 36 37  4  0  0  0
 36 41  4  0  0  0
 37 38  4  0  0  0
 38 39  4  0  0  0
 38 70  1  0  0  0
 39 40  4  0  0  0
 40 41  4  0  0  0
 40 43  1  0  0  0
 41 62  1  0  0  0
 42 44  1  0  0  0
 43 50  1  0  0  0
 44 45  4  0  0  0
 44 49  4  0  0  0
 45 46  4  0  0  0
 45 56  1  0  0  0
 46 47  4  0  0  0
 46 72  1  0  0  0
 47 48  4  0  0  0
 48 49  4  0  0  0
 48 64  1  0  0  0
 50 51  4  0  0  0
 50 55  4  0  0  0
 51 52  4  0  0  0
 52 53  4  0  0  0
 52 71  1  0  0  0
 53 54  4  0  0  0
 54 55  4  0  0  0
 54 72  1  0  0  0
 55 63  1  0  0  0
 64 73  2  0  0  0
 64 74  2  0  0  0
 64 75  1  0  0  0
 65 76  1  0  0  0
 65 77  2  0  0  0
 65 78  2  0  0  0
 66 79  1  0  0  0
 66 80  2  0  0  0
 66 81  2  0  0  0
 67 82  2  0  0  0
 67 83  2  0  0  0
 67 84  1  0  0  0
 68 85  2  0  0  0
 68 86  1  0  0  0
 68 87  2  0  0  0
 69 88  2  0  0  0
 69 89  1  0  0  0
 69 90  2  0  0  0
 70 91  2  0  0  0
 70 92  1  0  0  0
 70 93  2  0  0  0
 71 94  2  0  0  0
 71 95  2  0  0  0
 71 96  1  0  0  0
  1 97  1  0  0  0
  4 98  1  0  0  0
  4 99  1  0  0  0
  5100  1  0  0  0
  5101  1  0  0  0
  6102  1  0  0  0
  8103  1  0  0  0
 13104  1  0  0  0
 17105  1  0  0  0
 19106  1  0  0  0
 19107  1  0  0  0
 21108  1  0  0  0
 25109  1  0  0  0
 27110  1  0  0  0
 28111  1  0  0  0
 28112  1  0  0  0
 29113  1  0  0  0
 29114  1  0  0  0
 33115  1  0  0  0
 35116  1  0  0  0
 37117  1  0  0  0
 39118  1  0  0  0
 42119  1  0  0  0
 42120  1  0  0  0
 43121  1  0  0  0
 43122  1  0  0  0
 47123  1  0  0  0
 49124  1  0  0  0
 51125  1  0  0  0
 53126  1  0  0  0
 56127  1  0  0  0
 57128  1  0  0  0
 58129  1  0  0  0
 59130  1  0  0  0
 60131  1  0  0  0
 61132  1  0  0  0
 62133  1  0  0  0
 63134  1  0  0  0
 72135  1  0  0  0
 72136  1  0  0  0
 75137  1  0  0  0
 76138  1  0  0  0
 79139  1  0  0  0
 84140  1  0  0  0
 86141  1  0  0  0
 89142  1  0  0  0
 92143  1  0  0  0
 96144  1  0  0  0
M  END
$$$$
