2y06_ligand
  -I-interpret- 

122125  0  0  0  0  0  0  0  0999 V2000
    4.4310   -3.4910   57.0460 N   0  3  0  0  0
    4.8530   -3.5150   58.4740 C   0  0  0  0  0
    4.8030   -2.1180   59.1300 C   0  0  0  0  0
    4.6740   -2.0180   60.3560 O   0  0  0  0  0
    6.2670   -4.0990   58.5920 C   0  0  0  0  0
    6.5440   -4.7050   59.9750 C   0  0  0  0  0
    6.6320   -3.9390   60.9610 O   0  0  0  0  0
    6.6610   -5.9520   60.0760 O   0  0  0  0  0
    4.8920   -1.0290   58.3300 N   0  0  0  0  0
    4.8460    0.3190   58.9240 C   0  0  0  0  0
    3.5560    1.1280   58.6500 C   0  0  0  0  0
    3.2050    2.0040   59.4530 O   0  0  0  0  0
    6.0970    0.9770   58.3490 C   0  0  0  0  0
    6.0990    0.4530   56.9460 C   0  0  0  0  0
    5.5720   -0.9860   57.0200 C   0  0  0  0  0
    2.8950    0.8480   57.5120 N   0  0  0  0  0
    1.6210    1.4860   57.0850 C   0  0  0  0  0
    1.4220    1.9730   55.6070 C   0  0  0  0  0
    0.4220    1.6130   54.9750 O   0  0  0  0  0
    1.2420    2.6360   58.0550 C   0  0  0  0  0
    2.3620    2.7850   55.0360 N   0  0  0  0  0
    2.3000    3.3370   53.6600 C   0  0  0  0  0
    2.1890    2.5250   52.3440 C   0  0  0  0  0
    1.2090    2.7150   51.6000 O   0  0  0  0  0
    3.5160    4.2700   53.6060 C   0  0  0  0  0
    3.6800    4.6880   55.0260 C   0  0  0  0  0
    3.5000    3.3840   55.7620 C   0  0  0  0  0
    3.1720    1.6610   52.0390 N   0  0  0  0  0
    3.1750    0.8940   50.7740 C   0  0  0  0  0
    1.8460    0.3910   50.2550 C   0  0  0  0  0
    1.6310    0.3700   49.0330 O   0  0  0  0  0
    4.1080   -0.3140   50.8270 C   0  0  0  0  0
    3.9880   -1.0760   49.6290 O   0  0  0  0  0
    0.9560   -0.0280   51.1540 N   0  0  0  0  0
   -0.3200   -0.5280   50.6760 C   0  0  0  0  0
   -1.3270    0.5600   50.2940 C   0  0  0  0  0
   -0.9390    1.7070   49.9820 O   0  0  0  0  0
   -0.9310   -1.5280   51.6660 C   0  0  0  0  0
   -1.4000   -2.7570   50.9180 C   0  0  0  0  0
   -2.6580   -2.7940   50.3110 C   0  0  0  0  0
   -0.5230   -3.8200   50.6720 C   0  0  0  0  0
   -3.0260   -3.8420   49.4690 C   0  0  0  0  0
   -0.8860   -4.8780   49.8260 C   0  0  0  0  0
   -2.1390   -4.8770   49.2260 C   0  0  0  0  0
   -2.5050   -5.8970   48.3670 O   0  0  0  0  0
   -2.6130    0.1960   50.3220 N   0  0  0  0  0
   -3.6640    1.1090   49.9200 C   0  0  0  0  0
   -4.1210    0.4700   48.6250 C   0  0  0  0  0
   -4.4470    1.1510   47.6460 O   0  0  0  0  0
   -4.0930   -0.8700   48.6590 N   0  0  0  0  0
   -4.4600   -1.8060   47.5800 C   0  0  0  0  0
   -4.5250   -1.3380   46.1160 C   0  0  0  0  0
   -3.7740   -0.4460   45.6890 O   0  0  0  0  0
   -5.7780   -2.5010   47.9440 C   0  0  0  0  0
   -5.6760   -3.1070   49.2170 O   0  0  0  0  0
   -5.4110   -1.9840   45.3530 N   0  0  0  0  0
   -5.6210   -1.6850   43.9340 C   0  0  0  0  0
   -4.3350   -1.9310   43.1160 C   0  0  0  0  0
   -3.3400   -1.1640   43.2400 O   0  0  0  0  0
   -6.1030   -0.2350   43.7710 C   0  0  0  0  0
   -7.0550    0.2110   44.8400 C   0  0  0  0  0
   -6.6500    0.4560   46.1300 N   0  0  0  0  0
   -8.3950    0.4240   44.8160 C   0  0  0  0  0
   -7.6990    0.7980   46.8680 C   0  0  0  0  0
   -8.7690    0.7880   46.0950 N   0  0  0  0  0
   -4.3270   -2.9290   42.3640 N   0  0  0  0  0
    3.4908   -3.1016   56.9771 H   0  0  0  0  0
    5.0795   -2.9136   56.5107 H   0  0  0  0  0
    4.4347   -4.4414   56.6756 H   0  0  0  0  0
    4.1442   -4.1471   59.0089 H   0  0  0  0  0
    6.9783   -3.2885   58.4331 H   0  0  0  0  0
    6.3635   -4.8941   57.8527 H   0  0  0  0  0
    6.5615   -6.3528   59.2094 H   0  0  0  0  0
    4.8264    0.2741   60.0129 H   0  0  0  0  0
    7.0057    0.7400   58.9024 H   0  0  0  0  0
    6.0804    2.0654   58.4060 H   0  0  0  0  0
    7.1018    0.4807   56.5197 H   0  0  0  0  0
    5.4721    1.0662   56.2987 H   0  0  0  0  0
    4.9070   -1.2334   56.1926 H   0  0  0  0  0
    6.3646   -1.7292   56.9330 H   0  0  0  0  0
    3.2988    0.1438   56.8944 H   0  0  0  0  0
    0.9514    0.6269   57.1261 H   0  0  0  0  0
    1.1199    2.2354   59.0613 H   0  0  0  0  0
    2.0333    3.3856   58.0545 H   0  0  0  0  0
    0.3075    3.0921   57.7282 H   0  0  0  0  0
    1.2814    3.7206   53.6023 H   0  0  0  0  0
    3.3718    5.1136   52.9310 H   0  0  0  0  0
    4.4044    3.7835   53.2033 H   0  0  0  0  0
    2.9717    5.4574   55.3332 H   0  0  0  0  0
    4.6385    5.1670   55.2262 H   0  0  0  0  0
    4.3927    2.7586   55.7625 H   0  0  0  0  0
    3.3171    3.5091   56.8292 H   0  0  0  0  0
    3.9386    1.5302   52.6991 H   0  0  0  0  0
    3.5172    1.6618   50.0801 H   0  0  0  0  0
    3.8371   -0.9390   51.6780 H   0  0  0  0  0
    5.1365    0.0318   50.9303 H   0  0  0  0  0
    4.5777   -1.8323   49.6718 H   0  0  0  0  0
    1.1660    0.0019   52.1517 H   0  0  0  0  0
   -0.0927   -1.0462   49.7444 H   0  0  0  0  0
   -1.7784   -1.0658   52.1724 H   0  0  0  0  0
   -0.1799   -1.8154   52.4018 H   0  0  0  0  0
   -3.3659   -1.9869   50.4998 H   0  0  0  0  0
    0.4585   -3.8255   51.1460 H   0  0  0  0  0
   -4.0110   -3.8468   49.0023 H   0  0  0  0  0
   -0.1896   -5.6957   49.6404 H   0  0  0  0  0
   -1.7886   -6.5328   48.3034 H   0  0  0  0  0
   -2.8595   -0.7437   50.6327 H   0  0  0  0  0
   -3.3332    2.1417   49.8099 H   0  0  0  0  0
   -4.4565    1.2229   50.6597 H   0  0  0  0  0
   -3.7813   -1.2916   49.5339 H   0  0  0  0  0
   -3.5858   -2.4566   47.5569 H   0  0  0  0  0
   -5.9937   -3.2681   47.2003 H   0  0  0  0  0
   -6.5776   -1.7605   47.9648 H   0  0  0  0  0
   -6.5064   -3.5379   49.4325 H   0  0  0  0  0
   -5.9697   -2.7229   45.7799 H   0  0  0  0  0
   -6.3882   -2.3568   43.5490 H   0  0  0  0  0
   -6.6312   -0.1734   42.8195 H   0  0  0  0  0
   -5.2246    0.4077   43.8297 H   0  0  0  0  0
   -9.0517    0.3264   43.9515 H   0  0  0  0  0
   -7.6801    1.0446   47.9296 H   0  0  0  0  0
   -3.4934   -3.1508   41.8197 H   0  0  0  0  0
   -5.1541   -3.5218   42.2945 H   0  0  0  0  0
  1  2  1  0  0  0
  2  3  1  0  0  0
  2  5  1  0  0  0
  3  4  2  0  0  0
  3  9  1  0  0  0
  5  6  1  0  0  0
  6  7  2  0  0  0
  6  8  1  0  0  0
  9 10  1  0  0  0
  9 15  1  0  0  0
 10 11  1  0  0  0
 10 13  1  0  0  0
 11 12  2  0  0  0
 11 16  1  0  0  0
 13 14  1  0  0  0
 14 15  1  0  0  0
 16 17  1  0  0  0
 17 18  1  0  0  0
 17 20  1  0  0  0
 18 19  2  0  0  0
 18 21  1  0  0  0
 21 22  1  0  0  0
 21 27  1  0  0  0
 22 23  1  0  0  0
 22 25  1  0  0  0
 23 24  2  0  0  0
 23 28  1  0  0  0
 25 26  1  0  0  0
 26 27  1  0  0  0
 28 29  1  0  0  0
 29 30  1  0  0  0
 29 32  1  0  0  0
 30 31  2  0  0  0
 30 34  1  0  0  0
 32 33  1  0  0  0
 34 35  1  0  0  0
 35 36  1  0  0  0
 35 38  1  0  0  0
 36 37  2  0  0  0
 36 46  1  0  0  0
 38 39  1  0  0  0
 39 40  4  0  0  0
 39 41  4  0  0  0
 40 42  4  0  0  0
 41 43  4  0  0  0
 42 44  4  0  0  0
 43 44  4  0  0  0
 44 45  1  0  0  0
 46 47  1  0  0  0
 47 48  1  0  0  0
 48 49  2  0  0  0
 48 50  1  0  0  0
 50 51  1  0  0  0
 51 52  1  0  0  0
 51 54  1  0  0  0
 52 53  2  0  0  0
 52 56  1  0  0  0
 54 55  1  0  0  0
 56 57  1  0  0  0
 57 58  1  0  0  0
 57 60  1  0  0  0
 58 59  2  0  0  0
 58 66  1  0  0  0
 60 61  1  0  0  0
 61 62  4  0  0  0
 61 63  4  0  0  0
 62 64  4  0  0  0
 63 65  4  0  0  0
 64 65  4  0  0  0
  1 67  1  0  0  0
  1 68  1  0  0  0
  1 69  1  0  0  0
  2 70  1  0  0  0
  5 71  1  0  0  0
  5 72  1  0  0  0
  8 73  1  0  0  0
 10 74  1  0  0  0
 13 75  1  0  0  0
 13 76  1  0  0  0
 14 77  1  0  0  0
 14 78  1  0  0  0
 15 79  1  0  0  0
 15 80  1  0  0  0
 16 81  1  0  0  0
 17 82  1  0  0  0
 20 83  1  0  0  0
 20 84  1  0  0  0
 20 85  1  0  0  0
 22 86  1  0  0  0
 25 87  1  0  0  0
 25 88  1  0  0  0
 26 89  1  0  0  0
 26 90  1  0  0  0
 27 91  1  0  0  0
 27 92  1  0  0  0
 28 93  1  0  0  0
 29 94  1  0  0  0
 32 95  1  0  0  0
 32 96  1  0  0  0
 33 97  1  0  0  0
 34 98  1  0  0  0
 35 99  1  0  0  0
 38100  1  0  0  0
 38101  1  0  0  0
 40102  1  0  0  0
 41103  1  0  0  0
 42104  1  0  0  0
 43105  1  0  0  0
 45106  1  0  0  0
 46107  1  0  0  0
 47108  1  0  0  0
 47109  1  0  0  0
 50110  1  0  0  0
 51111  1  0  0  0
 54112  1  0  0  0
 54113  1  0  0  0
 55114  1  0  0  0
 56115  1  0  0  0
 57116  1  0  0  0
 60117  1  0  0  0
 60118  1  0  0  0
 63119  1  0  0  0
 64120  1  0  0  0
 66121  1  0  0  0
 66122  1  0  0  0
M  END
$$$$
