### 
### Created by X-TOOL on Mon Sep 10 21:13:08 2018
### 

@<TRIPOS>MOLECULE
2y06_ligand
  122   125     1     0     0
SMALL
GAST_HUCK


@<TRIPOS>ATOM
      1 N           4.4310   -3.4910   57.0460 N.4       1 ASP         0.2391
      2 CA          4.8530   -3.5150   58.4740 C.3       1 ASP         0.0766
      3 C           4.8030   -2.1180   59.1300 C.2       1 ASP         0.2309
      4 O           4.6740   -2.0180   60.3560 O.2       1 ASP        -0.3904
      5 CB          6.2670   -4.0990   58.5920 C.3       1 ASP         0.0607
      6 CG          6.5440   -4.7050   59.9750 C.2       1 ASP         0.0425
      7 OD1         6.6320   -3.9390   60.9610 O.co2     1 ASP        -0.5686
      8 OD2         6.6610   -5.9520   60.0760 O.co2     1 ASP        -0.5686
      9 N           4.8920   -1.0290   58.3300 N.am      1 PRO        -0.2470
     10 CA          4.8460    0.3190   58.9240 C.3       1 PRO         0.1339
     11 C           3.5560    1.1280   58.6500 C.2       1 PRO         0.2041
     12 O           3.2050    2.0040   59.4530 O.2       1 PRO        -0.3944
     13 CB          6.0970    0.9770   58.3490 C.3       1 PRO        -0.0104
     14 CG          6.0990    0.4530   56.9460 C.3       1 PRO        -0.0281
     15 CD          5.5720   -0.9860   57.0200 C.3       1 PRO         0.0371
     16 N           2.8950    0.8480   57.5120 N.am      1 ARG        -0.2640
     17 CA          1.6210    1.4860   57.0850 C.3       1 ARG         0.1284
     18 C           1.4220    1.9730   55.6070 C.2       1 ARG         0.2061
     19 O           0.4220    1.6130   54.9750 O.2       1 ARG        -0.3942
     20 CB          1.2420    2.6360   58.0550 C.3       1 ARG        -0.0244
     21 N           2.3620    2.7850   55.0360 N.am      1 PRO        -0.2498
     22 CA          2.3000    3.3370   53.6600 C.3       1 PRO         0.1338
     23 C           2.1890    2.5250   52.3440 C.2       1 PRO         0.2042
     24 O           1.2090    2.7150   51.6000 O.2       1 PRO        -0.3944
     25 CB          3.5160    4.2700   53.6060 C.3       1 PRO        -0.0104
     26 CG          3.6800    4.6880   55.0260 C.3       1 PRO        -0.0281
     27 CD          3.5000    3.3840   55.7620 C.3       1 PRO         0.0369
     28 N           3.1720    1.6610   52.0390 N.am      1 SER        -0.2616
     29 CA          3.1750    0.8940   50.7740 C.3       1 SER         0.1539
     30 C           1.8460    0.3910   50.2550 C.2       1 SER         0.2063
     31 O           1.6310    0.3700   49.0330 O.2       1 SER        -0.3943
     32 CB          4.1080   -0.3140   50.8270 C.3       1 SER         0.0843
     33 OG          3.9880   -1.0760   49.6290 O.3       1 SER        -0.3903
     34 N           0.9560   -0.0280   51.1540 N.am      1 TYR        -0.2621
     35 CA         -0.3200   -0.5280   50.6760 C.3       1 TYR         0.1390
     36 C          -1.3270    0.5600   50.2940 C.2       1 TYR         0.2055
     37 O          -0.9390    1.7070   49.9820 O.2       1 TYR        -0.3942
     38 CB         -0.9310   -1.5280   51.6660 C.3       1 TYR         0.0163
     39 CG         -1.4000   -2.7570   50.9180 C.ar      1 TYR        -0.0493
     40 CD1        -2.6580   -2.7940   50.3110 C.ar      1 TYR        -0.0685
     41 CD2        -0.5230   -3.8200   50.6720 C.ar      1 TYR        -0.0685
     42 CE1        -3.0260   -3.8420   49.4690 C.ar      1 TYR        -0.0398
     43 CE2        -0.8860   -4.8780   49.8260 C.ar      1 TYR        -0.0398
     44 CZ         -2.1390   -4.8770   49.2260 C.ar      1 TYR         0.0805
     45 OH         -2.5050   -5.8970   48.3670 O.3       1 TYR        -0.3376
     46 N          -2.6130    0.1960   50.3220 N.am      1 ILE        -0.2663
     47 CA         -3.6640    1.1090   49.9200 C.3       1 ILE         0.1201
     48 C          -4.1210    0.4700   48.6250 C.2       1 ILE         0.2008
     49 O          -4.4470    1.1510   47.6460 O.2       1 ILE        -0.3947
     50 N          -4.0930   -0.8700   48.6590 N.am      1 SER        -0.2618
     51 CA         -4.4600   -1.8060   47.5800 C.3       1 SER         0.1539
     52 C          -4.5250   -1.3380   46.1160 C.2       1 SER         0.2063
     53 O          -3.7740   -0.4460   45.6890 O.2       1 SER        -0.3943
     54 CB         -5.7780   -2.5010   47.9440 C.3       1 SER         0.0843
     55 OG         -5.6760   -3.1070   49.2170 O.3       1 SER        -0.3903
     56 N          -5.4110   -1.9840   45.3530 N.am      1 HIS        -0.2624
     57 CA         -5.6210   -1.6850   43.9340 C.3       1 HIS         0.1366
     58 C          -4.3350   -1.9310   43.1160 C.2       1 HIS         0.2006
     59 O          -3.3400   -1.1640   43.2400 O.2       1 HIS        -0.3946
     60 CB         -6.1030   -0.2350   43.7710 C.3       1 HIS         0.0145
     61 CG         -7.0550    0.2110   44.8400 C.2       1 HIS        -0.0027
     62 ND1        -6.6500    0.4560   46.1300 N.2       1 HIS        -0.3252
     63 CD2        -8.3950    0.4240   44.8160 C.2       1 HIS         0.0291
     64 CE1        -7.6990    0.7980   46.8680 C.2       1 HIS         0.0907
     65 NE2        -8.7690    0.7880   46.0950 N.pl3     1 HIS        -0.2752
     66 N          -4.3270   -2.9290   42.3640 N.am      1 LEU        -0.2989
     67 H           3.4908   -3.1016   56.9771 H         1 ASP         0.2016
     68 H           5.0795   -2.9136   56.5107 H         1 ASP         0.2016
     69 H           4.4347   -4.4414   56.6756 H         1 ASP         0.2016
     70 H           4.1442   -4.1471   59.0089 H         1 ASP         0.1118
     71 H           6.9783   -3.2885   58.4331 H         1 ASP         0.0512
     72 H           6.3635   -4.8941   57.8527 H         1 ASP         0.0512
     73 H           4.8264    0.2741   60.0129 H         1 PRO         0.0802
     74 H           7.0057    0.7400   58.9024 H         1 PRO         0.0313
     75 H           6.0804    2.0654   58.4060 H         1 PRO         0.0313
     76 H           7.1018    0.4807   56.5197 H         1 PRO         0.0287
     77 H           5.4721    1.0662   56.2987 H         1 PRO         0.0287
     78 H           4.9070   -1.2334   56.1926 H         1 PRO         0.0524
     79 H           6.3646   -1.7292   56.9330 H         1 PRO         0.0524
     80 H           3.2988    0.1438   56.8944 H         1 ARG         0.1883
     81 H           0.9514    0.6269   57.1261 H         1 ARG         0.0797
     82 H           1.1199    2.2354   59.0613 H         1 ARG         0.0277
     83 H           2.0333    3.3856   58.0545 H         1 ARG         0.0277
     84 H           0.3075    3.0921   57.7282 H         1 ARG         0.0277
     85 H           1.2814    3.7206   53.6023 H         1 PRO         0.0802
     86 H           3.3718    5.1136   52.9310 H         1 PRO         0.0313
     87 H           4.4044    3.7835   53.2033 H         1 PRO         0.0313
     88 H           2.9717    5.4574   55.3332 H         1 PRO         0.0287
     89 H           4.6385    5.1670   55.2262 H         1 PRO         0.0287
     90 H           4.3927    2.7586   55.7625 H         1 PRO         0.0524
     91 H           3.3171    3.5091   56.8292 H         1 PRO         0.0524
     92 H           3.9386    1.5302   52.6991 H         1 SER         0.1884
     93 H           3.5172    1.6618   50.0801 H         1 SER         0.0823
     94 H           3.8371   -0.9390   51.6780 H         1 SER         0.0606
     95 H           5.1365    0.0318   50.9303 H         1 SER         0.0606
     96 H           3.0824   -1.3799   49.5337 H         1 SER         0.2097
     97 H           1.1660    0.0019   52.1517 H         1 TYR         0.1885
     98 H          -0.0927   -1.0462   49.7444 H         1 TYR         0.0821
     99 H          -1.7784   -1.0658   52.1724 H         1 TYR         0.0453
    100 H          -0.1799   -1.8154   52.4018 H         1 TYR         0.0453
    101 H          -3.3659   -1.9869   50.4998 H         1 TYR         0.0530
    102 H           0.4585   -3.8255   51.1460 H         1 TYR         0.0530
    103 H          -4.0110   -3.8468   49.0023 H         1 TYR         0.0525
    104 H          -0.1896   -5.6957   49.6404 H         1 TYR         0.0525
    105 H          -3.3957   -5.7392   48.0458 H         1 TYR         0.2458
    106 H          -2.8595   -0.7437   50.6327 H         1 ILE         0.1881
    107 H          -3.3332    2.1417   49.8099 H         1 ILE         0.0763
    108 H          -4.4565    1.2229   50.6597 H         1 ILE         0.0763
    109 H          -3.7813   -1.2916   49.5339 H         1 SER         0.1884
    110 H          -3.5858   -2.4566   47.5569 H         1 SER         0.0823
    111 H          -5.9937   -3.2681   47.2003 H         1 SER         0.0606
    112 H          -6.5776   -1.7605   47.9648 H         1 SER         0.0606
    113 H          -6.5064   -3.5379   49.4325 H         1 SER         0.2097
    114 H          -5.9697   -2.7229   45.7799 H         1 HIS         0.1885
    115 H          -6.3882   -2.3568   43.5490 H         1 HIS         0.0817
    116 H          -6.6312   -0.1734   42.8195 H         1 HIS         0.0420
    117 H          -5.2246    0.4077   43.8297 H         1 HIS         0.0420
    118 H          -9.0517    0.3264   43.9515 H         1 HIS         0.0729
    119 H          -7.6801    1.0446   47.9296 H         1 HIS         0.1199
    120 H          -9.7181    1.0126   46.3937 H         1 HIS         0.2361
    121 H          -3.4934   -3.1508   41.8197 H         1 LEU         0.1815
    122 H          -5.1541   -3.5218   42.2945 H         1 LEU         0.1815
@<TRIPOS>BOND
     1    1    2 1  
     2    2    3 1  
     3    2    5 1  
     4    3    4 2  
     5    3    9 am 
     6    5    6 1  
     7    6    7 ar 
     8    6    8 ar 
     9    9   10 1  
    10    9   15 1  
    11   10   11 1  
    12   10   13 1  
    13   11   12 2  
    14   11   16 am 
    15   13   14 1  
    16   14   15 1  
    17   16   17 1  
    18   17   18 1  
    19   17   20 1  
    20   18   19 2  
    21   18   21 am 
    22   21   22 1  
    23   21   27 1  
    24   22   23 1  
    25   22   25 1  
    26   23   24 2  
    27   23   28 am 
    28   25   26 1  
    29   26   27 1  
    30   28   29 1  
    31   29   30 1  
    32   29   32 1  
    33   30   31 2  
    34   30   34 am 
    35   32   33 1  
    36   34   35 1  
    37   35   36 1  
    38   35   38 1  
    39   36   37 2  
    40   36   46 am 
    41   38   39 1  
    42   39   40 ar 
    43   39   41 ar 
    44   40   42 ar 
    45   41   43 ar 
    46   42   44 ar 
    47   43   44 ar 
    48   44   45 1  
    49   46   47 1  
    50   47   48 1  
    51   48   49 2  
    52   48   50 am 
    53   50   51 1  
    54   51   52 1  
    55   51   54 1  
    56   52   53 2  
    57   52   56 am 
    58   54   55 1  
    59   56   57 1  
    60   57   58 1  
    61   57   60 1  
    62   58   59 2  
    63   58   66 am 
    64   60   61 1  
    65   61   62 1  
    66   61   63 2  
    67   62   64 2  
    68   63   65 1  
    69   64   65 1  
    70    1   67 1  
    71    1   68 1  
    72    1   69 1  
    73    2   70 1  
    74    5   71 1  
    75    5   72 1  
    76   10   73 1  
    77   13   74 1  
    78   13   75 1  
    79   14   76 1  
    80   14   77 1  
    81   15   78 1  
    82   15   79 1  
    83   16   80 1  
    84   17   81 1  
    85   20   82 1  
    86   20   83 1  
    87   20   84 1  
    88   22   85 1  
    89   25   86 1  
    90   25   87 1  
    91   26   88 1  
    92   26   89 1  
    93   27   90 1  
    94   27   91 1  
    95   28   92 1  
    96   29   93 1  
    97   32   94 1  
    98   32   95 1  
    99   33   96 1  
   100   34   97 1  
   101   35   98 1  
   102   38   99 1  
   103   38  100 1  
   104   40  101 1  
   105   41  102 1  
   106   42  103 1  
   107   43  104 1  
   108   45  105 1  
   109   46  106 1  
   110   47  107 1  
   111   47  108 1  
   112   50  109 1  
   113   51  110 1  
   114   54  111 1  
   115   54  112 1  
   116   55  113 1  
   117   56  114 1  
   118   57  115 1  
   119   60  116 1  
   120   60  117 1  
   121   63  118 1  
   122   64  119 1  
   123   65  120 1  
   124   66  121 1  
   125   66  122 1  
@<TRIPOS>SUBSTRUCTURE
     1 ASP         1

