5c7f_ligand
  -I-interpret- 

142142  0  0  0  0  0  0  0  0999 V2000
   32.2540  -72.6330   22.9660 N   0  3  0  0  0
   31.3070  -71.6230   22.5240 C   0  0  0  0  0
   31.1080  -70.5680   23.6020 C   0  0  0  0  0
   29.9970  -70.1920   23.9640 O   0  0  0  0  0
   29.9430  -72.2530   22.0840 C   0  0  0  0  0
   29.0650  -71.2420   21.5570 O   0  0  0  0  0
   29.2700  -72.9950   23.2430 C   0  0  0  0  0
   32.2200  -70.1010   24.1290 N   0  0  0  0  0
   32.2170  -68.9420   24.9790 C   0  0  0  0  0
   32.4210  -67.8120   23.9940 C   0  0  0  0  0
   31.6720  -66.8190   24.0120 O   0  0  0  0  0
   33.2740  -69.0080   26.0810 C   0  0  0  0  0
   32.8510  -69.9890   27.2090 C   0  0  0  0  0
   31.3950  -69.8050   27.6750 C   0  0  0  0  0
   30.8960  -68.6560   27.6930 O   0  0  0  0  0
   30.7510  -70.8200   28.0290 O   0  0  0  0  0
   33.4820  -67.8840   23.2150 N   0  0  0  0  0
   33.6490  -66.9940   22.0700 C   0  0  0  0  0
   33.2900  -67.6430   20.7060 C   0  0  0  0  0
   33.7200  -67.1490   19.6590 O   0  0  0  0  0
   35.0670  -66.4740   22.0420 C   0  0  0  0  0
   36.0610  -67.5940   21.8690 C   0  0  0  0  0
   36.4700  -67.8780   20.4250 C   0  0  0  0  0
   37.1280  -67.0760   22.6530 C   0  0  0  0  0
   32.6270  -68.7890   20.6870 N   0  0  0  0  0
   32.2440  -69.3860   19.4030 C   0  0  0  0  0
   31.0230  -68.6730   18.8460 C   0  0  0  0  0
   30.1240  -68.2840   19.6040 O   0  0  0  0  0
   31.9530  -70.8760   19.4990 C   0  0  0  0  0
   32.8100  -71.7290   18.6060 C   0  0  0  0  0
   34.2750  -71.4330   18.8230 C   0  0  0  0  0
   35.0380  -71.7580   17.6260 N   0  0  0  0  0
   36.0520  -71.0340   17.1630 C   0  0  0  0  0
   36.4370  -69.9340   17.8020 N   0  0  0  0  0
   36.6830  -71.4100   16.0600 N   0  0  0  0  0
   31.0000  -68.5050   17.5300 N   0  0  0  0  0
   29.9040  -67.8070   16.8880 C   0  0  0  0  0
   28.7740  -68.7430   16.5080 C   0  0  0  0  0
   28.9630  -69.7100   15.7630 O   0  0  0  0  0
   30.3560  -67.0390   15.6480 C   0  0  0  0  0
   31.5490  -66.0990   15.7890 C   0  0  0  0  0
   31.5850  -65.1840   14.5720 C   0  0  0  0  0
   31.5070  -65.3180   17.0790 C   0  0  0  0  0
   27.6010  -68.4580   17.0470 N   0  0  0  0  0
   26.4360  -69.2020   16.6640 C   0  0  0  0  0
   25.2680  -68.2540   16.6410 C   0  0  0  0  0
   25.4050  -67.0640   16.9330 O   0  0  0  0  0
   24.1030  -68.8040   16.3510 N   0  0  0  0  0
   22.8490  -68.0700   16.4160 C   0  0  0  0  0
   21.8190  -68.7200   17.3540 C   0  0  0  0  0
   21.3310  -69.8140   17.0710 O   0  0  0  0  0
   22.2360  -67.9000   15.0170 C   0  0  0  0  0
   22.2070  -68.9740   13.9120 C   0  0  0  0  0
   22.6570  -70.3610   14.3690 C   0  0  0  0  0
   20.8160  -69.0610   13.2840 C   0  0  0  0  0
   21.4830  -68.0300   18.4590 N   0  0  0  0  0
   22.3230  -67.0320   19.1190 C   0  0  0  0  0
   23.1980  -67.4150   20.3210 C   0  0  0  0  0
   24.4150  -67.5140   20.1980 O   0  0  0  0  0
   21.2820  -66.0230   19.5730 C   0  0  0  0  0
   20.0710  -66.8990   19.9330 C   0  0  0  0  0
   20.2480  -68.2420   19.2230 C   0  0  0  0  0
   22.5530  -67.7900   21.4290 N   0  0  0  0  0
   23.2400  -67.9190   22.7090 C   0  0  0  0  0
   23.8090  -66.5770   23.1780 C   0  0  0  0  0
   23.9440  -66.3160   24.3870 O   0  0  0  0  0
   24.1560  -65.7000   22.3670 O   0  0  0  0  0
   33.1260  -72.1819   23.2427 H   0  0  0  0  0
   31.8638  -73.1382   23.7615 H   0  0  0  0  0
   32.4345  -73.2852   22.2029 H   0  0  0  0  0
   31.7285  -71.1372   21.6440 H   0  0  0  0  0
   30.1515  -72.9792   21.2984 H   0  0  0  0  0
   29.5010  -70.7871   20.8327 H   0  0  0  0  0
   29.0285  -72.2862   24.0351 H   0  0  0  0  0
   28.3555  -73.4693   22.8869 H   0  0  0  0  0
   29.9488  -73.7556   23.6288 H   0  0  0  0  0
   33.1028  -70.5717   23.9299 H   0  0  0  0  0
   31.2995  -68.8283   25.5565 H   0  0  0  0  0
   33.3901  -68.0132   26.5111 H   0  0  0  0  0
   34.2085  -69.3616   25.6454 H   0  0  0  0  0
   33.4948  -69.7962   28.0672 H   0  0  0  0  0
   32.9411  -71.0003   26.8124 H   0  0  0  0  0
   31.3077  -71.5972   27.9421 H   0  0  0  0  0
   34.2025  -68.5772   23.4168 H   0  0  0  0  0
   32.9401  -66.1771   22.2047 H   0  0  0  0  0
   35.2708  -65.9739   22.9888 H   0  0  0  0  0
   35.1677  -65.7891   21.2001 H   0  0  0  0  0
   35.6803  -68.5715   22.1652 H   0  0  0  0  0
   35.5878  -68.1508   19.8458 H   0  0  0  0  0
   36.9264  -66.9860   19.9959 H   0  0  0  0  0
   37.1866  -68.6991   20.4065 H   0  0  0  0  0
   37.4510  -66.1209   22.2389 H   0  0  0  0  0
   36.7873  -66.9323   23.6784 H   0  0  0  0  0
   37.9608  -67.7791   22.6407 H   0  0  0  0  0
   32.3837  -69.2546   21.5613 H   0  0  0  0  0
   33.0984  -69.2656   18.7370 H   0  0  0  0  0
   30.9186  -71.0227   19.1883 H   0  0  0  0  0
   32.1575  -71.1784   20.5260 H   0  0  0  0  0
   32.5585  -71.5127   17.5677 H   0  0  0  0  0
   32.6256  -72.7775   18.8401 H   0  0  0  0  0
   34.6411  -72.0365   19.6536 H   0  0  0  0  0
   34.3951  -70.3726   19.0450 H   0  0  0  0  0
   34.7769  -72.5972   17.1083 H   0  0  0  0  0
   37.2160  -69.3820   17.4431 H   0  0  0  0  0
   35.9534  -69.6419   18.6512 H   0  0  0  0  0
   36.3904  -72.2540   15.5676 H   0  0  0  0  0
   31.7640  -68.8720   16.9625 H   0  0  0  0  0
   29.5379  -67.0953   17.6279 H   0  0  0  0  0
   29.5140  -66.4018   15.3776 H   0  0  0  0  0
   30.6681  -67.7997   14.9325 H   0  0  0  0  0
   32.4669  -66.6853   15.8315 H   0  0  0  0  0
   31.6880  -65.7861   13.6693 H   0  0  0  0  0
   30.6600  -64.6095   14.5235 H   0  0  0  0  0
   32.4327  -64.5039   14.6553 H   0  0  0  0  0
   30.5967  -64.7192   17.1102 H   0  0  0  0  0
   31.5176  -66.0096   17.9214 H   0  0  0  0  0
   32.3764  -64.6629   17.1341 H   0  0  0  0  0
   27.5244  -67.7091   17.7352 H   0  0  0  0  0
   26.2533  -70.0086   17.3740 H   0  0  0  0  0
   26.5797  -69.6476   15.6797 H   0  0  0  0  0
   24.0817  -69.7842   16.0698 H   0  0  0  0  0
   23.0965  -67.0920   16.8288 H   0  0  0  0  0
   22.8808  -67.1390   14.5774 H   0  0  0  0  0
   21.1770  -67.7808   15.2459 H   0  0  0  0  0
   22.9369  -68.6465   13.1716 H   0  0  0  0  0
   23.6826  -70.3068   14.7342 H   0  0  0  0  0
   22.0030  -70.7086   15.1688 H   0  0  0  0  0
   22.6053  -71.0535   13.5288 H   0  0  0  0  0
   20.0879  -69.3230   14.0517 H   0  0  0  0  0
   20.5548  -68.0969   12.8477 H   0  0  0  0  0
   20.8169  -69.8249   12.5064 H   0  0  0  0  0
   23.0966  -66.7316   18.4123 H   0  0  0  0  0
   21.0514  -65.2846   18.8051 H   0  0  0  0  0
   21.6243  -65.4164   20.4114 H   0  0  0  0  0
   19.1454  -66.4190   19.6154 H   0  0  0  0  0
   20.0119  -67.0430   21.0118 H   0  0  0  0  0
   20.3076  -69.0862   19.9099 H   0  0  0  0  0
   19.3973  -68.5124   18.5975 H   0  0  0  0  0
   21.5543  -67.9913   21.3786 H   0  0  0  0  0
   24.0652  -68.6209   22.5888 H   0  0  0  0  0
   22.5232  -68.2688   23.4519 H   0  0  0  0  0
   23.6446  -67.0633   24.9099 H   0  0  0  0  0
  1  2  1  0  0  0
  2  3  1  0  0  0
  2  5  1  0  0  0
  3  4  2  0  0  0
  3  8  1  0  0  0
  5  6  1  0  0  0
  5  7  1  0  0  0
  8  9  1  0  0  0
  9 10  1  0  0  0
  9 12  1  0  0  0
 10 11  2  0  0  0
 10 17  1  0  0  0
 12 13  1  0  0  0
 13 14  1  0  0  0
 14 15  2  0  0  0
 14 16  1  0  0  0
 17 18  1  0  0  0
 18 19  1  0  0  0
 18 21  1  0  0  0
 19 20  2  0  0  0
 19 25  1  0  0  0
 21 22  1  0  0  0
 22 23  1  0  0  0
 22 24  1  0  0  0
 25 26  1  0  0  0
 26 27  1  0  0  0
 26 29  1  0  0  0
 27 28  2  0  0  0
 27 36  1  0  0  0
 29 30  1  0  0  0
 30 31  1  0  0  0
 31 32  1  0  0  0
 32 33  1  0  0  0
 33 34  1  0  0  0
 33 35  2  0  0  0
 36 37  1  0  0  0
 37 38  1  0  0  0
 37 40  1  0  0  0
 38 39  2  0  0  0
 38 44  1  0  0  0
 40 41  1  0  0  0
 41 42  1  0  0  0
 41 43  1  0  0  0
 44 45  1  0  0  0
 45 46  1  0  0  0
 46 47  2  0  0  0
 46 48  1  0  0  0
 48 49  1  0  0  0
 49 50  1  0  0  0
 49 52  1  0  0  0
 50 51  2  0  0  0
 50 56  1  0  0  0
 52 53  1  0  0  0
 53 54  1  0  0  0
 53 55  1  0  0  0
 56 57  1  0  0  0
 56 62  1  0  0  0
 57 58  1  0  0  0
 57 60  1  0  0  0
 58 59  2  0  0  0
 58 63  1  0  0  0
 60 61  1  0  0  0
 61 62  1  0  0  0
 63 64  1  0  0  0
 64 65  1  0  0  0
 65 66  1  0  0  0
 65 67  2  0  0  0
  1 68  1  0  0  0
  1 69  1  0  0  0
  1 70  1  0  0  0
  2 71  1  0  0  0
  5 72  1  0  0  0
  6 73  1  0  0  0
  7 74  1  0  0  0
  7 75  1  0  0  0
  7 76  1  0  0  0
  8 77  1  0  0  0
  9 78  1  0  0  0
 12 79  1  0  0  0
 12 80  1  0  0  0
 13 81  1  0  0  0
 13 82  1  0  0  0
 16 83  1  0  0  0
 17 84  1  0  0  0
 18 85  1  0  0  0
 21 86  1  0  0  0
 21 87  1  0  0  0
 22 88  1  0  0  0
 23 89  1  0  0  0
 23 90  1  0  0  0
 23 91  1  0  0  0
 24 92  1  0  0  0
 24 93  1  0  0  0
 24 94  1  0  0  0
 25 95  1  0  0  0
 26 96  1  0  0  0
 29 97  1  0  0  0
 29 98  1  0  0  0
 30 99  1  0  0  0
 30100  1  0  0  0
 31101  1  0  0  0
 31102  1  0  0  0
 32103  1  0  0  0
 34104  1  0  0  0
 34105  1  0  0  0
 35106  1  0  0  0
 36107  1  0  0  0
 37108  1  0  0  0
 40109  1  0  0  0
 40110  1  0  0  0
 41111  1  0  0  0
 42112  1  0  0  0
 42113  1  0  0  0
 42114  1  0  0  0
 43115  1  0  0  0
 43116  1  0  0  0
 43117  1  0  0  0
 44118  1  0  0  0
 45119  1  0  0  0
 45120  1  0  0  0
 48121  1  0  0  0
 49122  1  0  0  0
 52123  1  0  0  0
 52124  1  0  0  0
 53125  1  0  0  0
 54126  1  0  0  0
 54127  1  0  0  0
 54128  1  0  0  0
 55129  1  0  0  0
 55130  1  0  0  0
 55131  1  0  0  0
 57132  1  0  0  0
 60133  1  0  0  0
 60134  1  0  0  0
 61135  1  0  0  0
 61136  1  0  0  0
 62137  1  0  0  0
 62138  1  0  0  0
 63139  1  0  0  0
 64140  1  0  0  0
 64141  1  0  0  0
 66142  1  0  0  0
M  END
$$$$
