### 
### Created by X-TOOL on Mon Sep 10 21:13:25 2018
### 

@<TRIPOS>MOLECULE
5c7f_ligand
  141   141     1     0     0
SMALL
GAST_HUCK


@<TRIPOS>ATOM
      1 N          32.2540  -72.6330   22.9660 N.4       1 THR         0.2398
      2 CA         31.3070  -71.6230   22.5240 C.3       1 THR         0.0910
      3 C          31.1080  -70.5680   23.6020 C.2       1 THR         0.2293
      4 O          29.9970  -70.1920   23.9640 O.2       1 THR        -0.3906
      5 CB         29.9430  -72.2530   22.0840 C.3       1 THR         0.1120
      6 OG1        29.0650  -71.2420   21.5570 O.3       1 THR        -0.3840
      7 CG2        29.2700  -72.9950   23.2430 C.3       1 THR        -0.0314
      8 N          32.2200  -70.1010   24.1290 N.am      1 GLU        -0.2608
      9 CA         32.2170  -68.9420   24.9790 C.3       1 GLU         0.1326
     10 C          32.4210  -67.8120   23.9940 C.2       1 GLU         0.2040
     11 O          31.6720  -66.8190   24.0120 O.2       1 GLU        -0.3944
     12 CB         33.2740  -69.0080   26.0810 C.3       1 GLU        -0.0008
     13 CG         32.8510  -69.9890   27.2090 C.3       1 GLU         0.0044
     14 CD         31.3950  -69.8050   27.6750 C.2       1 GLU         0.0350
     15 OE1        30.8960  -68.6560   27.6930 O.co2     1 GLU        -0.5690
     16 OE2        30.7510  -70.8200   28.0290 O.co2     1 GLU        -0.5690
     17 N          33.4820  -67.8840   23.2150 N.am      1 LEU        -0.2637
     18 CA         33.6490  -66.9940   22.0700 C.3       1 LEU         0.1312
     19 C          33.2900  -67.6430   20.7060 C.2       1 LEU         0.2039
     20 O          33.7200  -67.1490   19.6590 O.2       1 LEU        -0.3944
     21 CB         35.0670  -66.4740   22.0420 C.3       1 LEU        -0.0101
     22 CG         36.0610  -67.5940   21.8690 C.3       1 LEU        -0.0425
     23 CD1        36.4700  -67.8780   20.4250 C.3       1 LEU        -0.0625
     24 CD2        37.1280  -67.0760   22.6530 C.3       1 LEU        -0.0625
     25 N          32.6270  -68.7890   20.6870 N.am      1 ARG        -0.2637
     26 CA         32.2440  -69.3860   19.4030 C.3       1 ARG         0.1311
     27 C          31.0230  -68.6730   18.8460 C.2       1 ARG         0.2039
     28 O          30.1240  -68.2840   19.6040 O.2       1 ARG        -0.3944
     29 CB         31.9530  -70.8760   19.4990 C.3       1 ARG        -0.0092
     30 CG         32.8100  -71.7290   18.6060 C.3       1 ARG        -0.0156
     31 CD         34.2750  -71.4330   18.8230 C.3       1 ARG         0.0627
     32 NE         35.0380  -71.7580   17.6260 N.pl3     1 ARG        -0.2723
     33 CZ         36.0520  -71.0340   17.1630 C.cat     1 ARG         0.2882
     34 NH1        36.4370  -69.9340   17.8020 N.pl3     1 ARG        -0.2849
     35 NH2        36.6830  -71.4100   16.0600 N.pl3     1 ARG        -0.2849
     36 N          31.0000  -68.5050   17.5300 N.am      1 LEU        -0.2637
     37 CA         29.9040  -67.8070   16.8880 C.3       1 LEU         0.1312
     38 C          28.7740  -68.7430   16.5080 C.2       1 LEU         0.2037
     39 O          28.9630  -69.7100   15.7630 O.2       1 LEU        -0.3944
     40 CB         30.3560  -67.0390   15.6480 C.3       1 LEU        -0.0101
     41 CG         31.5490  -66.0990   15.7890 C.3       1 LEU        -0.0425
     42 CD1        31.5850  -65.1840   14.5720 C.3       1 LEU        -0.0625
     43 CD2        31.5070  -65.3180   17.0790 C.3       1 LEU        -0.0625
     44 N          27.6010  -68.4580   17.0470 N.am      1 GLY        -0.2664
     45 CA         26.4360  -69.2020   16.6640 C.3       1 GLY         0.1201
     46 C          25.2680  -68.2540   16.6410 C.2       1 GLY         0.2007
     47 O          25.4050  -67.0640   16.9330 O.2       1 GLY        -0.3947
     48 N          24.1030  -68.8040   16.3510 N.am      1 LEU        -0.2639
     49 CA         22.8490  -68.0700   16.4160 C.3       1 LEU         0.1314
     50 C          21.8190  -68.7200   17.3540 C.2       1 LEU         0.2064
     51 O          21.3310  -69.8140   17.0710 O.2       1 LEU        -0.3942
     52 CB         22.2360  -67.9000   15.0170 C.3       1 LEU        -0.0101
     53 CG         22.2070  -68.9740   13.9120 C.3       1 LEU        -0.0425
     54 CD1        22.6570  -70.3610   14.3690 C.3       1 LEU        -0.0625
     55 CD2        20.8160  -69.0610   13.2840 C.3       1 LEU        -0.0625
     56 N          21.4830  -68.0300   18.4590 N.am      1 PRO        -0.2498
     57 CA         22.3230  -67.0320   19.1190 C.3       1 PRO         0.1337
     58 C          23.1980  -67.4150   20.3210 C.2       1 PRO         0.2033
     59 O          24.4150  -67.5140   20.1980 O.2       1 PRO        -0.3944
     60 CB         21.2820  -66.0230   19.5730 C.3       1 PRO        -0.0104
     61 CG         20.0710  -66.8990   19.9330 C.3       1 PRO        -0.0281
     62 CD         20.2480  -68.2420   19.2230 C.3       1 PRO         0.0369
     63 N          22.5530  -67.7900   21.4290 N.am      1 GLY        -0.2722
     64 CA         23.2400  -67.9190   22.7090 C.3       1 GLY         0.0833
     65 C          23.8090  -66.5770   23.1780 C.2       1 GLY         0.0570
     66 O          23.9440  -66.3160   24.3870 O.co2     1 GLY        -0.5669
     67 OXT        24.1560  -65.7000   22.3670 O.co2     1 GLY        -0.5669
     68 H1         33.1162  -72.1883   23.2397 H         1 THR         0.2016
     69 H2         32.4332  -73.2782   22.2126 H         1 THR         0.2016
     70 H3         31.8695  -73.1330   23.7523 H         1 THR         0.2016
     71 H4         31.7391  -71.1246   21.6438 H         1 THR         0.1125
     72 H5         30.1466  -72.9816   21.2855 H         1 THR         0.0674
     73 H6         28.9009  -70.5870   22.2253 H         1 THR         0.2102
     74 H7         28.3170  -73.4239   22.8997 H         1 THR         0.0258
     75 H8         29.0798  -72.2920   24.0673 H         1 THR         0.0258
     76 H9         29.9298  -73.8020   23.5942 H         1 THR         0.0258
     77 H10        33.0854  -70.5624   23.9338 H         1 GLU         0.1885
     78 H11        31.2357  -68.8367   25.4646 H         1 GLU         0.0801
     79 H12        33.4076  -68.0041   26.5104 H         1 GLU         0.0330
     80 H13        34.2246  -69.3502   25.6460 H         1 GLU         0.0330
     81 H14        33.5144  -69.8324   28.0724 H         1 GLU         0.0433
     82 H15        32.9694  -71.0175   26.8373 H         1 GLU         0.0433
     83 H16        34.1884  -68.5636   23.4129 H         1 LEU         0.1883
     84 H17        32.9716  -66.1395   22.2144 H         1 LEU         0.0800
     85 H18        35.2759  -65.9533   22.9882 H         1 LEU         0.0315
     86 H19        35.1731  -65.7690   21.2043 H         1 LEU         0.0315
     87 H20        35.6706  -68.5273   22.3009 H         1 LEU         0.0298
     88 H21        37.1932  -68.7066   20.4050 H         1 LEU         0.0232
     89 H22        36.9308  -66.9785   19.9907 H         1 LEU         0.0232
     90 H23        35.5806  -68.1535   19.8394 H         1 LEU         0.0232
     91 H24        36.7741  -66.8923   23.6782 H         1 LEU         0.0232
     92 H25        37.4819  -66.1322   22.2127 H         1 LEU         0.0232
     93 H26        37.9534  -67.8028   22.6748 H         1 LEU         0.0232
     94 H27        32.3884  -69.2455   21.5442 H         1 ARG         0.1883
     95 H28        33.0816  -69.2479   18.7035 H         1 ARG         0.0800
     96 H29        30.9001  -71.0403   19.2264 H         1 ARG         0.0313
     97 H30        32.1162  -71.1932   20.5395 H         1 ARG         0.0313
     98 H31        32.5526  -71.5237   17.5564 H         1 ARG         0.0301
     99 H32        32.6197  -72.7891   18.8296 H         1 ARG         0.0301
    100 H33        34.6463  -72.0357   19.6650 H         1 ARG         0.0689
    101 H34        34.3993  -70.3647   19.0538 H         1 ARG         0.0689
    102 H35        34.7743  -72.6054   17.1033 H         1 ARG         0.2642
    103 H36        37.2233  -69.3763   17.4393 H         1 ARG         0.2615
    104 H37        35.9490  -69.6393   18.6599 H         1 ARG         0.2615
    105 H38        36.3871  -72.2619   15.5624 H         1 ARG         0.2615
    106 H39        37.4693  -70.8503   15.7003 H         1 ARG         0.2615
    107 H40        31.7490  -68.8648   16.9736 H         1 LEU         0.1883
    108 H41        29.5108  -67.0785   17.6123 H         1 LEU         0.0800
    109 H42        29.5019  -66.4360   15.3061 H         1 LEU         0.0315
    110 H43        30.6125  -67.7813   14.8778 H         1 LEU         0.0315
    111 H44        32.4676  -66.7041   15.7954 H         1 LEU         0.0298
    112 H45        32.4401  -64.4971   14.6549 H         1 LEU         0.0232
    113 H46        30.6520  -64.6036   14.5219 H         1 LEU         0.0232
    114 H47        31.6890  -65.7905   13.6602 H         1 LEU         0.0232
    115 H48        31.4820  -66.0155   17.9292 H         1 LEU         0.0232
    116 H49        30.6065  -64.6865   17.0962 H         1 LEU         0.0232
    117 H50        32.4019  -64.6826   17.1523 H         1 LEU         0.0232
    118 H51        27.5259  -67.7237   17.7217 H         1 GLY         0.1881
    119 H52        26.2503  -70.0060   17.3914 H         1 GLY         0.0763
    120 H53        26.5829  -69.6381   15.6649 H         1 GLY         0.0763
    121 H54        24.0821  -69.7650   16.0753 H         1 LEU         0.1883
    122 H55        23.0752  -67.0691   16.8123 H         1 LEU         0.0800
    123 H56        22.7607  -67.0412   14.5729 H         1 LEU         0.0315
    124 H57        21.1827  -67.6357   15.1921 H         1 LEU         0.0315
    125 H58        22.9092  -68.6482   13.1305 H         1 LEU         0.0298
    126 H59        22.6052  -71.0608   13.5219 H         1 LEU         0.0232
    127 H60        21.9977  -70.7129   15.1761 H         1 LEU         0.0232
    128 H61        23.6919  -70.3077   14.7378 H         1 LEU         0.0232
    129 H62        20.4980  -68.0599   12.9573 H         1 LEU         0.0232
    130 H63        20.1023  -69.4485   14.0259 H         1 LEU         0.0232
    131 H64        20.8468  -69.7371   12.4169 H         1 LEU         0.0232
    132 H65        22.9915  -66.5909   18.3650 H         1 PRO         0.0802
    133 H66        21.0337  -65.3218   18.7627 H         1 PRO         0.0313
    134 H67        21.6352  -65.4602   20.4496 H         1 PRO         0.0313
    135 H68        19.1432  -66.4147   19.5945 H         1 PRO         0.0287
    136 H69        20.0286  -67.0523   21.0214 H         1 PRO         0.0287
    137 H70        20.3625  -69.0630   19.9460 H         1 PRO         0.0524
    138 H71        19.3990  -68.4557   18.5570 H         1 PRO         0.0524
    139 H72        21.5739  -67.9874   21.3795 H         1 GLY         0.1873
    140 H73        24.0647  -68.6388   22.6011 H         1 GLY         0.0689
    141 H74        22.5275  -68.2877   23.4616 H         1 GLY         0.0689
@<TRIPOS>BOND
     1    1    2 1  
     2    2    3 1  
     3    2    5 1  
     4    3    4 2  
     5    3    8 am 
     6    5    6 1  
     7    5    7 1  
     8    8    9 1  
     9    9   10 1  
    10    9   12 1  
    11   10   11 2  
    12   10   17 am 
    13   12   13 1  
    14   13   14 1  
    15   14   15 ar 
    16   14   16 ar 
    17   17   18 1  
    18   18   19 1  
    19   18   21 1  
    20   19   20 2  
    21   19   25 am 
    22   21   22 1  
    23   22   23 1  
    24   22   24 1  
    25   25   26 1  
    26   26   27 1  
    27   26   29 1  
    28   27   28 2  
    29   27   36 am 
    30   29   30 1  
    31   30   31 1  
    32   31   32 1  
    33   32   33 ar 
    34   33   34 ar 
    35   33   35 ar 
    36   36   37 1  
    37   37   38 1  
    38   37   40 1  
    39   38   39 2  
    40   38   44 am 
    41   40   41 1  
    42   41   42 1  
    43   41   43 1  
    44   44   45 1  
    45   45   46 1  
    46   46   47 2  
    47   46   48 am 
    48   48   49 1  
    49   49   50 1  
    50   49   52 1  
    51   50   51 2  
    52   50   56 am 
    53   52   53 1  
    54   53   54 1  
    55   53   55 1  
    56   56   57 1  
    57   56   62 1  
    58   57   58 1  
    59   57   60 1  
    60   58   59 2  
    61   58   63 am 
    62   60   61 1  
    63   61   62 1  
    64   63   64 1  
    65   64   65 1  
    66   65   66 ar 
    67   65   67 ar 
    68    1   68 1  
    69    1   69 1  
    70    1   70 1  
    71    2   71 1  
    72    5   72 1  
    73    6   73 1  
    74    7   74 1  
    75    7   75 1  
    76    7   76 1  
    77    8   77 1  
    78    9   78 1  
    79   12   79 1  
    80   12   80 1  
    81   13   81 1  
    82   13   82 1  
    83   17   83 1  
    84   18   84 1  
    85   21   85 1  
    86   21   86 1  
    87   22   87 1  
    88   23   88 1  
    89   23   89 1  
    90   23   90 1  
    91   24   91 1  
    92   24   92 1  
    93   24   93 1  
    94   25   94 1  
    95   26   95 1  
    96   29   96 1  
    97   29   97 1  
    98   30   98 1  
    99   30   99 1  
   100   31  100 1  
   101   31  101 1  
   102   32  102 1  
   103   34  103 1  
   104   34  104 1  
   105   35  105 1  
   106   35  106 1  
   107   36  107 1  
   108   37  108 1  
   109   40  109 1  
   110   40  110 1  
   111   41  111 1  
   112   42  112 1  
   113   42  113 1  
   114   42  114 1  
   115   43  115 1  
   116   43  116 1  
   117   43  117 1  
   118   44  118 1  
   119   45  119 1  
   120   45  120 1  
   121   48  121 1  
   122   49  122 1  
   123   52  123 1  
   124   52  124 1  
   125   53  125 1  
   126   54  126 1  
   127   54  127 1  
   128   54  128 1  
   129   55  129 1  
   130   55  130 1  
   131   55  131 1  
   132   57  132 1  
   133   60  133 1  
   134   60  134 1  
   135   61  135 1  
   136   61  136 1  
   137   62  137 1  
   138   62  138 1  
   139   63  139 1  
   140   64  140 1  
   141   64  141 1  
@<TRIPOS>SUBSTRUCTURE
     1 THR         1

