### 
### Created by X-TOOL on Mon Sep 10 21:13:29 2018
### 

@<TRIPOS>MOLECULE
5ab1_ligand
  199   208     1     0     0
SMALL
GAST_HUCK


@<TRIPOS>ATOM
      1 C11         4.2680   80.1500  171.8860 C.3       1 BCD         0.1884
      2 C21         4.8030   78.8390  172.5380 C.3       1 BCD         0.1341
      3 O21         6.2110   78.8540  172.8000 O.3       1 BCD        -0.3841
      4 C31         4.3770   77.5920  171.6880 C.3       1 BCD         0.1144
      5 O31         4.7180   76.3950  172.4040 O.3       1 BCD        -0.3864
      6 C41         2.8640   77.6230  171.2610 C.3       1 BCD         0.1184
      7 O41         2.5100   76.6670  170.2280 O.3       1 BCD        -0.3401
      8 C51         2.4300   79.0270  170.7110 C.3       1 BCD         0.1134
      9 O51         2.8740   80.0980  171.5610 O.3       1 BCD        -0.3405
     10 C61         0.8980   79.1910  170.5000 C.3       1 BCD         0.0730
     11 O61         0.5960   80.2060  169.5400 O.3       1 BCD        -0.3924
     12 C12         2.1030   75.3120  170.5540 C.3       1 BCD         0.1885
     13 C22         0.6600   75.0570  171.1230 C.3       1 BCD         0.1341
     14 O22         0.1450   76.0640  172.0090 O.3       1 BCD        -0.3841
     15 C32         0.4980   73.6370  171.7870 C.3       1 BCD         0.1145
     16 O32        -0.1840   72.7500  170.8850 O.3       1 BCD        -0.3864
     17 C42         1.7980   72.9290  172.3400 C.3       1 BCD         0.1191
     18 O42         2.2730   73.1980  173.6890 O.3       1 BCD        -0.3401
     19 C52         3.0480   73.2770  171.4720 C.3       1 BCD         0.1204
     20 O52         3.1200   74.7080  171.3650 O.3       1 BCD        -0.3398
     21 C62         3.1990   72.5670  170.0900 C.3       1 BCD         0.1041
     22 C13         1.6010   73.5660  174.9040 C.3       1 BCD         0.1884
     23 C23         0.5940   72.5860  175.6080 C.3       1 BCD         0.1341
     24 O23        -0.4380   72.1130  174.7350 O.3       1 BCD        -0.3841
     25 C33        -0.0260   73.1900  176.9310 C.3       1 BCD         0.1144
     26 O33         0.5630   72.5930  178.0950 O.3       1 BCD        -0.3864
     27 C43         0.1150   74.7440  177.0400 C.3       1 BCD         0.1184
     28 O43        -0.7450   75.4990  177.9180 O.3       1 BCD        -0.3401
     29 C53         0.1010   75.4000  175.6190 C.3       1 BCD         0.1134
     30 O53         1.1300   74.9120  174.7370 O.3       1 BCD        -0.3405
     31 C63         0.1600   76.9560  175.6100 C.3       1 BCD         0.0730
     32 O63         1.4410   77.4720  175.2510 O.3       1 BCD        -0.3924
     33 C14        -1.7220   75.0340  178.8730 C.3       1 BCD         0.1884
     34 C24        -3.2060   75.3450  178.5430 C.3       1 BCD         0.1341
     35 O24        -3.7810   74.4360  177.5960 O.3       1 BCD        -0.3841
     36 C34        -3.2700   76.8410  178.1110 C.3       1 BCD         0.1144
     37 O34        -4.5860   77.2600  177.7340 O.3       1 BCD        -0.3864
     38 C44        -2.7290   77.7950  179.2210 C.3       1 BCD         0.1184
     39 O44        -2.4130   79.0430  178.5510 O.3       1 BCD        -0.3401
     40 C54        -1.4860   77.2240  179.9970 C.3       1 BCD         0.1134
     41 O54        -1.4540   75.7710  180.0800 O.3       1 BCD        -0.3405
     42 C64        -1.3550   77.7260  181.4610 C.3       1 BCD         0.0730
     43 O64        -2.0450   76.9010  182.4030 O.3       1 BCD        -0.3924
     44 C15        -2.6440   80.3030  179.2190 C.3       1 BCD         0.1884
     45 C25        -3.2580   81.3410  178.2330 C.3       1 BCD         0.1341
     46 O25        -4.2990   80.7420  177.4490 O.3       1 BCD        -0.3841
     47 C35        -2.1870   82.0010  177.3130 C.3       1 BCD         0.1144
     48 O35        -2.7780   83.0820  176.5840 O.3       1 BCD        -0.3864
     49 C45        -0.9620   82.5030  178.1360 C.3       1 BCD         0.1184
     50 O45         0.0240   83.2300  177.3580 O.3       1 BCD        -0.3401
     51 C55        -0.3880   81.3230  178.9900 C.3       1 BCD         0.1134
     52 O55        -1.4260   80.7810  179.8450 O.3       1 BCD        -0.3405
     53 C65         0.8390   81.7280  179.8650 C.3       1 BCD         0.0730
     54 O65         2.0750   81.4510  179.2010 O.3       1 BCD        -0.3924
     55 C16         0.7680   82.5880  176.3020 C.3       1 BCD         0.1884
     56 C26         2.1770   83.2250  176.1970 C.3       1 BCD         0.1341
     57 O26         2.0920   84.6400  175.9940 O.3       1 BCD        -0.3841
     58 C36         2.9800   82.5230  175.0600 C.3       1 BCD         0.1144
     59 O36         3.3470   81.1820  175.4280 O.3       1 BCD        -0.3864
     60 C46         2.1930   82.4830  173.7080 C.3       1 BCD         0.1184
     61 O46         2.3220   83.7250  172.9680 O.3       1 BCD        -0.3401
     62 C56         0.6920   82.0620  173.9020 C.3       1 BCD         0.1134
     63 O56         0.0700   82.7060  175.0430 O.3       1 BCD        -0.3405
     64 C66         0.4830   80.5090  173.9010 C.3       1 BCD         0.0730
     65 O66        -0.6090   80.0810  174.7110 O.3       1 BCD        -0.3924
     66 C17         3.3820   83.9130  171.9750 C.3       1 BCD         0.1884
     67 C27         2.9270   83.6850  170.4960 C.3       1 BCD         0.1341
     68 O27         1.5040   83.5070  170.4210 O.3       1 BCD        -0.3841
     69 C37         3.6790   82.5720  169.6870 C.3       1 BCD         0.1144
     70 O37         3.9040   83.0300  168.3400 O.3       1 BCD        -0.3864
     71 C47         5.0420   82.0060  170.2400 C.3       1 BCD         0.1184
     72 O47         5.0520   80.6660  170.7940 O.3       1 BCD        -0.3401
     73 C57         5.6470   82.8980  171.3660 C.3       1 BCD         0.1134
     74 O57         4.6650   83.3370  172.3410 O.3       1 BCD        -0.3405
     75 C67         6.5370   84.0490  170.8220 C.3       1 BCD         0.0730
     76 O67         7.4270   84.5300  171.8280 O.3       1 BCD        -0.3924
     77 N           6.6420   73.0170  169.4780 N.2       1 TA5        -0.2242
     78 CA          6.2000   73.2790  168.2430 C.2       1 TA5         0.0625
     79 CB          7.0440   73.6430  167.0880 C.3       1 TA5         0.0824
     80 OG          8.4280   73.6920  167.5030 O.3       1 TA5        -0.3710
     81 NT          4.5030   72.8170  169.5480 N.pl3     1 TA5        -0.1786
     82 C           4.8250   73.1530  168.2730 C.2       1 TA5         0.0717
     83 N2          5.6130   72.7520  170.2260 N.2       1 TA5        -0.1018
     84 C20        11.6890   73.1600  159.4690 C.3       1 HP6         0.0508
     85 C21        11.2940   73.8860  160.7740 C.3       1 HP6        -0.0294
     86 C22        10.6730   72.9170  161.8110 C.3       1 HP6        -0.0510
     87 C23        10.3560   73.6800  163.1200 C.3       1 HP6        -0.0529
     88 C24         9.9840   72.7590  164.2980 C.3       1 HP6        -0.0510
     89 C25         9.8220   73.6320  165.5700 C.3       1 HP6        -0.0293
     90 C26         9.3690   72.8450  166.8190 C.3       1 HP6         0.0496
     91 C1         12.2610   73.6790  157.1790 C.3       1 MAN         0.1879
     92 C2         12.7490   74.8330  156.2700 C.3       1 MAN         0.1341
     93 C3         11.6110   75.8780  156.0680 C.3       1 MAN         0.1141
     94 C4         10.3340   75.1630  155.5430 C.3       1 MAN         0.1119
     95 C5          9.9500   73.9910  156.4970 C.3       1 MAN         0.1130
     96 C6          8.7970   73.1630  155.9090 C.3       1 MAN         0.0730
     97 O1         12.0430   74.1730  158.5090 O.3       1 MAN        -0.3487
     98 O2         13.1730   74.2800  155.0260 O.3       1 MAN        -0.3841
     99 O3         11.9880   76.9300  155.1610 O.3       1 MAN        -0.3864
    100 O4          9.2280   76.0580  155.4290 O.3       1 MAN        -0.3865
    101 O5         11.0570   73.0810  156.6640 O.3       1 MAN        -0.3405
    102 O6          9.2040   72.5890  154.6650 O.3       1 MAN        -0.3924
    103 H1          4.3535   80.9081  172.6785 H         1 BCD         0.0938
    104 H2          4.3069   78.7475  173.5155 H         1 BCD         0.0671
    105 H3          6.4673   78.0289  173.1950 H         1 BCD         0.2101
    106 H4          4.9698   77.6060  170.7615 H         1 BCD         0.0648
    107 H5          4.4613   75.6371  171.8920 H         1 BCD         0.2100
    108 H6          2.2708   77.3963  172.1591 H         1 BCD         0.0651
    109 H7          2.9143   79.1468  169.7307 H         1 BCD         0.0647
    110 H8          0.4340   79.4608  171.4601 H         1 BCD         0.0584
    111 H9          0.4834   78.2348  170.1483 H         1 BCD         0.0584
    112 H10         0.9457   81.0372  169.8389 H         1 BCD         0.2095
    113 H11         2.1140   74.7750  169.5941 H         1 BCD         0.0938
    114 H12        -0.0008   75.0653  170.2436 H         1 BCD         0.0671
    115 H13         0.7166   76.1425  172.7637 H         1 BCD         0.2101
    116 H14        -0.1560   73.7874  172.6586 H         1 BCD         0.0648
    117 H15        -0.2777   71.8968  171.2921 H         1 BCD         0.2100
    118 H16         1.5988   71.8493  172.2725 H         1 BCD         0.0651
    119 H17         3.9217   72.9528  172.0564 H         1 BCD         0.0654
    120 H18         2.4368   72.9532  169.3972 H         1 BCD         0.0675
    121 H19         3.0607   71.4836  170.2204 H         1 BCD         0.0675
    122 H20         2.4134   73.6377  175.6421 H         1 BCD         0.0938
    123 H21         1.1811   71.7053  175.9074 H         1 BCD         0.0671
    124 H22        -1.0129   71.5278  175.2141 H         1 BCD         0.2101
    125 H23        -1.0997   72.9509  176.9269 H         1 BCD         0.0648
    126 H24         0.1746   72.9719  178.8748 H         1 BCD         0.2100
    127 H25         1.1261   74.8967  177.4453 H         1 BCD         0.0651
    128 H26        -0.8639   75.1172  175.1731 H         1 BCD         0.0647
    129 H27        -0.0932   77.3205  176.6165 H         1 BCD         0.0584
    130 H28        -0.5811   77.3290  174.8877 H         1 BCD         0.0584
    131 H29         1.6689   77.1721  174.3788 H         1 BCD         0.2095
    132 H30        -1.5991   73.9511  179.0217 H         1 BCD         0.0938
    133 H31        -3.7879   75.2389  179.4704 H         1 BCD         0.0671
    134 H32        -4.6858   74.6775  177.4361 H         1 BCD         0.2101
    135 H33        -2.6213   76.9494  177.2293 H         1 BCD         0.0648
    136 H34        -4.5654   78.1755  177.4814 H         1 BCD         0.2100
    137 H35        -3.5282   77.9714  179.9559 H         1 BCD         0.0651
    138 H36        -0.5954   77.5548  179.4426 H         1 BCD         0.0647
    139 H37        -1.7675   78.7440  181.5198 H         1 BCD         0.0584
    140 H38        -0.2885   77.7464  181.7295 H         1 BCD         0.0584
    141 H39        -1.6921   76.0197  182.3686 H         1 BCD         0.2095
    142 H40        -3.3801   80.1312  180.0181 H         1 BCD         0.0938
    143 H41        -3.7105   82.1410  178.8374 H         1 BCD         0.0671
    144 H42        -3.9407   80.0179  176.9493 H         1 BCD         0.2101
    145 H43        -1.8333   81.2463  176.5952 H         1 BCD         0.0648
    146 H44        -2.1220   83.4814  176.0247 H         1 BCD         0.2100
    147 H45        -1.3562   83.2355  178.8557 H         1 BCD         0.0651
    148 H46        -0.0608   80.5357  178.2950 H         1 BCD         0.0647
    149 H47         0.8065   81.1632  180.8083 H         1 BCD         0.0584
    150 H48         0.7835   82.8052  180.0805 H         1 BCD         0.0584
    151 H49         2.7983   81.7090  179.7602 H         1 BCD         0.2095
    152 H50         0.8777   81.5207  176.5445 H         1 BCD         0.0938
    153 H51         2.7052   83.0526  177.1463 H         1 BCD         0.0671
    154 H52         1.6333   85.0367  176.7253 H         1 BCD         0.2101
    155 H53         3.9023   83.1007  174.8998 H         1 BCD         0.0648
    156 H54         3.8337   80.7817  174.7171 H         1 BCD         0.2100
    157 H55         2.6618   81.6999  173.0941 H         1 BCD         0.0651
    158 H56         0.1588   82.4374  173.0161 H         1 BCD         0.0647
    159 H57         1.4015   80.0340  174.2760 H         1 BCD         0.0584
    160 H58         0.2977   80.1834  172.8668 H         1 BCD         0.0584
    161 H59        -0.4582   80.3474  175.6104 H         1 BCD         0.2095
    162 H60         3.5761   84.9951  172.0123 H         1 BCD         0.0938
    163 H61         3.1522   84.6263  169.9733 H         1 BCD         0.0671
    164 H62         1.2528   82.7513  170.9389 H         1 BCD         0.2101
    165 H63         2.9895   81.7160  169.6448 H         1 BCD         0.0648
    166 H64         4.3596   82.3560  167.8495 H         1 BCD         0.2100
    167 H65         5.7344   82.0099  169.3853 H         1 BCD         0.0651
    168 H66         6.3317   82.2401  171.9213 H         1 BCD         0.0647
    169 H67         5.8917   84.8751  170.4886 H         1 BCD         0.0584
    170 H68         7.1252   83.6764  169.9704 H         1 BCD         0.0584
    171 H69         7.9583   85.2315  171.4701 H         1 BCD         0.2095
    172 H70         6.7397   74.6290  166.7070 H         1 BCD         0.0677
    173 H71         6.9250   72.8906  166.2945 H         1 BCD         0.0677
    174 H72         4.1372   73.2948  167.4407 H         1 BCD         0.0899
    175 H73        10.8409   72.5671  159.0959 H         1 BCD         0.0561
    176 H74        12.5477   72.4972  159.6515 H         1 BCD         0.0561
    177 H75        10.5599   74.6700  160.5363 H         1 BCD         0.0287
    178 H76        12.1928   74.3456  161.2110 H         1 BCD         0.0287
    179 H77        11.3848   72.1061  162.0246 H         1 BCD         0.0266
    180 H78         9.7444   72.4917  161.4026 H         1 BCD         0.0266
    181 H79         9.5121   74.3596  162.9304 H         1 BCD         0.0265
    182 H80        11.2424   74.2663  163.4038 H         1 BCD         0.0265
    183 H81        10.7808   72.0172  164.4556 H         1 BCD         0.0266
    184 H82         9.0385   72.2408  164.0802 H         1 BCD         0.0266
    185 H83         9.0737   74.4109  165.3619 H         1 BCD         0.0287
    186 H84        10.7907   74.1039  165.7912 H         1 BCD         0.0287
    187 H85         8.8881   71.9013  166.5222 H         1 BCD         0.0561
    188 H86        10.2307   72.6292  167.4678 H         1 BCD         0.0561
    189 H87        13.0438   72.9070  157.2135 H         1 BCD         0.0937
    190 H88        13.6039   75.3332  156.7485 H         1 BCD         0.0671
    191 H89        11.3848   76.3321  157.0440 H         1 BCD         0.0648
    192 H90        10.5533   74.7525  154.5463 H         1 BCD         0.0647
    193 H91         9.6548   74.4049  157.4724 H         1 BCD         0.0647
    194 H92         7.9259   73.8141  155.7440 H         1 BCD         0.0584
    195 H93         8.5273   72.3606  156.6114 H         1 BCD         0.0584
    196 H94        13.4970   74.9754  154.4656 H         1 BCD         0.2101
    197 H95        12.7683   77.3630  155.4868 H         1 BCD         0.2100
    198 H96         8.4795   75.5914  155.0760 H         1 BCD         0.2100
    199 H97         8.4889   72.0779  154.3043 H         1 BCD         0.2095
@<TRIPOS>BOND
     1    2    1 1  
     2    9    1 1  
     3    1   72 1  
     4    2    3 1  
     5    4    2 1  
     6    4    5 1  
     7    6    4 1  
     8    7    6 1  
     9    6    8 1  
    10   12    7 1  
    11    8    9 1  
    12    8   10 1  
    13   10   11 1  
    14   12   13 1  
    15   20   12 1  
    16   13   14 1  
    17   15   13 1  
    18   15   16 1  
    19   17   15 1  
    20   17   18 1  
    21   19   17 1  
    22   18   22 1  
    23   19   20 1  
    24   21   19 1  
    25   81   21 1  
    26   22   23 1  
    27   22   30 1  
    28   23   24 1  
    29   23   25 1  
    30   25   26 1  
    31   25   27 1  
    32   27   28 1  
    33   29   27 1  
    34   28   33 1  
    35   30   29 1  
    36   29   31 1  
    37   31   32 1  
    38   33   34 1  
    39   33   41 1  
    40   34   35 1  
    41   34   36 1  
    42   36   37 1  
    43   36   38 1  
    44   38   39 1  
    45   40   38 1  
    46   39   44 1  
    47   41   40 1  
    48   40   42 1  
    49   42   43 1  
    50   44   45 1  
    51   44   52 1  
    52   45   46 1  
    53   45   47 1  
    54   47   48 1  
    55   47   49 1  
    56   49   50 1  
    57   51   49 1  
    58   55   50 1  
    59   52   51 1  
    60   51   53 1  
    61   53   54 1  
    62   56   55 1  
    63   63   55 1  
    64   56   57 1  
    65   58   56 1  
    66   58   59 1  
    67   60   58 1  
    68   61   60 1  
    69   60   62 1  
    70   66   61 1  
    71   62   63 1  
    72   62   64 1  
    73   64   65 1  
    74   67   66 1  
    75   74   66 1  
    76   67   68 1  
    77   69   67 1  
    78   69   70 1  
    79   71   69 1  
    80   72   71 1  
    81   71   73 1  
    82   73   74 1  
    83   73   75 1  
    84   75   76 1  
    85   78   77 1  
    86   77   83 2  
    87   79   78 1  
    88   78   82 2  
    89   80   79 1  
    90   90   80 1  
    91   82   81 1  
    92   81   83 1  
    93   84   85 1  
    94   97   84 1  
    95   85   86 1  
    96   86   87 1  
    97   87   88 1  
    98   88   89 1  
    99   89   90 1  
   100   91   92 1  
   101   91   97 1  
   102   91  101 1  
   103   92   93 1  
   104   92   98 1  
   105   93   94 1  
   106   93   99 1  
   107   94   95 1  
   108   94  100 1  
   109   95   96 1  
   110   95  101 1  
   111   96  102 1  
   112    1  103 1  
   113    2  104 1  
   114    3  105 1  
   115    4  106 1  
   116    5  107 1  
   117    6  108 1  
   118    8  109 1  
   119   10  110 1  
   120   10  111 1  
   121   11  112 1  
   122   12  113 1  
   123   13  114 1  
   124   14  115 1  
   125   15  116 1  
   126   16  117 1  
   127   17  118 1  
   128   19  119 1  
   129   21  120 1  
   130   21  121 1  
   131   22  122 1  
   132   23  123 1  
   133   24  124 1  
   134   25  125 1  
   135   26  126 1  
   136   27  127 1  
   137   29  128 1  
   138   31  129 1  
   139   31  130 1  
   140   32  131 1  
   141   33  132 1  
   142   34  133 1  
   143   35  134 1  
   144   36  135 1  
   145   37  136 1  
   146   38  137 1  
   147   40  138 1  
   148   42  139 1  
   149   42  140 1  
   150   43  141 1  
   151   44  142 1  
   152   45  143 1  
   153   46  144 1  
   154   47  145 1  
   155   48  146 1  
   156   49  147 1  
   157   51  148 1  
   158   53  149 1  
   159   53  150 1  
   160   54  151 1  
   161   55  152 1  
   162   56  153 1  
   163   57  154 1  
   164   58  155 1  
   165   59  156 1  
   166   60  157 1  
   167   62  158 1  
   168   64  159 1  
   169   64  160 1  
   170   65  161 1  
   171   66  162 1  
   172   67  163 1  
   173   68  164 1  
   174   69  165 1  
   175   70  166 1  
   176   71  167 1  
   177   73  168 1  
   178   75  169 1  
   179   75  170 1  
   180   76  171 1  
   181   79  172 1  
   182   79  173 1  
   183   82  174 1  
   184   84  175 1  
   185   84  176 1  
   186   85  177 1  
   187   85  178 1  
   188   86  179 1  
   189   86  180 1  
   190   87  181 1  
   191   87  182 1  
   192   88  183 1  
   193   88  184 1  
   194   89  185 1  
   195   89  186 1  
   196   90  187 1  
   197   90  188 1  
   198   91  189 1  
   199   92  190 1  
   200   93  191 1  
   201   94  192 1  
   202   95  193 1  
   203   96  194 1  
   204   96  195 1  
   205   98  196 1  
   206   99  197 1  
   207  100  198 1  
   208  102  199 1  
@<TRIPOS>SUBSTRUCTURE
     1 BCD         1

