5ab1_ligand
  -I-interpret- 

199208  0  0  0  0  0  0  0  0999 V2000
    4.2680   80.1500  171.8860 C   0  0  0  0  0
    4.8030   78.8390  172.5380 C   0  0  0  0  0
    6.2110   78.8540  172.8000 O   0  0  0  0  0
    4.3770   77.5920  171.6880 C   0  0  0  0  0
    4.7180   76.3950  172.4040 O   0  0  0  0  0
    2.8640   77.6230  171.2610 C   0  0  0  0  0
    2.5100   76.6670  170.2280 O   0  0  0  0  0
    2.4300   79.0270  170.7110 C   0  0  0  0  0
    2.8740   80.0980  171.5610 O   0  0  0  0  0
    0.8980   79.1910  170.5000 C   0  0  0  0  0
    0.5960   80.2060  169.5400 O   0  0  0  0  0
    2.1030   75.3120  170.5540 C   0  0  0  0  0
    0.6600   75.0570  171.1230 C   0  0  0  0  0
    0.1450   76.0640  172.0090 O   0  0  0  0  0
    0.4980   73.6370  171.7870 C   0  0  0  0  0
   -0.1840   72.7500  170.8850 O   0  0  0  0  0
    1.7980   72.9290  172.3400 C   0  0  0  0  0
    2.2730   73.1980  173.6890 O   0  0  0  0  0
    3.0480   73.2770  171.4720 C   0  0  0  0  0
    3.1200   74.7080  171.3650 O   0  0  0  0  0
    3.1990   72.5670  170.0900 C   0  0  0  0  0
    1.6010   73.5660  174.9040 C   0  0  0  0  0
    0.5940   72.5860  175.6080 C   0  0  0  0  0
   -0.4380   72.1130  174.7350 O   0  0  0  0  0
   -0.0260   73.1900  176.9310 C   0  0  0  0  0
    0.5630   72.5930  178.0950 O   0  0  0  0  0
    0.1150   74.7440  177.0400 C   0  0  0  0  0
   -0.7450   75.4990  177.9180 O   0  0  0  0  0
    0.1010   75.4000  175.6190 C   0  0  0  0  0
    1.1300   74.9120  174.7370 O   0  0  0  0  0
    0.1600   76.9560  175.6100 C   0  0  0  0  0
    1.4410   77.4720  175.2510 O   0  0  0  0  0
   -1.7220   75.0340  178.8730 C   0  0  0  0  0
   -3.2060   75.3450  178.5430 C   0  0  0  0  0
   -3.7810   74.4360  177.5960 O   0  0  0  0  0
   -3.2700   76.8410  178.1110 C   0  0  0  0  0
   -4.5860   77.2600  177.7340 O   0  0  0  0  0
   -2.7290   77.7950  179.2210 C   0  0  0  0  0
   -2.4130   79.0430  178.5510 O   0  0  0  0  0
   -1.4860   77.2240  179.9970 C   0  0  0  0  0
   -1.4540   75.7710  180.0800 O   0  0  0  0  0
   -1.3550   77.7260  181.4610 C   0  0  0  0  0
   -2.0450   76.9010  182.4030 O   0  0  0  0  0
   -2.6440   80.3030  179.2190 C   0  0  0  0  0
   -3.2580   81.3410  178.2330 C   0  0  0  0  0
   -4.2990   80.7420  177.4490 O   0  0  0  0  0
   -2.1870   82.0010  177.3130 C   0  0  0  0  0
   -2.7780   83.0820  176.5840 O   0  0  0  0  0
   -0.9620   82.5030  178.1360 C   0  0  0  0  0
    0.0240   83.2300  177.3580 O   0  0  0  0  0
   -0.3880   81.3230  178.9900 C   0  0  0  0  0
   -1.4260   80.7810  179.8450 O   0  0  0  0  0
    0.8390   81.7280  179.8650 C   0  0  0  0  0
    2.0750   81.4510  179.2010 O   0  0  0  0  0
    0.7680   82.5880  176.3020 C   0  0  0  0  0
    2.1770   83.2250  176.1970 C   0  0  0  0  0
    2.0920   84.6400  175.9940 O   0  0  0  0  0
    2.9800   82.5230  175.0600 C   0  0  0  0  0
    3.3470   81.1820  175.4280 O   0  0  0  0  0
    2.1930   82.4830  173.7080 C   0  0  0  0  0
    2.3220   83.7250  172.9680 O   0  0  0  0  0
    0.6920   82.0620  173.9020 C   0  0  0  0  0
    0.0700   82.7060  175.0430 O   0  0  0  0  0
    0.4830   80.5090  173.9010 C   0  0  0  0  0
   -0.6090   80.0810  174.7110 O   0  0  0  0  0
    3.3820   83.9130  171.9750 C   0  0  0  0  0
    2.9270   83.6850  170.4960 C   0  0  0  0  0
    1.5040   83.5070  170.4210 O   0  0  0  0  0
    3.6790   82.5720  169.6870 C   0  0  0  0  0
    3.9040   83.0300  168.3400 O   0  0  0  0  0
    5.0420   82.0060  170.2400 C   0  0  0  0  0
    5.0520   80.6660  170.7940 O   0  0  0  0  0
    5.6470   82.8980  171.3660 C   0  0  0  0  0
    4.6650   83.3370  172.3410 O   0  0  0  0  0
    6.5370   84.0490  170.8220 C   0  0  0  0  0
    7.4270   84.5300  171.8280 O   0  0  0  0  0
    6.6420   73.0170  169.4780 N   0  0  0  0  0
    6.2000   73.2790  168.2430 C   0  0  0  0  0
    7.0440   73.6430  167.0880 C   0  0  0  0  0
    8.4280   73.6920  167.5030 O   0  0  0  0  0
    4.5030   72.8170  169.5480 N   0  0  0  0  0
    4.8250   73.1530  168.2730 C   0  0  0  0  0
    5.6130   72.7520  170.2260 N   0  0  0  0  0
   11.6890   73.1600  159.4690 C   0  0  0  0  0
   11.2940   73.8860  160.7740 C   0  0  0  0  0
   10.6730   72.9170  161.8110 C   0  0  0  0  0
   10.3560   73.6800  163.1200 C   0  0  0  0  0
    9.9840   72.7590  164.2980 C   0  0  0  0  0
    9.8220   73.6320  165.5700 C   0  0  0  0  0
    9.3690   72.8450  166.8190 C   0  0  0  0  0
   12.2610   73.6790  157.1790 C   0  0  0  0  0
   12.7490   74.8330  156.2700 C   0  0  0  0  0
   11.6110   75.8780  156.0680 C   0  0  0  0  0
   10.3340   75.1630  155.5430 C   0  0  0  0  0
    9.9500   73.9910  156.4970 C   0  0  0  0  0
    8.7970   73.1630  155.9090 C   0  0  0  0  0
   12.0430   74.1730  158.5090 O   0  0  0  0  0
   13.1730   74.2800  155.0260 O   0  0  0  0  0
   11.9880   76.9300  155.1610 O   0  0  0  0  0
    9.2280   76.0580  155.4290 O   0  0  0  0  0
   11.0570   73.0810  156.6640 O   0  0  0  0  0
    9.2040   72.5890  154.6650 O   0  0  0  0  0
    4.3886   80.8814  172.6851 H   0  0  0  0  0
    4.3374   78.7679  173.5210 H   0  0  0  0  0
    6.4302   79.6301  173.3208 H   0  0  0  0  0
    4.9301   77.6148  170.7490 H   0  0  0  0  0
    5.6474   76.4203  172.6432 H   0  0  0  0  0
    2.3470   77.3698  172.1866 H   0  0  0  0  0
    2.9136   79.0806  169.7356 H   0  0  0  0  0
    0.4514   79.4782  171.4519 H   0  0  0  0  0
    0.5011   78.2448  170.1323 H   0  0  0  0  0
   -0.3561   80.2760  169.4387 H   0  0  0  0  0
    2.0042   74.8283  169.5822 H   0  0  0  0  0
    0.0505   75.1077  170.2208 H   0  0  0  0  0
   -0.7358   75.8143  172.2979 H   0  0  0  0  0
   -0.0817   73.8480  172.6856 H   0  0  0  0  0
   -0.2787   71.8878  171.2964 H   0  0  0  0  0
    1.4328   71.9023  172.3148 H   0  0  0  0  0
    3.9049   72.8600  172.0011 H   0  0  0  0  0
    2.4459   72.9549  169.4041 H   0  0  0  0  0
    3.0664   71.4933  170.2228 H   0  0  0  0  0
    2.3591   73.4786  175.6823 H   0  0  0  0  0
    1.1972   71.7231  175.8901 H   0  0  0  0  0
   -1.0190   71.5216  175.2191 H   0  0  0  0  0
   -1.0896   72.9573  176.8783 H   0  0  0  0  0
    0.1705   72.9759  178.8830 H   0  0  0  0  0
    1.0759   74.8144  177.5497 H   0  0  0  0  0
   -0.8757   75.0903  175.2472 H   0  0  0  0  0
   -0.0612   77.2992  176.6206 H   0  0  0  0  0
   -0.5560   77.3078  174.8673 H   0  0  0  0  0
    1.4132   78.4315  175.2636 H   0  0  0  0  0
   -1.6243   73.9490  178.9106 H   0  0  0  0  0
   -3.8301   75.1930  179.4236 H   0  0  0  0  0
   -4.6953   74.6800  177.4344 H   0  0  0  0  0
   -2.6269   76.9086  177.2335 H   0  0  0  0  0
   -4.5652   78.1852  177.4787 H   0  0  0  0  0
   -3.4838   77.9257  179.9965 H   0  0  0  0  0
   -0.6633   77.5991  179.3883 H   0  0  0  0  0
   -1.7952   78.7220  181.5094 H   0  0  0  0  0
   -0.2968   77.7113  181.7218 H   0  0  0  0  0
   -1.9286   77.2593  183.2860 H   0  0  0  0  0
   -3.3717   80.1543  180.0168 H   0  0  0  0  0
   -3.6868   82.1377  178.8409 H   0  0  0  0  0
   -4.6634   81.3969  176.8491 H   0  0  0  0  0
   -1.8254   81.2486  176.6121 H   0  0  0  0  0
   -2.1152   83.4855  176.0188 H   0  0  0  0  0
   -1.3093   83.2701  178.8281 H   0  0  0  0  0
   -0.0403   80.5726  178.2800 H   0  0  0  0  0
    0.8081   81.1506  180.7890 H   0  0  0  0  0
    0.7850   82.7994  180.0582 H   0  0  0  0  0
    2.8060   81.7117  179.7661 H   0  0  0  0  0
    0.8696   81.5283  176.5363 H   0  0  0  0  0
    2.7077   83.0765  177.1374 H   0  0  0  0  0
    2.9769   85.0071  175.9328 H   0  0  0  0  0
    3.8796   83.1217  174.9170 H   0  0  0  0  0
    3.8388   80.7775  174.7096 H   0  0  0  0  0
    2.6549   81.7041  173.1013 H   0  0  0  0  0
    0.1689   82.4332  173.0207 H   0  0  0  0  0
    1.3881   80.0567  174.3062 H   0  0  0  0  0
    0.2675   80.2084  172.8757 H   0  0  0  0  0
   -0.6828   79.1248  174.6674 H   0  0  0  0  0
    3.5922   84.9823  172.0001 H   0  0  0  0  0
    3.2218   84.6050  169.9913 H   0  0  0  0  0
    1.2477   83.3690  169.5062 H   0  0  0  0  0
    2.9952   81.7276  169.7733 H   0  0  0  0  0
    4.3644   82.3489  167.8443 H   0  0  0  0  0
    5.6186   81.9971  169.3150 H   0  0  0  0  0
    6.3251   82.2482  171.9192 H   0  0  0  0  0
    5.8920   84.8689  170.5061 H   0  0  0  0  0
    7.1266   83.6692  169.9876 H   0  0  0  0  0
    7.9639   85.2389  171.4663 H   0  0  0  0  0
    6.7422   74.6195  166.7093 H   0  0  0  0  0
    6.9256   72.8983  166.3009 H   0  0  0  0  0
    4.1366   73.2949  167.4399 H   0  0  0  0  0
   10.8608   72.5546  159.1006 H   0  0  0  0  0
   12.5279   72.4862  159.6433 H   0  0  0  0  0
   10.5518   74.6462  160.5303 H   0  0  0  0  0
   12.1944   74.3199  161.2090 H   0  0  0  0  0
   11.3809   72.1160  162.0239 H   0  0  0  0  0
    9.7514   72.4990  161.4060 H   0  0  0  0  0
    9.4971   74.3218  162.9238 H   0  0  0  0  0
   11.2548   74.2270  163.4047 H   0  0  0  0  0
   10.7669   72.0165  164.4525 H   0  0  0  0  0
    9.0518   72.2366  164.0830 H   0  0  0  0  0
    9.0511   74.3727  165.3576 H   0  0  0  0  0
   10.7989   74.0602  165.7946 H   0  0  0  0  0
    8.9147   71.8936  166.5424 H   0  0  0  0  0
   10.2163   72.5993  167.4591 H   0  0  0  0  0
   13.0309   72.9077  157.2001 H   0  0  0  0  0
   13.5875   75.3515  156.7349 H   0  0  0  0  0
   11.4136   76.3393  157.0356 H   0  0  0  0  0
   10.5625   74.7796  154.5486 H   0  0  0  0  0
    9.6655   74.4430  157.4472 H   0  0  0  0  0
    7.9346   73.8090  155.7446 H   0  0  0  0  0
    8.5311   72.3674  156.6050 H   0  0  0  0  0
   13.4788   74.9854  154.4512 H   0  0  0  0  0
   11.2588   77.5474  155.0680 H   0  0  0  0  0
    8.4625   75.5791  155.1030 H   0  0  0  0  0
    8.4815   72.0725  154.3006 H   0  0  0  0  0
  2  1  1  0  0  0
  9  1  1  0  0  0
  1 72  1  0  0  0
  2  3  1  0  0  0
  4  2  1  0  0  0
  4  5  1  0  0  0
  6  4  1  0  0  0
  7  6  1  0  0  0
  6  8  1  0  0  0
 12  7  1  0  0  0
  8  9  1  0  0  0
  8 10  1  0  0  0
 10 11  1  0  0  0
 12 13  1  0  0  0
 20 12  1  0  0  0
 13 14  1  0  0  0
 15 13  1  0  0  0
 15 16  1  0  0  0
 17 15  1  0  0  0
 17 18  1  0  0  0
 19 17  1  0  0  0
 18 22  1  0  0  0
 19 20  1  0  0  0
 21 19  1  0  0  0
 81 21  1  0  0  0
 22 23  1  0  0  0
 22 30  1  0  0  0
 23 24  1  0  0  0
 23 25  1  0  0  0
 25 26  1  0  0  0
 25 27  1  0  0  0
 27 28  1  0  0  0
 29 27  1  0  0  0
 28 33  1  0  0  0
 30 29  1  0  0  0
 29 31  1  0  0  0
 31 32  1  0  0  0
 33 34  1  0  0  0
 33 41  1  0  0  0
 34 35  1  0  0  0
 34 36  1  0  0  0
 36 37  1  0  0  0
 36 38  1  0  0  0
 38 39  1  0  0  0
 40 38  1  0  0  0
 39 44  1  0  0  0
 41 40  1  0  0  0
 40 42  1  0  0  0
 42 43  1  0  0  0
 44 45  1  0  0  0
 44 52  1  0  0  0
 45 46  1  0  0  0
 45 47  1  0  0  0
 47 48  1  0  0  0
 47 49  1  0  0  0
 49 50  1  0  0  0
 51 49  1  0  0  0
 55 50  1  0  0  0
 52 51  1  0  0  0
 51 53  1  0  0  0
 53 54  1  0  0  0
 56 55  1  0  0  0
 63 55  1  0  0  0
 56 57  1  0  0  0
 58 56  1  0  0  0
 58 59  1  0  0  0
 60 58  1  0  0  0
 61 60  1  0  0  0
 60 62  1  0  0  0
 66 61  1  0  0  0
 62 63  1  0  0  0
 62 64  1  0  0  0
 64 65  1  0  0  0
 67 66  1  0  0  0
 74 66  1  0  0  0
 67 68  1  0  0  0
 69 67  1  0  0  0
 69 70  1  0  0  0
 71 69  1  0  0  0
 72 71  1  0  0  0
 71 73  1  0  0  0
 73 74  1  0  0  0
 73 75  1  0  0  0
 75 76  1  0  0  0
 78 77  4  0  0  0
 77 83  4  0  0  0
 79 78  1  0  0  0
 78 82  4  0  0  0
 80 79  1  0  0  0
 90 80  1  0  0  0
 82 81  4  0  0  0
 81 83  4  0  0  0
 84 85  1  0  0  0
 97 84  1  0  0  0
 85 86  1  0  0  0
 86 87  1  0  0  0
 87 88  1  0  0  0
 88 89  1  0  0  0
 89 90  1  0  0  0
 91 92  1  0  0  0
 91 97  1  0  0  0
 91101  1  0  0  0
 92 93  1  0  0  0
 92 98  1  0  0  0
 93 94  1  0  0  0
 93 99  1  0  0  0
 94 95  1  0  0  0
 94100  1  0  0  0
 95 96  1  0  0  0
 95101  1  0  0  0
 96102  1  0  0  0
  1103  1  0  0  0
  2104  1  0  0  0
  3105  1  0  0  0
  4106  1  0  0  0
  5107  1  0  0  0
  6108  1  0  0  0
  8109  1  0  0  0
 10110  1  0  0  0
 10111  1  0  0  0
 11112  1  0  0  0
 12113  1  0  0  0
 13114  1  0  0  0
 14115  1  0  0  0
 15116  1  0  0  0
 16117  1  0  0  0
 17118  1  0  0  0
 19119  1  0  0  0
 21120  1  0  0  0
 21121  1  0  0  0
 22122  1  0  0  0
 23123  1  0  0  0
 24124  1  0  0  0
 25125  1  0  0  0
 26126  1  0  0  0
 27127  1  0  0  0
 29128  1  0  0  0
 31129  1  0  0  0
 31130  1  0  0  0
 32131  1  0  0  0
 33132  1  0  0  0
 34133  1  0  0  0
 35134  1  0  0  0
 36135  1  0  0  0
 37136  1  0  0  0
 38137  1  0  0  0
 40138  1  0  0  0
 42139  1  0  0  0
 42140  1  0  0  0
 43141  1  0  0  0
 44142  1  0  0  0
 45143  1  0  0  0
 46144  1  0  0  0
 47145  1  0  0  0
 48146  1  0  0  0
 49147  1  0  0  0
 51148  1  0  0  0
 53149  1  0  0  0
 53150  1  0  0  0
 54151  1  0  0  0
 55152  1  0  0  0
 56153  1  0  0  0
 57154  1  0  0  0
 58155  1  0  0  0
 59156  1  0  0  0
 60157  1  0  0  0
 62158  1  0  0  0
 64159  1  0  0  0
 64160  1  0  0  0
 65161  1  0  0  0
 66162  1  0  0  0
 67163  1  0  0  0
 68164  1  0  0  0
 69165  1  0  0  0
 70166  1  0  0  0
 71167  1  0  0  0
 73168  1  0  0  0
 75169  1  0  0  0
 75170  1  0  0  0
 76171  1  0  0  0
 79172  1  0  0  0
 79173  1  0  0  0
 82174  1  0  0  0
 84175  1  0  0  0
 84176  1  0  0  0
 85177  1  0  0  0
 85178  1  0  0  0
 86179  1  0  0  0
 86180  1  0  0  0
 87181  1  0  0  0
 87182  1  0  0  0
 88183  1  0  0  0
 88184  1  0  0  0
 89185  1  0  0  0
 89186  1  0  0  0
 90187  1  0  0  0
 90188  1  0  0  0
 91189  1  0  0  0
 92190  1  0  0  0
 93191  1  0  0  0
 94192  1  0  0  0
 95193  1  0  0  0
 96194  1  0  0  0
 96195  1  0  0  0
 98196  1  0  0  0
 99197  1  0  0  0
100198  1  0  0  0
102199  1  0  0  0
M  END
$$$$
