1rek_ligand
  -I-interpret- 

 78 81  0  0  0  0  0  0  0  0999 V2000
   17.4550   38.8030   20.0470 O   0  0  0  0  0
   16.0770   39.1820   19.8310 C   0  0  0  0  0
   15.7230   40.5320   19.8190 C   0  0  0  0  0
   14.3960   40.9000   19.5690 C   0  0  0  0  0
   13.3930   39.9380   19.3460 C   0  0  0  0  0
   13.7820   38.5800   19.3750 C   0  0  0  0  0
   15.1130   38.1930   19.6170 C   0  0  0  0  0
   12.0380   40.3230   19.3110 C   0  0  0  0  0
   11.6680   41.5020   19.3660 O   0  0  0  0  0
   11.1770   39.3140   19.1060 N   0  0  0  0  0
    9.7340   39.4380   19.2820 C   0  0  0  0  0
    8.9540   39.1420   17.9680 C   0  0  0  0  0
    7.5320   38.5560   18.0870 C   0  0  0  0  0
    6.6600   39.3150   19.0750 C   0  0  0  0  0
    6.8090   38.7520   20.4870 C   0  0  0  0  0
    8.1220   39.0270   21.0620 N   0  3  0  0  0
    8.9290   40.4050   17.2870 O   0  0  0  0  0
    9.3870   38.5830   20.4960 C   0  0  0  0  0
    8.5220   40.3350   15.8860 C   0  0  0  0  0
    8.6230   39.2810   15.2610 O   0  0  0  0  0
    7.7830   41.3680   15.3100 C   0  0  0  0  0
    7.8520   41.6350   13.9320 C   0  0  0  0  0
    7.1140   42.6800   13.3620 C   0  0  0  0  0
    6.3030   43.4920   14.1580 C   0  0  0  0  0
    6.2370   43.2300   15.5290 C   0  0  0  0  0
    6.9760   42.1860   16.0990 C   0  0  0  0  0
    5.5260   44.5080   13.5760 C   0  0  0  0  0
    4.9230   44.2530   12.5260 O   0  0  0  0  0
    5.3570   45.7720   14.1560 C   0  0  0  0  0
    4.0420   46.2140   14.2960 C   0  0  0  0  0
    3.7410   47.5190   14.7160 C   0  0  0  0  0
    2.3560   47.9510   14.8370 O   0  0  0  0  0
    4.7600   48.4250   14.9870 C   0  0  0  0  0
    6.0790   48.0090   14.8580 C   0  0  0  0  0
    6.3720   46.7090   14.4220 C   0  0  0  0  0
    7.7500   46.3220   14.2310 O   0  0  0  0  0
   15.5120   36.7540   19.6510 C   0  0  0  0  0
   15.1790   36.0260   18.3340 C   0  0  0  0  0
   14.9010   36.0550   20.8600 C   0  0  0  0  0
   16.1880   36.3800   17.2120 C   0  0  0  0  0
    1.2890   47.0600   15.0440 C   0  0  0  0  0
   17.5296   37.8461   20.0262 H   0  0  0  0  0
   16.4772   41.2969   20.0037 H   0  0  0  0  0
   14.1328   41.9575   19.5464 H   0  0  0  0  0
   13.0294   37.8100   19.2050 H   0  0  0  0  0
   11.5516   38.4122   18.8114 H   0  0  0  0  0
    9.4157   40.4599   19.4883 H   0  0  0  0  0
    9.4665   38.3344   17.4453 H   0  0  0  0  0
    7.6235   37.5300   18.4435 H   0  0  0  0  0
    7.0608   38.6239   17.1065 H   0  0  0  0  0
    5.6187   39.2158   18.7684 H   0  0  0  0  0
    6.9699   40.3600   19.0821 H   0  0  0  0  0
    6.6852   37.6704   20.4328 H   0  0  0  0  0
    6.0586   39.2264   21.1194 H   0  0  0  0  0
    8.0858   38.5160   21.9440 H   0  0  0  0  0
    8.1892   40.0414   20.9785 H   0  0  0  0  0
   10.1729   38.6822   21.2448 H   0  0  0  0  0
    9.3006   37.5401   20.1911 H   0  0  0  0  0
    8.4895   41.0195   13.2972 H   0  0  0  0  0
    7.1730   42.8610   12.2888 H   0  0  0  0  0
    5.6012   43.8471   16.1638 H   0  0  0  0  0
    6.9194   42.0108   17.1733 H   0  0  0  0  0
    3.2254   45.5273   14.0732 H   0  0  0  0  0
    4.5279   49.4444   15.2954 H   0  0  0  0  0
    6.8903   48.6966   15.0969 H   0  0  0  0  0
    8.3221   47.0608   14.4510 H   0  0  0  0  0
   16.5964   36.7142   19.7542 H   0  0  0  0  0
   14.1849   36.3362   18.0121 H   0  0  0  0  0
   15.2280   34.9520   18.5135 H   0  0  0  0  0
   15.2486   36.5397   21.7724 H   0  0  0  0  0
   13.8143   36.1191   20.8044 H   0  0  0  0  0
   15.2047   35.0082   20.8648 H   0  0  0  0  0
   16.1618   37.4539   17.0271 H   0  0  0  0  0
   17.1913   36.0878   17.5219 H   0  0  0  0  0
   15.9180   35.8464   16.3007 H   0  0  0  0  0
    1.2410   46.3539   14.2150 H   0  0  0  0  0
    1.4459   46.5176   15.9764 H   0  0  0  0  0
    0.3555   47.6199   15.1006 H   0  0  0  0  0
  1  2  1  0  0  0
  2  3  4  0  0  0
  2  7  4  0  0  0
  3  4  4  0  0  0
  4  5  4  0  0  0
  5  6  4  0  0  0
  5  8  1  0  0  0
  6  7  4  0  0  0
  7 37  1  0  0  0
  8  9  2  0  0  0
  8 10  1  0  0  0
 10 11  1  0  0  0
 11 12  1  0  0  0
 11 18  1  0  0  0
 12 13  1  0  0  0
 12 17  1  0  0  0
 13 14  1  0  0  0
 14 15  1  0  0  0
 15 16  1  0  0  0
 16 18  1  0  0  0
 17 19  1  0  0  0
 19 20  2  0  0  0
 19 21  1  0  0  0
 21 22  4  0  0  0
 21 26  4  0  0  0
 22 23  4  0  0  0
 23 24  4  0  0  0
 24 25  4  0  0  0
 24 27  1  0  0  0
 25 26  4  0  0  0
 27 28  2  0  0  0
 27 29  1  0  0  0
 29 30  4  0  0  0
 29 35  4  0  0  0
 30 31  4  0  0  0
 31 32  1  0  0  0
 31 33  4  0  0  0
 32 41  1  0  0  0
 33 34  4  0  0  0
 34 35  4  0  0  0
 35 36  1  0  0  0
 37 38  1  0  0  0
 37 39  1  0  0  0
 38 40  1  0  0  0
  1 42  1  0  0  0
  3 43  1  0  0  0
  4 44  1  0  0  0
  6 45  1  0  0  0
 10 46  1  0  0  0
 11 47  1  0  0  0
 12 48  1  0  0  0
 13 49  1  0  0  0
 13 50  1  0  0  0
 14 51  1  0  0  0
 14 52  1  0  0  0
 15 53  1  0  0  0
 15 54  1  0  0  0
 16 55  1  0  0  0
 16 56  1  0  0  0
 18 57  1  0  0  0
 18 58  1  0  0  0
 22 59  1  0  0  0
 23 60  1  0  0  0
 25 61  1  0  0  0
 26 62  1  0  0  0
 30 63  1  0  0  0
 33 64  1  0  0  0
 34 65  1  0  0  0
 36 66  1  0  0  0
 37 67  1  0  0  0
 38 68  1  0  0  0
 38 69  1  0  0  0
 39 70  1  0  0  0
 39 71  1  0  0  0
 39 72  1  0  0  0
 40 73  1  0  0  0
 40 74  1  0  0  0
 40 75  1  0  0  0
 41 76  1  0  0  0
 41 77  1  0  0  0
 41 78  1  0  0  0
M  END
$$$$
