1stp_ligand
  -I-interpret- 

 32 33  0  0  0  0  0  0  0  0999 V2000
    9.0510    4.5760  -14.4590 C   0  0  0  0  0
    8.1470    5.3730  -14.1720 O   0  0  0  0  0
    8.6970    3.4980  -15.1320 O   0  0  0  0  0
   10.3210    4.4130  -13.7020 C   0  0  0  0  0
   10.2150    3.2470  -12.6580 C   0  0  0  0  0
   11.4870    2.9720  -11.9640 C   0  0  0  0  0
   11.6270    1.5580  -11.4020 C   0  0  0  0  0
   10.9230    1.0860  -10.1950 C   0  0  0  0  0
   10.8840    2.1030   -8.6620 S   0  0  0  0  0
   10.2990    0.6200   -7.7600 C   0  0  0  0  0
   11.1420   -0.5430   -8.2740 C   0  0  0  0  0
   12.4430   -0.6310   -7.6130 N   0  0  0  0  0
   13.4670   -0.4430   -8.4530 C   0  0  0  0  0
   14.6920   -0.4460   -8.2050 O   0  0  0  0  0
   12.9740   -0.2370   -9.6950 N   0  0  0  0  0
   11.5130   -0.2650   -9.7270 C   0  0  0  0  0
    9.4723    2.9567  -15.2978 H   0  0  0  0  0
   10.5284    5.3401  -13.1676 H   0  0  0  0  0
   11.1179    4.1767  -14.4071 H   0  0  0  0  0
    9.9315    2.3440  -13.1986 H   0  0  0  0  0
    9.4848    3.5430  -11.9048 H   0  0  0  0  0
   11.5343    3.6532  -11.1144 H   0  0  0  0  0
   12.2799    3.0962  -12.7016 H   0  0  0  0  0
   12.6748    1.5170  -11.1043 H   0  0  0  0  0
   11.1994    0.9391  -12.1908 H   0  0  0  0  0
    9.9037    1.0869  -10.5812 H   0  0  0  0  0
    9.2371    0.4453   -7.9333 H   0  0  0  0  0
   10.4104    0.7431   -6.6827 H   0  0  0  0  0
   10.5509   -1.4435   -8.1074 H   0  0  0  0  0
   12.5578   -0.8162   -6.6165 H   0  0  0  0  0
   13.5564   -0.0797  -10.5175 H   0  0  0  0  0
   11.1228   -1.0044  -10.4264 H   0  0  0  0  0
  1  2  2  0  0  0
  1  3  1  0  0  0
  1  4  1  0  0  0
  4  5  1  0  0  0
  5  6  1  0  0  0
  6  7  1  0  0  0
  7  8  1  0  0  0
  8  9  1  0  0  0
  8 16  1  0  0  0
  9 10  1  0  0  0
 10 11  1  0  0  0
 11 12  1  0  0  0
 11 16  1  0  0  0
 12 13  1  0  0  0
 13 14  2  0  0  0
 13 15  1  0  0  0
 15 16  1  0  0  0
  3 17  1  0  0  0
  4 18  1  0  0  0
  4 19  1  0  0  0
  5 20  1  0  0  0
  5 21  1  0  0  0
  6 22  1  0  0  0
  6 23  1  0  0  0
  7 24  1  0  0  0
  7 25  1  0  0  0
  8 26  1  0  0  0
 10 27  1  0  0  0
 10 28  1  0  0  0
 11 29  1  0  0  0
 12 30  1  0  0  0
 15 31  1  0  0  0
 16 32  1  0  0  0
M  END
$$$$
