6g4y_ligand
  -I-interpret- 

 63 67  0  0  0  0  0  0  0  0999 V2000
  183.7990   22.8120    2.4050 C   0  0  0  0  0
  188.2910   15.0770   -1.6980 C   0  0  0  0  0
  185.1820   22.2570    2.6690 C   0  0  0  0  0
  186.9550   16.3720    1.2600 C   0  0  0  0  0
  185.3880   20.9170    2.1000 C   0  0  0  0  0
  185.7080   19.8260    1.6850 C   0  0  0  0  0
  186.1590   18.6080    1.0810 C   0  0  0  0  0
  186.5270   17.5370    1.8550 C   0  0  0  0  0
  187.0160   16.2690   -0.1150 C   0  0  0  0  0
  185.4020   24.3410    1.6660 N   0  0  0  0  0
  183.9950   24.2210    1.8900 C   0  0  0  0  0
  185.9840   25.5010    1.0490 C   0  0  0  0  0
  185.4130   22.2750    4.0750 O   0  0  0  0  0
  187.4570   15.0240   -0.5490 O   0  0  0  0  0
  187.3740   15.0250   -2.8940 C   0  0  0  0  0
  186.8860   16.3470   -3.2600 N   0  0  0  0  0
  186.5870   17.3530   -2.3710 C   0  0  0  0  0
  186.1690   18.4040   -3.0360 N   0  0  0  0  0
  186.2040   18.0870   -4.3590 C   0  0  0  0  0
  185.7940   19.0720   -5.3250 C   0  0  0  0  0
  185.5150   20.2850   -4.7510 N   0  0  0  0  0
  185.7120   18.8560   -6.5230 O   0  0  0  0  0
  186.6420   16.7890   -4.5400 C   0  0  0  0  0
  186.8310   16.0540   -5.7670 C   0  0  0  0  0
  187.8800   15.4690   -5.9900 O   0  0  0  0  0
  185.7730   16.1750   -6.6560 N   0  0  0  0  0
  185.7490   15.7550   -8.0550 C   0  0  0  0  0
  186.9130   14.9290   -8.5750 C   0  0  0  0  0
  186.7060   14.5830  -10.0350 C   0  0  0  0  0
  185.4780   13.8780  -10.2010 O   0  0  0  0  0
  184.3800   14.7040   -9.8230 C   0  0  0  0  0
  184.4620   15.0110   -8.3460 C   0  0  0  0  0
  186.6340   17.3390   -0.9170 C   0  0  0  0  0
  186.2090   18.4980   -0.2880 C   0  0  0  0  0
  186.1250   23.2680    2.0800 C   0  0  0  0  0
  187.3350   23.1330    1.9950 O   0  0  0  0  0
  183.1961   22.8079    3.3131 H   0  0  0  0  0
  183.2646   22.2007    1.6778 H   0  0  0  0  0
  188.9947   14.2446   -1.7087 H   0  0  0  0  0
  188.8900   15.9876   -1.7043 H   0  0  0  0  0
  187.2480   15.5243    1.8794 H   0  0  0  0  0
  186.4805   17.6086    2.9417 H   0  0  0  0  0
  183.6343   24.9646    2.6007 H   0  0  0  0  0
  183.4242   24.4011    0.9790 H   0  0  0  0  0
  185.5686   25.6260    0.0490 H   0  0  0  0  0
  185.7591   26.3821    1.6500 H   0  0  0  0  0
  187.0642   25.3717    0.9816 H   0  0  0  0  0
  184.8312   21.6418    4.5019 H   0  0  0  0  0
  186.5165   14.4015   -2.6410 H   0  0  0  0  0
  187.9340   14.6212   -3.7375 H   0  0  0  0  0
  185.2201   21.0689   -5.3331 H   0  0  0  0  0
  185.6022   20.4037   -3.7417 H   0  0  0  0  0
  184.9207   16.6030   -6.2942 H   0  0  0  0  0
  185.8337   16.7006   -8.5905 H   0  0  0  0  0
  186.9790   14.0066   -7.9979 H   0  0  0  0  0
  187.8312   15.5077   -8.4745 H   0  0  0  0  0
  187.5289   13.9537  -10.3741 H   0  0  0  0  0
  186.6730   15.5023  -10.6197 H   0  0  0  0  0
  183.4458   14.1834  -10.0335 H   0  0  0  0  0
  184.4152   15.6349  -10.3890 H   0  0  0  0  0
  183.6120   15.6285   -8.0557 H   0  0  0  0  0
  184.4451   14.0796   -7.7800 H   0  0  0  0  0
  185.9049   19.3488   -0.8977 H   0  0  0  0  0
  3  1  1  0  0  0
  1 11  1  0  0  0
 14  2  1  0  0  0
  2 15  1  0  0  0
  5  3  1  0  0  0
  3 13  1  0  0  0
  3 35  1  0  0  0
  4  8  4  0  0  0
  9  4  4  0  0  0
  6  5  3  0  0  0
  7  6  1  0  0  0
  8  7  4  0  0  0
  7 34  4  0  0  0
  9 14  1  0  0  0
  9 33  4  0  0  0
 11 10  1  0  0  0
 10 12  1  0  0  0
 10 35  1  0  0  0
 15 16  1  0  0  0
 16 17  4  0  0  0
 16 23  4  0  0  0
 17 18  4  0  0  0
 17 33  1  0  0  0
 18 19  4  0  0  0
 19 20  1  0  0  0
 19 23  4  0  0  0
 20 21  1  0  0  0
 20 22  2  0  0  0
 23 24  1  0  0  0
 24 25  2  0  0  0
 24 26  1  0  0  0
 26 27  1  0  0  0
 27 28  1  0  0  0
 27 32  1  0  0  0
 28 29  1  0  0  0
 29 30  1  0  0  0
 30 31  1  0  0  0
 31 32  1  0  0  0
 33 34  4  0  0  0
 35 36  2  0  0  0
  1 37  1  0  0  0
  1 38  1  0  0  0
  2 39  1  0  0  0
  2 40  1  0  0  0
  4 41  1  0  0  0
  8 42  1  0  0  0
 11 43  1  0  0  0
 11 44  1  0  0  0
 12 45  1  0  0  0
 12 46  1  0  0  0
 12 47  1  0  0  0
 13 48  1  0  0  0
 15 49  1  0  0  0
 15 50  1  0  0  0
 21 51  1  0  0  0
 21 52  1  0  0  0
 26 53  1  0  0  0
 27 54  1  0  0  0
 28 55  1  0  0  0
 28 56  1  0  0  0
 29 57  1  0  0  0
 29 58  1  0  0  0
 31 59  1  0  0  0
 31 60  1  0  0  0
 32 61  1  0  0  0
 32 62  1  0  0  0
 34 63  1  0  0  0
M  END
$$$$
