1pz5_ligand
  -I-interpret- 

124126  0  0  0  0  0  0  0  0999 V2000
   -9.9150   11.4370   34.7030 N   0  3  0  0  0
  -10.5560   12.7100   35.1390 C   0  0  0  0  0
  -10.1580   13.8830   34.2500 C   0  0  0  0  0
   -9.6660   13.6890   33.1380 O   0  0  0  0  0
  -10.1790   13.0160   36.5880 C   0  0  0  0  0
   -8.6860   12.9780   36.8500 C   0  0  0  0  0
   -8.2860   13.5270   38.5130 S   0  0  0  0  0
   -9.3450   12.4360   39.5010 C   0  0  0  0  0
  -10.3740   15.0980   34.7460 N   0  0  0  0  0
  -10.0460   16.3030   33.9930 C   0  0  0  0  0
   -8.8170   16.9720   34.5940 C   0  0  0  0  0
   -8.6520   16.9920   35.8150 O   0  0  0  0  0
  -11.2350   17.2640   34.0050 C   0  0  0  0  0
  -12.4850   16.6420   33.4110 C   0  0  0  0  0
  -12.4310   16.1940   32.2480 O   0  0  0  0  0
  -13.5240   16.6020   34.1040 O   0  0  0  0  0
   -7.9570   17.5230   33.7420 N   0  0  0  0  0
   -6.7350   18.1520   34.2270 C   0  0  0  0  0
   -6.5590   19.6520   34.0130 C   0  0  0  0  0
   -5.4320   20.1490   33.9650 O   0  0  0  0  0
   -5.5180   17.4110   33.6700 C   0  0  0  0  0
   -5.4330   15.9980   34.1600 C   0  0  0  0  0
   -5.9020   14.8780   33.5360 C   0  0  0  0  0
   -4.8760   15.5620   35.4040 C   0  0  0  0  0
   -5.6690   13.7680   34.3150 N   0  0  0  0  0
   -5.0400   14.1610   35.4680 C   0  0  0  0  0
   -4.2540   16.2200   36.4730 C   0  0  0  0  0
   -4.6020   13.4060   36.5590 C   0  0  0  0  0
   -3.8190   15.4670   37.5570 C   0  0  0  0  0
   -3.9950   14.0760   37.5900 C   0  0  0  0  0
   -7.6670   20.3720   33.8840 N   0  0  0  0  0
   -7.6220   21.8190   33.7260 C   0  0  0  0  0
   -9.0070   22.3540   34.0700 C   0  0  0  0  0
  -10.0000   21.6410   33.9460 O   0  0  0  0  0
   -7.1940   22.2080   32.3010 C   0  0  0  0  0
   -8.2380   21.8870   31.2620 C   0  0  0  0  0
   -9.2830   22.5320   31.1990 O   0  0  0  0  0
   -7.9640   20.8800   30.4410 N   0  0  0  0  0
   -9.0680   23.6030   34.5200 N   0  0  0  0  0
  -10.3290   24.2050   34.9280 C   0  0  0  0  0
  -11.4080   24.2900   33.8630 C   0  0  0  0  0
  -12.5960   24.2590   34.1900 O   0  0  0  0  0
  -10.0970   25.6070   35.4960 C   0  0  0  0  0
   -9.1660   25.6490   36.6880 C   0  0  0  0  0
   -9.3950   27.1720   37.6320 S   0  0  0  0  0
  -11.0670   26.8970   38.3060 C   0  0  0  0  0
  -11.0140   24.4110   32.6010 N   0  0  0  0  0
  -12.0000   24.5140   31.5340 C   0  0  0  0  0
  -12.7730   23.2110   31.3720 C   0  0  0  0  0
  -14.0000   23.2170   31.2220 O   0  0  0  0  0
  -11.3290   24.9170   30.2140 C   0  0  0  0  0
  -12.2890   25.0670   29.0740 C   0  0  0  0  0
  -12.7690   23.9910   28.3570 N   0  0  0  0  0
  -12.9120   26.1600   28.5710 C   0  0  0  0  0
  -13.6440   24.4150   27.4640 C   0  0  0  0  0
  -13.7500   25.7270   27.5730 N   0  0  0  0  0
  -12.0530   22.0950   31.4220 N   0  0  0  0  0
  -12.6650   20.7810   31.2900 C   0  0  0  0  0
  -13.3970   20.4170   32.5800 C   0  0  0  0  0
  -14.4120   19.7200   32.5500 O   0  0  0  0  0
  -11.6020   19.7400   30.9860 C   0  0  0  0  0
  -12.8690   20.8910   33.7060 N   0  0  0  0  0
  -13.4490   20.6230   35.0200 C   0  0  0  0  0
  -14.8720   21.1550   35.1330 C   0  0  0  0  0
  -15.7540   20.3800   35.5570 O   0  0  0  0  0
  -12.5760   21.2350   36.1100 C   0  0  0  0  0
  -15.0870   22.3410   34.8130 O   0  0  0  0  0
  -10.2071   10.6811   35.3224 H   0  0  0  0  0
  -10.2000   11.2242   33.7470 H   0  0  0  0  0
   -8.9007   11.5376   34.7422 H   0  0  0  0  0
  -11.6347   12.5772   35.0555 H   0  0  0  0  0
  -10.6393   12.2509   37.2132 H   0  0  0  0  0
  -10.5230   14.0266   36.8080 H   0  0  0  0  0
   -8.1968   13.6466   36.1416 H   0  0  0  0  0
   -8.3446   11.9490   36.7376 H   0  0  0  0  0
  -10.3875   12.5985   39.2275 H   0  0  0  0  0
   -9.0751   11.3977   39.3082 H   0  0  0  0  0
   -9.2067   12.6583   40.5591 H   0  0  0  0  0
  -10.7797   15.1894   35.6774 H   0  0  0  0  0
   -9.8262   16.0316   32.9605 H   0  0  0  0  0
  -10.9722   18.1343   33.4037 H   0  0  0  0  0
  -11.4476   17.5257   35.0416 H   0  0  0  0  0
  -13.3508   16.9973   34.9615 H   0  0  0  0  0
   -8.1542   17.5052   32.7414 H   0  0  0  0  0
   -6.8287   18.0648   35.3095 H   0  0  0  0  0
   -4.6229   17.9367   34.0026 H   0  0  0  0  0
   -5.6078   17.3855   32.5840 H   0  0  0  0  0
   -6.3904   14.8650   32.5616 H   0  0  0  0  0
   -4.1141   17.3008   36.4549 H   0  0  0  0  0
   -4.7377   12.3249   36.5894 H   0  0  0  0  0
   -3.3330   15.9658   38.3955 H   0  0  0  0  0
   -3.6412   13.5147   38.4548 H   0  0  0  0  0
   -8.5714   19.9004   33.8958 H   0  0  0  0  0
   -6.8785   22.2570   34.3919 H   0  0  0  0  0
   -6.2975   21.6380   32.0571 H   0  0  0  0  0
   -7.0323   23.2858   32.2862 H   0  0  0  0  0
   -8.6343   20.6129   29.7201 H   0  0  0  0  0
   -7.0832   20.3736   30.5313 H   0  0  0  0  0
   -8.2110   24.1528   34.5809 H   0  0  0  0  0
  -10.7084   23.5153   35.6819 H   0  0  0  0  0
  -11.0642   25.9817   35.8308 H   0  0  0  0  0
   -9.6352   26.2006   34.7070 H   0  0  0  0  0
   -8.1370   25.6097   36.3305 H   0  0  0  0  0
   -9.3861   24.7995   37.3346 H   0  0  0  0  0
  -11.7736   26.7787   37.4845 H   0  0  0  0  0
  -11.0665   25.9958   38.9191 H   0  0  0  0  0
  -11.3568   27.7527   38.9158 H   0  0  0  0  0
  -10.0188   24.4319   32.3782 H   0  0  0  0  0
  -12.7121   25.2923   31.8084 H   0  0  0  0  0
  -10.6282   24.1254   29.9488 H   0  0  0  0  0
  -10.8546   25.8857   30.3712 H   0  0  0  0  0
  -12.7738   27.1907   28.8976 H   0  0  0  0  0
  -14.1870   23.7884   26.7565 H   0  0  0  0  0
  -11.0441   22.1611   31.5565 H   0  0  0  0  0
  -13.3813   20.8046   30.4687 H   0  0  0  0  0
  -11.0996   19.9972   30.0535 H   0  0  0  0  0
  -10.8749   19.7173   31.7977 H   0  0  0  0  0
  -12.0712   18.7609   30.8893 H   0  0  0  0  0
  -12.0268   21.4636   33.6495 H   0  0  0  0  0
  -13.4900   19.5413   35.1477 H   0  0  0  0  0
  -15.3638   19.5220   35.7392 H   0  0  0  0  0
  -11.5782   20.7990   36.0621 H   0  0  0  0  0
  -12.5107   22.3125   35.9591 H   0  0  0  0  0
  -13.0173   21.0295   37.0853 H   0  0  0  0  0
  2  1  1  0  0  0
  2  5  1  0  0  0
  3  2  1  0  0  0
  3  4  2  0  0  0
  5  6  1  0  0  0
  6  7  1  0  0  0
  7  8  1  0  0  0
 10  9  1  0  0  0
 10 13  1  0  0  0
 11 10  1  0  0  0
 11 12  2  0  0  0
 13 14  1  0  0  0
 14 15  2  0  0  0
 14 16  1  0  0  0
  9  3  1  0  0  0
 18 17  1  0  0  0
 18 21  1  0  0  0
 19 18  1  0  0  0
 19 20  2  0  0  0
 21 22  1  0  0  0
 22 23  4  0  0  0
 22 24  4  0  0  0
 24 27  4  0  0  0
 24 26  4  0  0  0
 26 28  4  0  0  0
 26 25  4  0  0  0
 23 25  4  0  0  0
 28 30  4  0  0  0
 29 30  4  0  0  0
 27 29  4  0  0  0
 17 11  1  0  0  0
 32 31  1  0  0  0
 32 35  1  0  0  0
 33 32  1  0  0  0
 33 34  2  0  0  0
 35 36  1  0  0  0
 36 38  1  0  0  0
 36 37  2  0  0  0
 31 19  1  0  0  0
 40 39  1  0  0  0
 40 43  1  0  0  0
 41 40  1  0  0  0
 41 42  2  0  0  0
 43 44  1  0  0  0
 44 45  1  0  0  0
 45 46  1  0  0  0
 39 33  1  0  0  0
 48 47  1  0  0  0
 48 51  1  0  0  0
 49 48  1  0  0  0
 49 50  2  0  0  0
 51 52  1  0  0  0
 52 53  4  0  0  0
 52 54  4  0  0  0
 54 56  4  0  0  0
 56 55  4  0  0  0
 53 55  4  0  0  0
 47 41  1  0  0  0
 58 57  1  0  0  0
 58 61  1  0  0  0
 59 58  1  0  0  0
 59 60  2  0  0  0
 57 49  1  0  0  0
 62 63  1  0  0  0
 63 66  1  0  0  0
 63 64  1  0  0  0
 64 65  1  0  0  0
 64 67  2  0  0  0
 59 62  1  0  0  0
  1 68  1  0  0  0
  1 69  1  0  0  0
  1 70  1  0  0  0
  2 71  1  0  0  0
  5 72  1  0  0  0
  5 73  1  0  0  0
  6 74  1  0  0  0
  6 75  1  0  0  0
  8 76  1  0  0  0
  8 77  1  0  0  0
  8 78  1  0  0  0
  9 79  1  0  0  0
 10 80  1  0  0  0
 13 81  1  0  0  0
 13 82  1  0  0  0
 16 83  1  0  0  0
 17 84  1  0  0  0
 18 85  1  0  0  0
 21 86  1  0  0  0
 21 87  1  0  0  0
 23 88  1  0  0  0
 27 89  1  0  0  0
 28 90  1  0  0  0
 29 91  1  0  0  0
 30 92  1  0  0  0
 31 93  1  0  0  0
 32 94  1  0  0  0
 35 95  1  0  0  0
 35 96  1  0  0  0
 38 97  1  0  0  0
 38 98  1  0  0  0
 39 99  1  0  0  0
 40100  1  0  0  0
 43101  1  0  0  0
 43102  1  0  0  0
 44103  1  0  0  0
 44104  1  0  0  0
 46105  1  0  0  0
 46106  1  0  0  0
 46107  1  0  0  0
 47108  1  0  0  0
 48109  1  0  0  0
 51110  1  0  0  0
 51111  1  0  0  0
 54112  1  0  0  0
 55113  1  0  0  0
 57114  1  0  0  0
 58115  1  0  0  0
 61116  1  0  0  0
 61117  1  0  0  0
 61118  1  0  0  0
 62119  1  0  0  0
 63120  1  0  0  0
 65121  1  0  0  0
 66122  1  0  0  0
 66123  1  0  0  0
 66124  1  0  0  0
M  END
$$$$
