### 
### Created by X-TOOL on Mon Sep 10 21:13:12 2018
### 

@<TRIPOS>MOLECULE
2llq_ligand
  324   327     1     0     0
SMALL
GAST_HUCK


@<TRIPOS>ATOM
      1 N          -4.1110   16.0200   -2.6580 N.4       1 ARG         0.2379
      2 CA         -2.9080   15.4290   -2.0230 C.3       1 ARG         0.0651
      3 C          -3.3390   14.3070   -1.0890 C.2       1 ARG         0.2267
      4 O          -3.5340   14.5180    0.1060 O.2       1 ARG        -0.3907
      5 CB         -2.1050   16.5000   -1.2710 C.3       1 ARG         0.0110
      6 CG         -1.5950   17.6000   -2.1910 C.3       1 ARG        -0.0125
      7 CD         -0.0730   17.6650   -2.2200 C.3       1 ARG         0.0629
      8 NE          0.5450   16.3460   -2.0880 N.pl3     1 ARG        -0.2723
      9 CZ          1.4200   16.0290   -1.1350 C.cat     1 ARG         0.2882
     10 NH1         1.7470   16.9090   -0.1960 N.pl3     1 ARG        -0.2849
     11 NH2         1.9580   14.8230   -1.1110 N.pl3     1 ARG        -0.2849
     12 N          -3.5130   13.1200   -1.6610 N.am      1 ALA        -0.2613
     13 CA         -3.9560   11.9380   -0.9230 C.3       1 ALA         0.1283
     14 C          -2.7940   11.0270   -0.5090 C.2       1 ALA         0.2036
     15 O          -3.0270    9.9320   -0.0120 O.2       1 ALA        -0.3944
     16 CB         -5.0010   11.1690   -1.7140 C.3       1 ALA        -0.0244
     17 N          -1.5660   11.4160   -0.8470 N.am      1 ALA        -0.2640
     18 CA         -0.3540   10.6500   -0.5000 C.3       1 ALA         0.1282
     19 C          -0.4720    9.8950    0.8350 C.2       1 ALA         0.2037
     20 O          -0.2040    8.6930    0.8980 O.2       1 ALA        -0.3944
     21 CB          0.8400   11.5920   -0.4420 C.3       1 ALA        -0.0244
     22 N          -0.8900   10.5990    1.8900 N.am      1 ASN        -0.2616
     23 CA         -1.0250    9.9970    3.2190 C.3       1 ASN         0.1476
     24 C          -2.0200    8.8350    3.2080 C.2       1 ASN         0.2063
     25 O          -1.9530    7.9440    4.0540 O.2       1 ASN        -0.3942
     26 CB         -1.4610   11.0460    4.2500 C.3       1 ASN         0.0773
     27 CG         -2.8860   11.5170    4.0460 C.2       1 ASN         0.1780
     28 OD1        -3.1440   12.4360    3.2650 O.2       1 ASN        -0.3970
     29 ND2        -3.8170   10.9050    4.7580 N.am      1 ASN        -0.3007
     30 N          -2.9380    8.8490    2.2500 N.am      1 LEU        -0.2636
     31 CA         -3.9200    7.7900    2.1170 C.3       1 LEU         0.1312
     32 C          -3.2270    6.5150    1.6580 C.2       1 LEU         0.2040
     33 O          -3.7360    5.4380    1.8870 O.2       1 LEU        -0.3944
     34 CB         -5.0380    8.1690    1.1390 C.3       1 LEU        -0.0101
     35 CG         -6.4110    7.5560    1.4260 C.3       1 LEU        -0.0425
     36 CD1        -7.0860    8.2890    2.5710 C.3       1 LEU        -0.0625
     37 CD2        -7.2800    7.5990    0.1790 C.3       1 LEU        -0.0625
     38 N          -2.0740    6.6310    0.9770 N.am      1 TRP        -0.2627
     39 CA         -1.3320    5.4220    0.5810 C.3       1 TRP         0.1354
     40 C          -0.9550    4.6790    1.8800 C.2       1 TRP         0.2077
     41 O          -1.2910    3.4890    2.0550 O.2       1 TRP        -0.3940
     42 CB         -0.0630    5.7290   -0.2380 C.3       1 TRP         0.0042
     43 CG         -0.2060    5.8930   -1.7330 C.2       1 TRP        -0.0418
     44 CD1        -0.2990    7.0800   -2.3940 C.2       1 TRP         0.0167
     45 CD2        -0.1990    4.8710   -2.7620 C.ar      1 TRP        -0.0214
     46 NE1        -0.3230    6.8760   -3.7440 N.pl3     1 TRP        -0.2890
     47 CE2        -0.2640    5.5410   -4.0030 C.ar      1 TRP         0.0603
     48 CE3        -0.1320    3.4660   -2.7790 C.ar      1 TRP        -0.0747
     49 CZ2        -0.2580    4.8670   -5.2220 C.ar      1 TRP        -0.0443
     50 CZ3        -0.1310    2.8170   -4.0140 C.ar      1 TRP        -0.0792
     51 CH2        -0.1930    3.5320   -5.2040 C.ar      1 TRP        -0.0768
     52 N          -0.2280    5.3500    2.8230 N.am      1 PRO        -0.2497
     53 CA          0.0890    4.7390    4.1140 C.3       1 PRO         0.1338
     54 C          -1.1640    4.3520    4.8940 C.2       1 PRO         0.2042
     55 O          -1.0800    3.5780    5.8410 O.2       1 PRO        -0.3944
     56 CB          0.8420    5.8280    4.8710 C.3       1 PRO        -0.0104
     57 CG          1.4160    6.6950    3.8220 C.3       1 PRO        -0.0281
     58 CD          0.4310    6.6670    2.6920 C.3       1 PRO         0.0369
     59 N          -2.3180    4.9170    4.5240 N.am      1 SER        -0.2616
     60 CA         -3.5680    4.5850    5.2010 C.3       1 SER         0.1541
     61 C          -3.8370    3.0660    5.1480 C.2       1 SER         0.2087
     62 O          -3.8450    2.4380    6.2060 O.2       1 SER        -0.3941
     63 CB         -4.7410    5.4100    4.6660 C.3       1 SER         0.0843
     64 OG         -4.6320    6.7630    5.0740 O.3       1 SER        -0.3903
     65 N          -4.0640    2.4110    3.9640 N.am      1 PRO        -0.2498
     66 CA         -4.2460    0.9570    3.9440 C.3       1 PRO         0.1338
     67 C          -2.9920    0.2530    4.4420 C.2       1 PRO         0.2041
     68 O          -3.0600   -0.8650    4.9500 O.2       1 PRO        -0.3944
     69 CB         -4.5070    0.6180    2.4750 C.3       1 PRO        -0.0104
     70 CG         -4.9560    1.8870    1.8660 C.3       1 PRO        -0.0281
     71 CD         -4.2280    2.9680    2.6150 C.3       1 PRO         0.0369
     72 N          -1.8370    0.9110    4.2850 N.am      1 LEU        -0.2637
     73 CA         -0.5820    0.3450    4.7780 C.3       1 LEU         0.1312
     74 C          -0.6640    0.1900    6.3040 C.2       1 LEU         0.2039
     75 O          -0.2900   -0.8410    6.8700 O.2       1 LEU        -0.3944
     76 CB          0.5940    1.2450    4.4000 C.3       1 LEU        -0.0101
     77 CG          1.9530    0.5520    4.3490 C.3       1 LEU        -0.0425
     78 CD1         2.1480   -0.1420    3.0100 C.3       1 LEU        -0.0625
     79 CD2         3.0660    1.5570    4.6000 C.3       1 LEU        -0.0625
     80 N          -1.1780    1.2300    6.9530 N.am      1 MET        -0.2637
     81 CA         -1.3630    1.2390    8.3990 C.3       1 MET         0.1317
     82 C          -2.4350    0.2260    8.7650 C.2       1 MET         0.2039
     83 O          -2.3870   -0.4050    9.8250 O.2       1 MET        -0.3944
     84 CB         -1.7700    2.6390    8.8740 C.3       1 MET        -0.0034
     85 CG         -1.8720    2.7730   10.3820 C.3       1 MET        -0.0024
     86 SD         -2.8350    4.2140   10.8830 S.3       1 MET        -0.1639
     87 CE         -1.9150    5.5440   10.1070 C.3       1 MET        -0.0181
     88 N          -3.4010    0.0730    7.8640 N.am      1 ILE        -0.2635
     89 CA         -4.4770   -0.8850    8.0480 C.3       1 ILE         0.1335
     90 C          -3.9000   -2.2980    8.0260 C.2       1 ILE         0.2042
     91 O          -4.3960   -3.1860    8.7050 O.2       1 ILE        -0.3944
     92 CB         -5.5700   -0.7440    6.9620 C.3       1 ILE        -0.0037
     93 CG1        -6.2300    0.6360    7.0460 C.3       1 ILE        -0.0491
     94 CG2        -6.6200   -1.8420    7.0940 C.3       1 ILE        -0.0582
     95 CD1        -6.8200    0.9530    8.4050 C.3       1 ILE        -0.0648
     96 N          -2.8410   -2.4910    7.2430 N.am      1 LYS        -0.2637
     97 CA         -2.1710   -3.7840    7.1700 C.3       1 LYS         0.1310
     98 C          -1.6120   -4.1270    8.5420 C.2       1 LYS         0.2039
     99 O          -1.7630   -5.2500    9.0270 O.2       1 LYS        -0.3944
    100 CB         -1.0450   -3.7620    6.1310 C.3       1 LYS        -0.0122
    101 CG         -1.1420   -4.8730    5.0940 C.3       1 LYS        -0.0440
    102 CD         -0.1660   -6.0080    5.3810 C.3       1 LYS        -0.0124
    103 CE         -0.6400   -6.8860    6.5280 C.3       1 LYS        -0.0354
    104 NZ          0.2290   -8.0770    6.7140 N.4       1 LYS         0.2185
    105 N          -0.9750   -3.1440    9.1700 N.am      1 ARG        -0.2637
    106 CA         -0.4180   -3.3340   10.5040 C.3       1 ARG         0.1311
    107 C          -1.5510   -3.5400   11.5080 C.2       1 ARG         0.2040
    108 O          -1.4230   -4.3020   12.4660 O.2       1 ARG        -0.3944
    109 CB          0.4460   -2.1370   10.9150 C.3       1 ARG        -0.0092
    110 CG          1.4550   -2.4680   12.0070 C.3       1 ARG        -0.0156
    111 CD          1.1300   -1.7580   13.3110 C.3       1 ARG         0.0627
    112 NE          1.7830   -0.4540   13.4020 N.pl3     1 ARG        -0.2723
    113 CZ          1.4370    0.4940   14.2720 C.cat     1 ARG         0.2882
    114 NH1         0.4460    0.2880   15.1330 N.pl3     1 ARG        -0.2849
    115 NH2         2.0890    1.6500   14.2860 N.pl3     1 ARG        -0.2849
    116 N          -2.6620   -2.8480   11.2750 N.am      1 SER        -0.2616
    117 CA         -3.8360   -2.9610   12.1300 C.3       1 SER         0.1539
    118 C          -4.4710   -4.3370   11.9540 C.2       1 SER         0.2062
    119 O          -4.9690   -4.9340   12.9080 O.2       1 SER        -0.3943
    120 CB         -4.8440   -1.8610   11.7810 C.3       1 SER         0.0843
    121 OG         -4.2750   -0.5690   11.9500 O.3       1 SER        -0.3903
    122 N          -4.4420   -4.8310   10.7210 N.am      1 LYS        -0.2637
    123 CA         -4.9890   -6.1370   10.3940 C.3       1 LYS         0.1310
    124 C          -4.1560   -7.2160   11.0650 C.2       1 LYS         0.2039
    125 O          -4.6650   -8.2700   11.4240 O.2       1 LYS        -0.3944
    126 CB         -5.0080   -6.3440    8.8760 C.3       1 LYS        -0.0122
    127 CG         -5.8920   -7.4960    8.4230 C.3       1 LYS        -0.0440
    128 CD         -7.3570   -7.2370    8.7490 C.3       1 LYS        -0.0124
    129 CE         -8.2710   -8.2470    8.0740 C.3       1 LYS        -0.0354
    130 NZ         -7.9760   -9.6410    8.5070 N.4       1 LYS         0.2185
    131 N          -2.8680   -6.9320   11.2220 N.am      1 LYS        -0.2637
    132 CA         -1.9550   -7.8540   11.8810 C.3       1 LYS         0.1310
    133 C          -2.3500   -7.9670   13.3490 C.2       1 LYS         0.2040
    134 O          -2.3840   -9.0570   13.9190 O.2       1 LYS        -0.3944
    135 CB         -0.5160   -7.3510   11.7510 C.3       1 LYS        -0.0122
    136 CG          0.5380   -8.4280   11.9600 C.3       1 LYS        -0.0440
    137 CD          1.9400   -7.8510   11.8390 C.3       1 LYS        -0.0124
    138 CE          2.9520   -8.9100   11.4350 C.3       1 LYS        -0.0354
    139 NZ          4.2370   -8.3030   10.9930 N.4       1 LYS         0.2185
    140 N          -2.6680   -6.8200   13.9420 N.am      1 ASN        -0.2616
    141 CA         -3.1030   -6.7640   15.3290 C.3       1 ASN         0.1475
    142 C          -4.4630   -7.4420   15.4560 C.2       1 ASN         0.2058
    143 O          -4.7130   -8.1950   16.3970 O.2       1 ASN        -0.3942
    144 CB         -3.1720   -5.3070   15.8090 C.3       1 ASN         0.0773
    145 CG         -4.0180   -5.1360   17.0570 C.2       1 ASN         0.1780
    146 OD1        -5.2060   -4.8240   16.9770 O.2       1 ASN        -0.3970
    147 ND2        -3.4130   -5.3290   18.2130 N.am      1 ASN        -0.3007
    148 N          -5.3310   -7.1830   14.4850 N.am      1 SER        -0.2671
    149 CA         -6.6560   -7.7820   14.4590 C.3       1 SER         0.1173
    150 C          -6.5290   -9.2960   14.2990 C.2       1 SER         0.0623
    151 O          -7.3225  -10.0803   14.8846 O.co2     1 SER        -0.5665
    152 CB         -7.4800   -7.1870   13.3100 C.3       1 SER         0.0789
    153 OG         -8.8570   -7.5170   13.4210 O.3       1 SER        -0.3910
    154 H          -4.6270   15.2908   -3.1504 H         1 ARG         0.2015
    155 H          -4.7055   16.4325   -1.9391 H         1 ARG         0.2015
    156 H          -3.8249   16.7416   -3.3197 H         1 ARG         0.2015
    157 H          -2.2557   15.0191   -2.7941 H         1 ARG         0.1098
    158 H          -1.2413   16.0149   -0.8162 H         1 ARG         0.0347
    159 H          -2.7639   16.9576   -0.5331 H         1 ARG         0.0347
    160 H          -1.9685   18.5540   -1.8190 H         1 ARG         0.0302
    161 H          -1.9450   17.3872   -3.2011 H         1 ARG         0.0302
    162 H           0.2542   18.2760   -1.3787 H         1 ARG         0.0689
    163 H           0.2281   18.0835   -3.1804 H         1 ARG         0.0689
    164 H           0.2911   15.6268   -2.7653 H         1 ARG         0.2642
    165 H           1.3270   17.8385   -0.1997 H         1 ARG         0.2615
    166 H           2.4182   16.6555    0.5290 H         1 ARG         0.2615
    167 H           1.7032   14.1367   -1.8212 H         1 ARG         0.2615
    168 H           2.6283   14.5780   -0.3822 H         1 ARG         0.2615
    169 H          -3.3292   13.0295   -2.6602 H         1 ALA         0.1884
    170 H          -4.4121   12.2947    0.0005 H         1 ALA         0.0797
    171 H          -5.8615   11.8123   -1.8981 H         1 ALA         0.0277
    172 H          -4.5736   10.8508   -2.6649 H         1 ALA         0.0277
    173 H          -5.3149   10.2943   -1.1444 H         1 ALA         0.0277
    174 H          -1.4584   12.2847   -1.3706 H         1 ALA         0.1883
    175 H          -0.2219    9.8986   -1.2785 H         1 ALA         0.0797
    176 H           0.9744   12.0665   -1.4141 H         1 ALA         0.0277
    177 H           0.6622   12.3558    0.3151 H         1 ALA         0.0277
    178 H           1.7356   11.0260   -0.1856 H         1 ALA         0.0277
    179 H          -1.1221   11.5846    1.7670 H         1 ASN         0.1885
    180 H          -0.0465    9.6078    3.5003 H         1 ASN         0.0826
    181 H          -0.8061   11.9107    4.1422 H         1 ASN         0.0551
    182 H          -1.4001   10.5877    5.2371 H         1 ASN         0.0551
    183 H          -4.7930   11.1888    4.6728 H         1 ASN         0.1814
    184 H          -3.5592   10.1491    5.3925 H         1 ASN         0.1814
    185 H          -2.9535    9.6257    1.5891 H         1 LEU         0.1883
    186 H          -4.3829    7.6296    3.0907 H         1 LEU         0.0800
    187 H          -4.7321    7.7947    0.1620 H         1 LEU         0.0315
    188 H          -5.1612    9.2493    1.2162 H         1 LEU         0.0315
    189 H          -6.2747    6.5140    1.7155 H         1 LEU         0.0298
    190 H          -6.4672    8.2120    3.4650 H         1 LEU         0.0232
    191 H          -7.2127    9.3383    2.3045 H         1 LEU         0.0232
    192 H          -8.0611    7.8412    2.7628 H         1 LEU         0.0232
    193 H          -7.4109    8.6344   -0.1356 H         1 LEU         0.0232
    194 H          -6.7973    7.0339   -0.6184 H         1 LEU         0.0232
    195 H          -8.2526    7.1594    0.4001 H         1 LEU         0.0232
    196 H          -1.7138    7.5541    0.7351 H         1 TRP         0.1884
    197 H          -1.9647    4.8176   -0.0690 H         1 TRP         0.0815
    198 H           0.5849    4.8629   -0.1028 H         1 TRP         0.0397
    199 H           0.2898    6.6939    0.1262 H         1 TRP         0.0397
    200 H          -0.3475    8.0567   -1.9126 H         1 TRP         0.0795
    201 H          -0.3768    7.6107   -4.4495 H         1 TRP         0.2216
    202 H          -0.0821    2.8982   -1.8499 H         1 TRP         0.0540
    203 H          -0.3050    5.4129   -6.1643 H         1 TRP         0.0541
    204 H          -0.0806    1.7286   -4.0461 H         1 TRP         0.0510
    205 H          -0.1885    2.9890   -6.1491 H         1 TRP         0.0530
    206 H           0.6590    3.8192    3.9829 H         1 PRO         0.0802
    207 H           1.6140    5.4107    5.5176 H         1 PRO         0.0313
    208 H           0.1846    6.3838    5.5396 H         1 PRO         0.0313
    209 H           2.3966    6.3404    3.5046 H         1 PRO         0.0287
    210 H           1.5751    7.7098    4.1868 H         1 PRO         0.0287
    211 H          -0.2802    7.4914    2.7439 H         1 PRO         0.0524
    212 H           0.9119    6.7932    1.7220 H         1 PRO         0.0524
    213 H          -2.3250    5.5899    3.7575 H         1 SER         0.1884
    214 H          -3.4634    4.8549    6.2519 H         1 SER         0.0823
    215 H          -5.6697    4.9976    5.0604 H         1 SER         0.0606
    216 H          -4.7315    5.3694    3.5768 H         1 SER         0.0606
    217 H          -3.8131    7.1330    4.7361 H         1 SER         0.2097
    218 H          -5.0605    0.6344    4.5926 H         1 PRO         0.0802
    219 H          -5.2535   -0.1689    2.3676 H         1 PRO         0.0313
    220 H          -3.6151    0.2272    1.9851 H         1 PRO         0.0313
    221 H          -6.0369    2.0065    1.9403 H         1 PRO         0.0287
    222 H          -4.7343    1.9198    0.7993 H         1 PRO         0.0287
    223 H          -3.2743    3.2227    2.1527 H         1 PRO         0.0524
    224 H          -4.7755    3.9105    2.6192 H         1 PRO         0.0524
    225 H          -1.8322    1.8170    3.8164 H         1 LEU         0.1883
    226 H          -0.4233   -0.6319    4.3214 H         1 LEU         0.0800
    227 H           0.6624    2.0112    5.1722 H         1 LEU         0.0315
    228 H           0.3939    1.6155    3.3946 H         1 LEU         0.0315
    229 H           1.9876   -0.2048    5.1327 H         1 LEU         0.0298
    230 H           1.3648   -0.8872    2.8710 H         1 LEU         0.0232
    231 H           2.0960    0.5954    2.2090 H         1 LEU         0.0232
    232 H           3.1226   -0.6299    2.9936 H         1 LEU         0.0232
    233 H           3.0322    2.3332    3.8354 H         1 LEU         0.0232
    234 H           2.9318    2.0077    5.5833 H         1 LEU         0.0232
    235 H           4.0291    1.0480    4.5605 H         1 LEU         0.0232
    236 H          -1.4537    2.0538    6.4185 H         1 MET         0.1883
    237 H          -0.4264    0.9724    8.8887 H         1 MET         0.0800
    238 H          -2.7583    2.8454    8.4632 H         1 MET         0.0320
    239 H          -0.9977    3.3315    8.5391 H         1 MET         0.0320
    240 H          -0.8633    2.8878   10.7787 H         1 MET         0.0378
    241 H          -2.3722    1.8839   10.7659 H         1 MET         0.0378
    242 H          -0.8951    5.5511   10.4914 H         1 MET         0.0340
    243 H          -1.8969    5.3903    9.0280 H         1 MET         0.0340
    244 H          -2.3959    6.4960   10.3317 H         1 MET         0.0340
    245 H          -3.3858    0.6448    7.0195 H         1 ILE         0.1883
    246 H          -4.9479   -0.6852    9.0105 H         1 ILE         0.0803
    247 H          -5.0928   -0.8476    5.9875 H         1 ILE         0.0345
    248 H          -7.0487    0.6480    6.3265 H         1 ILE         0.0267
    249 H          -5.4564    1.3778    6.8476 H         1 ILE         0.0267
    250 H          -6.1418   -2.8153    6.9840 H         1 ILE         0.0235
    251 H          -7.0914   -1.7761    8.0746 H         1 ILE         0.0235
    252 H          -7.3746   -1.7166    6.3175 H         1 ILE         0.0235
    253 H          -7.5833    0.2143    8.6496 H         1 ILE         0.0230
    254 H          -6.0317    0.9255    9.1573 H         1 ILE         0.0230
    255 H          -7.2680    1.9464    8.3824 H         1 ILE         0.0230
    256 H          -2.4898   -1.7159    6.6806 H         1 LYS         0.1883
    257 H          -2.8919   -4.5415    6.8625 H         1 LYS         0.0800
    258 H          -0.1060   -3.8995    6.6671 H         1 LYS         0.0312
    259 H          -1.1136   -2.8137    5.5980 H         1 LYS         0.0312
    260 H          -0.8978   -4.4516    4.1189 H         1 LYS         0.0269
    261 H          -2.1536   -5.2779    5.1216 H         1 LYS         0.0269
    262 H           0.7937   -5.5719    5.6581 H         1 LYS         0.0317
    263 H          -0.0879   -6.6263    4.4867 H         1 LYS         0.0317
    264 H          -1.6477   -7.2321    6.2981 H         1 LYS         0.0813
    265 H          -0.6096   -6.2958    7.4439 H         1 LYS         0.0813
    266 H          -0.1240   -8.6360    7.4907 H         1 LYS         0.1994
    267 H           0.2242   -8.6364    5.8611 H         1 LYS         0.1994
    268 H           1.1812   -7.7732    6.9174 H         1 LYS         0.1994
    269 H          -0.8738   -2.2393    8.7099 H         1 ARG         0.1883
    270 H           0.2193   -4.2182   10.4921 H         1 ARG         0.0800
    271 H          -0.2209   -1.3682   11.3051 H         1 ARG         0.0313
    272 H           1.0055   -1.8175   10.0358 H         1 ARG         0.0313
    273 H           2.4396   -2.1392   11.6744 H         1 ARG         0.0301
    274 H           1.4255   -3.5428   12.1859 H         1 ARG         0.0301
    275 H           1.4878   -2.3765   14.1341 H         1 ARG         0.0689
    276 H           0.0520   -1.6031   13.3552 H         1 ARG         0.0689
    277 H           2.5509   -0.2574   12.7601 H         1 ARG         0.2642
    278 H          -0.0552   -0.6004   15.1307 H         1 ARG         0.2615
    279 H           0.1865    1.0182   15.7962 H         1 ARG         0.2615
    280 H           2.8541    1.8120   13.6312 H         1 ARG         0.2615
    281 H           1.8250    2.3764   14.9516 H         1 ARG         0.2615
    282 H          -2.6933   -2.2186   10.4729 H         1 SER         0.1884
    283 H          -3.5358   -2.8418   13.1711 H         1 SER         0.0823
    284 H          -5.7027   -1.9525   12.4461 H         1 SER         0.0606
    285 H          -5.1386   -1.9775   10.7380 H         1 SER         0.0606
    286 H          -3.5116   -0.4790   11.3749 H         1 SER         0.2097
    287 H          -4.0209   -4.2739    9.9776 H         1 LYS         0.1883
    288 H          -6.0146   -6.1971   10.7583 H         1 LYS         0.0800
    289 H          -3.9887   -6.5763    8.5674 H         1 LYS         0.0312
    290 H          -5.4073   -5.4334    8.4293 H         1 LYS         0.0312
    291 H          -5.5766   -8.3993    8.9452 H         1 LYS         0.0269
    292 H          -5.7924   -7.6036    7.3429 H         1 LYS         0.0269
    293 H          -7.6184   -6.2424    8.3876 H         1 LYS         0.0317
    294 H          -7.4888   -7.3221    9.8277 H         1 LYS         0.0317
    295 H          -8.1137   -8.1835    6.9973 H         1 LYS         0.0813
    296 H          -9.2995   -8.0143    8.3498 H         1 LYS         0.0813
    297 H          -8.6093  -10.2844    8.0323 H         1 LYS         0.1994
    298 H          -7.0118   -9.8730    8.2684 H         1 LYS         0.1994
    299 H          -8.1056   -9.7170    9.5159 H         1 LYS         0.1994
    300 H          -2.5092   -6.0439   10.8713 H         1 LYS         0.1883
    301 H          -2.0148   -8.8357   11.4110 H         1 LYS         0.0800
    302 H          -0.3660   -6.5977   12.5244 H         1 LYS         0.0312
    303 H          -0.3960   -6.9743   10.7352 H         1 LYS         0.0312
    304 H           0.4091   -9.1956   11.1969 H         1 LYS         0.0269
    305 H           0.4172   -8.8456   12.9596 H         1 LYS         0.0269
    306 H           2.2313   -7.4510   12.8102 H         1 LYS         0.0317
    307 H           1.9275   -7.0778   11.0709 H         1 LYS         0.0317
    308 H           2.5382   -9.4813   10.6040 H         1 LYS         0.0813
    309 H           3.1507   -9.5430   12.2999 H         1 LYS         0.0813
    310 H           4.8886   -9.0426   10.7308 H         1 LYS         0.1994
    311 H           4.0671   -7.6974   10.1900 H         1 LYS         0.1994
    312 H           4.6328   -7.7544   11.7564 H         1 LYS         0.1994
    313 H          -2.6050   -5.9532   13.4081 H         1 ASN         0.1885
    314 H          -2.3839   -7.2891   15.9577 H         1 ASN         0.0826
    315 H          -3.6274   -4.7159   15.0145 H         1 ASN         0.0551
    316 H          -2.1578   -4.9867   16.0478 H         1 ASN         0.0551
    317 H          -3.9318   -5.2205   19.0845 H         1 ASN         0.1814
    318 H          -2.4264   -5.5868   18.2355 H         1 ASN         0.1814
    319 H          -5.0607   -6.5457   13.7359 H         1 SER         0.1876
    320 H          -7.1687   -7.5674   15.3967 H         1 SER         0.0749
    321 O          -5.6162   -9.7680   13.5698 O.co2     1 SER        -0.5665
    322 H          -7.1046   -7.5961   12.3720 H         1 SER         0.0599
    323 H          -7.3842   -6.1018   13.3464 H         1 SER         0.0599
    324 H          -9.3382   -7.1284   12.6868 H         1 SER         0.2096
@<TRIPOS>BOND
     1    1    2 1  
     2    2    3 1  
     3    2    5 1  
     4    3    4 2  
     5    3   12 am 
     6    5    6 1  
     7    6    7 1  
     8    7    8 1  
     9    8    9 ar 
    10    9   10 ar 
    11    9   11 ar 
    12   12   13 1  
    13   13   14 1  
    14   13   16 1  
    15   14   15 2  
    16   14   17 am 
    17   17   18 1  
    18   18   19 1  
    19   18   21 1  
    20   19   20 2  
    21   19   22 am 
    22   22   23 1  
    23   23   24 1  
    24   23   26 1  
    25   24   25 2  
    26   24   30 am 
    27   26   27 1  
    28   27   28 2  
    29   27   29 am 
    30   30   31 1  
    31   31   32 1  
    32   31   34 1  
    33   32   33 2  
    34   32   38 am 
    35   34   35 1  
    36   35   36 1  
    37   35   37 1  
    38   38   39 1  
    39   39   40 1  
    40   39   42 1  
    41   40   41 2  
    42   40   52 am 
    43   42   43 1  
    44   43   44 2  
    45   43   45 1  
    46   44   46 1  
    47   45   47 ar 
    48   45   48 ar 
    49   46   47 1  
    50   47   49 ar 
    51   48   50 ar 
    52   49   51 ar 
    53   50   51 ar 
    54   52   53 1  
    55   52   58 1  
    56   53   54 1  
    57   53   56 1  
    58   54   55 2  
    59   54   59 am 
    60   56   57 1  
    61   57   58 1  
    62   59   60 1  
    63   60   61 1  
    64   60   63 1  
    65   61   62 2  
    66   61   65 am 
    67   63   64 1  
    68   65   66 1  
    69   65   71 1  
    70   66   67 1  
    71   66   69 1  
    72   67   68 2  
    73   67   72 am 
    74   69   70 1  
    75   70   71 1  
    76   72   73 1  
    77   73   74 1  
    78   73   76 1  
    79   74   75 2  
    80   74   80 am 
    81   76   77 1  
    82   77   78 1  
    83   77   79 1  
    84   80   81 1  
    85   81   82 1  
    86   81   84 1  
    87   82   83 2  
    88   82   88 am 
    89   84   85 1  
    90   85   86 1  
    91   86   87 1  
    92   88   89 1  
    93   89   90 1  
    94   89   92 1  
    95   90   91 2  
    96   90   96 am 
    97   92   93 1  
    98   92   94 1  
    99   93   95 1  
   100   96   97 1  
   101   97   98 1  
   102   97  100 1  
   103   98   99 2  
   104   98  105 am 
   105  100  101 1  
   106  101  102 1  
   107  102  103 1  
   108  103  104 1  
   109  105  106 1  
   110  106  107 1  
   111  106  109 1  
   112  107  108 2  
   113  107  116 am 
   114  109  110 1  
   115  110  111 1  
   116  111  112 1  
   117  112  113 ar 
   118  113  114 ar 
   119  113  115 ar 
   120  116  117 1  
   121  117  118 1  
   122  117  120 1  
   123  118  119 2  
   124  118  122 am 
   125  120  121 1  
   126  122  123 1  
   127  123  124 1  
   128  123  126 1  
   129  124  125 2  
   130  124  131 am 
   131  126  127 1  
   132  127  128 1  
   133  128  129 1  
   134  129  130 1  
   135  131  132 1  
   136  132  133 1  
   137  132  135 1  
   138  133  134 2  
   139  133  140 am 
   140  135  136 1  
   141  136  137 1  
   142  137  138 1  
   143  138  139 1  
   144  140  141 1  
   145  141  142 1  
   146  141  144 1  
   147  142  143 2  
   148  142  148 am 
   149  144  145 1  
   150  145  146 2  
   151  145  147 am 
   152  148  149 1  
   153  149  150 1  
   154  149  152 1  
   155  150  151 ar 
   156  152  153 1  
   157    1  154 1  
   158    1  155 1  
   159    1  156 1  
   160    2  157 1  
   161    5  158 1  
   162    5  159 1  
   163    6  160 1  
   164    6  161 1  
   165    7  162 1  
   166    7  163 1  
   167    8  164 1  
   168   10  165 1  
   169   10  166 1  
   170   11  167 1  
   171   11  168 1  
   172   12  169 1  
   173   13  170 1  
   174   16  171 1  
   175   16  172 1  
   176   16  173 1  
   177   17  174 1  
   178   18  175 1  
   179   21  176 1  
   180   21  177 1  
   181   21  178 1  
   182   22  179 1  
   183   23  180 1  
   184   26  181 1  
   185   26  182 1  
   186   29  183 1  
   187   29  184 1  
   188   30  185 1  
   189   31  186 1  
   190   34  187 1  
   191   34  188 1  
   192   35  189 1  
   193   36  190 1  
   194   36  191 1  
   195   36  192 1  
   196   37  193 1  
   197   37  194 1  
   198   37  195 1  
   199   38  196 1  
   200   39  197 1  
   201   42  198 1  
   202   42  199 1  
   203   44  200 1  
   204   46  201 1  
   205   48  202 1  
   206   49  203 1  
   207   50  204 1  
   208   51  205 1  
   209   53  206 1  
   210   56  207 1  
   211   56  208 1  
   212   57  209 1  
   213   57  210 1  
   214   58  211 1  
   215   58  212 1  
   216   59  213 1  
   217   60  214 1  
   218   63  215 1  
   219   63  216 1  
   220   64  217 1  
   221   66  218 1  
   222   69  219 1  
   223   69  220 1  
   224   70  221 1  
   225   70  222 1  
   226   71  223 1  
   227   71  224 1  
   228   72  225 1  
   229   73  226 1  
   230   76  227 1  
   231   76  228 1  
   232   77  229 1  
   233   78  230 1  
   234   78  231 1  
   235   78  232 1  
   236   79  233 1  
   237   79  234 1  
   238   79  235 1  
   239   80  236 1  
   240   81  237 1  
   241   84  238 1  
   242   84  239 1  
   243   85  240 1  
   244   85  241 1  
   245   87  242 1  
   246   87  243 1  
   247   87  244 1  
   248   88  245 1  
   249   89  246 1  
   250   92  247 1  
   251   93  248 1  
   252   93  249 1  
   253   94  250 1  
   254   94  251 1  
   255   94  252 1  
   256   95  253 1  
   257   95  254 1  
   258   95  255 1  
   259   96  256 1  
   260   97  257 1  
   261  100  258 1  
   262  100  259 1  
   263  101  260 1  
   264  101  261 1  
   265  102  262 1  
   266  102  263 1  
   267  103  264 1  
   268  103  265 1  
   269  104  266 1  
   270  104  267 1  
   271  104  268 1  
   272  105  269 1  
   273  106  270 1  
   274  109  271 1  
   275  109  272 1  
   276  110  273 1  
   277  110  274 1  
   278  111  275 1  
   279  111  276 1  
   280  112  277 1  
   281  114  278 1  
   282  114  279 1  
   283  115  280 1  
   284  115  281 1  
   285  116  282 1  
   286  117  283 1  
   287  120  284 1  
   288  120  285 1  
   289  121  286 1  
   290  122  287 1  
   291  123  288 1  
   292  126  289 1  
   293  126  290 1  
   294  127  291 1  
   295  127  292 1  
   296  128  293 1  
   297  128  294 1  
   298  129  295 1  
   299  129  296 1  
   300  130  297 1  
   301  130  298 1  
   302  130  299 1  
   303  131  300 1  
   304  132  301 1  
   305  135  302 1  
   306  135  303 1  
   307  136  304 1  
   308  136  305 1  
   309  137  306 1  
   310  137  307 1  
   311  138  308 1  
   312  138  309 1  
   313  139  310 1  
   314  139  311 1  
   315  139  312 1  
   316  140  313 1  
   317  141  314 1  
   318  144  315 1  
   319  144  316 1  
   320  147  317 1  
   321  147  318 1  
   322  148  319 1  
   323  149  320 1  
   324  150  321 ar 
   325  152  322 1  
   326  152  323 1  
   327  153  324 1  
@<TRIPOS>SUBSTRUCTURE
     1 ARG         1

