2llq_ligand
  -I-interpret- 

322325  0  0  0  0  0  0  0  0999 V2000
   -4.1110   16.0200   -2.6580 N   0  3  0  0  0
   -2.9080   15.4290   -2.0230 C   0  0  0  0  0
   -3.3390   14.3070   -1.0890 C   0  0  0  0  0
   -3.5340   14.5180    0.1060 O   0  0  0  0  0
   -2.1050   16.5000   -1.2710 C   0  0  0  0  0
   -1.5950   17.6000   -2.1910 C   0  0  0  0  0
   -0.0730   17.6650   -2.2200 C   0  0  0  0  0
    0.5450   16.3460   -2.0880 N   0  0  0  0  0
    1.4200   16.0290   -1.1350 C   0  0  0  0  0
    1.7470   16.9090   -0.1960 N   0  0  0  0  0
    1.9580   14.8230   -1.1110 N   0  0  0  0  0
   -3.5130   13.1200   -1.6610 N   0  0  0  0  0
   -3.9560   11.9380   -0.9230 C   0  0  0  0  0
   -2.7940   11.0270   -0.5090 C   0  0  0  0  0
   -3.0270    9.9320   -0.0120 O   0  0  0  0  0
   -5.0010   11.1690   -1.7140 C   0  0  0  0  0
   -1.5660   11.4160   -0.8470 N   0  0  0  0  0
   -0.3540   10.6500   -0.5000 C   0  0  0  0  0
   -0.4720    9.8950    0.8350 C   0  0  0  0  0
   -0.2040    8.6930    0.8980 O   0  0  0  0  0
    0.8400   11.5920   -0.4420 C   0  0  0  0  0
   -0.8900   10.5990    1.8900 N   0  0  0  0  0
   -1.0250    9.9970    3.2190 C   0  0  0  0  0
   -2.0200    8.8350    3.2080 C   0  0  0  0  0
   -1.9530    7.9440    4.0540 O   0  0  0  0  0
   -1.4610   11.0460    4.2500 C   0  0  0  0  0
   -2.8860   11.5170    4.0460 C   0  0  0  0  0
   -3.1440   12.4360    3.2650 O   0  0  0  0  0
   -3.8170   10.9050    4.7580 N   0  0  0  0  0
   -2.9380    8.8490    2.2500 N   0  0  0  0  0
   -3.9200    7.7900    2.1170 C   0  0  0  0  0
   -3.2270    6.5150    1.6580 C   0  0  0  0  0
   -3.7360    5.4380    1.8870 O   0  0  0  0  0
   -5.0380    8.1690    1.1390 C   0  0  0  0  0
   -6.4110    7.5560    1.4260 C   0  0  0  0  0
   -7.0860    8.2890    2.5710 C   0  0  0  0  0
   -7.2800    7.5990    0.1790 C   0  0  0  0  0
   -2.0740    6.6310    0.9770 N   0  0  0  0  0
   -1.3320    5.4220    0.5810 C   0  0  0  0  0
   -0.9550    4.6790    1.8800 C   0  0  0  0  0
   -1.2910    3.4890    2.0550 O   0  0  0  0  0
   -0.0630    5.7290   -0.2380 C   0  0  0  0  0
   -0.2060    5.8930   -1.7330 C   0  0  0  0  0
   -0.2990    7.0800   -2.3940 C   0  0  0  0  0
   -0.1990    4.8710   -2.7620 C   0  0  0  0  0
   -0.3230    6.8760   -3.7440 N   0  0  0  0  0
   -0.2640    5.5410   -4.0030 C   0  0  0  0  0
   -0.1320    3.4660   -2.7790 C   0  0  0  0  0
   -0.2580    4.8670   -5.2220 C   0  0  0  0  0
   -0.1310    2.8170   -4.0140 C   0  0  0  0  0
   -0.1930    3.5320   -5.2040 C   0  0  0  0  0
   -0.2280    5.3500    2.8230 N   0  0  0  0  0
    0.0890    4.7390    4.1140 C   0  0  0  0  0
   -1.1640    4.3520    4.8940 C   0  0  0  0  0
   -1.0800    3.5780    5.8410 O   0  0  0  0  0
    0.8420    5.8280    4.8710 C   0  0  0  0  0
    1.4160    6.6950    3.8220 C   0  0  0  0  0
    0.4310    6.6670    2.6920 C   0  0  0  0  0
   -2.3180    4.9170    4.5240 N   0  0  0  0  0
   -3.5680    4.5850    5.2010 C   0  0  0  0  0
   -3.8370    3.0660    5.1480 C   0  0  0  0  0
   -3.8450    2.4380    6.2060 O   0  0  0  0  0
   -4.7410    5.4100    4.6660 C   0  0  0  0  0
   -4.6320    6.7630    5.0740 O   0  0  0  0  0
   -4.0640    2.4110    3.9640 N   0  0  0  0  0
   -4.2460    0.9570    3.9440 C   0  0  0  0  0
   -2.9920    0.2530    4.4420 C   0  0  0  0  0
   -3.0600   -0.8650    4.9500 O   0  0  0  0  0
   -4.5070    0.6180    2.4750 C   0  0  0  0  0
   -4.9560    1.8870    1.8660 C   0  0  0  0  0
   -4.2280    2.9680    2.6150 C   0  0  0  0  0
   -1.8370    0.9110    4.2850 N   0  0  0  0  0
   -0.5820    0.3450    4.7780 C   0  0  0  0  0
   -0.6640    0.1900    6.3040 C   0  0  0  0  0
   -0.2900   -0.8410    6.8700 O   0  0  0  0  0
    0.5940    1.2450    4.4000 C   0  0  0  0  0
    1.9530    0.5520    4.3490 C   0  0  0  0  0
    2.1480   -0.1420    3.0100 C   0  0  0  0  0
    3.0660    1.5570    4.6000 C   0  0  0  0  0
   -1.1780    1.2300    6.9530 N   0  0  0  0  0
   -1.3630    1.2390    8.3990 C   0  0  0  0  0
   -2.4350    0.2260    8.7650 C   0  0  0  0  0
   -2.3870   -0.4050    9.8250 O   0  0  0  0  0
   -1.7700    2.6390    8.8740 C   0  0  0  0  0
   -1.8720    2.7730   10.3820 C   0  0  0  0  0
   -2.8350    4.2140   10.8830 S   0  0  0  0  0
   -1.9150    5.5440   10.1070 C   0  0  0  0  0
   -3.4010    0.0730    7.8640 N   0  0  0  0  0
   -4.4770   -0.8850    8.0480 C   0  0  0  0  0
   -3.9000   -2.2980    8.0260 C   0  0  0  0  0
   -4.3960   -3.1860    8.7050 O   0  0  0  0  0
   -5.5700   -0.7440    6.9620 C   0  0  0  0  0
   -6.2300    0.6360    7.0460 C   0  0  0  0  0
   -6.6200   -1.8420    7.0940 C   0  0  0  0  0
   -6.8200    0.9530    8.4050 C   0  0  0  0  0
   -2.8410   -2.4910    7.2430 N   0  0  0  0  0
   -2.1710   -3.7840    7.1700 C   0  0  0  0  0
   -1.6120   -4.1270    8.5420 C   0  0  0  0  0
   -1.7630   -5.2500    9.0270 O   0  0  0  0  0
   -1.0450   -3.7620    6.1310 C   0  0  0  0  0
   -1.1420   -4.8730    5.0940 C   0  0  0  0  0
   -0.1660   -6.0080    5.3810 C   0  0  0  0  0
   -0.6400   -6.8860    6.5280 C   0  0  0  0  0
    0.2290   -8.0770    6.7140 N   0  3  0  0  0
   -0.9750   -3.1440    9.1700 N   0  0  0  0  0
   -0.4180   -3.3340   10.5040 C   0  0  0  0  0
   -1.5510   -3.5400   11.5080 C   0  0  0  0  0
   -1.4230   -4.3020   12.4660 O   0  0  0  0  0
    0.4460   -2.1370   10.9150 C   0  0  0  0  0
    1.4550   -2.4680   12.0070 C   0  0  0  0  0
    1.1300   -1.7580   13.3110 C   0  0  0  0  0
    1.7830   -0.4540   13.4020 N   0  0  0  0  0
    1.4370    0.4940   14.2720 C   0  0  0  0  0
    0.4460    0.2880   15.1330 N   0  0  0  0  0
    2.0890    1.6500   14.2860 N   0  0  0  0  0
   -2.6620   -2.8480   11.2750 N   0  0  0  0  0
   -3.8360   -2.9610   12.1300 C   0  0  0  0  0
   -4.4710   -4.3370   11.9540 C   0  0  0  0  0
   -4.9690   -4.9340   12.9080 O   0  0  0  0  0
   -4.8440   -1.8610   11.7810 C   0  0  0  0  0
   -4.2750   -0.5690   11.9500 O   0  0  0  0  0
   -4.4420   -4.8310   10.7210 N   0  0  0  0  0
   -4.9890   -6.1370   10.3940 C   0  0  0  0  0
   -4.1560   -7.2160   11.0650 C   0  0  0  0  0
   -4.6650   -8.2700   11.4240 O   0  0  0  0  0
   -5.0080   -6.3440    8.8760 C   0  0  0  0  0
   -5.8920   -7.4960    8.4230 C   0  0  0  0  0
   -7.3570   -7.2370    8.7490 C   0  0  0  0  0
   -8.2710   -8.2470    8.0740 C   0  0  0  0  0
   -7.9760   -9.6410    8.5070 N   0  3  0  0  0
   -2.8680   -6.9320   11.2220 N   0  0  0  0  0
   -1.9550   -7.8540   11.8810 C   0  0  0  0  0
   -2.3500   -7.9670   13.3490 C   0  0  0  0  0
   -2.3840   -9.0570   13.9190 O   0  0  0  0  0
   -0.5160   -7.3510   11.7510 C   0  0  0  0  0
    0.5380   -8.4280   11.9600 C   0  0  0  0  0
    1.9400   -7.8510   11.8390 C   0  0  0  0  0
    2.9520   -8.9100   11.4350 C   0  0  0  0  0
    4.2370   -8.3030   10.9930 N   0  3  0  0  0
   -2.6680   -6.8200   13.9420 N   0  0  0  0  0
   -3.1030   -6.7640   15.3290 C   0  0  0  0  0
   -4.4630   -7.4420   15.4560 C   0  0  0  0  0
   -4.7130   -8.1950   16.3970 O   0  0  0  0  0
   -3.1720   -5.3070   15.8090 C   0  0  0  0  0
   -4.0180   -5.1360   17.0570 C   0  0  0  0  0
   -5.2060   -4.8240   16.9770 O   0  0  0  0  0
   -3.4130   -5.3290   18.2130 N   0  0  0  0  0
   -5.3310   -7.1830   14.4850 N   0  0  0  0  0
   -6.6560   -7.7820   14.4590 C   0  0  0  0  0
   -6.5290   -9.2960   14.2990 C   0  0  0  0  0
   -7.3225  -10.0803   14.8846 O   0  0  0  0  0
   -7.4800   -7.1870   13.3100 C   0  0  0  0  0
   -8.8570   -7.5170   13.4210 O   0  0  0  0  0
   -5.6162   -9.7680   13.5698 O   0  0  0  0  0
   -4.6270   15.2908   -3.1504 H   0  0  0  0  0
   -4.7055   16.4325   -1.9391 H   0  0  0  0  0
   -3.8249   16.7416   -3.3197 H   0  0  0  0  0
   -2.2557   15.0191   -2.7941 H   0  0  0  0  0
   -1.2413   16.0149   -0.8162 H   0  0  0  0  0
   -2.7639   16.9576   -0.5331 H   0  0  0  0  0
   -1.9685   18.5540   -1.8190 H   0  0  0  0  0
   -1.9450   17.3872   -3.2011 H   0  0  0  0  0
    0.2542   18.2760   -1.3787 H   0  0  0  0  0
    0.2281   18.0835   -3.1804 H   0  0  0  0  0
    0.2911   15.6268   -2.7653 H   0  0  0  0  0
    2.4088   16.6514    0.5361 H   0  0  0  0  0
    1.3364   17.8426   -0.2068 H   0  0  0  0  0
    1.7032   14.1367   -1.8212 H   0  0  0  0  0
   -3.3292   13.0295   -2.6602 H   0  0  0  0  0
   -4.4121   12.2947    0.0005 H   0  0  0  0  0
   -5.8615   11.8123   -1.8981 H   0  0  0  0  0
   -4.5736   10.8508   -2.6649 H   0  0  0  0  0
   -5.3149   10.2943   -1.1444 H   0  0  0  0  0
   -1.4584   12.2847   -1.3706 H   0  0  0  0  0
   -0.2219    9.8986   -1.2785 H   0  0  0  0  0
    0.9744   12.0665   -1.4141 H   0  0  0  0  0
    0.6622   12.3558    0.3151 H   0  0  0  0  0
    1.7356   11.0260   -0.1856 H   0  0  0  0  0
   -1.1221   11.5846    1.7670 H   0  0  0  0  0
   -0.0465    9.6078    3.5003 H   0  0  0  0  0
   -0.8061   11.9107    4.1422 H   0  0  0  0  0
   -1.4001   10.5877    5.2371 H   0  0  0  0  0
   -4.7930   11.1888    4.6728 H   0  0  0  0  0
   -3.5592   10.1491    5.3925 H   0  0  0  0  0
   -2.9535    9.6257    1.5891 H   0  0  0  0  0
   -4.3829    7.6296    3.0907 H   0  0  0  0  0
   -4.7321    7.7947    0.1620 H   0  0  0  0  0
   -5.1612    9.2493    1.2162 H   0  0  0  0  0
   -6.2747    6.5140    1.7155 H   0  0  0  0  0
   -6.4672    8.2120    3.4650 H   0  0  0  0  0
   -7.2127    9.3383    2.3045 H   0  0  0  0  0
   -8.0611    7.8412    2.7628 H   0  0  0  0  0
   -7.4109    8.6344   -0.1356 H   0  0  0  0  0
   -6.7973    7.0339   -0.6184 H   0  0  0  0  0
   -8.2526    7.1594    0.4001 H   0  0  0  0  0
   -1.7138    7.5541    0.7351 H   0  0  0  0  0
   -1.9647    4.8176   -0.0690 H   0  0  0  0  0
    0.5849    4.8629   -0.1028 H   0  0  0  0  0
    0.2898    6.6939    0.1262 H   0  0  0  0  0
   -0.3475    8.0567   -1.9126 H   0  0  0  0  0
   -0.0821    2.8982   -1.8499 H   0  0  0  0  0
   -0.3050    5.4129   -6.1643 H   0  0  0  0  0
   -0.0806    1.7286   -4.0461 H   0  0  0  0  0
   -0.1885    2.9890   -6.1491 H   0  0  0  0  0
    0.6590    3.8192    3.9829 H   0  0  0  0  0
    1.6140    5.4107    5.5176 H   0  0  0  0  0
    0.1846    6.3838    5.5396 H   0  0  0  0  0
    2.3966    6.3404    3.5046 H   0  0  0  0  0
    1.5751    7.7098    4.1868 H   0  0  0  0  0
   -0.2802    7.4914    2.7439 H   0  0  0  0  0
    0.9119    6.7932    1.7220 H   0  0  0  0  0
   -2.3250    5.5899    3.7575 H   0  0  0  0  0
   -3.4634    4.8549    6.2519 H   0  0  0  0  0
   -5.6697    4.9976    5.0604 H   0  0  0  0  0
   -4.7315    5.3694    3.5768 H   0  0  0  0  0
   -5.3762    7.2613    4.7283 H   0  0  0  0  0
   -5.0605    0.6344    4.5926 H   0  0  0  0  0
   -5.2535   -0.1689    2.3676 H   0  0  0  0  0
   -3.6151    0.2272    1.9851 H   0  0  0  0  0
   -6.0369    2.0065    1.9403 H   0  0  0  0  0
   -4.7343    1.9198    0.7993 H   0  0  0  0  0
   -3.2743    3.2227    2.1527 H   0  0  0  0  0
   -4.7755    3.9105    2.6192 H   0  0  0  0  0
   -1.8322    1.8170    3.8164 H   0  0  0  0  0
   -0.4233   -0.6319    4.3214 H   0  0  0  0  0
    0.6624    2.0112    5.1722 H   0  0  0  0  0
    0.3939    1.6155    3.3946 H   0  0  0  0  0
    1.9876   -0.2048    5.1327 H   0  0  0  0  0
    1.3648   -0.8872    2.8710 H   0  0  0  0  0
    2.0960    0.5954    2.2090 H   0  0  0  0  0
    3.1226   -0.6299    2.9936 H   0  0  0  0  0
    3.0322    2.3332    3.8354 H   0  0  0  0  0
    2.9318    2.0077    5.5833 H   0  0  0  0  0
    4.0291    1.0480    4.5605 H   0  0  0  0  0
   -1.4537    2.0538    6.4185 H   0  0  0  0  0
   -0.4264    0.9724    8.8887 H   0  0  0  0  0
   -2.7583    2.8454    8.4632 H   0  0  0  0  0
   -0.9977    3.3315    8.5391 H   0  0  0  0  0
   -0.8633    2.8878   10.7787 H   0  0  0  0  0
   -2.3722    1.8839   10.7659 H   0  0  0  0  0
   -0.8951    5.5511   10.4914 H   0  0  0  0  0
   -1.8969    5.3903    9.0280 H   0  0  0  0  0
   -2.3959    6.4960   10.3317 H   0  0  0  0  0
   -3.3858    0.6448    7.0195 H   0  0  0  0  0
   -4.9479   -0.6852    9.0105 H   0  0  0  0  0
   -5.0928   -0.8476    5.9875 H   0  0  0  0  0
   -7.0487    0.6480    6.3265 H   0  0  0  0  0
   -5.4564    1.3778    6.8476 H   0  0  0  0  0
   -6.1418   -2.8153    6.9840 H   0  0  0  0  0
   -7.0914   -1.7761    8.0746 H   0  0  0  0  0
   -7.3746   -1.7166    6.3175 H   0  0  0  0  0
   -7.5833    0.2143    8.6496 H   0  0  0  0  0
   -6.0317    0.9255    9.1573 H   0  0  0  0  0
   -7.2680    1.9464    8.3824 H   0  0  0  0  0
   -2.4898   -1.7159    6.6806 H   0  0  0  0  0
   -2.8919   -4.5415    6.8625 H   0  0  0  0  0
   -0.1060   -3.8995    6.6671 H   0  0  0  0  0
   -1.1136   -2.8137    5.5980 H   0  0  0  0  0
   -0.8978   -4.4516    4.1189 H   0  0  0  0  0
   -2.1536   -5.2779    5.1216 H   0  0  0  0  0
    0.7937   -5.5719    5.6581 H   0  0  0  0  0
   -0.0879   -6.6263    4.4867 H   0  0  0  0  0
   -1.6477   -7.2321    6.2981 H   0  0  0  0  0
   -0.6096   -6.2958    7.4439 H   0  0  0  0  0
   -0.1240   -8.6360    7.4907 H   0  0  0  0  0
    0.2242   -8.6364    5.8611 H   0  0  0  0  0
    1.1812   -7.7732    6.9174 H   0  0  0  0  0
   -0.8738   -2.2393    8.7099 H   0  0  0  0  0
    0.2193   -4.2182   10.4921 H   0  0  0  0  0
   -0.2209   -1.3682   11.3051 H   0  0  0  0  0
    1.0055   -1.8175   10.0358 H   0  0  0  0  0
    2.4396   -2.1392   11.6744 H   0  0  0  0  0
    1.4255   -3.5428   12.1859 H   0  0  0  0  0
    1.4878   -2.3765   14.1341 H   0  0  0  0  0
    0.0520   -1.6031   13.3552 H   0  0  0  0  0
    2.5509   -0.2574   12.7601 H   0  0  0  0  0
    0.1901    1.0162   15.7998 H   0  0  0  0  0
   -0.0588   -0.5983   15.1271 H   0  0  0  0  0
    2.8541    1.8120   13.6312 H   0  0  0  0  0
   -2.6933   -2.2186   10.4729 H   0  0  0  0  0
   -3.5358   -2.8418   13.1711 H   0  0  0  0  0
   -5.7027   -1.9525   12.4461 H   0  0  0  0  0
   -5.1386   -1.9775   10.7380 H   0  0  0  0  0
   -4.9271    0.0986   11.7249 H   0  0  0  0  0
   -4.0209   -4.2739    9.9776 H   0  0  0  0  0
   -6.0146   -6.1971   10.7583 H   0  0  0  0  0
   -3.9887   -6.5763    8.5674 H   0  0  0  0  0
   -5.4073   -5.4334    8.4293 H   0  0  0  0  0
   -5.5766   -8.3993    8.9452 H   0  0  0  0  0
   -5.7924   -7.6036    7.3429 H   0  0  0  0  0
   -7.6184   -6.2424    8.3876 H   0  0  0  0  0
   -7.4888   -7.3221    9.8277 H   0  0  0  0  0
   -8.1137   -8.1835    6.9973 H   0  0  0  0  0
   -9.2995   -8.0143    8.3498 H   0  0  0  0  0
   -8.6093  -10.2844    8.0323 H   0  0  0  0  0
   -7.0118   -9.8730    8.2684 H   0  0  0  0  0
   -8.1056   -9.7170    9.5159 H   0  0  0  0  0
   -2.5092   -6.0439   10.8713 H   0  0  0  0  0
   -2.0148   -8.8357   11.4110 H   0  0  0  0  0
   -0.3660   -6.5977   12.5244 H   0  0  0  0  0
   -0.3960   -6.9743   10.7352 H   0  0  0  0  0
    0.4091   -9.1956   11.1969 H   0  0  0  0  0
    0.4172   -8.8456   12.9596 H   0  0  0  0  0
    2.2313   -7.4510   12.8102 H   0  0  0  0  0
    1.9275   -7.0778   11.0709 H   0  0  0  0  0
    2.5382   -9.4813   10.6040 H   0  0  0  0  0
    3.1507   -9.5430   12.2999 H   0  0  0  0  0
    4.8886   -9.0426   10.7308 H   0  0  0  0  0
    4.0671   -7.6974   10.1900 H   0  0  0  0  0
    4.6328   -7.7544   11.7564 H   0  0  0  0  0
   -2.6050   -5.9532   13.4081 H   0  0  0  0  0
   -2.3839   -7.2891   15.9577 H   0  0  0  0  0
   -3.6274   -4.7159   15.0145 H   0  0  0  0  0
   -2.1578   -4.9867   16.0478 H   0  0  0  0  0
   -3.9318   -5.2205   19.0845 H   0  0  0  0  0
   -2.4264   -5.5868   18.2355 H   0  0  0  0  0
   -5.0607   -6.5457   13.7359 H   0  0  0  0  0
   -7.1687   -7.5674   15.3967 H   0  0  0  0  0
   -7.1046   -7.5961   12.3720 H   0  0  0  0  0
   -7.3842   -6.1018   13.3464 H   0  0  0  0  0
   -9.3382   -7.1284   12.6868 H   0  0  0  0  0
   -5.1009   -9.0484   13.1980 H   0  0  0  0  0
  1  2  1  0  0  0
  2  3  1  0  0  0
  2  5  1  0  0  0
  3  4  2  0  0  0
  3 12  1  0  0  0
  5  6  1  0  0  0
  6  7  1  0  0  0
  7  8  1  0  0  0
  8  9  1  0  0  0
  9 10  1  0  0  0
  9 11  2  0  0  0
 12 13  1  0  0  0
 13 14  1  0  0  0
 13 16  1  0  0  0
 14 15  2  0  0  0
 14 17  1  0  0  0
 17 18  1  0  0  0
 18 19  1  0  0  0
 18 21  1  0  0  0
 19 20  2  0  0  0
 19 22  1  0  0  0
 22 23  1  0  0  0
 23 24  1  0  0  0
 23 26  1  0  0  0
 24 25  2  0  0  0
 24 30  1  0  0  0
 26 27  1  0  0  0
 27 28  2  0  0  0
 27 29  1  0  0  0
 30 31  1  0  0  0
 31 32  1  0  0  0
 31 34  1  0  0  0
 32 33  2  0  0  0
 32 38  1  0  0  0
 34 35  1  0  0  0
 35 36  1  0  0  0
 35 37  1  0  0  0
 38 39  1  0  0  0
 39 40  1  0  0  0
 39 42  1  0  0  0
 40 41  2  0  0  0
 40 52  1  0  0  0
 42 43  1  0  0  0
 43 44  4  0  0  0
 43 45  4  0  0  0
 44 46  4  0  0  0
 45 47  4  0  0  0
 45 48  4  0  0  0
 46 47  4  0  0  0
 47 49  4  0  0  0
 48 50  4  0  0  0
 49 51  4  0  0  0
 50 51  4  0  0  0
 52 53  1  0  0  0
 52 58  1  0  0  0
 53 54  1  0  0  0
 53 56  1  0  0  0
 54 55  2  0  0  0
 54 59  1  0  0  0
 56 57  1  0  0  0
 57 58  1  0  0  0
 59 60  1  0  0  0
 60 61  1  0  0  0
 60 63  1  0  0  0
 61 62  2  0  0  0
 61 65  1  0  0  0
 63 64  1  0  0  0
 65 66  1  0  0  0
 65 71  1  0  0  0
 66 67  1  0  0  0
 66 69  1  0  0  0
 67 68  2  0  0  0
 67 72  1  0  0  0
 69 70  1  0  0  0
 70 71  1  0  0  0
 72 73  1  0  0  0
 73 74  1  0  0  0
 73 76  1  0  0  0
 74 75  2  0  0  0
 74 80  1  0  0  0
 76 77  1  0  0  0
 77 78  1  0  0  0
 77 79  1  0  0  0
 80 81  1  0  0  0
 81 82  1  0  0  0
 81 84  1  0  0  0
 82 83  2  0  0  0
 82 88  1  0  0  0
 84 85  1  0  0  0
 85 86  1  0  0  0
 86 87  1  0  0  0
 88 89  1  0  0  0
 89 90  1  0  0  0
 89 92  1  0  0  0
 90 91  2  0  0  0
 90 96  1  0  0  0
 92 93  1  0  0  0
 92 94  1  0  0  0
 93 95  1  0  0  0
 96 97  1  0  0  0
 97 98  1  0  0  0
 97100  1  0  0  0
 98 99  2  0  0  0
 98105  1  0  0  0
100101  1  0  0  0
101102  1  0  0  0
102103  1  0  0  0
103104  1  0  0  0
105106  1  0  0  0
106107  1  0  0  0
106109  1  0  0  0
107108  2  0  0  0
107116  1  0  0  0
109110  1  0  0  0
110111  1  0  0  0
111112  1  0  0  0
112113  1  0  0  0
113114  1  0  0  0
113115  2  0  0  0
116117  1  0  0  0
117118  1  0  0  0
117120  1  0  0  0
118119  2  0  0  0
118122  1  0  0  0
120121  1  0  0  0
122123  1  0  0  0
123124  1  0  0  0
123126  1  0  0  0
124125  2  0  0  0
124131  1  0  0  0
126127  1  0  0  0
127128  1  0  0  0
128129  1  0  0  0
129130  1  0  0  0
131132  1  0  0  0
132133  1  0  0  0
132135  1  0  0  0
133134  2  0  0  0
133140  1  0  0  0
135136  1  0  0  0
136137  1  0  0  0
137138  1  0  0  0
138139  1  0  0  0
140141  1  0  0  0
141142  1  0  0  0
141144  1  0  0  0
142143  2  0  0  0
142148  1  0  0  0
144145  1  0  0  0
145146  2  0  0  0
145147  1  0  0  0
148149  1  0  0  0
149150  1  0  0  0
149152  1  0  0  0
150151  2  0  0  0
152153  1  0  0  0
150154  1  0  0  0
  1155  1  0  0  0
  1156  1  0  0  0
  1157  1  0  0  0
  2158  1  0  0  0
  5159  1  0  0  0
  5160  1  0  0  0
  6161  1  0  0  0
  6162  1  0  0  0
  7163  1  0  0  0
  7164  1  0  0  0
  8165  1  0  0  0
 10166  1  0  0  0
 10167  1  0  0  0
 11168  1  0  0  0
 12169  1  0  0  0
 13170  1  0  0  0
 16171  1  0  0  0
 16172  1  0  0  0
 16173  1  0  0  0
 17174  1  0  0  0
 18175  1  0  0  0
 21176  1  0  0  0
 21177  1  0  0  0
 21178  1  0  0  0
 22179  1  0  0  0
 23180  1  0  0  0
 26181  1  0  0  0
 26182  1  0  0  0
 29183  1  0  0  0
 29184  1  0  0  0
 30185  1  0  0  0
 31186  1  0  0  0
 34187  1  0  0  0
 34188  1  0  0  0
 35189  1  0  0  0
 36190  1  0  0  0
 36191  1  0  0  0
 36192  1  0  0  0
 37193  1  0  0  0
 37194  1  0  0  0
 37195  1  0  0  0
 38196  1  0  0  0
 39197  1  0  0  0
 42198  1  0  0  0
 42199  1  0  0  0
 44200  1  0  0  0
 48201  1  0  0  0
 49202  1  0  0  0
 50203  1  0  0  0
 51204  1  0  0  0
 53205  1  0  0  0
 56206  1  0  0  0
 56207  1  0  0  0
 57208  1  0  0  0
 57209  1  0  0  0
 58210  1  0  0  0
 58211  1  0  0  0
 59212  1  0  0  0
 60213  1  0  0  0
 63214  1  0  0  0
 63215  1  0  0  0
 64216  1  0  0  0
 66217  1  0  0  0
 69218  1  0  0  0
 69219  1  0  0  0
 70220  1  0  0  0
 70221  1  0  0  0
 71222  1  0  0  0
 71223  1  0  0  0
 72224  1  0  0  0
 73225  1  0  0  0
 76226  1  0  0  0
 76227  1  0  0  0
 77228  1  0  0  0
 78229  1  0  0  0
 78230  1  0  0  0
 78231  1  0  0  0
 79232  1  0  0  0
 79233  1  0  0  0
 79234  1  0  0  0
 80235  1  0  0  0
 81236  1  0  0  0
 84237  1  0  0  0
 84238  1  0  0  0
 85239  1  0  0  0
 85240  1  0  0  0
 87241  1  0  0  0
 87242  1  0  0  0
 87243  1  0  0  0
 88244  1  0  0  0
 89245  1  0  0  0
 92246  1  0  0  0
 93247  1  0  0  0
 93248  1  0  0  0
 94249  1  0  0  0
 94250  1  0  0  0
 94251  1  0  0  0
 95252  1  0  0  0
 95253  1  0  0  0
 95254  1  0  0  0
 96255  1  0  0  0
 97256  1  0  0  0
100257  1  0  0  0
100258  1  0  0  0
101259  1  0  0  0
101260  1  0  0  0
102261  1  0  0  0
102262  1  0  0  0
103263  1  0  0  0
103264  1  0  0  0
104265  1  0  0  0
104266  1  0  0  0
104267  1  0  0  0
105268  1  0  0  0
106269  1  0  0  0
109270  1  0  0  0
109271  1  0  0  0
110272  1  0  0  0
110273  1  0  0  0
111274  1  0  0  0
111275  1  0  0  0
112276  1  0  0  0
114277  1  0  0  0
114278  1  0  0  0
115279  1  0  0  0
116280  1  0  0  0
117281  1  0  0  0
120282  1  0  0  0
120283  1  0  0  0
121284  1  0  0  0
122285  1  0  0  0
123286  1  0  0  0
126287  1  0  0  0
126288  1  0  0  0
127289  1  0  0  0
127290  1  0  0  0
128291  1  0  0  0
128292  1  0  0  0
129293  1  0  0  0
129294  1  0  0  0
130295  1  0  0  0
130296  1  0  0  0
130297  1  0  0  0
131298  1  0  0  0
132299  1  0  0  0
135300  1  0  0  0
135301  1  0  0  0
136302  1  0  0  0
136303  1  0  0  0
137304  1  0  0  0
137305  1  0  0  0
138306  1  0  0  0
138307  1  0  0  0
139308  1  0  0  0
139309  1  0  0  0
139310  1  0  0  0
140311  1  0  0  0
141312  1  0  0  0
144313  1  0  0  0
144314  1  0  0  0
147315  1  0  0  0
147316  1  0  0  0
148317  1  0  0  0
149318  1  0  0  0
152319  1  0  0  0
152320  1  0  0  0
153321  1  0  0  0
154322  1  0  0  0
M  END
$$$$
