3aid_ligand
  -I-interpret- 

 75 77  0  0  0  0  0  0  0  0999 V2000
    1.4740    1.3210   11.3540 C   0  0  0  0  0
    0.5620    0.2520   12.0360 C   0  0  0  0  0
    0.6750    2.6330   11.4100 C   0  0  0  0  0
    1.8520    1.0060    9.8910 C   0  0  0  0  0
    2.6640    1.5540   12.1080 O   0  0  0  0  0
    3.5110    0.5710   12.4000 C   0  0  0  0  0
    3.3990   -0.5330   11.9700 O   0  0  0  0  0
    4.4970    0.9940   13.1930 N   0  0  0  0  0
    5.7160    0.2690   13.5580 C   0  0  0  0  0
    6.9530    1.1630   13.3460 C   0  0  0  0  0
    6.9750    1.8240   11.9980 C   0  0  0  0  0
    6.8150    1.0510   10.8260 C   0  0  0  0  0
    6.7910    1.7010    9.5740 C   0  0  0  0  0
    6.9270    3.1100    9.5190 C   0  0  0  0  0
    7.1140    3.2320   11.9410 C   0  0  0  0  0
    7.0850    3.8880   10.6920 C   0  0  0  0  0
    5.6420   -0.3190   14.9980 C   0  0  0  0  0
    5.2480    0.6510   15.9800 O   0  0  0  0  0
    4.6690   -1.5250   15.0080 C   0  0  0  0  0
    4.9980   -2.6690   15.9100 N   0  3  0  0  0
    5.4410   -2.2190   17.2490 C   0  0  0  0  0
    3.7180   -3.4410   16.0240 C   0  0  0  0  0
    3.7240   -4.6950   16.8830 C   0  0  0  0  0
    4.0550   -5.9400   16.3080 C   0  0  0  0  0
    4.1620   -7.1060   17.1090 C   0  0  0  0  0
    3.9570   -7.0060   18.5050 C   0  0  0  0  0
    3.3860   -4.6320   18.2480 C   0  0  0  0  0
    3.5020   -5.7910   19.0630 C   0  0  0  0  0
    6.1210   -3.3330   15.2910 N   0  0  0  0  0
    6.0670   -4.0330   14.1400 C   0  0  0  0  0
    5.0150   -4.2240   13.5230 O   0  0  0  0  0
    7.3600   -4.5790   13.6740 C   0  0  0  0  0
    7.3430   -5.4900   12.5820 C   0  0  0  0  0
    8.5210   -6.1010   12.1230 C   0  0  0  0  0
    9.7140   -5.7960   12.7960 C   0  0  0  0  0
    8.5930   -4.2220   14.2790 C   0  0  0  0  0
    9.7810   -4.8390   13.8380 C   0  0  0  0  0
    0.3582    0.5525   13.0637 H   0  0  0  0  0
   -0.3760    0.1727   11.4865 H   0  0  0  0  0
    1.0696   -0.7126   12.0320 H   0  0  0  0  0
   -0.2649    2.5077   10.8725 H   0  0  0  0  0
    0.4693    2.8876   12.4497 H   0  0  0  0  0
    1.2560    3.4308   10.9474 H   0  0  0  0  0
    2.3910    0.0594    9.8521 H   0  0  0  0  0
    0.9454    0.9343    9.2902 H   0  0  0  0  0
    2.4856    1.8027    9.5012 H   0  0  0  0  0
    4.3897    1.9275   13.5898 H   0  0  0  0  0
    5.8110   -0.5909   12.8949 H   0  0  0  0  0
    7.8370    0.5296   13.4197 H   0  0  0  0  0
    6.9280    1.9489   14.1009 H   0  0  0  0  0
    6.7116   -0.0323   10.8883 H   0  0  0  0  0
    6.6689    1.1242    8.6572 H   0  0  0  0  0
    6.9096    3.6080    8.5496 H   0  0  0  0  0
    7.2429    3.8068   12.8581 H   0  0  0  0  0
    7.1823    4.9719   10.6311 H   0  0  0  0  0
    6.6460   -0.6421   15.2730 H   0  0  0  0  0
    5.2192    0.2355   16.8450 H   0  0  0  0  0
    4.6953   -1.9316   13.9970 H   0  0  0  0  0
    3.7182   -1.1318   15.3677 H   0  0  0  0  0
    6.3334   -1.6015   17.1465 H   0  0  0  0  0
    4.6467   -1.6371   17.7165 H   0  0  0  0  0
    5.6680   -3.0882   17.8663 H   0  0  0  0  0
    3.4909   -3.7805   15.0134 H   0  0  0  0  0
    3.0101   -2.7635   16.5015 H   0  0  0  0  0
    4.2308   -6.0069   15.2344 H   0  0  0  0  0
    4.3994   -8.0676   16.6540 H   0  0  0  0  0
    4.1497   -7.8645   19.1484 H   0  0  0  0  0
    3.0354   -3.6947   18.6800 H   0  0  0  0  0
    3.2395   -5.7419   20.1198 H   0  0  0  0  0
    7.0242   -3.2674   15.7605 H   0  0  0  0  0
    6.3967   -5.7185   12.0916 H   0  0  0  0  0
    8.5092   -6.7865   11.2757 H   0  0  0  0  0
   10.6263   -6.3168   12.5050 H   0  0  0  0  0
    8.6210   -3.4789   15.0759 H   0  0  0  0  0
   10.7381   -4.5832   14.2926 H   0  0  0  0  0
  1  5  1  0  0  0
  1  4  1  0  0  0
  1  3  1  0  0  0
  1  2  1  0  0  0
  5  6  1  0  0  0
  6  8  1  0  0  0
  6  7  2  0  0  0
  8  9  1  0  0  0
  9 17  1  0  0  0
  9 10  1  0  0  0
 10 11  1  0  0  0
 11 15  4  0  0  0
 11 12  4  0  0  0
 12 13  4  0  0  0
 13 14  4  0  0  0
 14 16  4  0  0  0
 16 15  4  0  0  0
 17 19  1  0  0  0
 17 18  1  0  0  0
 19 20  1  0  0  0
 20 29  1  0  0  0
 20 22  1  0  0  0
 20 21  1  0  0  0
 22 23  1  0  0  0
 23 27  4  0  0  0
 23 24  4  0  0  0
 24 25  4  0  0  0
 25 26  4  0  0  0
 26 28  4  0  0  0
 28 27  4  0  0  0
 29 30  1  0  0  0
 30 32  1  0  0  0
 30 31  2  0  0  0
 32 36  4  0  0  0
 32 33  4  0  0  0
 33 34  4  0  0  0
 34 35  4  0  0  0
 35 37  4  0  0  0
 37 36  4  0  0  0
  2 38  1  0  0  0
  2 39  1  0  0  0
  2 40  1  0  0  0
  3 41  1  0  0  0
  3 42  1  0  0  0
  3 43  1  0  0  0
  4 44  1  0  0  0
  4 45  1  0  0  0
  4 46  1  0  0  0
  8 47  1  0  0  0
  9 48  1  0  0  0
 10 49  1  0  0  0
 10 50  1  0  0  0
 12 51  1  0  0  0
 13 52  1  0  0  0
 14 53  1  0  0  0
 15 54  1  0  0  0
 16 55  1  0  0  0
 17 56  1  0  0  0
 18 57  1  0  0  0
 19 58  1  0  0  0
 19 59  1  0  0  0
 21 60  1  0  0  0
 21 61  1  0  0  0
 21 62  1  0  0  0
 22 63  1  0  0  0
 22 64  1  0  0  0
 24 65  1  0  0  0
 25 66  1  0  0  0
 26 67  1  0  0  0
 27 68  1  0  0  0
 28 69  1  0  0  0
 29 70  1  0  0  0
 33 71  1  0  0  0
 34 72  1  0  0  0
 35 73  1  0  0  0
 36 74  1  0  0  0
 37 75  1  0  0  0
M  END
$$$$
