4acc_ligand
  -I-interpret- 

 55 57  0  0  0  0  0  0  0  0999 V2000
   11.2090   21.8830   13.3280 C   0  0  0  0  0
   12.5290   21.9890   14.0130 N   0  3  0  0  0
   12.6720   21.1030   15.2010 C   0  0  0  0  0
   13.7700   22.1940   13.1830 C   0  0  0  0  0
   13.8000   21.3760   11.8970 C   0  0  0  0  0
   13.9710   19.9690   12.2990 N   0  0  0  0  0
   13.6810   18.7440   11.1430 S   0  0  0  0  0
   13.6900   17.5000   11.8930 O   0  0  0  0  0
   12.6320   19.0720   10.2030 O   0  0  0  0  0
   15.2170   18.8030   10.1890 C   0  0  0  0  0
   15.2120   19.1540    8.8470 C   0  0  0  0  0
   16.4060   19.1920    8.1530 C   0  0  0  0  0
   17.6130   18.8760    8.7670 C   0  0  0  0  0
   17.5880   18.5300   10.1070 C   0  0  0  0  0
   16.4080   18.5000   10.8260 C   0  0  0  0  0
   18.8730   18.8560    8.0330 C   0  0  0  0  0
   19.0530   19.5450    6.8510 C   0  0  0  0  0
   20.1710   19.4780    6.1170 N   0  0  0  0  0
   21.1550   18.7070    6.6130 C   0  0  0  0  0
   20.9980   18.0460    7.8200 C   0  0  0  0  0
   19.8600   18.0900    8.5320 N   0  0  0  0  0
   22.0660   17.1780    8.3690 C   0  0  0  0  0
   23.1560   17.0920    7.8240 O   0  0  0  0  0
   21.6590   16.4800    9.4900 N   0  0  0  0  0
   22.4590   15.6880   10.3250 C   0  0  0  0  0
   21.8450   15.0640   11.3910 C   0  0  0  0  0
   22.6020   14.2980   12.2610 C   0  0  0  0  0
   23.9590   14.1880   12.0090 C   0  0  0  0  0
   24.5750   14.7750   10.9710 N   0  0  0  0  0
   23.8240   15.5200   10.1540 C   0  0  0  0  0
   22.3320   18.5790    5.8790 N   0  0  0  0  0
   11.0163   22.7990   12.7696 H   0  0  0  0  0
   11.2234   21.0349   12.6435 H   0  0  0  0  0
   10.4257   21.7379   14.0719 H   0  0  0  0  0
   12.4680   22.9342   14.3915 H   0  0  0  0  0
   12.9853   20.1106   14.8769 H   0  0  0  0  0
   13.4203   21.5195   15.8753 H   0  0  0  0  0
   11.7147   21.0326   15.7175 H   0  0  0  0  0
   14.6190   21.8756   13.7879 H   0  0  0  0  0
   13.7971   23.2455   12.8973 H   0  0  0  0  0
   14.6150   21.6982   11.2489 H   0  0  0  0  0
   12.8799   21.5099   11.3282 H   0  0  0  0  0
   14.2569   19.7306   13.2487 H   0  0  0  0  0
   14.2755   19.3974    8.3451 H   0  0  0  0  0
   16.4018   19.4760    7.1007 H   0  0  0  0  0
   18.5220   18.2749   10.6076 H   0  0  0  0  0
   16.4152   18.2402   11.8846 H   0  0  0  0  0
   18.2405   20.1786    6.4953 H   0  0  0  0  0
   20.6715   16.5484    9.7359 H   0  0  0  0  0
   20.7718   15.1732   11.5472 H   0  0  0  0  0
   22.1452   13.7985   13.1154 H   0  0  0  0  0
   24.5617   13.5903   12.6929 H   0  0  0  0  0
   24.3077   16.0187    9.3141 H   0  0  0  0  0
   22.4323   19.0642    4.9874 H   0  0  0  0  0
   23.0935   18.0001    6.2331 H   0  0  0  0  0
  1  2  1  0  0  0
  2  3  1  0  0  0
  2  4  1  0  0  0
  4  5  1  0  0  0
  5  6  1  0  0  0
  6  7  1  0  0  0
  7  8  2  0  0  0
  7  9  2  0  0  0
  7 10  1  0  0  0
 10 11  4  0  0  0
 10 15  4  0  0  0
 11 12  4  0  0  0
 12 13  4  0  0  0
 13 14  4  0  0  0
 13 16  1  0  0  0
 14 15  4  0  0  0
 16 17  4  0  0  0
 16 21  4  0  0  0
 17 18  4  0  0  0
 18 19  4  0  0  0
 19 20  4  0  0  0
 19 31  1  0  0  0
 20 21  4  0  0  0
 20 22  1  0  0  0
 22 23  2  0  0  0
 22 24  1  0  0  0
 24 25  1  0  0  0
 25 26  4  0  0  0
 25 30  4  0  0  0
 26 27  4  0  0  0
 27 28  4  0  0  0
 28 29  4  0  0  0
 29 30  4  0  0  0
  1 32  1  0  0  0
  1 33  1  0  0  0
  1 34  1  0  0  0
  2 35  1  0  0  0
  3 36  1  0  0  0
  3 37  1  0  0  0
  3 38  1  0  0  0
  4 39  1  0  0  0
  4 40  1  0  0  0
  5 41  1  0  0  0
  5 42  1  0  0  0
  6 43  1  0  0  0
 11 44  1  0  0  0
 12 45  1  0  0  0
 14 46  1  0  0  0
 15 47  1  0  0  0
 17 48  1  0  0  0
 24 49  1  0  0  0
 26 50  1  0  0  0
 27 51  1  0  0  0
 28 52  1  0  0  0
 30 53  1  0  0  0
 31 54  1  0  0  0
 31 55  1  0  0  0
M  END
$$$$
