1f8b_ligand
  -I-interpret- 

 37 37  0  0  0  0  0  0  0  0999 V2000
   23.5900   19.8170   64.7510 C   0  0  0  0  0
   24.2140   18.8270   63.9990 C   0  0  0  0  0
   23.6030   17.6610   63.6220 C   0  0  0  0  0
   24.2540   16.6260   62.6510 C   0  0  0  0  0
   25.7790   16.7630   62.6410 C   0  0  0  0  0
   26.1590   18.2850   62.5250 C   0  0  0  0  0
   27.7080   18.5040   62.6430 C   0  0  0  0  0
   28.0510   19.9440   62.4810 C   0  0  0  0  0
   29.5300   20.2110   62.8080 C   0  0  0  0  0
   27.0810   14.9330   61.6470 C   0  0  0  0  0
   27.5840   14.2060   60.4190 C   0  0  0  0  0
   26.3170   16.0110   61.4920 N   0  0  0  0  0
   24.1940   20.8920   64.9420 O   0  0  0  0  0
   22.4530   19.6280   65.2260 O   0  0  0  0  0
   23.9190   15.3180   63.0330 O   0  0  0  0  0
   25.5330   19.0520   63.6170 O   0  0  0  0  0
   28.2370   18.1020   63.9050 O   0  0  0  0  0
   27.7740   20.3100   61.1710 O   0  0  0  0  0
   30.3970   19.5330   61.8950 O   0  0  0  0  0
   27.3990   14.4990   62.7490 O   0  0  0  0  0
   22.6117   17.4443   64.0200 H   0  0  0  0  0
   23.8706   16.8286   61.6510 H   0  0  0  0  0
   26.2029   16.3624   63.5618 H   0  0  0  0  0
   25.8072   18.6221   61.5500 H   0  0  0  0  0
   28.1426   17.8900   61.8542 H   0  0  0  0  0
   27.4566   20.5362   63.1767 H   0  0  0  0  0
   29.7333   19.8455   63.8146 H   0  0  0  0  0
   29.7139   21.2825   62.7291 H   0  0  0  0  0
   28.6740   14.2075   60.4185 H   0  0  0  0  0
   27.2208   13.1784   60.4325 H   0  0  0  0  0
   27.2183   14.7103   59.5245 H   0  0  0  0  0
   26.0961   16.3277   60.5479 H   0  0  0  0  0
   25.0485   20.8595   64.5057 H   0  0  0  0  0
   22.9637   15.2232   63.0419 H   0  0  0  0  0
   28.0385   17.1745   64.0531 H   0  0  0  0  0
   27.9891   21.2373   61.0467 H   0  0  0  0  0
   31.3104   19.7189   62.1248 H   0  0  0  0  0
  1 14  2  0  0  0
  1 13  1  0  0  0
  1  2  1  0  0  0
  2 16  1  0  0  0
  2  3  2  0  0  0
  3  4  1  0  0  0
  4 15  1  0  0  0
  4  5  1  0  0  0
  5 12  1  0  0  0
  5  6  1  0  0  0
  6 16  1  0  0  0
  6  7  1  0  0  0
  7 17  1  0  0  0
  7  8  1  0  0  0
  8 18  1  0  0  0
  8  9  1  0  0  0
  9 19  1  0  0  0
 12 10  1  0  0  0
 10 20  2  0  0  0
 10 11  1  0  0  0
  3 21  1  0  0  0
  4 22  1  0  0  0
  5 23  1  0  0  0
  6 24  1  0  0  0
  7 25  1  0  0  0
  8 26  1  0  0  0
  9 27  1  0  0  0
  9 28  1  0  0  0
 11 29  1  0  0  0
 11 30  1  0  0  0
 11 31  1  0  0  0
 12 32  1  0  0  0
 13 33  1  0  0  0
 15 34  1  0  0  0
 17 35  1  0  0  0
 18 36  1  0  0  0
 19 37  1  0  0  0
M  END
$$$$
