4zph_ligand
  -I-interpret- 

 27 29  0  0  0  0  0  0  0  0999 V2000
  169.9000 -110.3160 -113.5030 C   0  0  0  0  0
  168.9990 -111.3080 -113.8620 C   0  0  0  0  0
  168.9840 -112.5160 -113.1650 C   0  0  0  0  0
  169.8650 -112.7300 -112.1130 C   0  0  0  0  0
  173.3650 -111.2110 -109.3470 C   0  0  0  0  0
  174.2600 -110.2240 -108.9800 C   0  0  0  0  0
  174.2930 -109.0180 -109.6580 C   0  0  0  0  0
  173.4200 -108.7890 -110.7070 C   0  0  0  0  0
  171.6600 -109.5560 -112.0940 C   0  0  0  0  0
  171.6150 -111.9500 -110.7440 N   0  0  0  0  0
  170.7560 -111.7350 -111.7620 C   0  0  0  0  0
  172.5170 -109.7770 -111.0700 C   0  0  0  0  0
  170.7780 -110.5310 -112.4490 C   0  0  0  0  0
  172.4930 -110.9820 -110.3930 C   0  0  0  0  0
  168.0660 -113.5430 -113.5290 N   0  0  0  0  0
  175.1610 -110.4530 -107.9160 N   0  0  0  0  0
  169.9186 -109.3713 -114.0464 H   0  0  0  0  0
  168.3049 -111.1438 -114.6863 H   0  0  0  0  0
  169.8533 -113.6747 -111.5693 H   0  0  0  0  0
  173.3475 -112.1623 -108.8152 H   0  0  0  0  0
  175.0070 -108.2481 -109.3656 H   0  0  0  0  0
  173.4419 -107.8403 -111.2433 H   0  0  0  0  0
  171.6756 -108.6067 -112.6294 H   0  0  0  0  0
  167.4167 -113.3962 -114.3018 H   0  0  0  0  0
  168.0581 -114.4250 -113.0168 H   0  0  0  0  0
  175.1497 -111.3448 -107.4211 H   0  0  0  0  0
  175.8228 -109.7265 -107.6428 H   0  0  0  0  0
  1  2  4  0  0  0
 13  1  4  0  0  0
  2  3  4  0  0  0
  3  4  4  0  0  0
  3 15  1  0  0  0
  4 11  4  0  0  0
  6  5  4  0  0  0
  5 14  4  0  0  0
  7  6  4  0  0  0
  6 16  1  0  0  0
  8  7  4  0  0  0
 12  8  4  0  0  0
  9 12  4  0  0  0
  9 13  4  0  0  0
 11 10  4  0  0  0
 10 14  4  0  0  0
 11 13  4  0  0  0
 12 14  4  0  0  0
  1 17  1  0  0  0
  2 18  1  0  0  0
  4 19  1  0  0  0
  5 20  1  0  0  0
  7 21  1  0  0  0
  8 22  1  0  0  0
  9 23  1  0  0  0
 15 24  1  0  0  0
 15 25  1  0  0  0
 16 26  1  0  0  0
 16 27  1  0  0  0
M  END
$$$$
