3k23_ligand
  -I-interpret- 

 84 88  0  0  0  0  0  0  0  0999 V2000
   61.0690    1.1580   -6.9920 C   0  0  0  0  0
   60.9970    5.9700  -10.4830 F   0  0  0  0  0
   61.4420    5.2510   -4.7570 N   0  0  0  0  0
   61.8220    1.1090   -8.1950 O   0  0  0  0  0
   61.6770    2.3600   -8.7480 C   0  0  0  0  0
   64.3560    3.5060   -3.5300 F   0  0  0  0  0
   58.1520    6.9810   -2.1160 N   0  0  0  0  0
   63.8520    5.2140   -4.8970 O   0  0  0  0  0
   60.4940    2.5910   -9.4080 C   0  0  0  0  0
   62.4090    2.6410   -3.9310 F   0  0  0  0  0
   59.2510    7.7300   -1.9610 N   0  0  0  0  0
   57.3310    5.0990    2.2140 O   0  0  0  0  0
   60.2640    3.8120   -9.9930 C   0  0  0  0  0
   64.1960    1.9570   -5.0160 F   0  0  0  0  0
   55.3070    5.6790    3.0210 N   0  0  0  0  0
   53.5210    7.3220    3.7490 O   0  0  0  0  0
   61.2290    4.7830   -9.9100 C   0  0  0  0  0
   54.1880    6.9720    5.9250 N   0  0  0  0  0
   62.4160    4.5490   -9.2530 C   0  0  0  0  0
   62.6600    3.3290   -8.6550 C   0  0  0  0  0
   63.9720    3.1200   -7.9550 C   0  0  0  0  0
   64.2110    1.6880   -7.5510 C   0  0  0  0  0
   65.0530    3.4130   -8.9720 C   0  0  0  0  0
   64.2410    4.0700   -6.8050 C   0  0  0  0  0
   63.3480    4.0930   -5.5800 C   0  0  0  0  0
   61.8910    4.3840   -5.8380 C   0  0  0  0  0
   60.1180    5.1090   -4.3360 C   0  0  0  0  0
   59.2480    4.1260   -4.7440 C   0  0  0  0  0
   57.9580    4.0540   -4.2850 C   0  0  0  0  0
   57.1040    2.9450   -4.7960 C   0  0  0  0  0
   57.4460    4.9610   -3.3880 C   0  0  0  0  0
   58.3160    5.9350   -2.9810 C   0  0  0  0  0
   60.1410    7.1510   -2.7700 C   0  0  0  0  0
   59.6130    6.0200   -3.4320 C   0  0  0  0  0
   57.0940    7.1040   -1.2360 C   0  0  0  0  0
   56.0100    7.8940   -1.5430 C   0  0  0  0  0
   54.9750    7.9740   -0.6340 C   0  0  0  0  0
   55.0290    7.2760    0.5560 C   0  0  0  0  0
   56.1290    6.4940    0.8350 C   0  0  0  0  0
   57.1710    6.4040   -0.0610 C   0  0  0  0  0
   56.2870    5.7140    2.0690 C   0  0  0  0  0
   54.9100    4.3540    3.3960 C   0  0  0  0  0
   55.6640    3.9990    4.6620 C   0  0  0  0  0
   56.0550    5.3100    5.2610 C   0  0  0  0  0
   55.6380    6.3440    4.2390 C   0  0  0  0  0
   54.3300    6.9350    4.5750 C   0  0  0  0  0
   63.5650    3.0350   -4.5270 C   0  0  0  0  0
   61.4715    1.9369   -6.3444 H   0  0  0  0  0
   60.0277    1.3800   -7.2254 H   0  0  0  0  0
   61.1318    0.1946   -6.4861 H   0  0  0  0  0
   62.0673    5.9321   -4.3263 H   0  0  0  0  0
   63.3587    5.3399   -4.0831 H   0  0  0  0  0
   59.7396    1.8065   -9.4671 H   0  0  0  0  0
   59.3277    4.0067  -10.5159 H   0  0  0  0  0
   53.3366    7.3527    6.3380 H   0  0  0  0  0
   54.9327    6.6190    6.5260 H   0  0  0  0  0
   63.1702    5.3344   -9.2046 H   0  0  0  0  0
   63.4212    1.3668   -6.8719 H   0  0  0  0  0
   64.2078    1.0559   -8.4390 H   0  0  0  0  0
   65.1763    1.6092   -7.0509 H   0  0  0  0  0
   64.9490    2.7325   -9.8171 H   0  0  0  0  0
   64.9551    4.4419   -9.3182 H   0  0  0  0  0
   66.0310    3.2749   -8.5109 H   0  0  0  0  0
   64.1093    5.0587   -7.2447 H   0  0  0  0  0
   65.2082    3.7480   -6.4190 H   0  0  0  0  0
   61.7559    4.8668   -6.8059 H   0  0  0  0  0
   61.3090    3.4628   -5.8655 H   0  0  0  0  0
   59.5956    3.3782   -5.4568 H   0  0  0  0  0
   57.0198    3.0229   -5.8799 H   0  0  0  0  0
   57.5566    1.9889   -4.5332 H   0  0  0  0  0
   56.1131    3.0149   -4.3473 H   0  0  0  0  0
   56.4191    4.9079   -3.0265 H   0  0  0  0  0
   61.1611    7.5106   -2.9048 H   0  0  0  0  0
   55.9698    8.4442   -2.4831 H   0  0  0  0  0
   54.1068    8.5940   -0.8575 H   0  0  0  0  0
   54.2077    7.3429    1.2695 H   0  0  0  0  0
   58.0415    5.7867    0.1609 H   0  0  0  0  0
   55.1416    3.6453    2.6008 H   0  0  0  0  0
   53.8342    4.3102    3.5659 H   0  0  0  0  0
   56.5334    3.3758    4.4525 H   0  0  0  0  0
   55.0515    3.4101    5.3447 H   0  0  0  0  0
   57.1235    5.3565    5.4714 H   0  0  0  0  0
   55.5724    5.4751    6.2243 H   0  0  0  0  0
   56.4524    7.0669    4.1908 H   0  0  0  0  0
  4  1  1  0  0  0
 17  2  1  0  0  0
  3 26  1  0  0  0
 27  3  1  0  0  0
  5  4  1  0  0  0
  5  9  4  0  0  0
 20  5  4  0  0  0
 47  6  1  0  0  0
  7 11  4  0  0  0
  7 32  4  0  0  0
 35  7  1  0  0  0
 25  8  1  0  0  0
  9 13  4  0  0  0
 47 10  1  0  0  0
 11 33  4  0  0  0
 41 12  2  0  0  0
 17 13  4  0  0  0
 47 14  1  0  0  0
 15 41  1  0  0  0
 15 42  1  0  0  0
 45 15  1  0  0  0
 46 16  2  0  0  0
 19 17  4  0  0  0
 46 18  1  0  0  0
 20 19  4  0  0  0
 21 20  1  0  0  0
 21 22  1  0  0  0
 21 23  1  0  0  0
 24 21  1  0  0  0
 25 24  1  0  0  0
 26 25  1  0  0  0
 25 47  1  0  0  0
 27 28  4  0  0  0
 34 27  4  0  0  0
 29 28  4  0  0  0
 29 30  1  0  0  0
 31 29  4  0  0  0
 32 31  4  0  0  0
 32 34  4  0  0  0
 34 33  4  0  0  0
 35 36  4  0  0  0
 40 35  4  0  0  0
 37 36  4  0  0  0
 38 37  4  0  0  0
 39 38  4  0  0  0
 39 40  4  0  0  0
 41 39  1  0  0  0
 43 42  1  0  0  0
 44 43  1  0  0  0
 45 44  1  0  0  0
 45 46  1  0  0  0
  1 48  1  0  0  0
  1 49  1  0  0  0
  1 50  1  0  0  0
  3 51  1  0  0  0
  8 52  1  0  0  0
  9 53  1  0  0  0
 13 54  1  0  0  0
 18 55  1  0  0  0
 18 56  1  0  0  0
 19 57  1  0  0  0
 22 58  1  0  0  0
 22 59  1  0  0  0
 22 60  1  0  0  0
 23 61  1  0  0  0
 23 62  1  0  0  0
 23 63  1  0  0  0
 24 64  1  0  0  0
 24 65  1  0  0  0
 26 66  1  0  0  0
 26 67  1  0  0  0
 28 68  1  0  0  0
 30 69  1  0  0  0
 30 70  1  0  0  0
 30 71  1  0  0  0
 31 72  1  0  0  0
 33 73  1  0  0  0
 36 74  1  0  0  0
 37 75  1  0  0  0
 38 76  1  0  0  0
 40 77  1  0  0  0
 42 78  1  0  0  0
 42 79  1  0  0  0
 43 80  1  0  0  0
 43 81  1  0  0  0
 44 82  1  0  0  0
 44 83  1  0  0  0
 45 84  1  0  0  0
M  END
$$$$
