2qry_ligand
  -I-interpret- 

 40 41  0  0  0  0  0  0  0  0999 V2000
    9.8580   44.3530  109.6850 C   0  0  0  0  0
    7.6780   50.3510  111.2580 N   0  3  0  0  0
    8.9510   50.3080  110.9180 C   0  0  0  0  0
    9.4980   51.9300  111.1200 S   0  0  0  0  0
    7.9700   52.6320  111.6710 C   0  0  0  0  0
    7.1330   51.5370  111.6510 C   0  0  0  0  0
    5.6710   51.6690  112.0630 C   0  0  0  0  0
    7.7930   54.0720  112.0390 C   0  0  0  0  0
    9.1690   54.6330  111.6800 C   0  0  0  0  0
    9.3320   56.0150  111.9740 O   0  0  0  0  0
    8.8200   45.8370  111.3500 N   0  0  0  0  0
    9.0710   45.5870  110.0620 C   0  0  0  0  0
    8.6410   46.4090  109.1070 N   0  0  0  0  0
    7.9370   47.5230  109.4020 C   0  0  0  0  0
    7.5070   48.3610  108.3890 N   0  0  0  0  0
    7.6490   47.8250  110.7710 C   0  0  0  0  0
    8.1280   46.9210  111.7340 C   0  0  0  0  0
    6.8550   49.0780  111.2130 C   0  0  0  0  0
   10.8320   56.4040  111.5150 P   0  0  0  0  0
   11.8480   55.4540  112.2090 O   0  0  0  0  0
   11.1520   57.9240  111.8200 O   0  0  0  0  0
   10.9410   56.1890  109.9900 O   0  0  0  0  0
   10.8435   44.3965  110.1486 H   0  0  0  0  0
    9.3296   43.4659  110.0342 H   0  0  0  0  0
    9.9664   44.3098  108.6013 H   0  0  0  0  0
    9.5262   49.4440  110.5852 H   0  0  0  0  0
    5.0322   51.3763  111.2297 H   0  0  0  0  0
    5.4757   51.0209  112.9173 H   0  0  0  0  0
    5.4636   52.7038  112.3354 H   0  0  0  0  0
    7.5086   54.2307  113.0792 H   0  0  0  0  0
    6.9674   54.5619  111.5228 H   0  0  0  0  0
    9.2917   54.5174  110.6031 H   0  0  0  0  0
    9.9025   54.0895  112.2756 H   0  0  0  0  0
    7.7215   48.1380  107.4171 H   0  0  0  0  0
    6.9754   49.2019  108.6139 H   0  0  0  0  0
    7.9377   47.0999  112.7923 H   0  0  0  0  0
    6.0633   49.2324  110.4799 H   0  0  0  0  0
    6.4960   48.8910  112.2251 H   0  0  0  0  0
   11.7964   55.5720  113.1603 H   0  0  0  0  0
   11.0896   58.0796  112.7653 H   0  0  0  0  0
 12  1  1  0  0  0
  2  3  4  0  0  0
  2  6  4  0  0  0
 18  2  1  0  0  0
  3  4  4  0  0  0
  5  4  4  0  0  0
  6  5  4  0  0  0
  5  8  1  0  0  0
  6  7  1  0  0  0
  8  9  1  0  0  0
  9 10  1  0  0  0
 10 19  1  0  0  0
 11 12  4  0  0  0
 17 11  4  0  0  0
 13 12  4  0  0  0
 14 13  4  0  0  0
 14 15  1  0  0  0
 16 14  4  0  0  0
 16 17  4  0  0  0
 16 18  1  0  0  0
 19 20  1  0  0  0
 19 21  1  0  0  0
 19 22  2  0  0  0
  1 23  1  0  0  0
  1 24  1  0  0  0
  1 25  1  0  0  0
  3 26  1  0  0  0
  7 27  1  0  0  0
  7 28  1  0  0  0
  7 29  1  0  0  0
  8 30  1  0  0  0
  8 31  1  0  0  0
  9 32  1  0  0  0
  9 33  1  0  0  0
 15 34  1  0  0  0
 15 35  1  0  0  0
 17 36  1  0  0  0
 18 37  1  0  0  0
 18 38  1  0  0  0
 20 39  1  0  0  0
 21 40  1  0  0  0
M  END
$$$$
