### 
### Created by X-TOOL on Mon Sep 10 21:12:58 2018
### 

@<TRIPOS>MOLECULE
2qry_ligand
   38    39     1     0     0
SMALL
GAST_HUCK


@<TRIPOS>ATOM
      1 CM2         9.8580   44.3530  109.6850 C.3       1 TPS        -0.0029
      2 N3          7.6780   50.3510  111.2580 N.2       1 TPS        -0.2745
      3 C2          8.9510   50.3080  110.9180 C.2       1 TPS         0.1352
      4 S1          9.4980   51.9300  111.1200 S.3       1 TPS         0.1156
      5 C5          7.9700   52.6320  111.6710 C.2       1 TPS         0.1729
      6 C4          7.1330   51.5370  111.6510 C.2       1 TPS         0.1309
      7 CM4         5.6710   51.6690  112.0630 C.3       1 TPS         0.0228
      8 C6          7.7930   54.0720  112.0390 C.3       1 TPS         0.0822
      9 C7          9.1690   54.6330  111.6800 C.3       1 TPS         0.1075
     10 O7          9.3320   56.0150  111.9740 O.3       1 TPS        -0.2702
     11 N1A         8.8200   45.8370  111.3500 N.ar      1 TPS        -0.2938
     12 C2A         9.0710   45.5870  110.0620 C.ar      1 TPS         0.0758
     13 N3A         8.6410   46.4090  109.1070 N.ar      1 TPS        -0.2610
     14 C4A         7.9370   47.5230  109.4020 C.ar      1 TPS         0.1223
     15 N4A         7.5070   48.3610  108.3890 N.pl3     1 TPS        -0.3187
     16 C5A         7.6490   47.8250  110.7710 C.ar      1 TPS         0.0328
     17 C6A         8.1280   46.9210  111.7340 C.ar      1 TPS         0.0074
     18 C7A         6.8550   49.0780  111.2130 C.3       1 TPS         0.0562
     19 P1         10.8320   56.4040  111.5150 P.3       1 TPS         0.2013
     20 O1         11.8480   55.4540  112.2090 O.co2     1 TPS        -0.5537
     21 O2         11.1520   57.9240  111.8200 O.co2     1 TPS        -0.5537
     22 O3         10.9410   56.1890  109.9900 O.co2     1 TPS        -0.5537
     23 H1         10.1277   43.7978  110.5955 H         1 TPS         0.0449
     24 H2         10.7733   44.6504  109.1523 H         1 TPS         0.0449
     25 H3          9.2458   43.7127  109.0329 H         1 TPS         0.0449
     26 H4          9.5257   49.4448  110.5855 H         1 TPS         0.1655
     27 H5          5.4605   52.7130  112.3382 H         1 TPS         0.0599
     28 H6          5.4726   51.0154  112.9252 H         1 TPS         0.0599
     29 H7          5.0252   51.3739  111.2229 H         1 TPS         0.0599
     30 H8          7.5744   54.1917  113.1104 H         1 TPS         0.0772
     31 H9          6.9961   54.5458  111.4470 H         1 TPS         0.0772
     32 H10         9.3291   54.4890  110.6013 H         1 TPS         0.0678
     33 H11         9.9283   54.0693  112.2419 H         1 TPS         0.0678
     34 H12         6.9702   49.2102  108.6161 H         1 TPS         0.1789
     35 H13         7.7236   48.1358  107.4075 H         1 TPS         0.1789
     36 H14         7.9388   47.0989  112.7864 H         1 TPS         0.0791
     37 H15         6.0257   49.2280  110.5061 H         1 TPS         0.0563
     38 H16         6.4504   48.8929  112.2190 H         1 TPS         0.0563
@<TRIPOS>BOND
     1   12    1 1  
     2    2    3 2  
     3    2    6 1  
     4   18    2 1  
     5    3    4 1  
     6    5    4 1  
     7    6    5 2  
     8    5    8 1  
     9    6    7 1  
    10    8    9 1  
    11    9   10 1  
    12   10   19 1  
    13   11   12 ar 
    14   17   11 ar 
    15   13   12 ar 
    16   14   13 ar 
    17   14   15 1  
    18   16   14 ar 
    19   16   17 ar 
    20   16   18 1  
    21   19   20 ar 
    22   19   21 ar 
    23   19   22 ar 
    24    1   23 1  
    25    1   24 1  
    26    1   25 1  
    27    3   26 1  
    28    7   27 1  
    29    7   28 1  
    30    7   29 1  
    31    8   30 1  
    32    8   31 1  
    33    9   32 1  
    34    9   33 1  
    35   15   34 1  
    36   15   35 1  
    37   17   36 1  
    38   18   37 1  
    39   18   38 1  
@<TRIPOS>SUBSTRUCTURE
     1 TPS         1

