### 
### Created by X-TOOL on Mon Sep 10 21:12:55 2018
### 

@<TRIPOS>MOLECULE
2gbg_ligand
   43    44     1     0     0
SMALL
GAST_HUCK


@<TRIPOS>ATOM
      1 C2         14.3610   39.0000  -83.1140 C.3       1 1AD         0.1097
      2 C3         16.4110   37.7450  -83.5180 C.3       1 1AD         0.1050
      3 C4         14.8830   36.9140  -81.6770 C.2       1 1AD         0.2314
      4 C5         14.8470   39.2990  -84.5430 C.3       1 1AD        -0.0131
      5 C6         14.6680   40.1120  -82.1960 C.1       1 1AD        -0.0741
      6 C7         16.3150   38.8840  -84.5390 C.3       1 1AD        -0.0084
      7 C8         17.7420   37.9930  -82.7940 C.2       1 1AD         0.0209
      8 C9         13.5590   37.0330  -80.8550 C.3       1 1AD         0.0682
      9 N1         15.1820   37.8400  -82.6970 N.am      1 1AD        -0.2312
     10 O10        15.6140   35.9620  -81.3790 O.2       1 1AD        -0.3904
     11 C11        14.8760   40.9770  -81.4080 C.1       1 1AD        -0.1033
     12 N12        17.7630   38.2940  -81.4990 N.2       1 1AD        -0.3619
     13 C13        13.5980   37.8680  -79.5570 C.3       1 1AD         0.0195
     14 N14        13.1490   35.6580  -80.6030 N.4       1 1AD         0.2381
     15 C15        15.0730   42.0280  -80.4270 C.3       1 1AD        -0.0025
     16 C16        12.3900   37.7640  -78.6340 C.3       1 1AD        -0.0429
     17 C17        14.7160   37.6120  -78.5570 C.3       1 1AD        -0.0429
     18 C18        12.8030   38.6880  -77.4930 C.3       1 1AD        -0.0525
     19 C19        14.3400   38.5880  -77.4380 C.3       1 1AD        -0.0525
     20 H1         13.2850   38.7723  -83.0981 H         1 1AD         0.0699
     21 H2         16.4409   36.7613  -84.0093 H         1 1AD         0.0842
     22 H3         14.7459   40.3700  -84.7724 H         1 1AD         0.0300
     23 H4         14.2784   38.7112  -85.2786 H         1 1AD         0.0300
     24 H5         16.6190   38.5339  -85.5365 H         1 1AD         0.0324
     25 H6         16.9529   39.7275  -84.2363 H         1 1AD         0.0324
     26 H7         18.6778   37.9217  -83.3463 H         1 1AD         0.1225
     27 H8         12.8094   37.5100  -81.5035 H         1 1AD         0.1101
     28 H9         18.6423   38.4550  -81.0332 H         1 1AD         0.1054
     29 H10        13.6823   38.9104  -79.8981 H         1 1AD         0.0381
     30 H11        13.1358   35.1468  -81.4716 H         1 1AD         0.2015
     31 H12        12.2271   35.6516  -80.1954 H         1 1AD         0.2015
     32 H13        13.8004   35.2242  -79.9677 H         1 1AD         0.2015
     33 H14        16.1069   42.3983  -80.4891 H         1 1AD         0.0362
     34 H15        14.8865   41.6286  -79.4192 H         1 1AD         0.0362
     35 H16        14.3750   42.8538  -80.6291 H         1 1AD         0.0362
     36 H17        12.2399   36.7326  -78.2823 H         1 1AD         0.0271
     37 H18        11.4740   38.1198  -79.1284 H         1 1AD         0.0271
     38 H19        15.7016   37.8484  -78.9843 H         1 1AD         0.0271
     39 H20        14.7101   36.5706  -78.2029 H         1 1AD         0.0271
     40 H21        12.3593   38.3531  -76.5438 H         1 1AD         0.0265
     41 H22        12.4897   39.7220  -77.6996 H         1 1AD         0.0265
     42 H23        14.7977   39.5726  -77.6142 H         1 1AD         0.0265
     43 H24        14.6672   38.2010  -76.4617 H         1 1AD         0.0265
@<TRIPOS>BOND
     1    1    4 1  
     2    1    5 1  
     3    9    1 1  
     4    2    6 1  
     5    2    7 1  
     6    9    2 1  
     7    3    8 1  
     8    3    9 am 
     9    3   10 2  
    10    4    6 1  
    11    5   11 3  
    12    7   12 2  
    13    8   13 1  
    14    8   14 1  
    15   11   15 1  
    16   13   16 1  
    17   13   17 1  
    18   16   18 1  
    19   17   19 1  
    20   18   19 1  
    21    1   20 1  
    22    2   21 1  
    23    4   22 1  
    24    4   23 1  
    25    6   24 1  
    26    6   25 1  
    27    7   26 1  
    28    8   27 1  
    29   12   28 1  
    30   13   29 1  
    31   14   30 1  
    32   14   31 1  
    33   14   32 1  
    34   15   33 1  
    35   15   34 1  
    36   15   35 1  
    37   16   36 1  
    38   16   37 1  
    39   17   38 1  
    40   17   39 1  
    41   18   40 1  
    42   18   41 1  
    43   19   42 1  
    44   19   43 1  
@<TRIPOS>SUBSTRUCTURE
     1 1AD         1

