2gbg_ligand
  -I-interpret- 

 43 44  0  0  0  0  0  0  0  0999 V2000
   14.3610   39.0000  -83.1140 C   0  0  0  0  0
   16.4110   37.7450  -83.5180 C   0  0  0  0  0
   14.8830   36.9140  -81.6770 C   0  0  0  0  0
   14.8470   39.2990  -84.5430 C   0  0  0  0  0
   14.6680   40.1120  -82.1960 C   0  0  0  0  0
   16.3150   38.8840  -84.5390 C   0  0  0  0  0
   17.7420   37.9930  -82.7940 C   0  0  0  0  0
   13.5590   37.0330  -80.8550 C   0  0  0  0  0
   15.1820   37.8400  -82.6970 N   0  0  0  0  0
   15.6140   35.9620  -81.3790 O   0  0  0  0  0
   14.8760   40.9770  -81.4080 C   0  0  0  0  0
   17.7630   38.2940  -81.4990 N   0  0  0  0  0
   13.5980   37.8680  -79.5570 C   0  0  0  0  0
   13.1490   35.6580  -80.6030 N   0  3  0  0  0
   15.0730   42.0280  -80.4270 C   0  0  0  0  0
   12.3900   37.7640  -78.6340 C   0  0  0  0  0
   14.7160   37.6120  -78.5570 C   0  0  0  0  0
   12.8030   38.6880  -77.4930 C   0  0  0  0  0
   14.3400   38.5880  -77.4380 C   0  0  0  0  0
   13.2839   38.8348  -83.0896 H   0  0  0  0  0
   16.4379   36.7235  -83.8973 H   0  0  0  0  0
   14.7189   40.3485  -84.8079 H   0  0  0  0  0
   14.2705   38.7578  -85.2932 H   0  0  0  0  0
   16.6442   38.5649  -85.5279 H   0  0  0  0  0
   16.9664   39.7166  -84.2734 H   0  0  0  0  0
   18.6787   37.9216  -83.3469 H   0  0  0  0  0
   12.8463   37.6109  -81.4433 H   0  0  0  0  0
   16.8893   38.3620  -80.9770 H   0  0  0  0  0
   13.7002   38.8216  -80.0749 H   0  0  0  0  0
   13.1360   35.1417  -81.4826 H   0  0  0  0  0
   13.8088   35.2201  -79.9601 H   0  0  0  0  0
   12.2161   35.6528  -80.1905 H   0  0  0  0  0
   14.3808   42.8456  -80.6284 H   0  0  0  0  0
   14.8879   41.6310  -79.4289 H   0  0  0  0  0
   16.0978   42.3941  -80.4895 H   0  0  0  0  0
   12.1699   36.7454  -78.3144 H   0  0  0  0  0
   11.4508   38.0478  -79.1088 H   0  0  0  0  0
   15.7148   37.7718  -78.9631 H   0  0  0  0  0
   14.7856   36.5743  -78.2309 H   0  0  0  0  0
   12.3443   38.3949  -76.5486 H   0  0  0  0  0
   12.4698   39.7122  -77.6608 H   0  0  0  0  0
   14.8126   39.5606  -77.5755 H   0  0  0  0  0
   14.6869   38.2393  -76.4653 H   0  0  0  0  0
  1  4  1  0  0  0
  1  5  1  0  0  0
  9  1  1  0  0  0
  2  6  1  0  0  0
  2  7  1  0  0  0
  9  2  1  0  0  0
  3  8  1  0  0  0
  3  9  1  0  0  0
  3 10  2  0  0  0
  4  6  1  0  0  0
  5 11  3  0  0  0
  7 12  2  0  0  0
  8 13  1  0  0  0
  8 14  1  0  0  0
 11 15  1  0  0  0
 13 16  1  0  0  0
 13 17  1  0  0  0
 16 18  1  0  0  0
 17 19  1  0  0  0
 18 19  1  0  0  0
  1 20  1  0  0  0
  2 21  1  0  0  0
  4 22  1  0  0  0
  4 23  1  0  0  0
  6 24  1  0  0  0
  6 25  1  0  0  0
  7 26  1  0  0  0
  8 27  1  0  0  0
 12 28  1  0  0  0
 13 29  1  0  0  0
 14 30  1  0  0  0
 14 31  1  0  0  0
 14 32  1  0  0  0
 15 33  1  0  0  0
 15 34  1  0  0  0
 15 35  1  0  0  0
 16 36  1  0  0  0
 16 37  1  0  0  0
 17 38  1  0  0  0
 17 39  1  0  0  0
 18 40  1  0  0  0
 18 41  1  0  0  0
 19 42  1  0  0  0
 19 43  1  0  0  0
M  END
$$$$
