1ta6_ligand
  -I-interpret- 

 69 71  0  0  0  0  0  0  0  0999 V2000
   18.3540  -15.5110   24.5110 C   0  0  0  0  0
   19.6950  -14.8060   24.2940 C   0  0  0  0  0
   18.6080  -16.7810   25.3240 C   0  0  0  0  0
   20.3820  -14.4750   25.5970 C   0  0  0  0  0
   19.2390  -16.4650   26.6590 C   0  0  0  0  0
   20.5600  -15.7250   26.4480 C   0  0  0  0  0
   17.1190  -14.5420   22.5670 C   0  0  0  0  0
   16.0610  -14.0490   23.0210 O   0  0  0  0  0
   16.5390  -16.7740   23.3160 N   0  3  0  0  0
   17.6790  -15.8310   23.1550 C   0  0  0  0  0
   17.7960  -13.9860   21.5400 N   0  0  0  0  0
   18.9950  -14.5580   20.8960 C   0  0  0  0  0
   17.3940  -12.7490   20.8620 C   0  0  0  0  0
   18.2040  -12.8090   19.5720 C   0  0  0  0  0
   19.4760  -13.4040   20.0290 C   0  0  0  0  0
   15.8980  -12.7300   20.5530 C   0  0  0  0  0
   15.3430  -13.7480   20.1180 O   0  0  0  0  0
   15.2450  -11.6060   20.8350 N   0  0  0  0  0
   13.8170  -11.4050   20.6020 C   0  0  0  0  0
   13.0030  -11.4100   21.8720 C   0  0  0  0  0
   12.1660  -12.4880   22.1520 C   0  0  0  0  0
   11.2890  -12.4260   23.2580 C   0  0  0  0  0
   11.2650  -11.3160   24.0760 C   0  0  0  0  0
   12.1010  -10.2150   23.8200 C   0  0  0  0  0
   12.9630  -10.2770   22.7080 C   0  0  0  0  0
   12.0610   -8.8120   24.7990 Cl  0  0  0  0  0
   12.4020  -13.6620   21.4670 O   0  0  0  0  0
   12.9340  -14.7070   22.2930 C   0  0  0  0  0
   12.7020  -16.0660   21.6720 C   0  0  0  0  0
   12.6950  -17.0820   22.3680 O   0  0  0  0  0
   12.5300  -16.0900   20.3550 N   0  0  0  0  0
   12.2590  -17.3040   19.5830 C   0  0  0  0  0
   10.8600  -17.8440   19.8860 C   0  0  0  0  0
   17.6710  -14.8615   25.0585 H   0  0  0  0  0
   19.5059  -13.8728   23.7635 H   0  0  0  0  0
   20.3432  -15.4761   23.7293 H   0  0  0  0  0
   19.2890  -17.4206   24.7625 H   0  0  0  0  0
   17.6526  -17.2748   25.5014 H   0  0  0  0  0
   19.7684  -13.7608   26.1460 H   0  0  0  0  0
   21.3642  -14.0554   25.3795 H   0  0  0  0  0
   19.4293  -17.3944   27.1957 H   0  0  0  0  0
   18.5623  -15.8351   27.2364 H   0  0  0  0  0
   20.9415  -15.4226   27.4232 H   0  0  0  0  0
   21.2477  -16.3946   25.9315 H   0  0  0  0  0
   16.8784  -17.6519   23.7092 H   0  0  0  0  0
   15.8465  -16.3645   23.9430 H   0  0  0  0  0
   16.1135  -16.9497   22.4058 H   0  0  0  0  0
   18.4319  -16.2834   22.5095 H   0  0  0  0  0
   18.7865  -15.4645   20.3278 H   0  0  0  0  0
   19.7441  -14.9005   21.6098 H   0  0  0  0  0
   17.5721  -11.8571   21.4628 H   0  0  0  0  0
   18.3307  -11.8354   19.0986 H   0  0  0  0  0
   17.7176  -13.3863   18.7857 H   0  0  0  0  0
   20.1222  -13.7206   19.2103 H   0  0  0  0  0
   20.1133  -12.6998   20.5639 H   0  0  0  0  0
   15.7756  -10.8347   21.2400 H   0  0  0  0  0
   13.4643  -12.2274   19.9796 H   0  0  0  0  0
   13.6924  -10.4290   20.1329 H   0  0  0  0  0
   10.6244  -13.2643   23.4669 H   0  0  0  0  0
   10.5898  -11.2920   24.9313 H   0  0  0  0  0
   13.6133   -9.4299   22.4895 H   0  0  0  0  0
   12.4320  -14.6759   23.2600 H   0  0  0  0  0
   14.0075  -14.5525   22.4014 H   0  0  0  0  0
   12.5906  -15.2062   19.8494 H   0  0  0  0  0
   12.9934  -18.0625   19.8540 H   0  0  0  0  0
   12.3196  -17.0646   18.5213 H   0  0  0  0  0
   10.7849  -18.0795   20.9476 H   0  0  0  0  0
   10.1168  -17.0901   19.6263 H   0  0  0  0  0
   10.6851  -18.7458   19.2992 H   0  0  0  0  0
  1  2  1  0  0  0
  1  3  1  0  0  0
 10  1  1  0  0  0
  2  4  1  0  0  0
  3  5  1  0  0  0
  4  6  1  0  0  0
  5  6  1  0  0  0
  7  8  2  0  0  0
  7 10  1  0  0  0
  7 11  1  0  0  0
 10  9  1  0  0  0
 11 12  1  0  0  0
 11 13  1  0  0  0
 12 15  1  0  0  0
 13 14  1  0  0  0
 13 16  1  0  0  0
 14 15  1  0  0  0
 16 17  2  0  0  0
 16 18  1  0  0  0
 18 19  1  0  0  0
 19 20  1  0  0  0
 20 21  4  0  0  0
 20 25  4  0  0  0
 21 22  4  0  0  0
 21 27  1  0  0  0
 22 23  4  0  0  0
 23 24  4  0  0  0
 24 25  4  0  0  0
 24 26  1  0  0  0
 27 28  1  0  0  0
 28 29  1  0  0  0
 29 30  2  0  0  0
 29 31  1  0  0  0
 31 32  1  0  0  0
 32 33  1  0  0  0
  1 34  1  0  0  0
  2 35  1  0  0  0
  2 36  1  0  0  0
  3 37  1  0  0  0
  3 38  1  0  0  0
  4 39  1  0  0  0
  4 40  1  0  0  0
  5 41  1  0  0  0
  5 42  1  0  0  0
  6 43  1  0  0  0
  6 44  1  0  0  0
  9 45  1  0  0  0
  9 46  1  0  0  0
  9 47  1  0  0  0
 10 48  1  0  0  0
 12 49  1  0  0  0
 12 50  1  0  0  0
 13 51  1  0  0  0
 14 52  1  0  0  0
 14 53  1  0  0  0
 15 54  1  0  0  0
 15 55  1  0  0  0
 18 56  1  0  0  0
 19 57  1  0  0  0
 19 58  1  0  0  0
 22 59  1  0  0  0
 23 60  1  0  0  0
 25 61  1  0  0  0
 28 62  1  0  0  0
 28 63  1  0  0  0
 31 64  1  0  0  0
 32 65  1  0  0  0
 32 66  1  0  0  0
 33 67  1  0  0  0
 33 68  1  0  0  0
 33 69  1  0  0  0
M  END
$$$$
