### 
### Created by X-TOOL on Mon Sep 10 21:13:03 2018
### 

@<TRIPOS>MOLECULE
3omg_ligand
   98    97     1     0     0
SMALL
GAST_HUCK


@<TRIPOS>ATOM
      1 N          19.3580   -8.7980    5.5130 N.4       1 GLY         0.2357
      2 CA         18.5770   -9.5870    6.5190 C.3       1 GLY         0.0545
      3 C          17.4270   -8.8120    7.1600 C.2       1 GLY         0.2236
      4 O          16.7490   -9.3240    8.0600 O.2       1 GLY        -0.3910
      5 N          17.1960   -7.5800    6.7040 N.am      1 ARG        -0.2613
      6 CA         16.1100   -6.7650    7.2720 C.3       1 ARG         0.1312
      7 C          14.7050   -7.3090    6.9500 C.2       1 ARG         0.2039
      8 O          13.7680   -7.1160    7.7450 O.2       1 ARG        -0.3944
      9 CB         16.2550   -5.2800    6.9210 C.3       1 ARG        -0.0092
     10 CG         17.2590   -4.5530    7.8290 C.3       1 ARG        -0.0156
     11 CD         17.4060   -3.0840    7.4630 C.3       1 ARG         0.0627
     12 NE         17.7160   -2.9190    6.0470 N.pl3     1 ARG        -0.2723
     13 CZ         17.8060   -1.7570    5.4030 C.cat     1 ARG         0.2882
     14 NH1        17.6330   -0.5980    6.0310 N.pl3     1 ARG        -0.2849
     15 NH2        18.0840   -1.7560    4.1080 N.pl3     1 ARG        -0.2849
     16 N          14.5940   -8.0080    5.8150 N.am      1 ALA        -0.2640
     17 CA         13.3730   -8.7180    5.3960 C.3       1 ALA         0.1282
     18 C          13.1000  -10.0430    6.1560 C.2       1 ALA         0.2036
     19 O          12.0700  -10.6940    5.9430 O.2       1 ALA        -0.3944
     20 CB         13.4110   -8.9620    3.8850 C.3       1 ALA        -0.0244
     21 N          14.0240  -10.4370    7.0350 N.am      1 2MR        -0.2637
     22 CA         13.9110  -11.6650    7.8550 C.3       1 2MR         0.1311
     23 CB         12.8410  -11.4970    8.9390 C.3       1 2MR        -0.0092
     24 CG         13.2040  -10.3790    9.9010 C.3       1 2MR        -0.0156
     25 CD         12.2320  -10.3890   11.0770 C.3       1 2MR         0.0627
     26 NE         10.8840   -9.9920   10.6850 N.pl3     1 2MR        -0.2721
     27 CZ          9.8430  -10.0440   11.5390 C.cat     1 2MR         0.2920
     28 NH1        10.0670  -10.4610   12.7230 N.pl3     1 2MR        -0.2748
     29 CQ1         9.1580  -10.6360   13.8530 C.3       1 2MR         0.0514
     30 NH2         8.6100   -9.6750   11.1370 N.pl3     1 2MR        -0.2748
     31 CQ2         8.2890   -9.1920    9.7940 C.3       1 2MR         0.0514
     32 C          13.6720  -12.9300    7.0600 C.2       1 2MR         0.2037
     33 O          12.8940  -13.8020    7.4760 O.2       1 2MR        -0.3944
     34 N          14.3570  -13.0420    5.9210 N.am      1 GLY        -0.2664
     35 CA         14.2310  -14.1960    5.0190 C.3       1 GLY         0.1201
     36 C          12.9240  -14.1930    4.2440 C.2       1 GLY         0.2002
     37 O          12.6980  -15.0540    3.3890 O.2       1 GLY        -0.3947
     38 N          12.0620  -13.2200    4.5510 N.am      1 GLN        -0.2696
     39 CA         10.7420  -13.1010    3.9320 C.3       1 GLN         0.0964
     40 C          10.8110  -12.1470    2.7400 C.2       1 GLN         0.0602
     41 O          10.0585  -12.3071    1.7421 O.co2     1 GLN        -0.5666
     42 CB          9.6900  -12.6130    4.9520 C.3       1 GLN        -0.0010
     43 CG          9.8150  -13.1730    6.3910 C.3       1 GLN         0.0407
     44 CD          9.5720  -14.6840    6.5050 C.2       1 GLN         0.1737
     45 OE1         8.5630  -15.2060    6.0320 O.2       1 GLN        -0.3973
     46 NE2        10.4970  -15.3840    7.1560 N.am      1 GLN        -0.3009
     47 O          11.6298  -11.1894    2.7553 O.co2     1 GLN        -0.5666
     48 H1         20.0956   -9.3719    5.1352 H         1 GLY         0.2012
     49 H2         19.7580   -7.9873    5.9589 H         1 GLY         0.2012
     50 H3         18.7460   -8.5040    4.7680 H         1 GLY         0.2012
     51 H4         19.2641   -9.9080    7.3157 H         1 GLY         0.1061
     52 H5         18.1597  -10.4719    6.0161 H         1 GLY         0.1061
     53 H6         17.7649   -7.2073    5.9708 H         1 ARG         0.1884
     54 H7         16.2184   -6.8341    8.3644 H         1 ARG         0.0800
     55 H8         15.2725   -4.7962    7.0240 H         1 ARG         0.0313
     56 H9         16.5976   -5.1962    5.8791 H         1 ARG         0.0313
     57 H10        18.2401   -5.0414    7.7346 H         1 ARG         0.0301
     58 H11        16.9119   -4.6255    8.8703 H         1 ARG         0.0301
     59 H12        18.2183   -2.6452    8.0611 H         1 ARG         0.0689
     60 H13        16.4634   -2.5630    7.6865 H         1 ARG         0.0689
     61 H14        17.8793   -3.7751    5.4981 H         1 ARG         0.2642
     62 H15        17.7081    0.2868    5.5091 H         1 ARG         0.2615
     63 H16        17.4239   -0.5849    7.0395 H         1 ARG         0.2615
     64 H17        18.2203   -2.6472    3.6098 H         1 ARG         0.2615
     65 H18        18.1639   -0.8641    3.5991 H         1 ARG         0.2615
     66 H19        15.3908   -8.0514    5.2123 H         1 ALA         0.1883
     67 H20        12.5249   -8.0501    5.6072 H         1 ALA         0.0797
     68 H21        12.4980   -9.4921    3.5761 H         1 ALA         0.0277
     69 H22        14.2916   -9.5716    3.6340 H         1 ALA         0.0277
     70 H23        13.4706   -7.9977    3.3592 H         1 ALA         0.0277
     71 H24        14.8401   -9.8699    7.1463 H         1 2MR         0.1883
     72 H25        14.8773  -11.7922    8.3650 H         1 2MR         0.0800
     73 H26        12.7489  -12.4380    9.5011 H         1 2MR         0.0313
     74 H27        11.8794  -11.2602    8.4603 H         1 2MR         0.0313
     75 H28        13.1410   -9.4119    9.3807 H         1 2MR         0.0301
     76 H29        14.2289  -10.5306   10.2704 H         1 2MR         0.0301
     77 H30        12.5975   -9.6902   11.8439 H         1 2MR         0.0689
     78 H31        12.1936  -11.4055   11.4955 H         1 2MR         0.0689
     79 H32        10.7226   -9.6608    9.7231 H         1 2MR         0.2642
     80 H33        11.0468  -10.7154   12.9133 H         1 2MR         0.2639
     81 H34         9.7184  -11.0196   14.7184 H         1 2MR         0.0652
     82 H35         8.3684  -11.3519   13.5810 H         1 2MR         0.0652
     83 H36         8.7028   -9.6684   14.1107 H         1 2MR         0.0652
     84 H37         7.8427   -9.7374   11.8214 H         1 2MR         0.2639
     85 H38         7.2151   -8.9614    9.7343 H         1 2MR         0.0652
     86 H39         8.5389   -9.9682    9.0557 H         1 2MR         0.0652
     87 H40         8.8715   -8.2833    9.5822 H         1 2MR         0.0652
     88 H41        14.9858  -12.3065    5.6688 H         1 GLY         0.1881
     89 H42        14.2836  -15.1178    5.6170 H         1 GLY         0.0763
     90 H43        15.0653  -14.1756    4.3024 H         1 GLY         0.0763
     91 H44        12.3313  -12.5421    5.2351 H         1 GLN         0.1875
     92 H45        10.4373  -14.0937    3.5692 H         1 GLN         0.0727
     93 H46         8.6975  -12.8927    4.5690 H         1 GLN         0.0330
     94 H47         9.7646  -11.5172    5.0116 H         1 GLN         0.0330
     95 H48         9.0799  -12.6572    7.0263 H         1 GLN         0.0504
     96 H49        10.8301  -12.9590    6.7568 H         1 GLN         0.0504
     97 H50        10.3929  -16.3729    7.2623 H         1 GLN         0.1814
     98 H51        11.2965  -14.9214    7.5391 H         1 GLN         0.1814
@<TRIPOS>BOND
     1    1    2 1  
     2    2    3 1  
     3    3    4 2  
     4    3    5 am 
     5    5    6 1  
     6    6    7 1  
     7    6    9 1  
     8    7    8 2  
     9    7   16 am 
    10    9   10 1  
    11   10   11 1  
    12   11   12 1  
    13   12   13 ar 
    14   13   14 ar 
    15   13   15 ar 
    16   16   17 1  
    17   17   18 1  
    18   17   20 1  
    19   18   19 2  
    20   18   21 am 
    21   21   22 1  
    22   22   23 1  
    23   22   32 1  
    24   23   24 1  
    25   24   25 1  
    26   25   26 1  
    27   26   27 ar 
    28   27   28 ar 
    29   27   30 ar 
    30   28   29 1  
    31   30   31 1  
    32   32   33 2  
    33   32   34 am 
    34   34   35 1  
    35   35   36 1  
    36   36   37 2  
    37   36   38 am 
    38   38   39 1  
    39   39   40 1  
    40   39   42 1  
    41   40   41 ar 
    42   42   43 1  
    43   43   44 1  
    44   44   45 2  
    45   44   46 am 
    46   40   47 ar 
    47    1   48 1  
    48    1   49 1  
    49    1   50 1  
    50    2   51 1  
    51    2   52 1  
    52    5   53 1  
    53    6   54 1  
    54    9   55 1  
    55    9   56 1  
    56   10   57 1  
    57   10   58 1  
    58   11   59 1  
    59   11   60 1  
    60   12   61 1  
    61   14   62 1  
    62   14   63 1  
    63   15   64 1  
    64   15   65 1  
    65   16   66 1  
    66   17   67 1  
    67   20   68 1  
    68   20   69 1  
    69   20   70 1  
    70   21   71 1  
    71   22   72 1  
    72   23   73 1  
    73   23   74 1  
    74   24   75 1  
    75   24   76 1  
    76   25   77 1  
    77   25   78 1  
    78   26   79 1  
    79   28   80 1  
    80   29   81 1  
    81   29   82 1  
    82   29   83 1  
    83   30   84 1  
    84   31   85 1  
    85   31   86 1  
    86   31   87 1  
    87   34   88 1  
    88   35   89 1  
    89   35   90 1  
    90   38   91 1  
    91   39   92 1  
    92   42   93 1  
    93   42   94 1  
    94   43   95 1  
    95   43   96 1  
    96   46   97 1  
    97   46   98 1  
@<TRIPOS>SUBSTRUCTURE
     1 GLY         1

