3omg_ligand
  -I-interpret- 

 99 98  0  0  0  0  0  0  0  0999 V2000
   19.3580   -8.7980    5.5130 N   0  3  0  0  0
   18.5770   -9.5870    6.5190 C   0  0  0  0  0
   17.4270   -8.8120    7.1600 C   0  0  0  0  0
   16.7490   -9.3240    8.0600 O   0  0  0  0  0
   17.1960   -7.5800    6.7040 N   0  0  0  0  0
   16.1100   -6.7650    7.2720 C   0  0  0  0  0
   14.7050   -7.3090    6.9500 C   0  0  0  0  0
   13.7680   -7.1160    7.7450 O   0  0  0  0  0
   16.2550   -5.2800    6.9210 C   0  0  0  0  0
   17.2590   -4.5530    7.8290 C   0  0  0  0  0
   17.4060   -3.0840    7.4630 C   0  0  0  0  0
   17.7160   -2.9190    6.0470 N   0  0  0  0  0
   17.8060   -1.7570    5.4030 C   0  0  0  0  0
   17.6330   -0.5980    6.0310 N   0  0  0  0  0
   18.0840   -1.7560    4.1080 N   0  0  0  0  0
   14.5940   -8.0080    5.8150 N   0  0  0  0  0
   13.3730   -8.7180    5.3960 C   0  0  0  0  0
   13.1000  -10.0430    6.1560 C   0  0  0  0  0
   12.0700  -10.6940    5.9430 O   0  0  0  0  0
   13.4110   -8.9620    3.8850 C   0  0  0  0  0
   14.0240  -10.4370    7.0350 N   0  0  0  0  0
   13.9110  -11.6650    7.8550 C   0  0  0  0  0
   12.8410  -11.4970    8.9390 C   0  0  0  0  0
   13.2040  -10.3790    9.9010 C   0  0  0  0  0
   12.2320  -10.3890   11.0770 C   0  0  0  0  0
   10.8840   -9.9920   10.6850 N   0  0  0  0  0
    9.8430  -10.0440   11.5390 C   0  0  0  0  0
   10.0670  -10.4610   12.7230 N   0  0  0  0  0
    9.1580  -10.6360   13.8530 C   0  0  0  0  0
    8.6100   -9.6750   11.1370 N   0  0  0  0  0
    8.2890   -9.1920    9.7940 C   0  0  0  0  0
   13.6720  -12.9300    7.0600 C   0  0  0  0  0
   12.8940  -13.8020    7.4760 O   0  0  0  0  0
   14.3570  -13.0420    5.9210 N   0  0  0  0  0
   14.2310  -14.1960    5.0190 C   0  0  0  0  0
   12.9240  -14.1930    4.2440 C   0  0  0  0  0
   12.6980  -15.0540    3.3890 O   0  0  0  0  0
   12.0620  -13.2200    4.5510 N   0  0  0  0  0
   10.7420  -13.1010    3.9320 C   0  0  0  0  0
   10.8110  -12.1470    2.7400 C   0  0  0  0  0
   10.0585  -12.3071    1.7421 O   0  0  0  0  0
    9.6900  -12.6130    4.9520 C   0  0  0  0  0
    9.8150  -13.1730    6.3910 C   0  0  0  0  0
    9.5720  -14.6840    6.5050 C   0  0  0  0  0
    8.5630  -15.2060    6.0320 O   0  0  0  0  0
   10.4970  -15.3840    7.1560 N   0  0  0  0  0
   11.6298  -11.1894    2.7553 O   0  0  0  0  0
   20.1040   -9.3796    5.1314 H   0  0  0  0  0
   18.7377   -8.5011    4.7597 H   0  0  0  0  0
   19.7622   -7.9780    5.9654 H   0  0  0  0  0
   19.2652   -9.8635    7.3177 H   0  0  0  0  0
   18.1410  -10.4375    5.9948 H   0  0  0  0  0
   17.7762   -7.1999    5.9562 H   0  0  0  0  0
   16.2144   -6.8464    8.3539 H   0  0  0  0  0
   15.2814   -4.8079    7.0523 H   0  0  0  0  0
   16.6195   -5.2118    5.8960 H   0  0  0  0  0
   18.2314   -5.0310    7.7102 H   0  0  0  0  0
   16.8935   -4.6120    8.8542 H   0  0  0  0  0
   18.2220   -2.6605    8.0485 H   0  0  0  0  0
   16.4637   -2.5781    7.6732 H   0  0  0  0  0
   17.8777   -3.7668    5.5035 H   0  0  0  0  0
   17.7148    0.2785    5.5157 H   0  0  0  0  0
   17.4185   -0.5853    7.0281 H   0  0  0  0  0
   18.2262   -2.6382    3.6162 H   0  0  0  0  0
   15.4067   -8.0523    5.2002 H   0  0  0  0  0
   12.5403   -8.0651    5.6574 H   0  0  0  0  0
   13.4701   -8.0057    3.3652 H   0  0  0  0  0
   14.2839   -9.5660    3.6376 H   0  0  0  0  0
   12.5059   -9.4873    3.5802 H   0  0  0  0  0
   14.8564   -9.8586    7.1485 H   0  0  0  0  0
   14.8881  -11.7938    8.3207 H   0  0  0  0  0
   12.7656  -12.4282    9.5005 H   0  0  0  0  0
   11.8948  -11.2486    8.4582 H   0  0  0  0  0
   13.1429   -9.4205    9.3857 H   0  0  0  0  0
   14.2200  -10.5281   10.2665 H   0  0  0  0  0
   12.5919   -9.6764   11.8191 H   0  0  0  0  0
   12.1848  -11.4054   11.4679 H   0  0  0  0  0
   10.6357  -10.6707    9.9652 H   0  0  0  0  0
    8.8485   -9.6091   11.6384 H   0  0  0  0  0
   10.6463   -9.6989   13.0751 H   0  0  0  0  0
    8.7076   -9.6765   14.1073 H   0  0  0  0  0
    8.3761  -11.3455   13.5822 H   0  0  0  0  0
    9.7144  -11.0161   14.7098 H   0  0  0  0  0
    8.4226   -8.8576   11.7176 H   0  0  0  0  0
    8.8668   -8.2916    9.5853 H   0  0  0  0  0
    8.5371   -9.9619    9.0634 H   0  0  0  0  0
    7.2247   -8.9638    9.7361 H   0  0  0  0  0
   14.9984  -12.2917    5.6637 H   0  0  0  0  0
   14.2584  -15.1007    5.6264 H   0  0  0  0  0
   15.0478  -14.1491    4.2987 H   0  0  0  0  0
   12.3366  -12.5285    5.2488 H   0  0  0  0  0
   10.4361  -14.0873    3.5833 H   0  0  0  0  0
    9.4987  -13.0738    1.8846 H   0  0  0  0  0
    8.7245  -12.9531    4.5775 H   0  0  0  0  0
    9.8251  -11.5345    5.0339 H   0  0  0  0  0
    9.0529  -12.6795    6.9942 H   0  0  0  0  0
   10.8376  -12.9873    6.7194 H   0  0  0  0  0
   10.3833  -16.3903    7.2775 H   0  0  0  0  0
   11.3199  -14.9144    7.5337 H   0  0  0  0  0
  1  2  1  0  0  0
  2  3  1  0  0  0
  3  4  2  0  0  0
  3  5  1  0  0  0
  5  6  1  0  0  0
  6  7  1  0  0  0
  6  9  1  0  0  0
  7  8  2  0  0  0
  7 16  1  0  0  0
  9 10  1  0  0  0
 10 11  1  0  0  0
 11 12  1  0  0  0
 12 13  1  0  0  0
 13 14  1  0  0  0
 13 15  2  0  0  0
 16 17  1  0  0  0
 17 18  1  0  0  0
 17 20  1  0  0  0
 18 19  2  0  0  0
 18 21  1  0  0  0
 21 22  1  0  0  0
 22 23  1  0  0  0
 22 32  1  0  0  0
 23 24  1  0  0  0
 24 25  1  0  0  0
 25 26  1  0  0  0
 26 27  1  0  0  0
 27 28  1  0  0  0
 27 30  1  0  0  0
 28 29  1  0  0  0
 30 31  1  0  0  0
 32 33  2  0  0  0
 32 34  1  0  0  0
 34 35  1  0  0  0
 35 36  1  0  0  0
 36 37  2  0  0  0
 36 38  1  0  0  0
 38 39  1  0  0  0
 39 40  1  0  0  0
 39 42  1  0  0  0
 40 41  1  0  0  0
 42 43  1  0  0  0
 43 44  1  0  0  0
 44 45  2  0  0  0
 44 46  1  0  0  0
 40 47  2  0  0  0
  1 48  1  0  0  0
  1 49  1  0  0  0
  1 50  1  0  0  0
  2 51  1  0  0  0
  2 52  1  0  0  0
  5 53  1  0  0  0
  6 54  1  0  0  0
  9 55  1  0  0  0
  9 56  1  0  0  0
 10 57  1  0  0  0
 10 58  1  0  0  0
 11 59  1  0  0  0
 11 60  1  0  0  0
 12 61  1  0  0  0
 14 62  1  0  0  0
 14 63  1  0  0  0
 15 64  1  0  0  0
 16 65  1  0  0  0
 17 66  1  0  0  0
 20 67  1  0  0  0
 20 68  1  0  0  0
 20 69  1  0  0  0
 21 70  1  0  0  0
 22 71  1  0  0  0
 23 72  1  0  0  0
 23 73  1  0  0  0
 24 74  1  0  0  0
 24 75  1  0  0  0
 25 76  1  0  0  0
 25 77  1  0  0  0
 26 78  1  0  0  0
 27 79  1  0  0  0
 28 80  1  0  0  0
 29 81  1  0  0  0
 29 82  1  0  0  0
 29 83  1  0  0  0
 30 84  1  0  0  0
 31 85  1  0  0  0
 31 86  1  0  0  0
 31 87  1  0  0  0
 34 88  1  0  0  0
 35 89  1  0  0  0
 35 90  1  0  0  0
 38 91  1  0  0  0
 39 92  1  0  0  0
 41 93  1  0  0  0
 42 94  1  0  0  0
 42 95  1  0  0  0
 43 96  1  0  0  0
 43 97  1  0  0  0
 46 98  1  0  0  0
 46 99  1  0  0  0
M  END
$$$$
