1f4y_ligand
  -I-interpret- 

 77 78  0  0  0  0  0  0  0  0999 V2000
   39.3180   34.9420   -6.4200 C   0  0  0  0  0
   38.7270   33.5480   -6.6370 C   0  0  0  0  0
   37.5110   33.3580   -5.9690 O   0  0  0  0  0
   36.4450   32.7640   -6.6590 C   0  0  0  0  0
   38.7160   33.3610   -8.1610 C   0  0  0  0  0
   38.4540   31.9860   -8.5400 O   0  0  0  0  0
   37.7670   34.3810   -8.7660 C   0  0  0  0  0
   37.6350   34.2850  -10.2700 N   0  0  0  0  0
   36.3310   34.4370  -10.6040 C   0  0  0  0  0
   35.7300   34.5970   -9.5450 O   0  0  0  0  0
   38.1820   35.8250   -8.4210 C   0  0  0  0  0
   38.7900   36.0420   -7.1270 O   0  0  0  0  0
   36.9910   36.8020   -8.5370 C   0  0  0  0  0
   36.0800   35.4420  -14.1210 C   0  0  0  0  0
   37.4410   35.8630  -14.2980 O   0  0  0  0  0
   35.7620   35.6930  -12.7050 C   0  0  0  0  0
   35.4340   34.4700  -11.8440 C   0  0  0  0  0
   35.2150   33.2860  -12.5640 O   0  0  0  0  0
   41.8150   36.6270   -7.7930 C   0  0  0  0  0
   40.6950   34.7540   -6.7710 O   0  0  0  0  0
   43.9480   36.9350   -6.9700 C   0  0  0  0  0
   41.6340   35.7800   -6.5380 C   0  0  0  0  0
   42.7460   37.6040   -7.3840 O   0  0  0  0  0
   42.9590   35.1650   -6.0840 C   0  0  0  0  0
   42.9170   34.0200   -5.2110 O   0  0  0  0  0
   43.6390   34.5750   -7.3000 C   0  0  0  0  0
   45.0090   34.0580   -6.9980 N   0  0  0  0  0
   45.1350   32.7780   -7.4070 C   0  0  0  0  0
   44.2870   32.3790   -8.2050 O   0  0  0  0  0
   43.7620   35.5740   -8.4530 C   0  0  0  0  0
   42.4200   35.9330   -8.9150 O   0  0  0  0  0
   44.7110   34.9710   -9.4950 C   0  0  0  0  0
   48.4520   31.6250   -5.9460 C   0  0  0  0  0
   48.1920   30.2260   -6.1160 O   0  0  0  0  0
   47.6360   32.4130   -6.9320 C   0  0  0  0  0
   46.2190   31.8340   -6.8830 C   0  0  0  0  0
   45.9550   31.3740   -5.5880 O   0  0  0  0  0
   39.0881   35.2440   -5.3982 H   0  0  0  0  0
   39.3207   32.7543   -6.1835 H   0  0  0  0  0
   36.1904   33.3735   -7.5260 H   0  0  0  0  0
   36.7373   31.7667   -6.9876 H   0  0  0  0  0
   35.5813   32.6916   -5.9980 H   0  0  0  0  0
   39.7063   33.5531   -8.5739 H   0  0  0  0  0
   39.0954   31.4108   -8.1165 H   0  0  0  0  0
   36.8018   34.1397   -8.3209 H   0  0  0  0  0
   38.4017   34.1311  -10.9248 H   0  0  0  0  0
   38.9553   36.0174   -9.1646 H   0  0  0  0  0
   36.2771   36.5989   -7.7388 H   0  0  0  0  0
   37.3533   37.8264   -8.4503 H   0  0  0  0  0
   36.5053   36.6676   -9.5035 H   0  0  0  0  0
   35.9549   34.3893  -14.3745 H   0  0  0  0  0
   35.4071   35.9893  -14.7811 H   0  0  0  0  0
   37.7027   35.7207  -15.2106 H   0  0  0  0  0
   34.8628   36.3091  -12.7048 H   0  0  0  0  0
   36.6593   36.1333  -12.2702 H   0  0  0  0  0
   34.4308   34.5740  -11.4305 H   0  0  0  0  0
   34.6362   33.4677  -13.3080 H   0  0  0  0  0
   40.8410   36.9734   -8.1386 H   0  0  0  0  0
   43.7216   36.2632   -6.1420 H   0  0  0  0  0
   44.3493   36.3615   -7.8056 H   0  0  0  0  0
   44.6819   37.6744   -6.6494 H   0  0  0  0  0
   41.2694   36.4362   -5.7477 H   0  0  0  0  0
   43.4320   35.9953   -5.5596 H   0  0  0  0  0
   43.8128   33.7407   -5.0081 H   0  0  0  0  0
   42.9916   33.7505   -7.5986 H   0  0  0  0  0
   45.7465   34.5980   -6.5454 H   0  0  0  0  0
   44.2108   36.5249   -8.1657 H   0  0  0  0  0
   45.6855   34.7964   -9.0391 H   0  0  0  0  0
   44.3018   34.0265   -9.8537 H   0  0  0  0  0
   44.8180   35.6628  -10.3305 H   0  0  0  0  0
   49.5111   31.8197   -6.1149 H   0  0  0  0  0
   48.1824   31.9229   -4.9328 H   0  0  0  0  0
   48.7145   29.7256   -5.4850 H   0  0  0  0  0
   48.0549   32.3364   -7.9354 H   0  0  0  0  0
   47.6339   33.4731   -6.6785 H   0  0  0  0  0
   46.1836   30.9944   -7.5772 H   0  0  0  0  0
   46.6618   30.7881   -5.3074 H   0  0  0  0  0
  1  2  1  0  0  0
  1 12  1  0  0  0
 20  1  1  0  0  0
  2  3  1  0  0  0
  2  5  1  0  0  0
  3  4  1  0  0  0
  5  6  1  0  0  0
  5  7  1  0  0  0
  7  8  1  0  0  0
 11  7  1  0  0  0
  8  9  1  0  0  0
  9 10  2  0  0  0
  9 17  1  0  0  0
 12 11  1  0  0  0
 11 13  1  0  0  0
 14 15  1  0  0  0
 16 14  1  0  0  0
 17 16  1  0  0  0
 17 18  1  0  0  0
 22 19  1  0  0  0
 19 23  1  0  0  0
 31 19  1  0  0  0
 22 20  1  0  0  0
 23 21  1  0  0  0
 24 22  1  0  0  0
 24 25  1  0  0  0
 26 24  1  0  0  0
 27 26  1  0  0  0
 26 30  1  0  0  0
 28 27  1  0  0  0
 28 29  2  0  0  0
 36 28  1  0  0  0
 30 31  1  0  0  0
 30 32  1  0  0  0
 33 34  1  0  0  0
 35 33  1  0  0  0
 35 36  1  0  0  0
 36 37  1  0  0  0
  1 38  1  0  0  0
  2 39  1  0  0  0
  4 40  1  0  0  0
  4 41  1  0  0  0
  4 42  1  0  0  0
  5 43  1  0  0  0
  6 44  1  0  0  0
  7 45  1  0  0  0
  8 46  1  0  0  0
 11 47  1  0  0  0
 13 48  1  0  0  0
 13 49  1  0  0  0
 13 50  1  0  0  0
 14 51  1  0  0  0
 14 52  1  0  0  0
 15 53  1  0  0  0
 16 54  1  0  0  0
 16 55  1  0  0  0
 17 56  1  0  0  0
 18 57  1  0  0  0
 19 58  1  0  0  0
 21 59  1  0  0  0
 21 60  1  0  0  0
 21 61  1  0  0  0
 22 62  1  0  0  0
 24 63  1  0  0  0
 25 64  1  0  0  0
 26 65  1  0  0  0
 27 66  1  0  0  0
 30 67  1  0  0  0
 32 68  1  0  0  0
 32 69  1  0  0  0
 32 70  1  0  0  0
 33 71  1  0  0  0
 33 72  1  0  0  0
 34 73  1  0  0  0
 35 74  1  0  0  0
 35 75  1  0  0  0
 36 76  1  0  0  0
 37 77  1  0  0  0
M  END
$$$$
