6c2x_ligand
  -I-interpret- 

 27 27  0  0  0  0  0  0  0  0999 V2000
   36.0130   76.9220   64.2850 C   0  0  0  0  0
   34.6020   76.8670   63.6610 C   0  0  0  0  0
   33.7380   75.6320   63.9350 C   0  0  0  0  0
   32.4310   75.5300   63.3940 C   0  0  0  0  0
   31.8840   76.6370   62.5180 C   0  0  0  0  0
   32.7300   77.7830   62.2630 C   0  0  0  0  0
   34.0900   77.9330   62.8320 C   0  0  0  0  0
   34.9500   79.1570   62.5170 C   0  0  0  0  0
   35.0730   79.9220   63.2680 C   0  0  0  0  0
   36.3280   80.9070   63.2280 C   0  0  0  0  0
   37.4030   80.7380   64.1020 C   0  0  0  0  0
   35.5730   79.2170   61.1140 O   0  0  0  0  0
   36.6330   81.5790   61.9840 O   0  0  0  0  0
   38.5780   81.0840   63.6280 O   0  0  0  0  0
   37.0550   80.1920   65.4160 O   0  0  0  0  0
   32.0160   79.1090   61.2140 Br  0  0  0  0  0
   35.9310   76.8700   65.3707 H   0  0  0  0  0
   36.6021   76.0793   63.9230 H   0  0  0  0  0
   36.4986   77.8554   64.0003 H   0  0  0  0  0
   34.1315   74.8239   64.5517 H   0  0  0  0  0
   31.8196   74.6536   63.6091 H   0  0  0  0  0
   30.8827   76.5727   62.0921 H   0  0  0  0  0
   34.3328   80.0230   64.0617 H   0  0  0  0  0
   35.7915   81.6614   63.8035 H   0  0  0  0  0
   35.3283   78.4295   60.6225 H   0  0  0  0  0
   37.4062   82.1354   62.1034 H   0  0  0  0  0
   36.1078   80.0416   65.4581 H   0  0  0  0  0
  1  2  1  0  0  0
  2  3  4  0  0  0
  2  7  4  0  0  0
  3  4  4  0  0  0
  4  5  4  0  0  0
  5  6  4  0  0  0
  6  7  4  0  0  0
  6 16  1  0  0  0
  7  8  1  0  0  0
  8  9  2  0  0  0
  8 12  1  0  0  0
  9 10  1  0  0  0
 10 11  1  0  0  0
 10 13  1  0  0  0
 11 14  2  0  0  0
 11 15  1  0  0  0
  1 17  1  0  0  0
  1 18  1  0  0  0
  1 19  1  0  0  0
  3 20  1  0  0  0
  4 21  1  0  0  0
  5 22  1  0  0  0
  9 23  1  0  0  0
 10 24  1  0  0  0
 12 25  1  0  0  0
 13 26  1  0  0  0
 15 27  1  0  0  0
M  END
$$$$
