3udr_ligand
  -I-interpret- 

 47 50  0  0  0  0  0  0  0  0999 V2000
   18.9520   35.7220   44.0700 C   0  0  0  0  0
   26.4590   37.3340   40.2500 C   0  0  0  0  0
   27.0140   37.4920   41.5090 C   0  0  0  0  0
   25.1400   36.9470   40.1040 C   0  0  0  0  0
   26.2860   37.2380   42.6470 C   0  0  0  0  0
   24.4040   36.7220   41.2430 C   0  0  0  0  0
   24.9800   36.8650   42.4760 C   0  0  0  0  0
   22.8550   36.2630   42.8980 C   0  0  0  0  0
   19.8280   36.5230   41.5710 C   0  0  0  0  0
   16.6880   32.9840   43.8880 C   0  0  0  0  0
   18.1270   32.8880   44.3350 C   0  0  0  0  0
   16.3240   34.3930   43.5000 C   0  0  0  0  0
   19.0430   33.4470   43.2650 C   0  0  0  0  0
   17.2640   34.9710   42.4650 C   0  0  0  0  0
   22.0230   37.4260   40.9120 C   0  0  0  0  0
   22.5960   35.0740   40.6400 C   0  0  0  0  0
   20.7970   36.6940   40.4220 C   0  0  0  0  0
   18.7100   34.8800   42.9040 C   0  0  0  0  0
   22.9760   36.3520   41.3810 C   0  0  0  0  0
   19.1480   36.3740   45.0110 N   0  0  0  0  0
   24.0700   36.5880   43.4650 N   0  0  0  0  0
   21.3330   35.3910   39.9090 N   0  3  0  0  0
   21.8390   35.9830   43.5300 O   0  0  0  0  0
   19.2240   37.4530   42.1000 O   0  0  0  0  0
   19.5900   35.2060   41.7890 O   0  0  0  0  0
   27.0686   37.5167   39.3651 H   0  0  0  0  0
   28.0482   37.8242   41.5993 H   0  0  0  0  0
   24.6970   36.8240   39.1157 H   0  0  0  0  0
   26.7280   37.3293   43.6392 H   0  0  0  0  0
   16.0480   32.6772   44.7153 H   0  0  0  0  0
   16.5526   32.3404   43.0188 H   0  0  0  0  0
   18.3782   31.8419   44.5102 H   0  0  0  0  0
   18.2558   33.4627   45.2522 H   0  0  0  0  0
   16.3853   35.0141   44.3937 H   0  0  0  0  0
   15.3220   34.3752   43.0712 H   0  0  0  0  0
   18.9225   32.8385   42.3687 H   0  0  0  0  0
   20.0620   33.4264   43.6514 H   0  0  0  0  0
   17.0143   36.0228   42.3254 H   0  0  0  0  0
   17.1498   34.4012   41.5429 H   0  0  0  0  0
   21.7781   38.1205   41.7157 H   0  0  0  0  0
   22.4654   38.0351   40.1237 H   0  0  0  0  0
   22.4580   34.2410   41.3293 H   0  0  0  0  0
   23.3844   34.7624   39.9548 H   0  0  0  0  0
   20.2415   37.2160   39.6429 H   0  0  0  0  0
   24.2624   36.6178   44.4662 H   0  0  0  0  0
   20.6486   34.6501   40.0610 H   0  0  0  0  0
   21.5193   35.4620   38.9087 H   0  0  0  0  0
 18  1  1  0  0  0
  1 20  3  0  0  0
  2  3  4  0  0  0
  4  2  4  0  0  0
  5  3  4  0  0  0
  6  4  4  0  0  0
  7  5  4  0  0  0
  6  7  4  0  0  0
 19  6  1  0  0  0
 21  7  1  0  0  0
 19  8  1  0  0  0
  8 21  1  0  0  0
  8 23  2  0  0  0
  9 17  1  0  0  0
  9 24  2  0  0  0
 25  9  1  0  0  0
 11 10  1  0  0  0
 12 10  1  0  0  0
 13 11  1  0  0  0
 14 12  1  0  0  0
 18 13  1  0  0  0
 18 14  1  0  0  0
 17 15  1  0  0  0
 15 19  1  0  0  0
 16 19  1  0  0  0
 22 16  1  0  0  0
 17 22  1  0  0  0
 18 25  1  0  0  0
  2 26  1  0  0  0
  3 27  1  0  0  0
  4 28  1  0  0  0
  5 29  1  0  0  0
 10 30  1  0  0  0
 10 31  1  0  0  0
 11 32  1  0  0  0
 11 33  1  0  0  0
 12 34  1  0  0  0
 12 35  1  0  0  0
 13 36  1  0  0  0
 13 37  1  0  0  0
 14 38  1  0  0  0
 14 39  1  0  0  0
 15 40  1  0  0  0
 15 41  1  0  0  0
 16 42  1  0  0  0
 16 43  1  0  0  0
 17 44  1  0  0  0
 21 45  1  0  0  0
 22 46  1  0  0  0
 22 47  1  0  0  0
M  END
$$$$
