2v77_ligand
  -I-interpret- 

 38 37  0  0  0  0  0  0  0  0999 V2000
  115.0920   41.3610   43.7370 O   0  0  0  0  0
  114.1920   43.3080   44.2840 O   0  0  0  0  0
  115.1260   42.4690   44.3390 C   0  0  0  0  0
  116.3410   42.8290   45.1670 C   0  0  0  0  0
  116.7840   41.6810   46.1300 C   0  0  0  0  0
  115.8290   41.4420   47.3460 C   0  0  0  0  0
  116.1300   40.1030   48.0050 C   0  0  0  0  0
  116.8650   40.0480   49.0260 O   0  0  0  0  0
  115.6020   39.0830   47.4850 O   0  0  0  0  0
  115.8490   42.6700   48.3550 C   0  0  0  0  0
  114.9670   42.5080   49.6410 C   0  0  0  0  0
  113.5710   42.0430   49.3000 C   0  0  0  0  0
  112.7300   42.8520   48.8230 O   0  0  0  0  0
  113.3210   40.8160   49.5010 O   0  0  0  0  0
  115.0040   43.8260   50.5140 C   0  0  0  0  0
  114.0620   43.8150   51.7720 C   0  0  0  0  0
  114.0210   45.2180   52.4390 C   0  0  0  0  0
  114.5170   42.8040   52.8150 C   0  0  0  0  0
  115.4500   43.1130   53.6070 O   0  0  0  0  0
  113.9350   41.6880   52.8510 O   0  0  0  0  0
  115.9023   40.8773   43.9134 H   0  0  0  0  0
  116.0827   43.6941   45.7777 H   0  0  0  0  0
  117.1651   43.0239   44.4808 H   0  0  0  0  0
  117.7531   41.9666   46.5392 H   0  0  0  0  0
  116.7893   40.7611   45.5454 H   0  0  0  0  0
  114.8029   41.3847   46.9829 H   0  0  0  0  0
  115.0844   39.3465   46.7207 H   0  0  0  0  0
  115.4462   43.5237   47.8101 H   0  0  0  0  0
  116.8788   42.7710   48.6978 H   0  0  0  0  0
  115.3916   41.7185   50.2611 H   0  0  0  0  0
  114.0984   40.3880   49.8672 H   0  0  0  0  0
  114.6631   44.6385   49.8723 H   0  0  0  0  0
  116.0237   43.9296   50.8849 H   0  0  0  0  0
  113.0707   43.5357   51.4150 H   0  0  0  0  0
  115.0262   45.4991   52.7530 H   0  0  0  0  0
  113.6451   45.9486   51.7227 H   0  0  0  0  0
  113.3630   45.1869   53.3075 H   0  0  0  0  0
  115.7530   44.0026   53.4111 H   0  0  0  0  0
  1  3  1  0  0  0
  3  2  2  0  0  0
  3  4  1  0  0  0
  4  5  1  0  0  0
  5  6  1  0  0  0
  6  7  1  0  0  0
  6 10  1  0  0  0
  7  8  2  0  0  0
  7  9  1  0  0  0
 10 11  1  0  0  0
 11 12  1  0  0  0
 11 15  1  0  0  0
 12 13  2  0  0  0
 12 14  1  0  0  0
 15 16  1  0  0  0
 16 17  1  0  0  0
 16 18  1  0  0  0
 18 19  1  0  0  0
 18 20  2  0  0  0
  1 21  1  0  0  0
  4 22  1  0  0  0
  4 23  1  0  0  0
  5 24  1  0  0  0
  5 25  1  0  0  0
  6 26  1  0  0  0
  9 27  1  0  0  0
 10 28  1  0  0  0
 10 29  1  0  0  0
 11 30  1  0  0  0
 14 31  1  0  0  0
 15 32  1  0  0  0
 15 33  1  0  0  0
 16 34  1  0  0  0
 17 35  1  0  0  0
 17 36  1  0  0  0
 17 37  1  0  0  0
 19 38  1  0  0  0
M  END
$$$$
