5nsp_ligand
  -I-interpret- 

 51 56  0  0  0  0  0  0  0  0999 V2000
    8.9380   -3.6920   19.3490 C   0  0  0  0  0
    9.8310   -3.9930   18.2900 C   0  0  0  0  0
   11.1870   -3.5600   18.3360 C   0  0  0  0  0
   11.7090   -2.7970   19.4200 N   0  0  0  0  0
    9.4390   -2.9130   20.3770 N   0  0  0  0  0
   -0.6710   -5.5420   21.0420 O   0  0  0  0  0
   -0.3010   -5.9860   22.1160 C   0  0  0  0  0
   -1.1360   -6.4180   23.0280 N   0  0  0  0  0
   -0.4210   -6.8010   24.0630 C   0  0  0  0  0
   -0.7970   -7.3150   25.2510 C   0  0  0  0  0
    0.1910   -7.6340   26.1860 C   0  0  0  0  0
   -0.1290   -8.1610   27.3920 C   0  0  0  0  0
   -0.3560   -8.5770   28.3500 N   0  0  0  0  0
    1.5390   -7.4050   25.8940 C   0  0  0  0  0
    1.8540   -6.8660   24.6450 C   0  0  0  0  0
    0.8830   -6.5820   23.7530 C   0  0  0  0  0
    0.9550   -6.0710   22.5210 N   0  0  0  0  0
    2.0710   -5.7220   21.8670 C   0  0  0  0  0
    2.7440   -6.6660   21.0960 C   0  0  0  0  0
    3.9200   -6.3570   20.3970 C   0  0  0  0  0
    2.6040   -4.4480   21.9540 C   0  0  0  0  0
    3.7760   -4.1430   21.2610 C   0  0  0  0  0
    4.4650   -5.0760   20.4780 C   0  0  0  0  0
    5.5950   -4.6340   19.8610 C   0  0  0  0  0
    5.5890   -4.0530   18.6620 N   0  0  0  0  0
    6.7230   -3.7170   18.3840 N   0  0  0  0  0
    7.5960   -4.0280   19.3620 C   0  0  0  0  0
   10.8060   -2.4870   20.4530 C   0  0  0  0  0
    6.8640   -4.5890   20.3540 N   0  0  0  0  0
    7.3300   -5.0910   21.5110 C   0  0  0  0  0
    7.8950   -6.3870   21.4850 C   0  0  0  0  0
    7.9880   -7.3170   19.9700 Cl  0  0  0  0  0
    8.4010   -6.9750   22.6500 C   0  0  0  0  0
    8.3410   -6.2770   23.8500 C   0  0  0  0  0
    7.7870   -4.9910   23.8850 C   0  0  0  0  0
    7.2770   -4.3950   22.7230 C   0  0  0  0  0
    9.4759   -4.5622   17.4309 H   0  0  0  0  0
   11.8499   -3.8220   17.5114 H   0  0  0  0  0
   -2.1525   -6.4512   22.9499 H   0  0  0  0  0
   -1.8506   -7.4785   25.4777 H   0  0  0  0  0
    2.3191   -7.6397   26.6182 H   0  0  0  0  0
    2.8955   -6.6727   24.3882 H   0  0  0  0  0
    2.3439   -7.6780   21.0336 H   0  0  0  0  0
    4.4085   -7.1190   19.7897 H   0  0  0  0  0
    2.1115   -3.6876   22.5600 H   0  0  0  0  0
    4.1735   -3.1306   21.3329 H   0  0  0  0  0
   11.1481   -1.9186   21.3179 H   0  0  0  0  0
    8.8387   -7.9727   22.6162 H   0  0  0  0  0
    8.7250   -6.7301   24.7640 H   0  0  0  0  0
    7.7519   -4.4462   24.8285 H   0  0  0  0  0
    6.8423   -3.3963   22.7638 H   0  0  0  0  0
  1  2  4  0  0  0
  1  5  4  0  0  0
 27  1  1  0  0  0
  2  3  4  0  0  0
  3  4  4  0  0  0
 28  4  4  0  0  0
  5 28  4  0  0  0
  7  6  2  0  0  0
  7  8  1  0  0  0
 17  7  1  0  0  0
  9  8  1  0  0  0
  9 10  4  0  0  0
 16  9  4  0  0  0
 10 11  4  0  0  0
 11 12  1  0  0  0
 14 11  4  0  0  0
 12 13  3  0  0  0
 15 14  4  0  0  0
 16 15  4  0  0  0
 17 16  1  0  0  0
 18 17  1  0  0  0
 19 18  4  0  0  0
 21 18  4  0  0  0
 20 19  4  0  0  0
 23 20  4  0  0  0
 22 21  4  0  0  0
 23 22  4  0  0  0
 24 23  1  0  0  0
 25 24  4  0  0  0
 24 29  4  0  0  0
 26 25  4  0  0  0
 26 27  4  0  0  0
 27 29  4  0  0  0
 29 30  1  0  0  0
 30 31  4  0  0  0
 30 36  4  0  0  0
 31 32  1  0  0  0
 31 33  4  0  0  0
 33 34  4  0  0  0
 34 35  4  0  0  0
 35 36  4  0  0  0
  2 37  1  0  0  0
  3 38  1  0  0  0
  8 39  1  0  0  0
 10 40  1  0  0  0
 14 41  1  0  0  0
 15 42  1  0  0  0
 19 43  1  0  0  0
 20 44  1  0  0  0
 21 45  1  0  0  0
 22 46  1  0  0  0
 28 47  1  0  0  0
 33 48  1  0  0  0
 34 49  1  0  0  0
 35 50  1  0  0  0
 36 51  1  0  0  0
M  END
$$$$
