4zt8_ligand
  -I-interpret- 

 12 12  0  0  0  0  0  0  0  0999 V2000
  -17.2960   14.7390   -3.1920 N   0  0  0  0  0
  -17.3300   14.9970   -1.8780 C   0  0  0  0  0
  -15.0420   15.4250   -3.2960 N   0  0  0  0  0
  -16.1630   14.9520   -3.8880 C   0  0  0  0  0
  -16.1320   14.7140   -5.1100 O   0  0  0  0  0
  -18.4340   14.8010   -1.1160 N   0  0  0  0  0
  -16.1870   15.4690   -1.2630 C   0  0  0  0  0
  -15.0340   15.6890   -1.9870 C   0  0  0  0  0
  -19.2892   14.4416   -1.5401 H   0  0  0  0  0
  -15.9151   14.6776   -0.5645 H   0  0  0  0  0
  -16.4681   16.4590   -0.9039 H   0  0  0  0  0
  -14.1357   16.0701   -1.5013 H   0  0  0  0  0
  1  2  4  0  0  0
  1  4  1  0  0  0
  2  6  2  0  0  0
  2  7  1  0  0  0
  4  3  1  0  0  0
  3  8  2  0  0  0
  4  5  2  0  0  0
  7  8  1  0  0  0
  6  9  1  0  0  0
  7 10  1  0  0  0
  7 11  1  0  0  0
  8 12  1  0  0  0
M  END
$$$$
