2wpa_ligand
  -I-interpret- 

 57 59  0  0  0  0  0  0  0  0999 V2000
  -15.9880  206.3540  114.0880 O   0  0  0  0  0
  -14.9070  206.8760  114.3700 C   0  0  0  0  0
  -14.4910  207.0770  115.8640 C   0  0  0  0  0
  -14.8150  208.5470  116.3300 C   0  0  0  0  0
  -14.4070  208.8460  117.8080 C   0  0  0  0  0
  -15.1010  207.7610  118.7960 N   0  3  0  0  0
  -14.7170  208.0270  120.1370 C   0  0  0  0  0
  -14.8050  206.3440  118.3020 C   0  0  0  0  0
  -15.2390  206.1370  116.8460 C   0  0  0  0  0
  -14.0060  207.3120  113.3690 N   0  0  0  0  0
  -12.7280  207.9500  113.6640 C   0  0  0  0  0
  -14.2950  207.1690  111.8890 C   0  0  0  0  0
  -15.5020  207.9220  111.3960 C   0  0  0  0  0
  -14.4300  205.6920  111.5120 C   0  0  0  0  0
  -13.0440  207.8030  111.3540 C   0  0  0  0  0
  -12.5440  208.0710  110.1190 N   0  0  0  0  0
  -11.3160  208.7180  110.3090 N   0  0  0  0  0
  -11.1160  208.8140  111.5900 C   0  0  0  0  0
  -12.2170  208.2200  112.3330 C   0  0  0  0  0
  -10.0440  209.4350  112.1840 N   0  0  0  0  0
   -9.2720  209.0490  113.2270 C   0  0  0  0  0
   -9.3910  208.0150  113.8270 O   0  0  0  0  0
   -8.2970  210.1290  113.6760 C   0  0  0  0  0
   -7.3950  209.9080  114.8800 C   0  0  0  0  0
   -6.3270  208.9190  114.4830 C   0  0  0  0  0
   -6.6640  211.1690  115.2020 C   0  0  0  0  0
  -13.4243  206.8550  115.8939 H   0  0  0  0  0
  -15.8945  208.6796  116.2582 H   0  0  0  0  0
  -14.2443  209.2226  115.6928 H   0  0  0  0  0
  -14.7401  209.8477  118.0797 H   0  0  0  0  0
  -13.3232  208.7815  117.9042 H   0  0  0  0  0
  -16.1177  207.8416  118.7815 H   0  0  0  0  0
  -15.2452  207.3479  120.8063 H   0  0  0  0  0
  -13.6421  207.8796  120.2418 H   0  0  0  0  0
  -14.9700  209.0570  120.3885 H   0  0  0  0  0
  -15.3617  205.6440  118.9250 H   0  0  0  0  0
  -13.7289  206.1814  118.3619 H   0  0  0  0  0
  -15.0078  205.1084  116.5690 H   0  0  0  0  0
  -16.3042  206.3581  116.7778 H   0  0  0  0  0
  -12.0632  207.3309  114.2664 H   0  0  0  0  0
  -12.8216  208.8430  114.2819 H   0  0  0  0  0
  -16.3890  207.5684  111.9217 H   0  0  0  0  0
  -15.3665  208.9869  111.5850 H   0  0  0  0  0
  -15.6213  207.7539  110.3257 H   0  0  0  0  0
  -13.5004  205.1725  111.7446 H   0  0  0  0  0
  -15.2479  205.2470  112.0786 H   0  0  0  0  0
  -14.6375  205.6081  110.4452 H   0  0  0  0  0
   -9.7883  210.3325  111.7724 H   0  0  0  0  0
   -8.9370  210.9605  113.9710 H   0  0  0  0  0
   -7.6056  210.2290  112.8393 H   0  0  0  0  0
   -8.0010  209.5725  115.7216 H   0  0  0  0  0
   -6.7951  207.9812  114.1840 H   0  0  0  0  0
   -5.7525  209.3219  113.6489 H   0  0  0  0  0
   -5.6645  208.7419  115.3303 H   0  0  0  0  0
   -6.0576  211.4647  114.3459 H   0  0  0  0  0
   -7.3828  211.9563  115.4290 H   0  0  0  0  0
   -6.0197  211.0036  116.0655 H   0  0  0  0  0
  1  2  2  0  0  0
  2  3  1  0  0  0
  2 10  1  0  0  0
  3  4  1  0  0  0
  3  9  1  0  0  0
  4  5  1  0  0  0
  5  6  1  0  0  0
  6  7  1  0  0  0
  6  8  1  0  0  0
  8  9  1  0  0  0
 10 11  1  0  0  0
 10 12  1  0  0  0
 11 19  1  0  0  0
 12 13  1  0  0  0
 12 14  1  0  0  0
 12 15  1  0  0  0
 15 16  4  0  0  0
 15 19  4  0  0  0
 16 17  4  0  0  0
 17 18  4  0  0  0
 18 19  4  0  0  0
 18 20  1  0  0  0
 20 21  1  0  0  0
 21 22  2  0  0  0
 21 23  1  0  0  0
 23 24  1  0  0  0
 24 25  1  0  0  0
 24 26  1  0  0  0
  3 27  1  0  0  0
  4 28  1  0  0  0
  4 29  1  0  0  0
  5 30  1  0  0  0
  5 31  1  0  0  0
  6 32  1  0  0  0
  7 33  1  0  0  0
  7 34  1  0  0  0
  7 35  1  0  0  0
  8 36  1  0  0  0
  8 37  1  0  0  0
  9 38  1  0  0  0
  9 39  1  0  0  0
 11 40  1  0  0  0
 11 41  1  0  0  0
 13 42  1  0  0  0
 13 43  1  0  0  0
 13 44  1  0  0  0
 14 45  1  0  0  0
 14 46  1  0  0  0
 14 47  1  0  0  0
 20 48  1  0  0  0
 23 49  1  0  0  0
 23 50  1  0  0  0
 24 51  1  0  0  0
 25 52  1  0  0  0
 25 53  1  0  0  0
 25 54  1  0  0  0
 26 55  1  0  0  0
 26 56  1  0  0  0
 26 57  1  0  0  0
M  END
$$$$
