### 
### Created by X-TOOL on Mon Sep 10 21:13:04 2018
### 

@<TRIPOS>MOLECULE
2wpa_ligand
   57    59     1     0     0
SMALL
GAST_HUCK


@<TRIPOS>ATOM
      1 O26       -15.9880  206.3540  114.0880 O.2       1 889        -0.3976
      2 C25       -14.9070  206.8760  114.3700 C.2       1 889         0.1721
      3 C14       -14.4910  207.0770  115.8640 C.3       1 889         0.0442
      4 C20       -14.8150  208.5470  116.3300 C.3       1 889        -0.0520
      5 C19       -14.4070  208.8460  117.8080 C.3       1 889        -0.1111
      6 N17       -15.1010  207.7610  118.7960 N.4       1 889         0.4010
      7 C18       -14.7170  208.0270  120.1370 C.3       1 889        -0.1256
      8 C16       -14.8050  206.3440  118.3020 C.3       1 889        -0.1111
      9 C15       -15.2390  206.1370  116.8460 C.3       1 889        -0.0520
     10 N24       -14.0060  207.3120  113.3690 N.am      1 889        -0.3005
     11 C1        -12.7280  207.9500  113.6640 C.3       1 889         0.0723
     12 C21       -14.2950  207.1690  111.8890 C.3       1 889         0.0426
     13 C22       -15.5020  207.9220  111.3960 C.3       1 889        -0.0777
     14 C23       -14.4300  205.6920  111.5120 C.3       1 889        -0.0777
     15 C3        -13.0440  207.8030  111.3540 C.2       1 889         0.0701
     16 N4        -12.5440  208.0710  110.1190 N.pl3     1 889        -0.2139
     17 N5        -11.3160  208.7180  110.3090 N.2       1 889        -0.1503
     18 C6        -11.1160  208.8140  111.5900 C.2       1 889         0.1908
     19 C2        -12.2170  208.2200  112.3330 C.2       1 889         0.0713
     20 N7        -10.0440  209.4350  112.1840 N.am      1 889        -0.2223
     21 C8         -9.2720  209.0490  113.2270 C.2       1 889         0.2002
     22 O13        -9.3910  208.0150  113.8270 O.2       1 889        -0.3874
     23 C9         -8.2970  210.1290  113.6760 C.3       1 889         0.0444
     24 C10        -7.3950  209.9080  114.8800 C.3       1 889        -0.0294
     25 C12        -6.3270  208.9190  114.4830 C.3       1 889        -0.0606
     26 C11        -6.6640  211.1690  115.2020 C.3       1 889        -0.0606
     27 H         -13.4243  206.8550  115.8939 H         1 889         0.0536
     28 H         -15.8945  208.6796  116.2582 H         1 889         0.0273
     29 H         -14.2443  209.2226  115.6928 H         1 889         0.0273
     30 H         -14.7401  209.8477  118.0797 H         1 889         0.0018
     31 H         -13.3232  208.7815  117.9042 H         1 889         0.0018
     32 H         -15.2452  207.3479  120.8063 H         1 889        -0.0019
     33 H         -13.6421  207.8796  120.2418 H         1 889        -0.0019
     34 H         -14.9700  209.0570  120.3885 H         1 889        -0.0019
     35 H         -15.3617  205.6440  118.9250 H         1 889         0.0018
     36 H         -13.7289  206.1814  118.3619 H         1 889         0.0018
     37 H         -15.0078  205.1084  116.5690 H         1 889         0.0273
     38 H         -16.3042  206.3581  116.7778 H         1 889         0.0273
     39 H         -12.0632  207.3309  114.2664 H         1 889         0.0744
     40 H         -12.8216  208.8430  114.2819 H         1 889         0.0744
     41 H         -16.3890  207.5684  111.9217 H         1 889         0.0103
     42 H         -15.3665  208.9869  111.5850 H         1 889         0.0103
     43 H         -15.6213  207.7539  110.3257 H         1 889         0.0103
     44 H         -13.5004  205.1725  111.7446 H         1 889         0.0103
     45 H         -15.2479  205.2470  112.0786 H         1 889         0.0103
     46 H         -14.6375  205.6081  110.4452 H         1 889         0.0103
     47 H         -12.9795  207.8444  109.2249 H         1 889         0.2509
     48 H          -9.7883  210.3325  111.7724 H         1 889         0.2207
     49 H          -8.9370  210.9605  113.9710 H         1 889         0.0509
     50 H          -7.6056  210.2290  112.8393 H         1 889         0.0509
     51 H          -8.0010  209.5725  115.7216 H         1 889         0.0320
     52 H          -6.7951  207.9812  114.1840 H         1 889         0.0234
     53 H          -5.7525  209.3219  113.6489 H         1 889         0.0234
     54 H          -5.6645  208.7419  115.3303 H         1 889         0.0234
     55 H          -6.0576  211.4647  114.3459 H         1 889         0.0234
     56 H          -7.3828  211.9563  115.4290 H         1 889         0.0234
     57 H          -6.0197  211.0036  116.0655 H         1 889         0.0234
@<TRIPOS>BOND
     1    1    2 2  
     2    2    3 1  
     3    2   10 am 
     4    3    4 1  
     5    3    9 1  
     6    4    5 1  
     7    5    6 1  
     8    6    7 1  
     9    6    8 1  
    10    8    9 1  
    11   10   11 1  
    12   10   12 1  
    13   11   19 1  
    14   12   13 1  
    15   12   14 1  
    16   12   15 1  
    17   15   16 1  
    18   15   19 2  
    19   16   17 1  
    20   17   18 2  
    21   18   19 1  
    22   18   20 1  
    23   20   21 am 
    24   21   22 2  
    25   21   23 1  
    26   23   24 1  
    27   24   25 1  
    28   24   26 1  
    29    3   27 1  
    30    4   28 1  
    31    4   29 1  
    32    5   30 1  
    33    5   31 1  
    34    7   32 1  
    35    7   33 1  
    36    7   34 1  
    37    8   35 1  
    38    8   36 1  
    39    9   37 1  
    40    9   38 1  
    41   11   39 1  
    42   11   40 1  
    43   13   41 1  
    44   13   42 1  
    45   13   43 1  
    46   14   44 1  
    47   14   45 1  
    48   14   46 1  
    49   16   47 1  
    50   20   48 1  
    51   23   49 1  
    52   23   50 1  
    53   24   51 1  
    54   25   52 1  
    55   25   53 1  
    56   25   54 1  
    57   26   55 1  
    58   26   56 1  
    59   26   57 1  
@<TRIPOS>SUBSTRUCTURE
     1 889         1

