6ftp_ligand
  -I-interpret- 

 69 73  0  0  0  0  0  0  0  0999 V2000
  -22.2120    6.9570    2.1750 C   0  0  0  0  0
  -22.4560    8.1910    2.7590 C   0  0  0  0  0
  -21.4090    9.0580    2.9920 C   0  0  0  0  0
  -20.1050    8.6980    2.6420 C   0  0  0  0  0
  -19.0500    9.5370    2.8620 O   0  0  0  0  0
  -19.8290    7.4540    2.0490 C   0  0  0  0  0
  -18.4660    7.0520    1.6720 C   0  0  0  0  0
  -17.5000    7.7780    1.8540 O   0  0  0  0  0
  -18.2960    5.7240    1.0570 C   0  0  0  0  0
  -17.0260    5.2960    0.6820 C   0  0  0  0  0
  -15.9580    6.1140    0.8900 O   0  0  0  0  0
  -16.8250    4.0400    0.0950 C   0  0  0  0  0
  -15.4250    3.6600   -0.2780 C   0  0  0  0  0
  -14.7570    3.3580    0.9250 O   0  0  0  0  0
  -15.4150    2.4740   -1.2590 C   0  0  0  0  0
  -16.3080    1.3800   -0.6610 C   0  0  0  0  0
  -15.8900    1.2060    0.6600 O   0  0  0  0  0
  -16.1250    0.0810   -1.4600 C   0  0  0  0  0
  -16.4980   -0.0210   -2.6070 O   0  0  0  0  0
  -15.4510   -1.0640   -0.7340 C   0  0  0  0  0
  -14.1250   -1.0320   -1.1660 O   0  0  0  0  0
  -17.7610    1.8460   -0.7450 C   0  0  0  0  0
  -17.8960    3.1930   -0.1270 C   0  0  0  0  0
  -19.1730    3.6240    0.2510 C   0  0  0  0  0
  -20.2290    2.7900    0.0340 O   0  0  0  0  0
  -19.3780    4.8700    0.8340 C   0  0  0  0  0
  -20.7320    5.2730    1.2110 C   0  0  0  0  0
  -21.6860    4.5280    1.0180 O   0  0  0  0  0
  -20.9200    6.5970    1.8270 C   0  0  0  0  0
  -19.3820   10.9030    2.7120 C   0  0  0  0  0
  -13.5970    4.1410    1.1050 C   0  0  0  0  0
  -13.0770    3.9540    2.5350 C   0  0  0  0  0
  -12.7030    2.4840    2.7580 C   0  0  0  0  0
  -12.0490    2.3190    4.0520 N   0  3  0  0  0
  -11.7300    2.0320    1.6280 C   0  0  0  0  0
  -10.5680    2.7850    1.7460 O   0  0  0  0  0
  -12.4290    2.2940    0.2790 C   0  0  0  0  0
  -12.6880    3.6700    0.1470 O   0  0  0  0  0
  -11.5880    1.8700   -0.9150 C   0  0  0  0  0
  -23.0374    6.2696    1.9896 H   0  0  0  0  0
  -23.4721    8.4748    3.0330 H   0  0  0  0  0
  -21.5995   10.0281    3.4511 H   0  0  0  0  0
  -15.1592    5.6803    0.5810 H   0  0  0  0  0
  -14.9193    4.4745   -0.7966 H   0  0  0  0  0
  -14.3998    2.1039   -1.4021 H   0  0  0  0  0
  -15.7884    2.7818   -2.2357 H   0  0  0  0  0
  -16.4245    0.5260    1.0766 H   0  0  0  0  0
  -15.9261   -2.0196   -0.9559 H   0  0  0  0  0
  -15.5268   -0.9577    0.3482 H   0  0  0  0  0
  -13.6339   -1.7389   -0.7408 H   0  0  0  0  0
  -18.3970    1.1397   -0.2114 H   0  0  0  0  0
  -18.0625    1.8980   -1.7912 H   0  0  0  0  0
  -21.0359    3.2112    0.3391 H   0  0  0  0  0
  -19.7372   11.0799    1.6968 H   0  0  0  0  0
  -20.1652   11.1655    3.4232 H   0  0  0  0  0
  -18.4987   11.5131    2.9008 H   0  0  0  0  0
  -13.7715    5.2092    0.9764 H   0  0  0  0  0
  -13.8539    4.2416    3.2434 H   0  0  0  0  0
  -12.1963    4.5786    2.6848 H   0  0  0  0  0
  -13.6082    1.8770    2.7404 H   0  0  0  0  0
  -11.8063    1.3374    4.1863 H   0  0  0  0  0
  -11.2019    2.8866    4.0783 H   0  0  0  0  0
  -12.6832    2.6181    4.7927 H   0  0  0  0  0
  -11.4749    0.9745    1.6965 H   0  0  0  0  0
   -9.9490    2.5259    1.0594 H   0  0  0  0  0
  -13.3453    1.7037    0.2835 H   0  0  0  0  0
  -10.6501    2.4254   -0.9128 H   0  0  0  0  0
  -11.3795    0.8021   -0.8501 H   0  0  0  0  0
  -12.1337    2.0797   -1.8350 H   0  0  0  0  0
  1  2  4  0  0  0
  1 29  4  0  0  0
  2  3  4  0  0  0
  3  4  4  0  0  0
  4  5  1  0  0  0
  4  6  4  0  0  0
  5 30  1  0  0  0
  6  7  1  0  0  0
  6 29  4  0  0  0
  7  8  2  0  0  0
  7  9  1  0  0  0
  9 10  4  0  0  0
  9 26  4  0  0  0
 10 11  1  0  0  0
 10 12  4  0  0  0
 12 13  1  0  0  0
 12 23  4  0  0  0
 13 14  1  0  0  0
 13 15  1  0  0  0
 14 31  1  0  0  0
 15 16  1  0  0  0
 16 17  1  0  0  0
 16 18  1  0  0  0
 16 22  1  0  0  0
 18 19  2  0  0  0
 18 20  1  0  0  0
 20 21  1  0  0  0
 22 23  1  0  0  0
 23 24  4  0  0  0
 24 25  1  0  0  0
 24 26  4  0  0  0
 26 27  1  0  0  0
 27 28  2  0  0  0
 27 29  1  0  0  0
 31 32  1  0  0  0
 31 38  1  0  0  0
 32 33  1  0  0  0
 33 34  1  0  0  0
 33 35  1  0  0  0
 35 36  1  0  0  0
 35 37  1  0  0  0
 37 38  1  0  0  0
 37 39  1  0  0  0
  1 40  1  0  0  0
  2 41  1  0  0  0
  3 42  1  0  0  0
 11 43  1  0  0  0
 13 44  1  0  0  0
 15 45  1  0  0  0
 15 46  1  0  0  0
 17 47  1  0  0  0
 20 48  1  0  0  0
 20 49  1  0  0  0
 21 50  1  0  0  0
 22 51  1  0  0  0
 22 52  1  0  0  0
 25 53  1  0  0  0
 30 54  1  0  0  0
 30 55  1  0  0  0
 30 56  1  0  0  0
 31 57  1  0  0  0
 32 58  1  0  0  0
 32 59  1  0  0  0
 33 60  1  0  0  0
 34 61  1  0  0  0
 34 62  1  0  0  0
 34 63  1  0  0  0
 35 64  1  0  0  0
 36 65  1  0  0  0
 37 66  1  0  0  0
 39 67  1  0  0  0
 39 68  1  0  0  0
 39 69  1  0  0  0
M  END
$$$$
