6npv_ligand
  -I-interpret- 

 41 43  0  0  0  0  0  0  0  0999 V2000
   16.3640    7.3580  -33.8200 C   0  0  0  0  0
   17.4580    5.5600  -32.6950 C   0  0  0  0  0
   16.3290    4.7810  -32.8320 C   0  0  0  0  0
   11.8090    7.0660  -34.7040 C   0  0  0  0  0
    9.4870    7.2660  -35.4130 C   0  0  0  0  0
   13.7580    8.4460  -34.7410 C   0  0  0  0  0
   12.2500    8.4390  -34.9680 C   0  0  0  0  0
   11.5600    9.3290  -33.9720 C   0  0  0  0  0
   12.1130   10.7300  -34.0080 C   0  0  0  0  0
   17.4750    6.8480  -33.1820 C   0  0  0  0  0
    7.1530    6.9520  -36.0650 C   0  0  0  0  0
    7.9110    6.0420  -33.9930 C   0  0  0  0  0
   15.2190    5.3010  -33.4610 C   0  0  0  0  0
    5.9160    6.4350  -35.7630 C   0  0  0  0  0
    6.6330    5.5730  -33.8000 C   0  0  0  0  0
    8.1560    6.7400  -35.1470 C   0  0  0  0  0
   15.2300    6.5900  -33.9590 C   0  0  0  0  0
    5.6170    5.7490  -34.6540 N   0  0  0  0  0
   14.0710    7.0370  -34.6150 N   0  0  0  0  0
   12.8480    6.3000  -34.4850 N   0  0  0  0  0
   10.5330    6.6850  -34.6550 N   0  0  0  0  0
    9.7130    8.1360  -36.2410 O   0  0  0  0  0
   11.5600   11.3700  -35.1430 O   0  0  0  0  0
   18.8480    4.9030  -31.8970 Cl  0  0  0  0  0
   16.3160    3.1620  -32.2050 Cl  0  0  0  0  0
   16.3838    8.3734  -34.2159 H   0  0  0  0  0
   14.0523    9.0256  -33.8660 H   0  0  0  0  0
   14.3060    8.9315  -35.5485 H   0  0  0  0  0
   12.0173    8.7844  -35.9753 H   0  0  0  0  0
   11.7199    8.9200  -32.9744 H   0  0  0  0  0
   10.4997    9.3696  -34.2215 H   0  0  0  0  0
   13.2011   10.7114  -34.0703 H   0  0  0  0  0
   11.8509   11.2693  -33.0978 H   0  0  0  0  0
   18.3663    7.4641  -33.0632 H   0  0  0  0  0
    7.3312    7.5038  -36.9879 H   0  0  0  0  0
    8.6970    5.8660  -33.2586 H   0  0  0  0  0
   14.3230    4.6894  -33.5669 H   0  0  0  0  0
    5.1149    6.5967  -36.4843 H   0  0  0  0  0
    6.4322    5.0169  -32.8843 H   0  0  0  0  0
   10.2920    5.9192  -34.0258 H   0  0  0  0  0
   11.8931   12.2688  -35.1962 H   0  0  0  0  0
  1 10  4  0  0  0
 17  1  4  0  0  0
  3  2  4  0  0  0
 10  2  4  0  0  0
  2 24  1  0  0  0
 13  3  4  0  0  0
  3 25  1  0  0  0
  7  4  1  0  0  0
  4 20  2  0  0  0
  4 21  1  0  0  0
  5 16  1  0  0  0
 21  5  1  0  0  0
  5 22  2  0  0  0
  6  7  1  0  0  0
 19  6  1  0  0  0
  7  8  1  0  0  0
  8  9  1  0  0  0
  9 23  1  0  0  0
 11 14  4  0  0  0
 16 11  4  0  0  0
 12 15  4  0  0  0
 16 12  4  0  0  0
 17 13  4  0  0  0
 14 18  4  0  0  0
 15 18  4  0  0  0
 17 19  1  0  0  0
 19 20  1  0  0  0
  1 26  1  0  0  0
  6 27  1  0  0  0
  6 28  1  0  0  0
  7 29  1  0  0  0
  8 30  1  0  0  0
  8 31  1  0  0  0
  9 32  1  0  0  0
  9 33  1  0  0  0
 10 34  1  0  0  0
 11 35  1  0  0  0
 12 36  1  0  0  0
 13 37  1  0  0  0
 14 38  1  0  0  0
 15 39  1  0  0  0
 21 40  1  0  0  0
 23 41  1  0  0  0
M  END
$$$$
