2auz_ligand
  -I-interpret- 

 50 51  0  0  0  0  0  0  0  0999 V2000
   71.9310  -11.3600  130.4030 C   0  0  0  0  0
   73.3270  -11.5240  130.9980 C   0  0  0  0  0
   73.3640  -10.8950  132.4040 C   0  0  0  0  0
   74.6660  -10.0610  132.5640 C   0  0  0  0  0
   74.9410   -9.8250  134.0420 C   0  0  0  0  0
   74.0240   -8.8620  134.5190 N   0  0  0  0  0
   73.2030   -9.1470  135.5170 C   0  0  0  0  0
   73.2990  -10.2430  136.0990 O   0  0  0  0  0
   72.2320   -8.2170  135.8480 O   0  0  0  0  0
   71.6550   -8.3240  137.1690 C   0  0  0  0  0
   70.6200   -9.5330  137.2620 C   0  0  0  0  0
   69.5960   -9.4640  136.1260 C   0  0  0  0  0
   69.8410  -10.1250  134.9260 C   0  0  0  0  0
   68.9100  -10.0650  133.8860 C   0  0  0  0  0
   67.7300   -9.3400  134.0470 C   0  0  0  0  0
   67.4800   -8.6810  135.2410 C   0  0  0  0  0
   68.4120   -8.7410  136.2850 C   0  0  0  0  0
   72.7530   -8.4540  138.2370 C   0  0  0  0  0
   73.0030   -7.0620  138.7920 C   0  0  0  0  0
   71.8870   -6.1460  138.2580 C   0  0  0  0  0
   70.9370   -7.0090  137.4520 C   0  0  0  0  0
   76.3760   -9.2660  134.2280 C   0  0  0  0  0
   77.2820  -10.0010  133.3910 O   0  0  0  0  0
   71.2035  -11.8584  131.0437 H   0  0  0  0  0
   71.6894  -10.2994  130.3334 H   0  0  0  0  0
   71.9067  -11.8055  129.4085 H   0  0  0  0  0
   74.0552  -11.0257  130.3581 H   0  0  0  0  0
   73.5695  -12.5844  131.0681 H   0  0  0  0  0
   73.3430  -11.6840  133.1558 H   0  0  0  0  0
   72.4982  -10.2459  132.5347 H   0  0  0  0  0
   74.5467   -9.1021  132.0597 H   0  0  0  0  0
   75.5012  -10.6041  132.1219 H   0  0  0  0  0
   74.8401  -10.7642  134.5859 H   0  0  0  0  0
   73.9944   -7.9372  134.0896 H   0  0  0  0  0
   70.0925   -9.4704  138.2138 H   0  0  0  0  0
   71.1690  -10.4713  137.1826 H   0  0  0  0  0
   70.7630  -10.6918  134.7970 H   0  0  0  0  0
   69.1062  -10.5852  132.9484 H   0  0  0  0  0
   67.0046   -9.2913  133.2349 H   0  0  0  0  0
   66.5569   -8.1154  135.3675 H   0  0  0  0  0
   68.2127   -8.2226  137.2229 H   0  0  0  0  0
   73.6648   -8.8650  137.8035 H   0  0  0  0  0
   72.4404   -9.1339  139.0295 H   0  0  0  0  0
   73.9805   -6.6957  138.4784 H   0  0  0  0  0
   72.9950   -7.0782  139.8819 H   0  0  0  0  0
   72.3070   -5.3565  137.6348 H   0  0  0  0  0
   71.3600   -5.6662  139.0827 H   0  0  0  0  0
   70.0148   -7.1859  138.0055 H   0  0  0  0  0
   70.6627   -6.5127  136.5211 H   0  0  0  0  0
   76.6528   -8.4451  134.8895 H   0  0  0  0  0
  1  2  1  0  0  0
  2  3  1  0  0  0
  3  4  1  0  0  0
  4  5  1  0  0  0
  5  6  1  0  0  0
  5 22  1  0  0  0
  6  7  1  0  0  0
  7  8  2  0  0  0
  7  9  1  0  0  0
  9 10  1  0  0  0
 10 11  1  0  0  0
 10 18  1  0  0  0
 10 21  1  0  0  0
 11 12  1  0  0  0
 12 13  4  0  0  0
 12 17  4  0  0  0
 13 14  4  0  0  0
 14 15  4  0  0  0
 15 16  4  0  0  0
 16 17  4  0  0  0
 18 19  1  0  0  0
 19 20  1  0  0  0
 20 21  1  0  0  0
 22 23  2  0  0  0
  1 24  1  0  0  0
  1 25  1  0  0  0
  1 26  1  0  0  0
  2 27  1  0  0  0
  2 28  1  0  0  0
  3 29  1  0  0  0
  3 30  1  0  0  0
  4 31  1  0  0  0
  4 32  1  0  0  0
  5 33  1  0  0  0
  6 34  1  0  0  0
 11 35  1  0  0  0
 11 36  1  0  0  0
 13 37  1  0  0  0
 14 38  1  0  0  0
 15 39  1  0  0  0
 16 40  1  0  0  0
 17 41  1  0  0  0
 18 42  1  0  0  0
 18 43  1  0  0  0
 19 44  1  0  0  0
 19 45  1  0  0  0
 20 46  1  0  0  0
 20 47  1  0  0  0
 21 48  1  0  0  0
 21 49  1  0  0  0
 22 50  1  0  0  0
M  END
$$$$
