6qfx_ligand
  -I-interpret- 

 64 71  0  0  0  0  0  0  0  0999 V2000
   15.7460    0.2170   18.1230 O   0  0  0  0  0
   21.0100    8.1400   12.8940 C   0  0  0  0  0
   21.3840    9.3130   12.0430 C   0  0  0  0  0
   22.4490    9.3150   10.9440 C   0  0  0  0  0
   20.5360   10.4860   12.4410 C   0  0  0  0  0
   20.5900   11.8960   11.8410 C   0  0  0  0  0
   19.6380   10.0300   13.5640 C   0  0  0  0  0
   18.6400   10.9200   14.2510 C   0  0  0  0  0
   21.6400    6.7590   12.8060 C   0  0  0  0  0
   19.9200    8.5780   13.8460 C   0  0  0  0  0
   19.2770    7.6760   14.8930 C   0  0  0  0  0
   20.0680    7.7190    9.8180 Cl  0  0  0  0  0
   17.7110    9.4410   10.8940 N   0  0  0  0  0
   17.4140   10.6590   10.6210 C   0  0  0  0  0
   16.3060   11.0480    9.9290 C   0  0  0  0  0
   16.7580    8.4790   10.4040 C   0  0  0  0  0
   14.3060   10.6450    8.7720 O   0  0  0  0  0
   15.3670   10.1970    9.4550 C   0  0  0  0  0
   15.5160    8.8910    9.6610 C   0  0  0  0  0
   15.2650    0.0090   16.8530 S   0  0  0  0  0
   18.0890    4.2530   13.9590 N   0  0  0  0  0
   15.9470    1.2530   15.9780 C   0  0  0  0  0
   13.8130    0.1710   16.6630 O   0  0  0  0  0
   15.1950    2.3830   15.3790 C   0  0  0  0  0
   15.9150    3.3630   14.7020 C   0  0  0  0  0
   17.4130    1.2500   15.8650 C   0  0  0  0  0
   17.9720    2.2850   15.1680 C   0  0  0  0  0
   18.5340    5.6950   12.0980 C   0  0  0  0  0
   17.6090    5.0690   12.8850 C   0  0  0  0  0
   16.4360    4.7410   12.3330 O   0  0  0  0  0
   15.7860   -1.4450   16.2780 N   0  0  0  0  0
   17.2870    3.2940   14.5840 C   0  0  0  0  0
   18.3830    7.0130   11.5390 N   0  0  0  0  0
   17.1650    7.1200   10.7710 C   0  0  0  0  0
   16.4160    6.2310   10.3870 O   0  0  0  0  0
   19.3150    8.8490   11.8620 Ir  0  0  0  0  0
   23.4158    9.0570   11.3762 H   0  0  0  0  0
   22.1836    8.5829   10.1813 H   0  0  0  0  0
   22.5035   10.3065   10.4945 H   0  0  0  0  0
   21.5862   12.3136   11.9868 H   0  0  0  0  0
   20.3686   11.8446   10.7750 H   0  0  0  0  0
   19.8534   12.5287   12.3362 H   0  0  0  0  0
   19.1597   11.7632   14.7059 H   0  0  0  0  0
   17.9191   11.2871   13.5205 H   0  0  0  0  0
   18.1201   10.3527   15.0230 H   0  0  0  0  0
   21.4853    6.3535   11.8061 H   0  0  0  0  0
   22.7085    6.8350   13.0074 H   0  0  0  0  0
   21.1762    6.1019   13.5417 H   0  0  0  0  0
   18.8080    6.8251   14.3990 H   0  0  0  0  0
   20.0418    7.3206   15.5836 H   0  0  0  0  0
   18.5230    8.2396   15.4425 H   0  0  0  0  0
   18.0951   11.4367   10.9665 H   0  0  0  0  0
   16.1675   12.1135    9.7456 H   0  0  0  0  0
   13.7533    9.9022    8.5183 H   0  0  0  0  0
   14.7828    8.1636    9.3127 H   0  0  0  0  0
   19.0496    4.3758   14.2792 H   0  0  0  0  0
   14.1102    2.4439   15.4666 H   0  0  0  0  0
   15.3829    4.2030   14.2555 H   0  0  0  0  0
   18.0217    0.4646   16.3130 H   0  0  0  0  0
   19.0580    2.2978   15.0756 H   0  0  0  0  0
   18.5484    5.0648   11.2088 H   0  0  0  0  0
   19.3719    5.8267   12.7827 H   0  0  0  0  0
   16.3795   -2.0393   16.8567 H   0  0  0  0  0
   15.5149   -1.7506   15.3434 H   0  0  0  0  0
 20  1  2  0  0  0
  3  2  4  0  0  0
  2  9  1  0  0  0
 10  2  4  0  0  0
  3  4  1  0  0  0
  5  3  4  0  0  0
  5  6  1  0  0  0
  7  5  4  0  0  0
  7  8  1  0  0  0
 10  7  4  0  0  0
 10 11  1  0  0  0
 13 14  4  0  0  0
 13 16  4  0  0  0
 14 15  4  0  0  0
 15 18  4  0  0  0
 16 19  4  0  0  0
 16 34  1  0  0  0
 18 17  1  0  0  0
 19 18  4  0  0  0
 22 20  1  0  0  0
 20 23  2  0  0  0
 20 31  1  0  0  0
 29 21  1  0  0  0
 21 32  1  0  0  0
 24 22  4  0  0  0
 26 22  4  0  0  0
 25 24  4  0  0  0
 32 25  4  0  0  0
 27 26  4  0  0  0
 32 27  4  0  0  0
 28 29  1  0  0  0
 33 28  1  0  0  0
 29 30  2  0  0  0
 34 33  1  0  0  0
 34 35  2  0  0  0
 36  2  1  0  0  0
 36  3  1  0  0  0
 36  5  1  0  0  0
 36  7  1  0  0  0
 36 10  1  0  0  0
 36 12  1  0  0  0
 36 13  1  0  0  0
 36 33  1  0  0  0
  4 37  1  0  0  0
  4 38  1  0  0  0
  4 39  1  0  0  0
  6 40  1  0  0  0
  6 41  1  0  0  0
  6 42  1  0  0  0
  8 43  1  0  0  0
  8 44  1  0  0  0
  8 45  1  0  0  0
  9 46  1  0  0  0
  9 47  1  0  0  0
  9 48  1  0  0  0
 11 49  1  0  0  0
 11 50  1  0  0  0
 11 51  1  0  0  0
 14 52  1  0  0  0
 15 53  1  0  0  0
 17 54  1  0  0  0
 19 55  1  0  0  0
 21 56  1  0  0  0
 24 57  1  0  0  0
 25 58  1  0  0  0
 26 59  1  0  0  0
 27 60  1  0  0  0
 28 61  1  0  0  0
 28 62  1  0  0  0
 31 63  1  0  0  0
 31 64  1  0  0  0
M  END
$$$$
