### 
### Created by X-TOOL on Mon Aug  2 16:17:23 2021
### 

@<TRIPOS>MOLECULE
6qfx_ligand
   66    73     1     0     0
SMALL
GAST_HUCK


@<TRIPOS>ATOM
      1 O1         15.7460    0.2170   18.1230 O.2       1 JR3        -0.1524
      2 C13        21.0100    8.1400   12.8940 C.ar      1 JR3        -0.0687
      3 C14        21.3840    9.3130   12.0430 C.ar      1 JR3        -0.0687
      4 C21        22.4490    9.3150   10.9440 C.3       1 JR3        -0.0435
      5 C15        20.5360   10.4860   12.4410 C.ar      1 JR3        -0.0687
      6 C20        20.5900   11.8960   11.8410 C.3       1 JR3        -0.0435
      7 C16        19.6380   10.0300   13.5640 C.ar      1 JR3        -0.0687
      8 C19        18.6400   10.9200   14.2510 C.3       1 JR3        -0.0435
      9 C22        21.6400    6.7590   12.8060 C.3       1 JR3        -0.0435
     10 C17        19.9200    8.5780   13.8460 C.ar      1 JR3        -0.0687
     11 C18        19.2770    7.6760   14.8930 C.3       1 JR3        -0.0435
     12 CL1        20.0680    7.7190    9.8180 Cl        1 JR3        -0.1454
     13 N1         17.7110    9.4410   10.8940 N.ar      1 JR3        -0.2925
     14 C1         17.4140   10.6590   10.6210 C.ar      1 JR3         0.0054
     15 C2         16.3060   11.0480    9.9290 C.ar      1 JR3        -0.0015
     16 C5         16.7580    8.4790   10.4040 C.ar      1 JR3         0.1114
     17 O5         14.3060   10.6450    8.7720 O.3       1 JR3        -0.3219
     18 C3         15.3670   10.1970    9.4550 C.ar      1 JR3         0.1135
     19 C4         15.5160    8.8910    9.6610 C.ar      1 JR3         0.0143
     20 S1         15.2650    0.0090   16.8530 S.o2      1 JR3         0.0591
     21 N4         18.0890    4.2530   13.9590 N.am      1 JR3        -0.2322
     22 C10        15.9470    1.2530   15.9780 C.ar      1 JR3         0.0924
     23 O2         13.8130    0.1710   16.6630 O.2       1 JR3        -0.1524
     24 C11        15.1950    2.3830   15.3790 C.ar      1 JR3        -0.0490
     25 C12        15.9150    3.3630   14.7020 C.ar      1 JR3        -0.0394
     26 C9         17.4130    1.2500   15.8650 C.ar      1 JR3        -0.0490
     27 C8         17.9720    2.2850   15.1680 C.ar      1 JR3        -0.0394
     28 C23        18.5340    5.6950   12.0980 C.3       1 JR3         0.1256
     29 C24        17.6090    5.0690   12.8850 C.2       1 JR3         0.2261
     30 O4         16.4360    4.7410   12.3330 O.2       1 JR3        -0.3826
     31 N3         15.7860   -1.4450   16.2780 N.am      1 JR3        -0.2626
     32 C7         17.2870    3.2940   14.5840 C.ar      1 JR3         0.0664
     33 N2         18.3830    7.0130   11.5390 N.am      1 JR3        -0.2652
     34 C6         17.1650    7.1200   10.7710 C.2       1 JR3         0.2228
     35 O3         16.4160    6.2310   10.3870 O.2       1 JR3        -0.3789
     36 IR1        19.3150    8.8490   11.8620 Ir        1 JR3         2.0000
     37 H1         22.9077    8.3175   10.8762 H         1 JR3         0.0374
     38 H2         23.2229   10.0588   11.1846 H         1 JR3         0.0374
     39 H3         21.9820    9.5700    9.9813 H         1 JR3         0.0374
     40 H4         21.3411   11.9241   11.0378 H         1 JR3         0.0374
     41 H5         20.8640   12.6177   12.6246 H         1 JR3         0.0374
     42 H6         19.6038   12.1577   11.4301 H         1 JR3         0.0374
     43 H7         18.6811   11.9265   13.8091 H         1 JR3         0.0374
     44 H8         18.8793   10.9802   15.3230 H         1 JR3         0.0374
     45 H9         17.6295   10.5046   14.1236 H         1 JR3         0.0374
     46 H10        22.4041    6.7543   12.0147 H         1 JR3         0.0374
     47 H11        20.8637    6.0161   12.5704 H         1 JR3         0.0374
     48 H12        22.1081    6.5074   13.7691 H         1 JR3         0.0374
     49 H13        19.7159    6.6694   14.8291 H         1 JR3         0.0374
     50 H14        18.1940    7.6160   14.7100 H         1 JR3         0.0374
     51 H15        19.4571    8.0915   15.8954 H         1 JR3         0.0374
     52 H16        19.5549    8.1081    9.0425 H         1 JR3         0.1454
     53 H17        18.0914   11.4324   10.9646 H         1 JR3         0.0803
     54 H18        16.1682   12.1076    9.7466 H         1 JR3         0.0667
     55 H19        13.7590    9.9100    8.5209 H         1 JR3         0.2528
     56 H20        14.7868    8.1676    9.3146 H         1 JR3         0.0689
     57 H21        19.0308    4.3734   14.2729 H         1 JR3         0.2257
     58 H22        14.1162    2.4436   15.4661 H         1 JR3         0.0596
     59 H23        15.3858    4.1984   14.2580 H         1 JR3         0.0503
     60 H24        18.0183    0.4689   16.3105 H         1 JR3         0.0596
     61 H25        19.0520    2.2977   15.0761 H         1 JR3         0.0503
     62 H26        18.6881    5.0270   11.2378 H         1 JR3         0.0769
     63 H27        19.4534    5.7351   12.7005 H         1 JR3         0.0769
     64 H28        15.5202   -1.7446   15.3617 H         1 JR3         0.1633
     65 H29        16.3679   -2.0276   16.8454 H         1 JR3         0.1633
     66 H30        19.0374    7.7584   11.6662 H         1 JR3         0.1877
@<TRIPOS>BOND
     1   20    1 2  
     2    3    2 ar 
     3    2    9 1  
     4   10    2 ar 
     5    3    4 1  
     6    5    3 ar 
     7    5    6 1  
     8    7    5 ar 
     9    7    8 1  
    10   10    7 ar 
    11   10   11 1  
    12   13   14 ar 
    13   13   16 ar 
    14   14   15 ar 
    15   15   18 ar 
    16   16   19 ar 
    17   16   34 1  
    18   18   17 1  
    19   19   18 ar 
    20   22   20 1  
    21   20   23 2  
    22   20   31 am 
    23   29   21 am 
    24   21   32 1  
    25   24   22 ar 
    26   26   22 ar 
    27   25   24 ar 
    28   32   25 ar 
    29   27   26 ar 
    30   32   27 ar 
    31   28   29 1  
    32   33   28 1  
    33   29   30 2  
    34   34   33 am 
    35   34   35 2  
    36   36    2 1  
    37   36    3 1  
    38   36    5 1  
    39   36    7 1  
    40   36   10 1  
    41   36   12 1  
    42   36   13 1  
    43   36   33 1  
    44    4   37 1  
    45    4   38 1  
    46    4   39 1  
    47    6   40 1  
    48    6   41 1  
    49    6   42 1  
    50    8   43 1  
    51    8   44 1  
    52    8   45 1  
    53    9   46 1  
    54    9   47 1  
    55    9   48 1  
    56   11   49 1  
    57   11   50 1  
    58   11   51 1  
    59   12   52 1  
    60   14   53 1  
    61   15   54 1  
    62   17   55 1  
    63   19   56 1  
    64   21   57 1  
    65   24   58 1  
    66   25   59 1  
    67   26   60 1  
    68   27   61 1  
    69   28   62 1  
    70   28   63 1  
    71   31   64 1  
    72   31   65 1  
    73   33   66 1  
@<TRIPOS>SUBSTRUCTURE
     1 JR3         1

