2esm_ligand
  -I-interpret- 

 38 40  0  0  0  0  0  0  0  0999 V2000
   -0.8920  138.7790   19.7160 O   0  0  0  0  0
   -1.3530  137.4920   20.1620 S   0  0  0  0  0
   -0.9840  137.3570   21.5460 O   0  0  0  0  0
   -2.8780  137.3870   20.0410 N   0  0  0  0  0
   -3.5680  136.2000   20.5490 C   0  0  0  0  0
   -4.1360  136.5480   21.9250 C   0  0  0  0  0
   -4.9840  137.7260   21.8840 N   0  3  0  0  0
   -4.3730  139.0440   21.8310 C   0  0  0  0  0
   -4.0450  139.5290   20.4130 C   0  0  0  0  0
   -3.6640  138.4420   19.3950 C   0  0  0  0  0
   -0.6590  136.3250   19.3000 C   0  0  0  0  0
   -0.3290  135.1140   19.9190 C   0  0  0  0  0
    0.2710  134.0620   19.2200 C   0  0  0  0  0
    0.5770  134.1480   17.8600 C   0  0  0  0  0
    0.2950  135.3100   17.1460 C   0  0  0  0  0
   -0.3440  136.4640   17.8400 C   0  0  0  0  0
   -0.6130  137.6050   17.0850 C   0  0  0  0  0
    0.5890  135.4210   15.7900 C   0  0  0  0  0
    0.2990  136.5580   15.1300 N   0  0  0  0  0
   -0.2770  137.6190   15.7290 C   0  0  0  0  0
   -2.8758  135.3614   20.6247 H   0  0  0  0  0
   -4.3690  135.9066   19.8704 H   0  0  0  0  0
   -3.3013  136.7531   22.5953 H   0  0  0  0  0
   -4.7391  135.7067   22.2665 H   0  0  0  0  0
   -5.4922  137.7109   22.7683 H   0  0  0  0  0
   -5.5002  137.6438   21.0081 H   0  0  0  0  0
   -3.4310  138.9838   22.3761 H   0  0  0  0  0
   -5.0899  139.7479   22.2537 H   0  0  0  0  0
   -3.1735  140.1769   20.5069 H   0  0  0  0  0
   -4.9536  139.9964   20.0334 H   0  0  0  0  0
   -4.5749  138.0050   18.9858 H   0  0  0  0  0
   -3.0675  138.8929   18.6019 H   0  0  0  0  0
   -0.5466  134.9868   20.9795 H   0  0  0  0  0
    0.5082  133.1426   19.7553 H   0  0  0  0  0
    1.0394  133.3004   17.3543 H   0  0  0  0  0
   -1.0796  138.4751   17.5469 H   0  0  0  0  0
    1.0538  134.5878   15.2628 H   0  0  0  0  0
   -0.4863  138.5118   15.1398 H   0  0  0  0  0
  1  2  2  0  0  0
  2  3  2  0  0  0
  2  4  1  0  0  0
  2 11  1  0  0  0
  4  5  1  0  0  0
  4 10  1  0  0  0
  5  6  1  0  0  0
  6  7  1  0  0  0
  7  8  1  0  0  0
  8  9  1  0  0  0
  9 10  1  0  0  0
 11 12  4  0  0  0
 11 16  4  0  0  0
 12 13  4  0  0  0
 13 14  4  0  0  0
 14 15  4  0  0  0
 15 16  4  0  0  0
 15 18  4  0  0  0
 16 17  4  0  0  0
 17 20  4  0  0  0
 18 19  4  0  0  0
 19 20  4  0  0  0
  5 21  1  0  0  0
  5 22  1  0  0  0
  6 23  1  0  0  0
  6 24  1  0  0  0
  7 25  1  0  0  0
  7 26  1  0  0  0
  8 27  1  0  0  0
  8 28  1  0  0  0
  9 29  1  0  0  0
  9 30  1  0  0  0
 10 31  1  0  0  0
 10 32  1  0  0  0
 12 33  1  0  0  0
 13 34  1  0  0  0
 14 35  1  0  0  0
 17 36  1  0  0  0
 18 37  1  0  0  0
 20 38  1  0  0  0
M  END
$$$$
