6kjf_ligand
  -I-interpret- 

 71 72  0  0  0  0  0  0  0  0999 V2000
   -9.4830   38.3300  -13.0740 O   0  0  0  0  0
  -10.5950   39.7270  -11.7780 O   0  0  0  0  0
  -11.0390   38.0490  -10.2740 O   0  0  0  0  0
  -10.2470   38.5670   -6.3200 O   0  0  0  0  0
  -10.1130   32.9420   -5.8620 O   0  0  0  0  0
  -12.2120   34.0970   -5.9450 O   0  0  0  0  0
   -9.6480   38.8210  -11.9800 C   0  0  0  0  0
   -8.7930   38.4070  -10.8350 C   0  0  0  0  0
   -9.7300   37.8100   -9.8240 C   0  0  0  0  0
   -9.5430   38.5420   -8.5260 C   0  0  0  0  0
   -9.9960   37.6970   -7.3890 C   0  0  0  0  0
   -8.8920   36.7310   -7.0380 C   0  0  0  0  0
   -9.2210   36.0640   -5.7200 C   0  0  0  0  0
   -8.2180   35.0000   -5.4060 C   0  0  0  0  0
   -6.8670   35.6150   -5.1100 C   0  0  0  0  0
   -5.8790   34.5550   -4.7810 C   0  0  0  0  0
   -6.2750   33.4770   -4.1870 C   0  0  0  0  0
   -7.6260   33.3440   -3.6720 C   0  0  0  0  0
   -7.9020   32.5050   -2.7040 C   0  0  0  0  0
   -9.3230   32.3680   -2.2900 C   0  0  0  0  0
  -10.2250   32.2940   -3.5110 C   0  0  0  0  0
   -9.9890   33.3830   -4.5310 C   0  0  0  0  0
   -8.7190   34.1830   -4.2380 C   0  0  0  0  0
   -6.9100   36.6460   -3.9940 C   0  0  0  0  0
  -11.3680   33.4370   -6.5040 C   0  0  0  0  0
  -11.7680   33.0800   -7.8690 C   0  0  0  0  0
  -10.9170   33.6730   -9.0110 C   0  0  0  0  0
  -11.7420   34.4400  -10.0460 C   0  0  0  0  0
  -11.8190   31.5280   -7.7780 C   0  0  0  0  0
  -13.0690   33.7880   -8.0300 C   0  0  0  0  0
   -9.4550   31.1180   -1.4630 C   0  0  0  0  0
  -10.5808   40.0036  -10.8588 H   0  0  0  0  0
  -11.6644   37.6781   -9.6471 H   0  0  0  0  0
  -10.5436   38.0610   -5.5600 H   0  0  0  0  0
   -8.2468   39.2540  -10.4197 H   0  0  0  0  0
   -8.0329   37.6899  -11.1450 H   0  0  0  0  0
   -9.5444   36.7439   -9.6935 H   0  0  0  0  0
  -10.1322   39.4588   -8.5457 H   0  0  0  0  0
   -8.4861   38.7757   -8.3976 H   0  0  0  0  0
  -10.8912   37.1240   -7.6305 H   0  0  0  0  0
   -7.9473   37.2680   -6.9523 H   0  0  0  0  0
   -8.8019   35.9763   -7.8193 H   0  0  0  0  0
  -10.2091   35.6092   -5.7904 H   0  0  0  0  0
   -9.2009   36.8138   -4.9291 H   0  0  0  0  0
   -8.0934   34.3445   -6.2679 H   0  0  0  0  0
   -6.5622   36.1405   -6.0150 H   0  0  0  0  0
   -4.8279   34.6853   -5.0386 H   0  0  0  0  0
   -5.5774   32.6476   -4.0700 H   0  0  0  0  0
   -7.1157   31.9268   -2.2186 H   0  0  0  0  0
   -9.6258   33.2355   -1.7035 H   0  0  0  0  0
  -11.2501   32.4047   -3.1575 H   0  0  0  0  0
  -10.0171   31.3445   -4.0042 H   0  0  0  0  0
  -10.8064   34.0957   -4.4212 H   0  0  0  0  0
   -9.0262   34.8965   -3.4734 H   0  0  0  0  0
   -7.5862   37.4540   -4.2734 H   0  0  0  0  0
   -7.2652   36.1736   -3.0782 H   0  0  0  0  0
   -5.9094   37.0472   -3.8330 H   0  0  0  0  0
  -10.4326   32.8431   -9.5256 H   0  0  0  0  0
  -10.2123   34.3753   -8.5658 H   0  0  0  0  0
  -12.4734   33.7685  -10.4958 H   0  0  0  0  0
  -12.2579   35.2665   -9.5574 H   0  0  0  0  0
  -11.0805   34.8296  -10.8198 H   0  0  0  0  0
  -10.8348   31.1489   -7.5026 H   0  0  0  0  0
  -12.5476   31.2334   -7.0228 H   0  0  0  0  0
  -12.1101   31.1180   -8.7451 H   0  0  0  0  0
  -13.7721   33.4289   -7.2784 H   0  0  0  0  0
  -12.9160   34.8598   -7.9035 H   0  0  0  0  0
  -13.4674   33.5915   -9.0254 H   0  0  0  0  0
   -9.1536   30.2563   -2.0586 H   0  0  0  0  0
   -8.8147   31.1959   -0.5844 H   0  0  0  0  0
  -10.4920   30.9994   -1.1490 H   0  0  0  0  0
  7  1  2  0  0  0
  7  2  1  0  0  0
  9  3  1  0  0  0
 11  4  1  0  0  0
 22  5  1  0  0  0
  5 25  1  0  0  0
 25  6  2  0  0  0
  8  7  1  0  0  0
  9  8  1  0  0  0
 10  9  1  0  0  0
 11 10  1  0  0  0
 12 11  1  0  0  0
 13 12  1  0  0  0
 14 13  1  0  0  0
 14 15  1  0  0  0
 23 14  1  0  0  0
 16 15  1  0  0  0
 15 24  1  0  0  0
 17 16  2  0  0  0
 18 17  1  0  0  0
 19 18  2  0  0  0
 18 23  1  0  0  0
 20 19  1  0  0  0
 21 20  1  0  0  0
 20 31  1  0  0  0
 21 22  1  0  0  0
 22 23  1  0  0  0
 25 26  1  0  0  0
 26 27  1  0  0  0
 26 29  1  0  0  0
 26 30  1  0  0  0
 27 28  1  0  0  0
  2 32  1  0  0  0
  3 33  1  0  0  0
  4 34  1  0  0  0
  8 35  1  0  0  0
  8 36  1  0  0  0
  9 37  1  0  0  0
 10 38  1  0  0  0
 10 39  1  0  0  0
 11 40  1  0  0  0
 12 41  1  0  0  0
 12 42  1  0  0  0
 13 43  1  0  0  0
 13 44  1  0  0  0
 14 45  1  0  0  0
 15 46  1  0  0  0
 16 47  1  0  0  0
 17 48  1  0  0  0
 19 49  1  0  0  0
 20 50  1  0  0  0
 21 51  1  0  0  0
 21 52  1  0  0  0
 22 53  1  0  0  0
 23 54  1  0  0  0
 24 55  1  0  0  0
 24 56  1  0  0  0
 24 57  1  0  0  0
 27 58  1  0  0  0
 27 59  1  0  0  0
 28 60  1  0  0  0
 28 61  1  0  0  0
 28 62  1  0  0  0
 29 63  1  0  0  0
 29 64  1  0  0  0
 29 65  1  0  0  0
 30 66  1  0  0  0
 30 67  1  0  0  0
 30 68  1  0  0  0
 31 69  1  0  0  0
 31 70  1  0  0  0
 31 71  1  0  0  0
M  END
$$$$
