4ce3_ligand
  -I-interpret- 

 46 47  0  0  0  0  0  0  0  0999 V2000
   18.9440   -2.5540   -6.1100 C   0  0  0  0  0
   19.0140   -3.4650   -4.9000 C   0  0  0  0  0
   19.8930   -4.5750   -4.8780 C   0  0  0  0  0
   19.9290   -5.4450   -3.8030 C   0  0  0  0  0
   19.1110   -5.2270   -2.7120 C   0  0  0  0  0
   18.2730   -4.1340   -2.7080 C   0  0  0  0  0
   18.1830   -3.2420   -3.7740 C   0  0  0  0  0
   17.1720   -2.1150   -3.6950 C   0  0  0  0  0
   15.7290   -2.5730   -3.7930 C   0  0  0  0  0
   14.6450   -1.7130   -3.1990 C   0  0  0  0  0
   14.0610   -0.6730   -4.1430 C   0  0  0  0  0
   13.1670   -1.2460   -5.2390 C   0  0  0  0  0
   13.0250   -0.2710   -6.3790 C   0  0  0  0  0
   13.7950   -0.1580   -7.4610 C   0  0  0  0  0
   14.9880   -0.9980   -7.8520 C   0  0  0  0  0
   16.3090   -0.6530   -7.1490 C   0  0  0  0  0
   17.0560   -3.8130   -7.0700 C   0  0  0  0  0
   19.9050   -1.8310   -6.3250 O   0  0  0  0  0
   20.7650   -4.7840   -5.8860 O   0  0  0  0  0
   19.0890   -6.1000   -1.6750 O   0  0  0  0  0
   17.3230   -3.9120   -1.2940 Cl  0  0  0  0  0
   17.4710   -1.4530   -7.7300 C   0  0  0  0  0
   15.4560   -3.6280   -4.3220 O   0  0  0  0  0
   17.8710   -2.6070   -6.9230 N   0  0  0  0  0
   20.6025   -6.3019   -3.8171 H   0  0  0  0  0
   17.3592   -1.4527   -4.5402 H   0  0  0  0  0
   17.2946   -1.6380   -2.7226 H   0  0  0  0  0
   15.0947   -1.1679   -2.3691 H   0  0  0  0  0
   13.8291   -2.3808   -2.9225 H   0  0  0  0  0
   14.9000   -0.1842   -4.6382 H   0  0  0  0  0
   13.4421   -0.0073   -3.5414 H   0  0  0  0  0
   12.1801   -1.4427   -4.8201 H   0  0  0  0  0
   13.6181   -2.1639   -5.6160 H   0  0  0  0  0
   12.1907    0.4271   -6.3104 H   0  0  0  0  0
   13.5301    0.6425   -8.1517 H   0  0  0  0  0
   15.1512   -0.8240   -8.9156 H   0  0  0  0  0
   14.7480   -2.0231   -7.5696 H   0  0  0  0  0
   16.2136   -0.8978   -6.0912 H   0  0  0  0  0
   16.5119    0.4082   -7.2928 H   0  0  0  0  0
   16.0267   -3.5910   -6.7882 H   0  0  0  0  0
   17.0863   -4.1462   -8.1074 H   0  0  0  0  0
   17.4499   -4.5972   -6.4235 H   0  0  0  0  0
   21.2771   -5.5758   -5.7057 H   0  0  0  0  0
   18.4680   -5.7911   -1.0112 H   0  0  0  0  0
   18.3292   -0.7828   -7.7787 H   0  0  0  0  0
   17.1451   -1.8355   -8.6973 H   0  0  0  0  0
  1  2  1  0  0  0
  1 18  2  0  0  0
  1 24  1  0  0  0
  2  3  4  0  0  0
  2  7  4  0  0  0
  3  4  4  0  0  0
  3 19  1  0  0  0
  4  5  4  0  0  0
  5  6  4  0  0  0
  5 20  1  0  0  0
  6  7  4  0  0  0
  6 21  1  0  0  0
  7  8  1  0  0  0
  8  9  1  0  0  0
  9 10  1  0  0  0
  9 23  2  0  0  0
 10 11  1  0  0  0
 11 12  1  0  0  0
 12 13  1  0  0  0
 13 14  2  0  0  0
 14 15  1  0  0  0
 15 16  1  0  0  0
 16 22  1  0  0  0
 24 17  1  0  0  0
 22 24  1  0  0  0
  4 25  1  0  0  0
  8 26  1  0  0  0
  8 27  1  0  0  0
 10 28  1  0  0  0
 10 29  1  0  0  0
 11 30  1  0  0  0
 11 31  1  0  0  0
 12 32  1  0  0  0
 12 33  1  0  0  0
 13 34  1  0  0  0
 14 35  1  0  0  0
 15 36  1  0  0  0
 15 37  1  0  0  0
 16 38  1  0  0  0
 16 39  1  0  0  0
 17 40  1  0  0  0
 17 41  1  0  0  0
 17 42  1  0  0  0
 19 43  1  0  0  0
 20 44  1  0  0  0
 22 45  1  0  0  0
 22 46  1  0  0  0
M  END
$$$$
