4u5s_ligand
  -I-interpret- 

 90 91  0  0  0  0  0  0  0  0999 V2000
    2.7030   28.5600    3.0220 C   0  0  0  0  0
    3.5320   29.5770    2.5350 C   0  0  0  0  0
    4.9230   29.5200    2.7690 C   0  0  0  0  0
    5.4670   28.4310    3.4820 C   0  0  0  0  0
    4.6160   27.4260    3.9520 C   0  0  0  0  0
    3.2260   27.4730    3.7230 C   0  0  0  0  0
    2.2430   26.3580    4.2390 C   0  0  0  0  0
    2.3090   26.1810    5.7780 C   0  0  0  0  0
    1.0100   25.6760    6.3840 C   0  0  0  0  0
    1.0100   25.2420    7.4870 O   0  0  0  0  0
   -0.2340   25.7220    5.6120 N   0  0  0  0  0
    2.7060   27.4950    6.2660 N   0  0  0  0  0
    2.4020   28.1990    7.5250 C   0  0  0  0  0
    1.6980   27.7660    8.3910 O   0  0  0  0  0
    3.0720   29.5800    7.6370 C   0  0  0  0  0
    4.6010   29.4250    7.7000 C   0  0  0  0  0
    5.0190   28.0700    8.3010 C   0  0  0  0  0
    5.1620   30.4550    8.4700 O   0  0  0  0  0
    2.5660   30.3140    8.7940 N   0  3  0  0  0
    1.6340   31.3480    8.3050 C   0  0  0  0  0
    1.2090   32.2570    9.4710 C   0  0  0  0  0
    1.5880   33.6520    9.2510 N   0  0  0  0  0
    2.9510   34.2330    9.1930 C   0  0  0  0  0
    3.9530   33.6050    9.3310 O   0  0  0  0  0
    2.9790   35.7440    8.9740 C   0  0  0  0  0
    2.0320   36.1530    9.9970 N   0  0  0  0  0
    2.4130   37.0570   11.0820 C   0  0  0  0  0
    3.5070   37.5190   11.1050 O   0  0  0  0  0
    1.3910   37.4230   12.1740 C   0  0  0  0  0
    2.4910   36.0290    7.5480 C   0  0  0  0  0
    2.0090   37.4900    7.3210 C   0  0  0  0  0
    1.5800   37.7360    5.8460 C   0  0  0  0  0
    0.7580   39.0430    5.6790 C   0  0  0  0  0
   -0.0100   39.0500    4.4250 N   0  3  0  0  0
    1.7800   31.7710   10.8110 C   0  0  0  0  0
    1.3430   32.6490   11.8480 O   0  0  0  0  0
   -0.0570   32.6240   12.1240 C   0  0  0  0  0
   -0.3990   31.2870   12.8360 C   0  0  0  0  0
    0.4700   30.7500   13.7980 C   0  0  0  0  0
    0.1160   29.5440   14.4030 C   0  0  0  0  0
   -1.0810   28.9250   14.0330 C   0  0  0  0  0
   -1.8860   29.4610   13.1150 N   0  0  0  0  0
   -1.5800   30.6100   12.5200 C   0  0  0  0  0
    1.6282   28.6183    2.8503 H   0  0  0  0  0
    3.1051   30.4103    1.9769 H   0  0  0  0  0
    5.5734   30.3134    2.4007 H   0  0  0  0  0
    6.5400   28.3736    3.6647 H   0  0  0  0  0
    5.0367   26.5879    4.5076 H   0  0  0  0  0
    2.5310   25.4135    3.7775 H   0  0  0  0  0
    1.2276   26.6545    3.9761 H   0  0  0  0  0
    3.0171   25.4060    6.0713 H   0  0  0  0  0
   -1.1025   25.3802    6.0234 H   0  0  0  0  0
   -0.2318   26.0959    4.6630 H   0  0  0  0  0
    3.2987   28.0204    5.6233 H   0  0  0  0  0
    2.8237   30.1595    6.7479 H   0  0  0  0  0
    4.9693   29.4762    6.6754 H   0  0  0  0  0
    4.6257   27.9865    9.3141 H   0  0  0  0  0
    4.6193   27.2629    7.6870 H   0  0  0  0  0
    6.1068   28.0050    8.3257 H   0  0  0  0  0
    6.1154   30.3467    8.5013 H   0  0  0  0  0
    3.3374   30.7464    9.3023 H   0  0  0  0  0
    2.0856   29.6793    9.4318 H   0  0  0  0  0
    0.7519   30.8678    7.8814 H   0  0  0  0  0
    2.1287   31.9480    7.5412 H   0  0  0  0  0
    0.1213   32.2011    9.5139 H   0  0  0  0  0
    0.8178   34.3080    9.1211 H   0  0  0  0  0
    3.9402   36.2518    9.0538 H   0  0  0  0  0
    1.0757   35.8003    9.9576 H   0  0  0  0  0
    1.7794   37.1251   13.1479 H   0  0  0  0  0
    1.2198   38.4994   12.1635 H   0  0  0  0  0
    0.4529   36.9027   11.9809 H   0  0  0  0  0
    1.6382   35.3759    7.3628 H   0  0  0  0  0
    3.3349   35.8605    6.8790 H   0  0  0  0  0
    2.8345   38.1626    7.5538 H   0  0  0  0  0
    1.1462   37.6691    7.9626 H   0  0  0  0  0
    0.9531   36.9009    5.5332 H   0  0  0  0  0
    2.4832   37.8261    5.2425 H   0  0  0  0  0
    1.4518   39.8835    5.6601 H   0  0  0  0  0
    0.0566   39.1147    6.5102 H   0  0  0  0  0
   -0.5341   39.9221    4.3536 H   0  0  0  0  0
    0.6304   38.9711    3.6350 H   0  0  0  0  0
   -0.6571   38.2616    4.4196 H   0  0  0  0  0
    2.8691   31.7675   10.7669 H   0  0  0  0  0
    1.4299   30.7590   11.0144 H   0  0  0  0  0
   -0.6197   32.7032   11.1938 H   0  0  0  0  0
   -0.3235   33.4642   12.7652 H   0  0  0  0  0
    1.3952   31.2607   14.0649 H   0  0  0  0  0
    0.7637   29.0910   15.1535 H   0  0  0  0  0
   -1.3627   27.9837   14.5050 H   0  0  0  0  0
   -2.2584   31.0289   11.7768 H   0  0  0  0  0
  1  2  4  0  0  0
  1  6  4  0  0  0
  2  3  4  0  0  0
  3  4  4  0  0  0
  4  5  4  0  0  0
  5  6  4  0  0  0
  6  7  1  0  0  0
  7  8  1  0  0  0
  8  9  1  0  0  0
  8 12  1  0  0  0
  9 10  2  0  0  0
  9 11  1  0  0  0
 12 13  1  0  0  0
 13 14  2  0  0  0
 13 15  1  0  0  0
 15 16  1  0  0  0
 15 19  1  0  0  0
 16 17  1  0  0  0
 16 18  1  0  0  0
 19 20  1  0  0  0
 20 21  1  0  0  0
 21 22  1  0  0  0
 21 35  1  0  0  0
 22 23  1  0  0  0
 23 24  2  0  0  0
 23 25  1  0  0  0
 25 26  1  0  0  0
 25 30  1  0  0  0
 26 27  1  0  0  0
 27 28  2  0  0  0
 27 29  1  0  0  0
 30 31  1  0  0  0
 31 32  1  0  0  0
 32 33  1  0  0  0
 33 34  1  0  0  0
 35 36  1  0  0  0
 36 37  1  0  0  0
 37 38  1  0  0  0
 38 39  4  0  0  0
 38 43  4  0  0  0
 39 40  4  0  0  0
 40 41  4  0  0  0
 41 42  4  0  0  0
 42 43  4  0  0  0
  1 44  1  0  0  0
  2 45  1  0  0  0
  3 46  1  0  0  0
  4 47  1  0  0  0
  5 48  1  0  0  0
  7 49  1  0  0  0
  7 50  1  0  0  0
  8 51  1  0  0  0
 11 52  1  0  0  0
 11 53  1  0  0  0
 12 54  1  0  0  0
 15 55  1  0  0  0
 16 56  1  0  0  0
 17 57  1  0  0  0
 17 58  1  0  0  0
 17 59  1  0  0  0
 18 60  1  0  0  0
 19 61  1  0  0  0
 19 62  1  0  0  0
 20 63  1  0  0  0
 20 64  1  0  0  0
 21 65  1  0  0  0
 22 66  1  0  0  0
 25 67  1  0  0  0
 26 68  1  0  0  0
 29 69  1  0  0  0
 29 70  1  0  0  0
 29 71  1  0  0  0
 30 72  1  0  0  0
 30 73  1  0  0  0
 31 74  1  0  0  0
 31 75  1  0  0  0
 32 76  1  0  0  0
 32 77  1  0  0  0
 33 78  1  0  0  0
 33 79  1  0  0  0
 34 80  1  0  0  0
 34 81  1  0  0  0
 34 82  1  0  0  0
 35 83  1  0  0  0
 35 84  1  0  0  0
 37 85  1  0  0  0
 37 86  1  0  0  0
 39 87  1  0  0  0
 40 88  1  0  0  0
 41 89  1  0  0  0
 43 90  1  0  0  0
M  END
$$$$
