1uyd_ligand
  -I-interpret- 

 52 54  0  0  0  0  0  0  0  0999 V2000
    4.4030   15.5280   26.5790 C   0  0  0  0  0
    5.1220   15.0840   25.4530 O   0  0  0  0  0
    5.0910   13.7860   24.8460 C   0  0  0  0  0
    3.9590   13.1780   24.2910 C   0  0  0  0  0
    6.3240   13.1530   24.7740 C   0  0  0  0  0
    7.4370   13.8000   25.3630 O   0  0  0  0  0
    7.9680   14.9820   24.7400 C   0  0  0  0  0
    6.4650   11.9280   24.1660 C   0  0  0  0  0
    7.7380   11.2760   24.1460 O   0  0  0  0  0
    8.1250   10.3750   23.0920 C   0  0  0  0  0
    5.3500   11.3260   23.6130 C   0  0  0  0  0
    4.1060   11.9220   23.6560 C   0  0  0  0  0
    2.9810   11.1340   22.9970 C   0  0  0  0  0
    1.7990   10.8980   23.8970 C   0  0  0  0  0
    0.5690   11.3430   23.6650 N   0  0  0  0  0
   -0.1860   10.9430   24.6660 C   0  0  0  0  0
   -1.5340   11.1210   24.9450 C   0  0  0  0  0
   -2.4390   11.8290   24.0330 N   0  0  0  0  0
    0.6250   10.2700   25.5670 C   0  0  0  0  0
    0.1180    9.7800   26.7170 N   0  0  0  0  0
   -1.1950    9.9850   26.9470 C   0  0  0  0  0
   -2.0040   10.6440   26.0890 N   0  0  0  0  0
    1.8540   10.2510   25.0560 N   0  0  0  0  0
    3.0530    9.6350   25.6380 C   0  0  0  0  0
    2.9130    8.1310   25.6360 C   0  0  0  0  0
    3.6440    7.2660   24.6120 C   0  0  0  0  0
    4.6650    7.8940   23.6780 C   0  0  0  0  0
    2.4190   14.0030   24.3670 Cl  0  0  0  0  0
    3.3342   15.4420   26.3831 H   0  0  0  0  0
    4.6661   14.9153   27.4413 H   0  0  0  0  0
    4.6540   16.5692   26.7813 H   0  0  0  0  0
    8.2950   14.7422   23.7282 H   0  0  0  0  0
    7.1948   15.7493   24.7011 H   0  0  0  0  0
    8.8154   15.3475   25.3201 H   0  0  0  0  0
    7.4260    9.5395   23.0550 H   0  0  0  0  0
    8.1108   10.9047   22.1395 H   0  0  0  0  0
    9.1302   10.0010   23.2863 H   0  0  0  0  0
    5.4563   10.3546   23.1301 H   0  0  0  0  0
    3.3831   10.1581   22.7249 H   0  0  0  0  0
    2.6305   11.7171   22.1454 H   0  0  0  0  0
   -2.0835   12.2117   23.1569 H   0  0  0  0  0
   -3.4238   11.9386   24.2750 H   0  0  0  0  0
   -1.6250    9.5996   27.8715 H   0  0  0  0  0
    3.1732    9.9829   26.6640 H   0  0  0  0  0
    3.9240    9.9151   25.0455 H   0  0  0  0  0
    1.8590    7.9670   25.4117 H   0  0  0  0  0
    3.3441    7.8272   26.5899 H   0  0  0  0  0
    2.8572    6.9024   23.9510 H   0  0  0  0  0
    4.2203    6.5616   25.2119 H   0  0  0  0  0
    4.1805    8.6632   23.0765 H   0  0  0  0  0
    5.4663    8.3417   24.2659 H   0  0  0  0  0
    5.0780    7.1260   23.0240 H   0  0  0  0  0
  1  2  1  0  0  0
  2  3  1  0  0  0
  3  4  4  0  0  0
  3  5  4  0  0  0
  4 12  4  0  0  0
  4 28  1  0  0  0
  5  6  1  0  0  0
  5  8  4  0  0  0
  6  7  1  0  0  0
  8  9  1  0  0  0
  8 11  4  0  0  0
  9 10  1  0  0  0
 11 12  4  0  0  0
 12 13  1  0  0  0
 13 14  1  0  0  0
 14 15  4  0  0  0
 14 23  4  0  0  0
 15 16  4  0  0  0
 16 17  4  0  0  0
 16 19  4  0  0  0
 17 18  1  0  0  0
 17 22  4  0  0  0
 19 20  4  0  0  0
 19 23  4  0  0  0
 20 21  4  0  0  0
 21 22  4  0  0  0
 23 24  1  0  0  0
 24 25  1  0  0  0
 25 26  1  0  0  0
 26 27  1  0  0  0
  1 29  1  0  0  0
  1 30  1  0  0  0
  1 31  1  0  0  0
  7 32  1  0  0  0
  7 33  1  0  0  0
  7 34  1  0  0  0
 10 35  1  0  0  0
 10 36  1  0  0  0
 10 37  1  0  0  0
 11 38  1  0  0  0
 13 39  1  0  0  0
 13 40  1  0  0  0
 18 41  1  0  0  0
 18 42  1  0  0  0
 21 43  1  0  0  0
 24 44  1  0  0  0
 24 45  1  0  0  0
 25 46  1  0  0  0
 25 47  1  0  0  0
 26 48  1  0  0  0
 26 49  1  0  0  0
 27 50  1  0  0  0
 27 51  1  0  0  0
 27 52  1  0  0  0
M  END
$$$$
