6eb2_ligand
  -I-interpret- 

 74 79  0  0  0  0  0  0  0  0999 V2000
  -35.4500   33.1730  -28.5760 C   0  0  0  0  0
  -34.6030   29.8560  -27.5990 C   0  0  0  0  0
  -33.2530   28.4470  -29.0340 C   0  0  0  0  0
  -31.6810   27.1330  -30.3120 C   0  0  0  0  0
  -33.5950   29.2200  -30.1530 C   0  0  0  0  0
  -34.4330   30.3130  -29.9420 C   0  0  0  0  0
  -39.4220   31.7600  -27.8500 C   0  0  0  0  0
  -41.7890   28.7530  -28.3360 C   0  0  0  0  0
  -32.1530   32.3590  -26.9230 C   0  0  0  0  0
  -32.7180   33.7780  -26.7290 C   0  0  0  0  0
  -33.6830   33.8060  -25.5710 C   0  0  0  0  0
  -31.5680   34.6930  -26.3780 C   0  0  0  0  0
  -33.3260   34.3170  -27.8870 O   0  0  0  0  0
  -33.9330   33.4500  -28.8350 C   0  0  0  0  0
  -33.6220   34.0010  -30.2390 C   0  0  0  0  0
  -34.2770   33.4150  -31.1630 O   0  0  0  0  0
  -32.7860   34.8890  -30.3610 O   0  0  0  0  0
  -35.8640   31.8500  -28.4890 C   0  0  0  0  0
  -34.9620   30.6650  -28.6930 C   0  0  0  0  0
  -33.7530   28.7740  -27.7740 C   0  0  0  0  0
  -32.4360   27.3960  -29.0990 O   0  0  0  0  0
  -32.4280   27.4540  -31.6000 C   0  0  0  0  0
  -33.0780   28.8450  -31.4870 C   0  0  0  0  0
  -37.1420   31.4850  -28.2660 N   0  0  0  0  0
  -38.0850   32.3830  -28.0900 C   0  0  0  0  0
  -40.5460   32.1630  -27.0750 C   0  0  0  0  0
  -41.5410   31.1680  -27.1390 N   0  0  0  0  0
  -41.0230   30.1120  -27.9400 N   0  0  0  0  0
  -40.9070   27.4250  -28.6100 C   0  0  0  0  0
  -39.8900   27.3780  -29.5920 C   0  0  0  0  0
  -39.1060   26.1950  -29.8420 C   0  0  0  0  0
  -39.3000   24.9900  -29.1070 C   0  0  0  0  0
  -40.3010   25.0090  -28.1130 C   0  0  0  0  0
  -41.0830   26.1980  -27.8890 C   0  0  0  0  0
  -39.7310   30.4890  -28.3470 C   0  0  0  0  0
  -37.8340   33.8150  -28.1470 C   0  0  0  0  0
  -38.8180   34.8360  -27.9630 C   0  0  0  0  0
  -38.4800   36.1800  -28.0270 C   0  0  0  0  0
  -37.1210   36.5770  -28.2800 C   0  0  0  0  0
  -36.1680   35.6030  -28.4550 C   0  0  0  0  0
  -36.4530   34.1820  -28.3970 C   0  0  0  0  0
  -34.9955   30.0812  -26.6074 H   0  0  0  0  0
  -31.4615   26.0654  -30.3271 H   0  0  0  0  0
  -30.7995   27.7735  -30.2853 H   0  0  0  0  0
  -34.6929   30.9319  -30.8007 H   0  0  0  0  0
  -42.2828   28.9688  -29.2835 H   0  0  0  0  0
  -42.4083   28.5117  -27.4721 H   0  0  0  0  0
  -31.6307   32.0503  -26.0175 H   0  0  0  0  0
  -32.9713   31.6680  -27.1254 H   0  0  0  0  0
  -31.4584   32.3576  -27.7630 H   0  0  0  0  0
  -34.5062   33.1196  -25.7691 H   0  0  0  0  0
  -33.1656   33.5019  -24.6611 H   0  0  0  0  0
  -34.0724   34.8167  -25.4486 H   0  0  0  0  0
  -31.0964   34.3455  -25.4588 H   0  0  0  0  0
  -30.8385   34.6846  -27.1878 H   0  0  0  0  0
  -31.9424   35.7066  -26.2351 H   0  0  0  0  0
  -33.5032   32.4532  -28.7356 H   0  0  0  0  0
  -34.8620   32.7609  -30.7736 H   0  0  0  0  0
  -33.4711   28.1691  -26.9121 H   0  0  0  0  0
  -33.2022   26.7049  -31.7660 H   0  0  0  0  0
  -31.7282   27.4480  -32.4357 H   0  0  0  0  0
  -32.2953   29.5660  -31.7230 H   0  0  0  0  0
  -33.9399   28.8325  -32.1542 H   0  0  0  0  0
  -40.6245   33.0968  -26.5183 H   0  0  0  0  0
  -39.6914   28.2720  -30.1831 H   0  0  0  0  0
  -38.3407   26.2230  -30.6176 H   0  0  0  0  0
  -38.7048   24.0981  -29.3029 H   0  0  0  0  0
  -40.4838   24.1189  -27.5110 H   0  0  0  0  0
  -41.8576   26.1627  -27.1229 H   0  0  0  0  0
  -39.0669   29.8799  -28.9603 H   0  0  0  0  0
  -39.8526   34.5532  -27.7689 H   0  0  0  0  0
  -39.2488   36.9395  -27.8847 H   0  0  0  0  0
  -36.8519   37.6320  -28.3320 H   0  0  0  0  0
  -35.1416   35.9152  -28.6480 H   0  0  0  0  0
  1 14  1  0  0  0
 18  1  4  0  0  0
  1 41  4  0  0  0
 19  2  4  0  0  0
  2 20  4  0  0  0
  5  3  4  0  0  0
 20  3  4  0  0  0
  3 21  1  0  0  0
 21  4  1  0  0  0
 22  4  1  0  0  0
  6  5  4  0  0  0
  5 23  1  0  0  0
 19  6  4  0  0  0
  7 25  1  0  0  0
 26  7  4  0  0  0
  7 35  4  0  0  0
 28  8  1  0  0  0
  8 29  1  0  0  0
 10  9  1  0  0  0
 10 11  1  0  0  0
 10 12  1  0  0  0
 13 10  1  0  0  0
 14 13  1  0  0  0
 14 15  1  0  0  0
 15 16  1  0  0  0
 15 17  2  0  0  0
 18 19  1  0  0  0
 24 18  4  0  0  0
 23 22  1  0  0  0
 25 24  4  0  0  0
 25 36  4  0  0  0
 27 26  4  0  0  0
 27 28  4  0  0  0
 28 35  4  0  0  0
 29 30  4  0  0  0
 29 34  4  0  0  0
 30 31  4  0  0  0
 31 32  4  0  0  0
 32 33  4  0  0  0
 33 34  4  0  0  0
 36 37  4  0  0  0
 36 41  4  0  0  0
 37 38  4  0  0  0
 38 39  4  0  0  0
 39 40  4  0  0  0
 40 41  4  0  0  0
  2 42  1  0  0  0
  4 43  1  0  0  0
  4 44  1  0  0  0
  6 45  1  0  0  0
  8 46  1  0  0  0
  8 47  1  0  0  0
  9 48  1  0  0  0
  9 49  1  0  0  0
  9 50  1  0  0  0
 11 51  1  0  0  0
 11 52  1  0  0  0
 11 53  1  0  0  0
 12 54  1  0  0  0
 12 55  1  0  0  0
 12 56  1  0  0  0
 14 57  1  0  0  0
 16 58  1  0  0  0
 20 59  1  0  0  0
 22 60  1  0  0  0
 22 61  1  0  0  0
 23 62  1  0  0  0
 23 63  1  0  0  0
 26 64  1  0  0  0
 30 65  1  0  0  0
 31 66  1  0  0  0
 32 67  1  0  0  0
 33 68  1  0  0  0
 34 69  1  0  0  0
 35 70  1  0  0  0
 37 71  1  0  0  0
 38 72  1  0  0  0
 39 73  1  0  0  0
 40 74  1  0  0  0
M  END
$$$$
