5ufi_ligand
  -I-interpret- 

 89 92  0  0  0  0  0  0  0  0999 V2000
    6.7190   -2.9200   45.2120 O   0  0  0  0  0
   10.8970   -0.7850   44.7180 N   0  3  0  0  0
    7.2460   -1.8290   45.4330 C   0  0  0  0  0
    8.7250   -1.7110   45.7450 C   0  0  0  0  0
    9.4250   -0.7640   44.7760 C   0  0  0  0  0
   11.4950   -0.5980   46.0550 C   0  0  0  0  0
   12.9990   -0.4980   45.9540 C   0  0  0  0  0
   12.8500    0.3590   43.7800 C   0  0  0  0  0
   11.3450    0.2940   43.8200 C   0  0  0  0  0
   13.3980    0.5620   45.0790 O   0  0  0  0  0
    4.9410    1.0590   46.9630 N   0  0  0  0  0
    6.5580   -0.6880   45.4210 N   0  0  0  0  0
    4.4320   -0.2310   46.5160 C   0  0  0  0  0
    5.1210   -0.6050   45.1890 C   0  0  0  0  0
    2.9160   -0.0680   46.5160 C   0  0  0  0  0
    2.1840   -0.7180   47.6920 C   0  0  0  0  0
    0.8400   -0.0520   47.9790 C   0  0  0  0  0
   -0.0380    0.0110   46.7290 C   0  0  0  0  0
    0.6970    0.6770   45.5680 C   0  0  0  0  0
    2.0280   -0.0150   45.2770 C   0  0  0  0  0
    6.8870    9.6910   53.2170 C   0  0  0  0  0
    6.4150   10.9410   52.4930 C   0  0  0  0  0
    7.0750    8.4960   52.2950 C   0  0  0  0  0
    6.1610    7.4410   52.3000 C   0  0  0  0  0
    4.1400    3.0650   49.2500 N   0  0  0  0  0
    6.4330    6.3150   51.5300 C   0  0  0  0  0
    7.5710    6.2330   50.7220 C   0  0  0  0  0
    6.7390    4.2280   50.3110 C   0  0  0  0  0
    6.5360    2.8700   49.7590 C   0  0  0  0  0
    5.4350    2.6990   48.6980 C   0  0  0  0  0
    5.3970    1.2500   48.2040 C   0  0  0  0  0
    5.5460    4.8270   51.4330 S   0  0  0  0  0
    7.7130    5.0300   50.0310 N   0  0  0  0  0
    8.4680    7.2970   50.7080 C   0  0  0  0  0
    8.2160    8.4090   51.4960 C   0  0  0  0  0
    6.0130    9.3980   54.4370 C   0  0  0  0  0
    5.7370    0.3240   48.9420 O   0  0  0  0  0
    3.3150    3.9830   48.7270 C   0  0  0  0  0
    2.0570    4.2430   49.5140 C   0  0  0  0  0
    0.8320    3.6520   48.8770 C   0  0  0  0  0
    3.5600    4.5770   47.6780 O   0  0  0  0  0
   11.1991   -1.6944   44.3686 H   0  0  0  0  0
    9.1780   -2.6981   45.6520 H   0  0  0  0  0
    8.8350   -1.3160   46.7549 H   0  0  0  0  0
    9.0950   -1.0737   43.7844 H   0  0  0  0  0
    9.1663    0.2381   45.1179 H   0  0  0  0  0
   11.2386   -1.4535   46.6799 H   0  0  0  0  0
   11.1077    0.3234   46.4899 H   0  0  0  0  0
   13.3809   -1.4373   45.5541 H   0  0  0  0  0
   13.3984   -0.2938   46.9474 H   0  0  0  0  0
   13.1429    1.1965   43.1468 H   0  0  0  0  0
   13.2264   -0.5868   43.3902 H   0  0  0  0  0
   10.9598    1.2443   44.1897 H   0  0  0  0  0
   10.9729    0.0948   42.8150 H   0  0  0  0  0
    4.9494    1.8407   46.3078 H   0  0  0  0  0
    7.0677    0.1803   45.5841 H   0  0  0  0  0
    4.6584   -1.0884   47.1499 H   0  0  0  0  0
    4.7457   -1.5642   44.8324 H   0  0  0  0  0
    4.9092    0.1518   44.4337 H   0  0  0  0  0
    3.0596    1.0083   46.6108 H   0  0  0  0  0
    2.8092   -0.6130   48.5787 H   0  0  0  0  0
    1.9966   -1.7613   47.4382 H   0  0  0  0  0
    1.0270    0.9666   48.3191 H   0  0  0  0  0
    0.3197   -0.6401   48.7350 H   0  0  0  0  0
   -0.9275    0.5976   46.9589 H   0  0  0  0  0
   -0.2992   -1.0061   46.4367 H   0  0  0  0  0
    0.8985    1.7141   45.8364 H   0  0  0  0  0
    0.0708    0.6090   44.6784 H   0  0  0  0  0
    1.8223   -1.0364   44.9568 H   0  0  0  0  0
    2.5485    0.5507   44.5042 H   0  0  0  0  0
    7.8894    9.8955   53.5932 H   0  0  0  0  0
    7.1493   11.2209   51.7376 H   0  0  0  0  0
    5.4566   10.7416   52.0136 H   0  0  0  0  0
    6.3018   11.7539   53.2103 H   0  0  0  0  0
    5.2505    7.4985   52.8965 H   0  0  0  0  0
    3.8369    2.5873   50.0987 H   0  0  0  0  0
    6.2325    2.2502   50.6027 H   0  0  0  0  0
    7.4700    2.6108   49.2604 H   0  0  0  0  0
    5.6596    3.3558   47.8576 H   0  0  0  0  0
    9.3603    7.2562   50.0832 H   0  0  0  0  0
    8.9263    9.2358   51.4916 H   0  0  0  0  0
    6.0607   10.2403   55.1272 H   0  0  0  0  0
    4.9822    9.2474   54.1162 H   0  0  0  0  0
    6.3753    8.4982   54.9342 H   0  0  0  0  0
    1.9156    5.3225   49.5661 H   0  0  0  0  0
    2.1772    3.7805   50.4937 H   0  0  0  0  0
    0.6967    4.0820   47.8846 H   0  0  0  0  0
    0.9529    2.5720   48.7930 H   0  0  0  0  0
   -0.0395    3.8746   49.4927 H   0  0  0  0  0
  3  1  2  0  0  0
  5  2  1  0  0  0
  2  6  1  0  0  0
  2  9  1  0  0  0
  3  4  1  0  0  0
 12  3  1  0  0  0
  4  5  1  0  0  0
  6  7  1  0  0  0
  7 10  1  0  0  0
  9  8  1  0  0  0
  8 10  1  0  0  0
 11 13  1  0  0  0
 31 11  1  0  0  0
 14 12  1  0  0  0
 13 14  1  0  0  0
 13 15  1  0  0  0
 15 16  1  0  0  0
 15 20  1  0  0  0
 16 17  1  0  0  0
 17 18  1  0  0  0
 19 18  1  0  0  0
 20 19  1  0  0  0
 21 22  1  0  0  0
 23 21  1  0  0  0
 21 36  1  0  0  0
 24 23  4  0  0  0
 23 35  4  0  0  0
 26 24  4  0  0  0
 30 25  1  0  0  0
 25 38  1  0  0  0
 27 26  4  0  0  0
 32 26  4  0  0  0
 33 27  4  0  0  0
 27 34  4  0  0  0
 29 28  1  0  0  0
 28 32  4  0  0  0
 28 33  4  0  0  0
 30 29  1  0  0  0
 30 31  1  0  0  0
 31 37  2  0  0  0
 34 35  4  0  0  0
 38 39  1  0  0  0
 38 41  2  0  0  0
 39 40  1  0  0  0
  2 42  1  0  0  0
  4 43  1  0  0  0
  4 44  1  0  0  0
  5 45  1  0  0  0
  5 46  1  0  0  0
  6 47  1  0  0  0
  6 48  1  0  0  0
  7 49  1  0  0  0
  7 50  1  0  0  0
  8 51  1  0  0  0
  8 52  1  0  0  0
  9 53  1  0  0  0
  9 54  1  0  0  0
 11 55  1  0  0  0
 12 56  1  0  0  0
 13 57  1  0  0  0
 14 58  1  0  0  0
 14 59  1  0  0  0
 15 60  1  0  0  0
 16 61  1  0  0  0
 16 62  1  0  0  0
 17 63  1  0  0  0
 17 64  1  0  0  0
 18 65  1  0  0  0
 18 66  1  0  0  0
 19 67  1  0  0  0
 19 68  1  0  0  0
 20 69  1  0  0  0
 20 70  1  0  0  0
 21 71  1  0  0  0
 22 72  1  0  0  0
 22 73  1  0  0  0
 22 74  1  0  0  0
 24 75  1  0  0  0
 25 76  1  0  0  0
 29 77  1  0  0  0
 29 78  1  0  0  0
 30 79  1  0  0  0
 34 80  1  0  0  0
 35 81  1  0  0  0
 36 82  1  0  0  0
 36 83  1  0  0  0
 36 84  1  0  0  0
 39 85  1  0  0  0
 39 86  1  0  0  0
 40 87  1  0  0  0
 40 88  1  0  0  0
 40 89  1  0  0  0
M  END
$$$$
