### 
### Created by X-TOOL on Mon Aug  2 16:12:53 2021
### 

@<TRIPOS>MOLECULE
6d3x_ligand
  219   226     1     0     0
SMALL
GAST_HUCK


@<TRIPOS>ATOM
      1 N          -0.5690   -6.0500   40.0140 N.am      1 GLY        -0.0891
      2 CA         -1.8580   -6.6310   40.3440 C.3       1 GLY         0.2896
      3 C          -2.9280   -6.4480   39.2830 C.2       1 GLY         0.2370
      4 O          -4.0470   -6.9440   39.4230 O.2       1 GLY        -0.3915
      5 N          -2.5820   -5.7240   38.2230 N.am      1 GLY        -0.2615
      6 CA         -3.5100   -5.4730   37.1220 C.3       1 GLY         0.1312
      7 C          -3.7120   -6.7570   36.3110 C.2       1 GLY         0.2039
      8 O          -2.7410   -7.3900   35.8890 O.2       1 GLY        -0.3944
      9 CB         -2.9610   -4.3180   36.2750 C.3       1 GLY        -0.0092
     10 CG         -3.2140   -4.3370   34.7820 C.3       1 GLY        -0.0156
     11 CD         -2.7780   -3.0050   34.1270 C.3       1 GLY         0.0627
     12 NE         -1.3190   -2.8480   34.0670 N.pl3     1 GLY        -0.2723
     13 CZ         -0.6210   -2.6220   32.9510 C.cat     1 GLY         0.2882
     14 NH1         0.7060   -2.4970   33.0090 N.pl3     1 GLY        -0.2849
     15 NH2        -1.2420   -2.5170   31.7760 N.pl3     1 GLY        -0.2849
     16 N          -4.9720   -7.1820   36.1450 N.am      1 GLY        -0.2629
     17 CA         -5.3010   -8.3770   35.3660 C.3       1 GLY         0.1406
     18 C          -6.3390   -7.9980   34.3190 C.2       1 GLY         0.2048
     19 O          -7.4150   -7.5040   34.6700 O.2       1 GLY        -0.3943
     20 CB         -5.8430   -9.5190   36.2440 C.3       1 GLY         0.0443
     21 SG         -4.5790  -10.4010   37.2500 S.3       1 GLY        -0.0882
     22 N          -6.0070   -8.2120   33.0430 N.am      1 GLY        -0.2621
     23 CA         -6.9640   -8.0290   31.9570 C.3       1 GLY         0.1390
     24 C          -7.9030   -9.2200   31.9200 C.2       1 GLY         0.2057
     25 O          -7.4700  -10.3690   32.0290 O.2       1 GLY        -0.3942
     26 CB         -6.2330   -7.8550   30.6180 C.3       1 GLY         0.0163
     27 CG         -5.5400   -6.5170   30.5570 C.ar      1 GLY        -0.0493
     28 CD1        -4.3060   -6.3190   31.1750 C.ar      1 GLY        -0.0685
     29 CD2        -6.1490   -5.4270   29.9550 C.ar      1 GLY        -0.0685
     30 CE1        -3.6950   -5.0870   31.1600 C.ar      1 GLY        -0.0398
     31 CE2        -5.5340   -4.1900   29.9260 C.ar      1 GLY        -0.0398
     32 CZ         -4.3150   -4.0240   30.5410 C.ar      1 GLY         0.0805
     33 OH         -3.7070   -2.7930   30.5170 O.3       1 GLY        -0.3376
     34 N          -9.1970   -8.9420   31.7650 N.am      1 GLY        -0.2636
     35 CA        -10.2370   -9.9110   32.1080 C.3       1 GLY         0.1310
     36 C         -10.6000  -10.8370   30.9520 C.2       1 GLY         0.2040
     37 O         -11.7700  -11.2050   30.7810 O.2       1 GLY        -0.3944
     38 CB        -11.4610   -9.1630   32.6270 C.3       1 GLY        -0.0122
     39 CG        -11.2160   -8.5650   34.0290 C.3       1 GLY        -0.0440
     40 CD        -12.2840   -7.5580   34.4580 C.3       1 GLY        -0.0124
     41 CE        -11.9700   -6.9910   35.8570 C.3       1 GLY        -0.0354
     42 NZ        -12.9010   -5.8820   36.2590 N.4       1 GLY         0.2185
     43 N          -9.6200  -11.2160   30.1370 N.am      1 GLY        -0.2616
     44 CA         -9.8280  -12.2820   29.1740 C.3       1 GLY         0.1539
     45 C          -9.7660  -13.6370   29.8820 C.2       1 GLY         0.2062
     46 O          -9.4410  -13.7340   31.0710 O.2       1 GLY        -0.3943
     47 CB         -8.7890  -12.2030   28.0550 C.3       1 GLY         0.0843
     48 OG         -7.4620  -12.2370   28.5770 O.3       1 GLY        -0.3903
     49 N         -10.0850  -14.6910   29.1410 N.am      1 GLY        -0.2637
     50 CA         -9.9800  -16.0540   29.6580 C.3       1 GLY         0.1312
     51 C          -9.0190  -16.8460   28.7860 C.2       1 GLY         0.2064
     52 O          -9.3500  -17.1480   27.6240 O.2       1 GLY        -0.3942
     53 CB        -11.3530  -16.7270   29.7060 C.3       1 GLY        -0.0122
     54 CG        -11.3560  -18.0760   30.4050 C.3       1 GLY        -0.0440
     55 CD        -12.7680  -18.5310   30.7350 C.3       1 GLY        -0.0124
     56 CE        -12.8080  -20.0260   31.0060 C.3       1 GLY        -0.0354
     57 NZ        -11.9370  -20.4120   32.1580 N.4       1 GLY         0.2185
     58 N          -7.8070  -17.1800   29.2610 N.am      1 GLY        -0.2498
     59 CA         -7.2510  -16.8110   30.5660 C.3       1 GLY         0.1340
     60 C          -6.8580  -15.3340   30.6170 C.2       1 GLY         0.2066
     61 O          -6.6930  -14.7000   29.5670 O.2       1 GLY        -0.3942
     62 CB         -6.0260  -17.7210   30.6900 C.3       1 GLY        -0.0104
     63 CG         -5.5740  -17.9070   29.2800 C.3       1 GLY        -0.0281
     64 CD         -6.8320  -17.9130   28.4340 C.3       1 GLY         0.0369
     65 N          -6.7650  -14.7790   31.8190 N.am      1 GLY        -0.2498
     66 CA         -6.4200  -13.3660   31.9550 C.3       1 GLY         0.1338
     67 C          -4.9390  -13.1320   31.7020 C.2       1 GLY         0.2041
     68 O          -4.1180  -14.0530   31.7100 O.2       1 GLY        -0.3944
     69 CB         -6.7840  -13.0630   33.4120 C.3       1 GLY        -0.0104
     70 CG         -6.5460  -14.3650   34.1050 C.3       1 GLY        -0.0281
     71 CD         -7.0770  -15.3870   33.1260 C.3       1 GLY         0.0369
     72 N          -4.6060  -11.8720   31.4550 N.am      1 GLY        -0.2635
     73 CA         -3.2170  -11.4330   31.3670 C.3       1 GLY         0.1335
     74 C          -2.9530  -10.5880   32.6050 C.2       1 GLY         0.2042
     75 O          -3.5330   -9.5060   32.7580 O.2       1 GLY        -0.3944
     76 CB         -2.9370  -10.6480   30.0780 C.3       1 GLY        -0.0037
     77 CG1        -3.4660  -11.4050   28.8520 C.3       1 GLY        -0.0491
     78 CG2        -1.4470  -10.3710   29.9540 C.3       1 GLY        -0.0582
     79 CD1        -3.7160  -10.5170   27.6230 C.3       1 GLY        -0.0648
     80 N          -2.0910  -11.0800   33.4960 N.am      1 GLY        -0.2629
     81 CA         -1.8550  -10.4570   34.7880 C.3       1 GLY         0.1406
     82 C          -0.4430   -9.8910   34.8730 C.2       1 GLY         0.2049
     83 O           0.5040  -10.4560   34.3200 O.2       1 GLY        -0.3943
     84 CB         -2.0840  -11.4640   35.9190 C.3       1 GLY         0.0443
     85 SG         -3.8260  -11.9030   36.0660 S.3       1 GLY        -0.0882
     86 N          -0.3090   -8.7860   35.5930 N.am      1 GLY        -0.2619
     87 CA          0.9380   -8.0440   35.6810 C.3       1 GLY         0.1406
     88 C           1.3310   -7.8340   37.1350 C.2       1 GLY         0.2085
     89 O           0.4900   -7.9250   38.0390 O.2       1 GLY        -0.3940
     90 CB          0.8120   -6.6970   34.9520 C.3       1 GLY         0.0214
     91 CG          0.7540   -6.8300   33.4490 C.ar      1 GLY        -0.0386
     92 CD1         1.9080   -7.0730   32.7190 C.ar      1 GLY        -0.0601
     93 CD2        -0.4520   -6.7280   32.7720 C.ar      1 GLY        -0.0601
     94 CE1         1.8640   -7.1950   31.3340 C.ar      1 GLY        -0.0686
     95 CE2        -0.5080   -6.8580   31.3880 C.ar      1 GLY        -0.0686
     96 CZ          0.6530   -7.0880   30.6700 C.ar      1 GLY        -0.0687
     97 N           2.6140   -7.5750   37.3960 N.am      1 GLY        -0.2497
     98 CA          3.1000   -7.5750   38.7880 C.3       1 GLY         0.1338
     99 C           2.4520   -6.5370   39.6900 C.2       1 GLY         0.2042
    100 O           2.4800   -6.7050   40.9150 O.2       1 GLY        -0.3944
    101 CB          4.6040   -7.3100   38.6280 C.3       1 GLY        -0.0104
    102 CG          4.9310   -7.8410   37.2960 C.3       1 GLY        -0.0281
    103 CD          3.7270   -7.5450   36.4300 C.3       1 GLY         0.0369
    104 N           1.8710   -5.4760   39.1470 N.am      1 GLY        -0.2622
    105 CA          1.2720   -4.4660   40.0090 C.3       1 GLY         0.1443
    106 C          -0.1740   -4.8380   40.3450 C.2       1 GLY         0.2343
    107 O          -0.8190   -4.1880   41.1700 O.2       1 GLY        -0.3938
    108 CB          1.3340   -3.0930   39.3470 C.3       1 GLY         0.0406
    109 CG          0.2240   -2.8850   38.3430 C.2       1 GLY         0.0393
    110 OD1        -0.0850   -3.8330   37.5820 O.co2     1 GLY        -0.5688
    111 OD2        -0.3380   -1.7700   38.3150 O.co2     1 GLY        -0.5688
    112 OXT        -0.7240   -5.7960   39.7980 O.3       1 GLY        -0.1970
    113 H1         -2.1793   -7.0137   41.3239 H         1 GLY         0.1177
    114 H2         -1.6598   -5.3399   38.1776 H         1 GLY         0.1884
    115 H3         -4.4835   -5.1701   37.5349 H         1 GLY         0.0800
    116 H4         -1.8708   -4.2978   36.4200 H         1 GLY         0.0313
    117 H5         -3.4004   -3.3891   36.6676 H         1 GLY         0.0313
    118 H6         -4.2880   -4.4916   34.6014 H         1 GLY         0.0301
    119 H7         -2.6438   -5.1626   34.3313 H         1 GLY         0.0301
    120 H8         -3.1967   -2.1727   34.7118 H         1 GLY         0.0689
    121 H9         -3.1770   -2.9705   33.1025 H         1 GLY         0.0689
    122 H10        -0.7952   -2.9173   34.9512 H         1 GLY         0.2642
    123 H11         1.2449   -2.3227   32.1487 H         1 GLY         0.2615
    124 H12         1.1915   -2.5748   33.9140 H         1 GLY         0.2615
    125 H13        -2.2663   -2.6125   31.7245 H         1 GLY         0.2615
    126 H14        -0.6975   -2.3404   30.9197 H         1 GLY         0.2615
    127 H15        -5.7148   -6.6638   36.5688 H         1 GLY         0.1884
    128 H16        -4.3897   -8.7298   34.8609 H         1 GLY         0.0808
    129 H17        -6.3273  -10.2546   35.5850 H         1 GLY         0.0432
    130 H18        -6.5897   -9.0949   36.9314 H         1 GLY         0.0432
    131 H19        -5.0762   -8.5060   32.8259 H         1 GLY         0.1885
    132 H20        -7.5533   -7.1208   32.1517 H         1 GLY         0.0821
    133 H21        -6.9625   -7.9211   29.7974 H         1 GLY         0.0453
    134 H22        -5.4849   -8.6540   30.5089 H         1 GLY         0.0453
    135 H23        -3.8205   -7.1492   31.6752 H         1 GLY         0.0530
    136 H24        -7.1250   -5.5472   29.4989 H         1 GLY         0.0530
    137 H25        -2.7291   -4.9529   31.6335 H         1 GLY         0.0525
    138 H26        -6.0090   -3.3561   29.4220 H         1 GLY         0.0525
    139 H27        -3.5519   -2.5352   29.6159 H         1 GLY         0.2458
    140 H28        -9.4636   -8.0480   31.4050 H         1 GLY         0.1883
    141 H29        -9.8515  -10.5417   32.9226 H         1 GLY         0.0800
    142 H30       -12.3087   -9.8618   32.6813 H         1 GLY         0.0312
    143 H31       -11.7021   -8.3475   31.9293 H         1 GLY         0.0312
    144 H32       -10.2403   -8.0572   34.0253 H         1 GLY         0.0269
    145 H33       -11.1989   -9.3868   34.7599 H         1 GLY         0.0269
    146 H34       -13.2630   -8.0590   34.4832 H         1 GLY         0.0317
    147 H35       -12.3134   -6.7320   33.7322 H         1 GLY         0.0317
    148 H36       -10.9409   -6.6026   35.8558 H         1 GLY         0.0813
    149 H37       -12.0542   -7.8044   36.5928 H         1 GLY         0.0813
    150 H38       -12.6513   -5.5501   37.1775 H         1 GLY         0.1994
    151 H39       -13.8482   -6.2266   36.2723 H         1 GLY         0.1994
    152 H40       -12.8280   -5.1254   35.5970 H         1 GLY         0.1994
    153 H41        -8.7305  -10.7619   30.1881 H         1 GLY         0.1884
    154 H42       -10.8272  -12.1644   28.7293 H         1 GLY         0.0823
    155 H43        -8.9315  -11.2645   27.4992 H         1 GLY         0.0606
    156 H44        -8.9287  -13.0565   27.3753 H         1 GLY         0.0606
    157 H45        -7.3315  -13.0477   29.0548 H         1 GLY         0.2097
    158 H46       -10.4056  -14.5488   28.2045 H         1 GLY         0.1883
    159 H47        -9.5775  -16.0137   30.6809 H         1 GLY         0.0800
    160 H48       -11.7035  -16.8718   28.6735 H         1 GLY         0.0312
    161 H49       -12.0467  -16.0600   30.2387 H         1 GLY         0.0312
    162 H50       -10.7793  -17.9959   31.3383 H         1 GLY         0.0269
    163 H51       -10.8857  -18.8207   29.7461 H         1 GLY         0.0269
    164 H52       -13.4279  -18.3015   29.8854 H         1 GLY         0.0317
    165 H53       -13.1198  -17.9938   31.6281 H         1 GLY         0.0317
    166 H54       -12.4641  -20.5588   30.1072 H         1 GLY         0.0813
    167 H55       -13.8443  -20.3181   31.2314 H         1 GLY         0.0813
    168 H56       -11.9930  -21.4080   32.3026 H         1 GLY         0.1994
    169 H57       -12.2478  -19.9339   32.9892 H         1 GLY         0.1994
    170 H58       -10.9830  -20.1545   31.9590 H         1 GLY         0.1994
    171 H59        -7.9735  -17.0182   31.3692 H         1 GLY         0.0802
    172 H60        -6.2988  -18.6851   31.1441 H         1 GLY         0.0313
    173 H61        -5.2410  -17.2409   31.2926 H         1 GLY         0.0313
    174 H62        -5.0376  -18.8614   29.1735 H         1 GLY         0.0287
    175 H63        -4.9146  -17.0800   28.9780 H         1 GLY         0.0287
    176 H64        -6.6639  -17.3990   27.4761 H         1 GLY         0.0524
    177 H65        -7.1726  -18.9414   28.2435 H         1 GLY         0.0524
    178 H66        -7.0109  -12.7476   31.2634 H         1 GLY         0.0802
    179 H67        -7.8370  -12.7571   33.4994 H         1 GLY         0.0313
    180 H68        -6.1375  -12.2739   33.8235 H         1 GLY         0.0313
    181 H69        -7.0951  -14.4100   35.0571 H         1 GLY         0.0287
    182 H70        -5.4733  -14.5204   34.2927 H         1 GLY         0.0287
    183 H71        -6.5657  -16.3535   33.2457 H         1 GLY         0.0524
    184 H72        -8.1610  -15.5278   33.2490 H         1 GLY         0.0524
    185 H73        -5.3333  -11.1983   31.3243 H         1 GLY         0.1883
    186 H74        -2.5585  -12.3140   31.3814 H         1 GLY         0.0803
    187 H75        -3.4634   -9.6840   30.1379 H         1 GLY         0.0345
    188 H76        -4.4152  -11.8876   29.1277 H         1 GLY         0.0267
    189 H77        -2.7295  -12.1745   28.5774 H         1 GLY         0.0267
    190 H78        -1.0994   -9.8289   30.8458 H         1 GLY         0.0235
    191 H79        -1.2608   -9.7605   29.0581 H         1 GLY         0.0235
    192 H80        -0.9029  -11.3232   29.8685 H         1 GLY         0.0235
    193 H81        -4.0917  -11.1352   26.7943 H         1 GLY         0.0230
    194 H82        -2.7748  -10.0336   27.3223 H         1 GLY         0.0230
    195 H83        -4.4605   -9.7467   27.8725 H         1 GLY         0.0230
    196 H84        -1.5862  -11.9119   33.2657 H         1 GLY         0.1884
    197 H85        -2.5690   -9.6288   34.9078 H         1 GLY         0.0808
    198 H86        -1.7455  -11.0206   36.8670 H         1 GLY         0.0432
    199 H87        -1.5019  -12.3740   35.7113 H         1 GLY         0.0432
    200 H88        -1.1023   -8.4472   36.0989 H         1 GLY         0.1885
    201 H89         1.7277   -8.6316   35.1900 H         1 GLY         0.0823
    202 H90         1.6819   -6.0766   35.2135 H         1 GLY         0.0474
    203 H91        -0.1083   -6.2007   35.2936 H         1 GLY         0.0474
    204 H92         2.8567   -7.1691   33.2345 H         1 GLY         0.0557
    205 H93        -1.3637   -6.5444   33.3289 H         1 GLY         0.0557
    206 H94         2.7757   -7.3735   30.7754 H         1 GLY         0.0599
    207 H95        -1.4586   -6.7794   30.8730 H         1 GLY         0.0599
    208 H96         0.6146   -7.1841   29.5909 H         1 GLY         0.0559
    209 H97         2.9327   -8.5656   39.2361 H         1 GLY         0.0802
    210 H98         5.1765   -7.8347   39.4071 H         1 GLY         0.0313
    211 H99         4.8167   -6.2320   38.6799 H         1 GLY         0.0313
    212 H100        5.1083   -8.9253   37.3484 H         1 GLY         0.0287
    213 H101        5.8249   -7.3423   36.8932 H         1 GLY         0.0287
    214 H102        3.8136   -6.5562   35.9559 H         1 GLY         0.0524
    215 H103        3.5987   -8.3138   35.6538 H         1 GLY         0.0524
    216 H104        1.8442   -5.3699   38.1530 H         1 GLY         0.1884
    217 H105        1.8461   -4.4249   40.9464 H         1 GLY         0.0818
    218 H106        2.3001   -2.9935   38.8306 H         1 GLY         0.0478
    219 H107        1.2537   -2.3213   40.1267 H         1 GLY         0.0478
@<TRIPOS>BOND
     1    1    2 1  
     2    1  106 am 
     3    1  112 1  
     4    2    3 1  
     5    2  112 1  
     6    3    4 2  
     7    3    5 am 
     8    5    6 1  
     9    6    7 1  
    10    6    9 1  
    11    7    8 2  
    12    7   16 am 
    13    9   10 1  
    14   10   11 1  
    15   11   12 1  
    16   12   13 ar 
    17   13   14 ar 
    18   13   15 ar 
    19   16   17 1  
    20   17   18 1  
    21   17   20 1  
    22   18   19 2  
    23   18   22 am 
    24   20   21 1  
    25   21   85 1  
    26   22   23 1  
    27   23   24 1  
    28   23   26 1  
    29   24   25 2  
    30   24   34 am 
    31   26   27 1  
    32   27   28 ar 
    33   27   29 ar 
    34   28   30 ar 
    35   29   31 ar 
    36   30   32 ar 
    37   31   32 ar 
    38   32   33 1  
    39   34   35 1  
    40   35   36 1  
    41   35   38 1  
    42   36   37 2  
    43   36   43 am 
    44   38   39 1  
    45   39   40 1  
    46   40   41 1  
    47   41   42 1  
    48   43   44 1  
    49   44   45 1  
    50   44   47 1  
    51   45   46 2  
    52   45   49 am 
    53   47   48 1  
    54   49   50 1  
    55   50   51 1  
    56   50   53 1  
    57   51   52 2  
    58   51   58 am 
    59   53   54 1  
    60   54   55 1  
    61   55   56 1  
    62   56   57 1  
    63   58   59 1  
    64   58   64 1  
    65   59   60 1  
    66   59   62 1  
    67   60   61 2  
    68   60   65 am 
    69   62   63 1  
    70   63   64 1  
    71   65   66 1  
    72   65   71 1  
    73   66   67 1  
    74   66   69 1  
    75   67   68 2  
    76   67   72 am 
    77   69   70 1  
    78   70   71 1  
    79   72   73 1  
    80   73   74 1  
    81   73   76 1  
    82   74   75 2  
    83   74   80 am 
    84   76   77 1  
    85   76   78 1  
    86   77   79 1  
    87   80   81 1  
    88   81   82 1  
    89   81   84 1  
    90   82   83 2  
    91   82   86 am 
    92   84   85 1  
    93   86   87 1  
    94   87   88 1  
    95   87   90 1  
    96   88   89 2  
    97   88   97 am 
    98   90   91 1  
    99   91   92 ar 
   100   91   93 ar 
   101   92   94 ar 
   102   93   95 ar 
   103   94   96 ar 
   104   95   96 ar 
   105   97   98 1  
   106   97  103 1  
   107   98   99 1  
   108   98  101 1  
   109   99  100 2  
   110   99  104 am 
   111  101  102 1  
   112  102  103 1  
   113  104  105 1  
   114  105  106 1  
   115  105  108 1  
   116  106  107 2  
   117  108  109 1  
   118  109  110 ar 
   119  109  111 ar 
   120    2  113 1  
   121    5  114 1  
   122    6  115 1  
   123    9  116 1  
   124    9  117 1  
   125   10  118 1  
   126   10  119 1  
   127   11  120 1  
   128   11  121 1  
   129   12  122 1  
   130   14  123 1  
   131   14  124 1  
   132   15  125 1  
   133   15  126 1  
   134   16  127 1  
   135   17  128 1  
   136   20  129 1  
   137   20  130 1  
   138   22  131 1  
   139   23  132 1  
   140   26  133 1  
   141   26  134 1  
   142   28  135 1  
   143   29  136 1  
   144   30  137 1  
   145   31  138 1  
   146   33  139 1  
   147   34  140 1  
   148   35  141 1  
   149   38  142 1  
   150   38  143 1  
   151   39  144 1  
   152   39  145 1  
   153   40  146 1  
   154   40  147 1  
   155   41  148 1  
   156   41  149 1  
   157   42  150 1  
   158   42  151 1  
   159   42  152 1  
   160   43  153 1  
   161   44  154 1  
   162   47  155 1  
   163   47  156 1  
   164   48  157 1  
   165   49  158 1  
   166   50  159 1  
   167   53  160 1  
   168   53  161 1  
   169   54  162 1  
   170   54  163 1  
   171   55  164 1  
   172   55  165 1  
   173   56  166 1  
   174   56  167 1  
   175   57  168 1  
   176   57  169 1  
   177   57  170 1  
   178   59  171 1  
   179   62  172 1  
   180   62  173 1  
   181   63  174 1  
   182   63  175 1  
   183   64  176 1  
   184   64  177 1  
   185   66  178 1  
   186   69  179 1  
   187   69  180 1  
   188   70  181 1  
   189   70  182 1  
   190   71  183 1  
   191   71  184 1  
   192   72  185 1  
   193   73  186 1  
   194   76  187 1  
   195   77  188 1  
   196   77  189 1  
   197   78  190 1  
   198   78  191 1  
   199   78  192 1  
   200   79  193 1  
   201   79  194 1  
   202   79  195 1  
   203   80  196 1  
   204   81  197 1  
   205   84  198 1  
   206   84  199 1  
   207   86  200 1  
   208   87  201 1  
   209   90  202 1  
   210   90  203 1  
   211   92  204 1  
   212   93  205 1  
   213   94  206 1  
   214   95  207 1  
   215   96  208 1  
   216   98  209 1  
   217  101  210 1  
   218  101  211 1  
   219  102  212 1  
   220  102  213 1  
   221  103  214 1  
   222  103  215 1  
   223  104  216 1  
   224  105  217 1  
   225  108  218 1  
   226  108  219 1  
@<TRIPOS>SUBSTRUCTURE
     1 GLY         1

