6d3x_ligand
  -I-interpret- 

219226  0  0  0  0  0  0  0  0999 V2000
   -0.5690   -6.0500   40.0140 N   0  0  0  0  0
   -1.8580   -6.6310   40.3440 C   0  0  0  0  0
   -2.9280   -6.4480   39.2830 C   0  0  0  0  0
   -4.0470   -6.9440   39.4230 O   0  0  0  0  0
   -2.5820   -5.7240   38.2230 N   0  0  0  0  0
   -3.5100   -5.4730   37.1220 C   0  0  0  0  0
   -3.7120   -6.7570   36.3110 C   0  0  0  0  0
   -2.7410   -7.3900   35.8890 O   0  0  0  0  0
   -2.9610   -4.3180   36.2750 C   0  0  0  0  0
   -3.2140   -4.3370   34.7820 C   0  0  0  0  0
   -2.7780   -3.0050   34.1270 C   0  0  0  0  0
   -1.3190   -2.8480   34.0670 N   0  0  0  0  0
   -0.6210   -2.6220   32.9510 C   0  0  0  0  0
    0.7060   -2.4970   33.0090 N   0  0  0  0  0
   -1.2420   -2.5170   31.7760 N   0  0  0  0  0
   -4.9720   -7.1820   36.1450 N   0  0  0  0  0
   -5.3010   -8.3770   35.3660 C   0  0  0  0  0
   -6.3390   -7.9980   34.3190 C   0  0  0  0  0
   -7.4150   -7.5040   34.6700 O   0  0  0  0  0
   -5.8430   -9.5190   36.2440 C   0  0  0  0  0
   -4.5790  -10.4010   37.2500 S   0  0  0  0  0
   -6.0070   -8.2120   33.0430 N   0  0  0  0  0
   -6.9640   -8.0290   31.9570 C   0  0  0  0  0
   -7.9030   -9.2200   31.9200 C   0  0  0  0  0
   -7.4700  -10.3690   32.0290 O   0  0  0  0  0
   -6.2330   -7.8550   30.6180 C   0  0  0  0  0
   -5.5400   -6.5170   30.5570 C   0  0  0  0  0
   -4.3060   -6.3190   31.1750 C   0  0  0  0  0
   -6.1490   -5.4270   29.9550 C   0  0  0  0  0
   -3.6950   -5.0870   31.1600 C   0  0  0  0  0
   -5.5340   -4.1900   29.9260 C   0  0  0  0  0
   -4.3150   -4.0240   30.5410 C   0  0  0  0  0
   -3.7070   -2.7930   30.5170 O   0  0  0  0  0
   -9.1970   -8.9420   31.7650 N   0  0  0  0  0
  -10.2370   -9.9110   32.1080 C   0  0  0  0  0
  -10.6000  -10.8370   30.9520 C   0  0  0  0  0
  -11.7700  -11.2050   30.7810 O   0  0  0  0  0
  -11.4610   -9.1630   32.6270 C   0  0  0  0  0
  -11.2160   -8.5650   34.0290 C   0  0  0  0  0
  -12.2840   -7.5580   34.4580 C   0  0  0  0  0
  -11.9700   -6.9910   35.8570 C   0  0  0  0  0
  -12.9010   -5.8820   36.2590 N   0  3  0  0  0
   -9.6200  -11.2160   30.1370 N   0  0  0  0  0
   -9.8280  -12.2820   29.1740 C   0  0  0  0  0
   -9.7660  -13.6370   29.8820 C   0  0  0  0  0
   -9.4410  -13.7340   31.0710 O   0  0  0  0  0
   -8.7890  -12.2030   28.0550 C   0  0  0  0  0
   -7.4620  -12.2370   28.5770 O   0  0  0  0  0
  -10.0850  -14.6910   29.1410 N   0  0  0  0  0
   -9.9800  -16.0540   29.6580 C   0  0  0  0  0
   -9.0190  -16.8460   28.7860 C   0  0  0  0  0
   -9.3500  -17.1480   27.6240 O   0  0  0  0  0
  -11.3530  -16.7270   29.7060 C   0  0  0  0  0
  -11.3560  -18.0760   30.4050 C   0  0  0  0  0
  -12.7680  -18.5310   30.7350 C   0  0  0  0  0
  -12.8080  -20.0260   31.0060 C   0  0  0  0  0
  -11.9370  -20.4120   32.1580 N   0  3  0  0  0
   -7.8070  -17.1800   29.2610 N   0  0  0  0  0
   -7.2510  -16.8110   30.5660 C   0  0  0  0  0
   -6.8580  -15.3340   30.6170 C   0  0  0  0  0
   -6.6930  -14.7000   29.5670 O   0  0  0  0  0
   -6.0260  -17.7210   30.6900 C   0  0  0  0  0
   -5.5740  -17.9070   29.2800 C   0  0  0  0  0
   -6.8320  -17.9130   28.4340 C   0  0  0  0  0
   -6.7650  -14.7790   31.8190 N   0  0  0  0  0
   -6.4200  -13.3660   31.9550 C   0  0  0  0  0
   -4.9390  -13.1320   31.7020 C   0  0  0  0  0
   -4.1180  -14.0530   31.7100 O   0  0  0  0  0
   -6.7840  -13.0630   33.4120 C   0  0  0  0  0
   -6.5460  -14.3650   34.1050 C   0  0  0  0  0
   -7.0770  -15.3870   33.1260 C   0  0  0  0  0
   -4.6060  -11.8720   31.4550 N   0  0  0  0  0
   -3.2170  -11.4330   31.3670 C   0  0  0  0  0
   -2.9530  -10.5880   32.6050 C   0  0  0  0  0
   -3.5330   -9.5060   32.7580 O   0  0  0  0  0
   -2.9370  -10.6480   30.0780 C   0  0  0  0  0
   -3.4660  -11.4050   28.8520 C   0  0  0  0  0
   -1.4470  -10.3710   29.9540 C   0  0  0  0  0
   -3.7160  -10.5170   27.6230 C   0  0  0  0  0
   -2.0910  -11.0800   33.4960 N   0  0  0  0  0
   -1.8550  -10.4570   34.7880 C   0  0  0  0  0
   -0.4430   -9.8910   34.8730 C   0  0  0  0  0
    0.5040  -10.4560   34.3200 O   0  0  0  0  0
   -2.0840  -11.4640   35.9190 C   0  0  0  0  0
   -3.8260  -11.9030   36.0660 S   0  0  0  0  0
   -0.3090   -8.7860   35.5930 N   0  0  0  0  0
    0.9380   -8.0440   35.6810 C   0  0  0  0  0
    1.3310   -7.8340   37.1350 C   0  0  0  0  0
    0.4900   -7.9250   38.0390 O   0  0  0  0  0
    0.8120   -6.6970   34.9520 C   0  0  0  0  0
    0.7540   -6.8300   33.4490 C   0  0  0  0  0
    1.9080   -7.0730   32.7190 C   0  0  0  0  0
   -0.4520   -6.7280   32.7720 C   0  0  0  0  0
    1.8640   -7.1950   31.3340 C   0  0  0  0  0
   -0.5080   -6.8580   31.3880 C   0  0  0  0  0
    0.6530   -7.0880   30.6700 C   0  0  0  0  0
    2.6140   -7.5750   37.3960 N   0  0  0  0  0
    3.1000   -7.5750   38.7880 C   0  0  0  0  0
    2.4520   -6.5370   39.6900 C   0  0  0  0  0
    2.4800   -6.7050   40.9150 O   0  0  0  0  0
    4.6040   -7.3100   38.6280 C   0  0  0  0  0
    4.9310   -7.8410   37.2960 C   0  0  0  0  0
    3.7270   -7.5450   36.4300 C   0  0  0  0  0
    1.8710   -5.4760   39.1470 N   0  0  0  0  0
    1.2720   -4.4660   40.0090 C   0  0  0  0  0
   -0.1740   -4.8380   40.3450 C   0  0  0  0  0
   -0.8190   -4.1880   41.1700 O   0  0  0  0  0
    1.3340   -3.0930   39.3470 C   0  0  0  0  0
    0.2240   -2.8850   38.3430 C   0  0  0  0  0
   -0.0850   -3.8330   37.5820 O   0  0  0  0  0
   -0.3380   -1.7700   38.3150 O   0  0  0  0  0
   -0.7240   -5.7960   39.7980 O   0  0  0  0  0
   -2.3883   -7.2408   41.0754 H   0  0  0  0  0
   -1.6414   -5.3322   38.1767 H   0  0  0  0  0
   -4.4911   -5.1803   37.4961 H   0  0  0  0  0
   -1.8778   -4.3743   36.3823 H   0  0  0  0  0
   -3.4720   -3.4273   36.6404 H   0  0  0  0  0
   -4.2812   -4.4774   34.6106 H   0  0  0  0  0
   -2.6360   -5.1488   34.3403 H   0  0  0  0  0
   -3.1758   -2.1905   34.7324 H   0  0  0  0  0
   -3.1559   -2.9975   33.1046 H   0  0  0  0  0
   -0.8003   -2.9167   34.9426 H   0  0  0  0  0
    1.2395   -2.3221   32.1574 H   0  0  0  0  0
    1.1871   -2.5763   33.9049 H   0  0  0  0  0
   -2.2565   -2.6093   31.7253 H   0  0  0  0  0
   -5.7297   -6.6534   36.5773 H   0  0  0  0  0
   -4.3870   -8.7421   34.8975 H   0  0  0  0  0
   -6.2748  -10.2563   35.5672 H   0  0  0  0  0
   -6.5436   -9.0681   36.9468 H   0  0  0  0  0
   -5.0575   -8.5118   32.8216 H   0  0  0  0  0
   -7.5465   -7.1240   32.1297 H   0  0  0  0  0
   -6.9619   -7.9108   29.8095 H   0  0  0  0  0
   -5.4861   -8.6428   30.5201 H   0  0  0  0  0
   -3.8179   -7.1538   31.6779 H   0  0  0  0  0
   -7.1304   -5.5478   29.4964 H   0  0  0  0  0
   -2.7238   -4.9522   31.6361 H   0  0  0  0  0
   -6.0116   -3.3515   29.4192 H   0  0  0  0  0
   -4.2682   -2.1692   30.0506 H   0  0  0  0  0
   -9.4689   -8.0301   31.3978 H   0  0  0  0  0
   -9.8436  -10.5633   32.8877 H   0  0  0  0  0
  -12.2896   -9.8679   32.6953 H   0  0  0  0  0
  -11.6800   -8.3459   31.9396 H   0  0  0  0  0
  -10.2624   -8.0379   33.9982 H   0  0  0  0  0
  -11.2354   -9.3876   34.7439 H   0  0  0  0  0
  -13.2498   -8.0622   34.4914 H   0  0  0  0  0
  -12.3014   -6.7369   33.7414 H   0  0  0  0  0
  -10.9586   -6.5853   35.8332 H   0  0  0  0  0
  -12.0841   -7.8003   36.5782 H   0  0  0  0  0
  -12.6474   -5.5470   37.1884 H   0  0  0  0  0
  -12.8262   -5.1171   35.5884 H   0  0  0  0  0
  -13.8590   -6.2319   36.2720 H   0  0  0  0  0
   -8.7127  -10.7528   30.1891 H   0  0  0  0  0
  -10.8141  -12.1683   28.7236 H   0  0  0  0  0
   -8.9271  -11.2641   27.5188 H   0  0  0  0  0
   -8.9243  -13.0596   27.3946 H   0  0  0  0  0
   -6.8333  -12.1860   27.8533 H   0  0  0  0  0
  -10.4120  -14.5459   28.1858 H   0  0  0  0  0
   -9.5962  -16.0218   30.6777 H   0  0  0  0  0
  -11.6664  -16.8960   28.6758 H   0  0  0  0  0
  -12.0157  -16.0697   30.2689 H   0  0  0  0  0
  -10.7974  -17.9829   31.3363 H   0  0  0  0  0
  -10.9041  -18.8106   29.7385 H   0  0  0  0  0
  -13.4141  -18.3119   29.8849 H   0  0  0  0  0
  -13.1060  -18.0043   31.6274 H   0  0  0  0  0
  -12.4452  -20.5425   30.1174 H   0  0  0  0  0
  -13.8346  -20.3002   31.2490 H   0  0  0  0  0
  -11.9944  -21.4200   32.3033 H   0  0  0  0  0
  -10.9720  -20.1509   31.9555 H   0  0  0  0  0
  -12.2524  -19.9276   32.9984 H   0  0  0  0  0
   -7.9632  -16.9368   31.3815 H   0  0  0  0  0
   -6.2604  -18.6670   31.1781 H   0  0  0  0  0
   -5.2496  -17.2870   31.3201 H   0  0  0  0  0
   -5.0163  -18.8363   29.1640 H   0  0  0  0  0
   -4.8971  -17.1092   28.9744 H   0  0  0  0  0
   -6.6812  -17.4511   27.4583 H   0  0  0  0  0
   -7.1661  -18.9214   28.1898 H   0  0  0  0  0
   -6.9381  -12.7284   31.2387 H   0  0  0  0  0
   -7.8093  -12.7103   33.5232 H   0  0  0  0  0
   -6.1913  -12.2503   33.8318 H   0  0  0  0  0
   -7.0404  -14.4189   35.0749 H   0  0  0  0  0
   -5.4951  -14.5241   34.3466 H   0  0  0  0  0
   -6.6274  -16.3716   33.2544 H   0  0  0  0  0
   -8.1401  -15.5887   33.2575 H   0  0  0  0  0
   -5.3479  -11.1848   31.3217 H   0  0  0  0  0
   -2.5480  -12.2927   31.3289 H   0  0  0  0  0
   -3.4622   -9.6941   30.1250 H   0  0  0  0  0
   -4.4240  -11.8425   29.1329 H   0  0  0  0  0
   -2.7063  -12.1349   28.5722 H   0  0  0  0  0
   -1.1150   -9.7856   30.8114 H   0  0  0  0  0
   -0.9042  -11.3158   29.9253 H   0  0  0  0  0
   -1.2575   -9.8137   29.0366 H   0  0  0  0  0
   -4.4538   -9.7541   27.8716 H   0  0  0  0  0
   -2.7827  -10.0386   27.3261 H   0  0  0  0  0
   -4.0882  -11.1306   26.8026 H   0  0  0  0  0
   -1.5761  -11.9286   33.2611 H   0  0  0  0  0
   -2.5624   -9.6349   34.8968 H   0  0  0  0  0
   -1.7609  -11.0112   36.8563 H   0  0  0  0  0
   -1.5167  -12.3680   35.6977 H   0  0  0  0  0
   -1.1182   -8.4405   36.1090 H   0  0  0  0  0
    1.7227   -8.6246   35.1959 H   0  0  0  0  0
    1.6965   -6.1083   35.1953 H   0  0  0  0  0
   -0.1200   -6.2343   35.2766 H   0  0  0  0  0
    2.8620   -7.1696   33.2374 H   0  0  0  0  0
   -1.3688   -6.5434   33.3320 H   0  0  0  0  0
    2.7807   -7.3745   30.7723 H   0  0  0  0  0
   -1.4639   -6.7789   30.8702 H   0  0  0  0  0
    0.6144   -7.1847   29.5850 H   0  0  0  0  0
    2.8549   -8.5127   39.2867 H   0  0  0  0  0
    5.1892   -7.7879   39.4136 H   0  0  0  0  0
    4.8441   -6.2504   38.7160 H   0  0  0  0  0
    5.1394   -8.9102   37.3347 H   0  0  0  0  0
    5.8327   -7.3787   36.8943 H   0  0  0  0  0
    3.8065   -6.5936   35.9040 H   0  0  0  0  0
    3.6027   -8.2609   35.6175 H   0  0  0  0  0
    1.8437   -5.3678   38.1331 H   0  0  0  0  0
    1.8402   -4.4240   40.9382 H   0  0  0  0  0
    2.2844   -3.0166   38.8187 H   0  0  0  0  0
    1.2286   -2.3384   40.1265 H   0  0  0  0  0
    0.4714   -4.5911   37.7749 H   0  0  0  0  0
  1  2  1  0  0  0
  1106  1  0  0  0
  1112  1  0  0  0
  2  3  1  0  0  0
  2112  1  0  0  0
  3  4  2  0  0  0
  3  5  1  0  0  0
  5  6  1  0  0  0
  6  7  1  0  0  0
  6  9  1  0  0  0
  7  8  2  0  0  0
  7 16  1  0  0  0
  9 10  1  0  0  0
 10 11  1  0  0  0
 11 12  1  0  0  0
 12 13  1  0  0  0
 13 14  1  0  0  0
 13 15  2  0  0  0
 16 17  1  0  0  0
 17 18  1  0  0  0
 17 20  1  0  0  0
 18 19  2  0  0  0
 18 22  1  0  0  0
 20 21  1  0  0  0
 21 85  1  0  0  0
 22 23  1  0  0  0
 23 24  1  0  0  0
 23 26  1  0  0  0
 24 25  2  0  0  0
 24 34  1  0  0  0
 26 27  1  0  0  0
 27 28  4  0  0  0
 27 29  4  0  0  0
 28 30  4  0  0  0
 29 31  4  0  0  0
 30 32  4  0  0  0
 31 32  4  0  0  0
 32 33  1  0  0  0
 34 35  1  0  0  0
 35 36  1  0  0  0
 35 38  1  0  0  0
 36 37  2  0  0  0
 36 43  1  0  0  0
 38 39  1  0  0  0
 39 40  1  0  0  0
 40 41  1  0  0  0
 41 42  1  0  0  0
 43 44  1  0  0  0
 44 45  1  0  0  0
 44 47  1  0  0  0
 45 46  2  0  0  0
 45 49  1  0  0  0
 47 48  1  0  0  0
 49 50  1  0  0  0
 50 51  1  0  0  0
 50 53  1  0  0  0
 51 52  2  0  0  0
 51 58  1  0  0  0
 53 54  1  0  0  0
 54 55  1  0  0  0
 55 56  1  0  0  0
 56 57  1  0  0  0
 58 59  1  0  0  0
 58 64  1  0  0  0
 59 60  1  0  0  0
 59 62  1  0  0  0
 60 61  2  0  0  0
 60 65  1  0  0  0
 62 63  1  0  0  0
 63 64  1  0  0  0
 65 66  1  0  0  0
 65 71  1  0  0  0
 66 67  1  0  0  0
 66 69  1  0  0  0
 67 68  2  0  0  0
 67 72  1  0  0  0
 69 70  1  0  0  0
 70 71  1  0  0  0
 72 73  1  0  0  0
 73 74  1  0  0  0
 73 76  1  0  0  0
 74 75  2  0  0  0
 74 80  1  0  0  0
 76 77  1  0  0  0
 76 78  1  0  0  0
 77 79  1  0  0  0
 80 81  1  0  0  0
 81 82  1  0  0  0
 81 84  1  0  0  0
 82 83  2  0  0  0
 82 86  1  0  0  0
 84 85  1  0  0  0
 86 87  1  0  0  0
 87 88  1  0  0  0
 87 90  1  0  0  0
 88 89  2  0  0  0
 88 97  1  0  0  0
 90 91  1  0  0  0
 91 92  4  0  0  0
 91 93  4  0  0  0
 92 94  4  0  0  0
 93 95  4  0  0  0
 94 96  4  0  0  0
 95 96  4  0  0  0
 97 98  1  0  0  0
 97103  1  0  0  0
 98 99  1  0  0  0
 98101  1  0  0  0
 99100  2  0  0  0
 99104  1  0  0  0
101102  1  0  0  0
102103  1  0  0  0
104105  1  0  0  0
105106  1  0  0  0
105108  1  0  0  0
106107  2  0  0  0
108109  1  0  0  0
109110  1  0  0  0
109111  2  0  0  0
  2113  1  0  0  0
  5114  1  0  0  0
  6115  1  0  0  0
  9116  1  0  0  0
  9117  1  0  0  0
 10118  1  0  0  0
 10119  1  0  0  0
 11120  1  0  0  0
 11121  1  0  0  0
 12122  1  0  0  0
 14123  1  0  0  0
 14124  1  0  0  0
 15125  1  0  0  0
 16126  1  0  0  0
 17127  1  0  0  0
 20128  1  0  0  0
 20129  1  0  0  0
 22130  1  0  0  0
 23131  1  0  0  0
 26132  1  0  0  0
 26133  1  0  0  0
 28134  1  0  0  0
 29135  1  0  0  0
 30136  1  0  0  0
 31137  1  0  0  0
 33138  1  0  0  0
 34139  1  0  0  0
 35140  1  0  0  0
 38141  1  0  0  0
 38142  1  0  0  0
 39143  1  0  0  0
 39144  1  0  0  0
 40145  1  0  0  0
 40146  1  0  0  0
 41147  1  0  0  0
 41148  1  0  0  0
 42149  1  0  0  0
 42150  1  0  0  0
 42151  1  0  0  0
 43152  1  0  0  0
 44153  1  0  0  0
 47154  1  0  0  0
 47155  1  0  0  0
 48156  1  0  0  0
 49157  1  0  0  0
 50158  1  0  0  0
 53159  1  0  0  0
 53160  1  0  0  0
 54161  1  0  0  0
 54162  1  0  0  0
 55163  1  0  0  0
 55164  1  0  0  0
 56165  1  0  0  0
 56166  1  0  0  0
 57167  1  0  0  0
 57168  1  0  0  0
 57169  1  0  0  0
 59170  1  0  0  0
 62171  1  0  0  0
 62172  1  0  0  0
 63173  1  0  0  0
 63174  1  0  0  0
 64175  1  0  0  0
 64176  1  0  0  0
 66177  1  0  0  0
 69178  1  0  0  0
 69179  1  0  0  0
 70180  1  0  0  0
 70181  1  0  0  0
 71182  1  0  0  0
 71183  1  0  0  0
 72184  1  0  0  0
 73185  1  0  0  0
 76186  1  0  0  0
 77187  1  0  0  0
 77188  1  0  0  0
 78189  1  0  0  0
 78190  1  0  0  0
 78191  1  0  0  0
 79192  1  0  0  0
 79193  1  0  0  0
 79194  1  0  0  0
 80195  1  0  0  0
 81196  1  0  0  0
 84197  1  0  0  0
 84198  1  0  0  0
 86199  1  0  0  0
 87200  1  0  0  0
 90201  1  0  0  0
 90202  1  0  0  0
 92203  1  0  0  0
 93204  1  0  0  0
 94205  1  0  0  0
 95206  1  0  0  0
 96207  1  0  0  0
 98208  1  0  0  0
101209  1  0  0  0
101210  1  0  0  0
102211  1  0  0  0
102212  1  0  0  0
103213  1  0  0  0
103214  1  0  0  0
104215  1  0  0  0
105216  1  0  0  0
108217  1  0  0  0
108218  1  0  0  0
110219  1  0  0  0
M  END
$$$$
