1ew9_ligand
  -I-interpret- 

 11 10  0  0  0  0  0  0  0  0999 V2000
   73.6670   39.0110   43.5090 S   0  0  0  0  0
   74.8050   37.0220   45.3710 P   0  0  0  0  0
   75.9650   37.3180   46.3390 O   0  0  0  0  0
   74.8140   35.5370   44.9980 O   0  0  0  0  0
   73.5460   37.4230   45.9820 O   0  0  0  0  0
   75.1110   37.9520   43.8360 C   0  0  0  0  0
   73.8694   39.7008   42.3900 H   0  0  0  0  0
   76.7939   37.0528   45.9339 H   0  0  0  0  0
   75.6583   35.3134   44.5995 H   0  0  0  0  0
   76.0063   38.5644   43.9429 H   0  0  0  0  0
   75.2635   37.2622   43.0059 H   0  0  0  0  0
  6  1  1  0  0  0
  2  3  1  0  0  0
  2  4  1  0  0  0
  2  5  2  0  0  0
  2  6  1  0  0  0
  1  7  1  0  0  0
  3  8  1  0  0  0
  4  9  1  0  0  0
  6 10  1  0  0  0
  6 11  1  0  0  0
M  END
$$$$
