4zzd_ligand
  -I-interpret- 

 47 49  0  0  0  0  0  0  0  0999 V2000
    1.6490    3.6160   88.9580 N   0  0  0  0  0
    0.5140    2.9630   88.5960 C   0  0  0  0  0
   -0.3010    3.5400   87.8410 O   0  0  0  0  0
    0.2310    1.7170   89.0170 N   0  0  0  0  0
    1.0500    1.0290   89.8270 C   0  0  0  0  0
    0.7600   -0.1290   90.2020 O   0  0  0  0  0
    2.3150    1.6720   90.2710 C   0  0  0  0  0
    3.1950    1.0460   91.0880 N   0  0  0  0  0
    4.3390    1.6570   91.4750 C   0  0  0  0  0
    5.2260    0.9890   92.3140 C   0  0  0  0  0
    6.4070    1.6060   92.7190 C   0  0  0  0  0
    7.3640    0.8760   93.6280 C   0  0  0  0  0
    6.7220    2.9860   92.2540 C   0  0  0  0  0
    7.9980    3.6580   92.6920 C   0  0  0  0  0
    5.8370    3.6570   91.4140 C   0  0  0  0  0
    4.6560    3.0400   91.0070 C   0  0  0  0  0
    3.7550    3.7090   90.1500 N   0  0  0  0  0
    2.5670    3.0470   89.7740 C   0  0  0  0  0
    4.0170    5.0730   89.6780 C   0  0  0  0  0
    4.3410    5.0730   88.1890 C   0  0  0  0  0
    5.7550    4.9370   88.0060 O   0  0  0  0  0
    3.8600    6.3660   87.5370 C   0  0  0  0  0
    4.4880    7.4760   88.1870 O   0  0  0  0  0
    2.3420    6.5190   87.6270 C   0  0  0  0  0
    1.6910    5.2860   87.2890 O   0  0  0  0  0
    1.8370    7.6390   86.7200 C   0  0  0  0  0
    2.8510    7.9910   85.7690 O   0  0  0  0  0
   -0.6375    1.2795   88.7093 H   0  0  0  0  0
    4.9956   -0.0203   92.6552 H   0  0  0  0  0
    6.8596    0.6303   94.5625 H   0  0  0  0  0
    7.6974   -0.0407   93.1416 H   0  0  0  0  0
    8.2242    1.5128   93.8345 H   0  0  0  0  0
    8.0109    3.7371   93.7791 H   0  0  0  0  0
    8.8512    3.0668   92.3593 H   0  0  0  0  0
    8.0515    4.6544   92.2533 H   0  0  0  0  0
    6.0686    4.6665   91.0744 H   0  0  0  0  0
    4.8686    5.4781   90.2245 H   0  0  0  0  0
    3.1283    5.6814   89.8458 H   0  0  0  0  0
    3.8287    4.2339   87.7183 H   0  0  0  0  0
    5.9565    4.9373   87.0674 H   0  0  0  0  0
    4.1287    6.3344   86.4811 H   0  0  0  0  0
    4.1897    8.2934   87.7815 H   0  0  0  0  0
    2.1000    6.7811   88.6569 H   0  0  0  0  0
    0.7398    5.4002   87.3507 H   0  0  0  0  0
    1.5945    8.5114   87.3268 H   0  0  0  0  0
    0.9483    7.2984   86.1887 H   0  0  0  0  0
    2.5265    8.6951   85.2028 H   0  0  0  0  0
  1  2  1  0  0  0
  1 18  2  0  0  0
  2  3  2  0  0  0
  2  4  1  0  0  0
  4  5  1  0  0  0
  5  6  2  0  0  0
  5  7  1  0  0  0
  7  8  2  0  0  0
  7 18  1  0  0  0
  8  9  1  0  0  0
  9 10  4  0  0  0
  9 16  4  0  0  0
 10 11  4  0  0  0
 11 12  1  0  0  0
 11 13  4  0  0  0
 13 14  1  0  0  0
 13 15  4  0  0  0
 15 16  4  0  0  0
 16 17  1  0  0  0
 17 18  1  0  0  0
 17 19  1  0  0  0
 19 20  1  0  0  0
 20 21  1  0  0  0
 20 22  1  0  0  0
 22 23  1  0  0  0
 22 24  1  0  0  0
 24 25  1  0  0  0
 24 26  1  0  0  0
 26 27  1  0  0  0
  4 28  1  0  0  0
 10 29  1  0  0  0
 12 30  1  0  0  0
 12 31  1  0  0  0
 12 32  1  0  0  0
 14 33  1  0  0  0
 14 34  1  0  0  0
 14 35  1  0  0  0
 15 36  1  0  0  0
 19 37  1  0  0  0
 19 38  1  0  0  0
 20 39  1  0  0  0
 21 40  1  0  0  0
 22 41  1  0  0  0
 23 42  1  0  0  0
 24 43  1  0  0  0
 25 44  1  0  0  0
 26 45  1  0  0  0
 26 46  1  0  0  0
 27 47  1  0  0  0
M  END
$$$$
