4ps7_ligand
  -I-interpret- 

 30 32  0  0  0  0  0  0  0  0999 V2000
   14.3590   62.7310   23.4250 C   0  0  0  0  0
   15.8190   62.7030   23.0420 C   0  0  0  0  0
   16.2100   63.4750   22.1950 O   0  0  0  0  0
   16.6580   61.8250   23.6610 N   0  0  0  0  0
   18.0160   61.6340   23.4120 C   0  0  0  0  0
   18.7410   60.7780   24.0690 N   0  0  0  0  0
   20.0280   60.6600   23.7270 C   0  0  0  0  0
   21.0090   59.8160   24.2630 C   0  0  0  0  0
   22.2890   59.8330   23.7650 C   0  0  0  0  0
   22.6370   60.6940   22.7180 C   0  0  0  0  0
   21.6770   61.5380   22.1850 C   0  0  0  0  0
   20.3880   61.5290   22.6800 C   0  0  0  0  0
   18.9800   62.4730   22.1900 S   0  0  0  0  0
   23.9970   60.7100   22.1300 C   0  0  0  0  0
   24.1820   61.2290   20.8230 C   0  0  0  0  0
   25.4580   61.2200   20.2480 C   0  0  0  0  0
   26.5150   60.6910   20.9660 C   0  0  0  0  0
   26.2900   60.1910   22.1760 N   0  0  0  0  0
   25.1020   60.1660   22.7740 C   0  0  0  0  0
   14.1044   63.7187   23.8095 H   0  0  0  0  0
   13.7502   62.5134   22.5474 H   0  0  0  0  0
   14.1719   61.9811   24.1936 H   0  0  0  0  0
   16.2453   61.2417   24.3889 H   0  0  0  0  0
   20.7550   59.1414   25.0806 H   0  0  0  0  0
   23.0417   59.1688   24.1898 H   0  0  0  0  0
   21.9403   62.2129   21.3705 H   0  0  0  0  0
   23.3345   61.6329   20.2691 H   0  0  0  0  0
   25.6165   61.6243   19.2482 H   0  0  0  0  0
   27.5201   60.6844   20.5443 H   0  0  0  0  0
   24.9958   59.7214   23.7635 H   0  0  0  0  0
  1  2  1  0  0  0
  2  3  2  0  0  0
  2  4  1  0  0  0
  4  5  1  0  0  0
  5  6  4  0  0  0
  5 13  4  0  0  0
  6  7  4  0  0  0
  7  8  4  0  0  0
  7 12  4  0  0  0
  8  9  4  0  0  0
  9 10  4  0  0  0
 10 11  4  0  0  0
 10 14  1  0  0  0
 11 12  4  0  0  0
 12 13  4  0  0  0
 14 15  4  0  0  0
 14 19  4  0  0  0
 15 16  4  0  0  0
 16 17  4  0  0  0
 17 18  4  0  0  0
 18 19  4  0  0  0
  1 20  1  0  0  0
  1 21  1  0  0  0
  1 22  1  0  0  0
  4 23  1  0  0  0
  8 24  1  0  0  0
  9 25  1  0  0  0
 11 26  1  0  0  0
 15 27  1  0  0  0
 16 28  1  0  0  0
 17 29  1  0  0  0
 19 30  1  0  0  0
M  END
$$$$
