6ugq_ligand
  -I-interpret- 

 19 20  0  0  0  0  0  0  0  0999 V2000
  -24.4440   -0.5290   15.0640 O   0  0  0  0  0
  -26.3810    1.3480   18.0950 O   0  0  0  0  0
  -28.5210    1.3140   16.8470 O   0  0  0  0  0
  -27.0110    5.0950   15.9680 C   0  0  0  0  0
  -25.7460    5.2830   15.3310 C   0  0  0  0  0
  -24.9410    4.2010   14.9940 C   0  0  0  0  0
  -25.4240    2.9690   15.4160 C   0  0  0  0  0
  -26.5940    2.8110   16.1200 C   0  0  0  0  0
  -27.3680    3.8940   16.4440 C   0  0  0  0  0
  -25.0820    0.3550   15.4250 C   0  0  0  0  0
  -24.5580    1.7370   15.0590 N   0  0  0  0  0
  -26.3340    0.1440   16.1310 N   0  0  0  0  0
  -27.0500    1.3990   16.7740 S   0  0  0  0  0
  -23.3460    4.2650   14.1450 Cl  0  0  0  0  0
  -27.6940    5.9385   16.0681 H   0  0  0  0  0
  -25.4058    6.2936   15.1051 H   0  0  0  0  0
  -28.2513    3.7818   17.0727 H   0  0  0  0  0
  -23.6589    1.8480   14.5903 H   0  0  0  0  0
  -26.7402   -0.7883   16.2098 H   0  0  0  0  0
 10  1  2  0  0  0
 13  2  2  0  0  0
 13  3  2  0  0  0
  5  4  4  0  0  0
  9  4  4  0  0  0
  6  5  4  0  0  0
  7  6  4  0  0  0
  6 14  1  0  0  0
  7  8  4  0  0  0
 11  7  1  0  0  0
  8  9  4  0  0  0
  8 13  1  0  0  0
 10 11  1  0  0  0
 10 12  1  0  0  0
 12 13  1  0  0  0
  4 15  1  0  0  0
  5 16  1  0  0  0
  9 17  1  0  0  0
 11 18  1  0  0  0
 12 19  1  0  0  0
M  END
$$$$
