1ctu_ligand
  -I-interpret- 

 31 32  0  0  0  0  0  0  0  0999 V2000
   35.1760   48.8550    8.8900 N   0  0  0  0  0
   36.0940   48.2050    8.1940 C   0  0  0  0  0
   37.2580   48.5670    8.2660 O   0  0  0  0  0
   35.7390   47.1540    7.4380 N   0  0  0  0  0
   34.3800   46.6730    7.4230 C   0  0  0  0  0
   33.6480   46.6550    5.9060 O   0  0  0  0  0
   33.4350   47.4890    8.2280 C   0  0  0  0  0
   33.8780   48.5480    8.9090 C   0  0  0  0  0
   35.6250   50.3520    9.3640 C   0  0  0  0  0
   35.6860   51.7990    8.9430 C   0  0  0  0  0
   36.7200   51.9350    7.9190 O   0  0  0  0  0
   36.0410   52.3940   10.2510 C   0  0  0  0  0
   37.4110   52.6530   10.3730 O   0  0  0  0  0
   35.6040   51.3710   11.2880 C   0  0  0  0  0
   35.8610   50.0870   10.7360 O   0  0  0  0  0
   34.2540   51.5510   11.8270 C   0  0  0  0  0
   33.4930   51.9820   10.7060 O   0  0  0  0  0
   36.4424   46.6881    6.8648 H   0  0  0  0  0
   34.5272   45.6700    7.8235 H   0  0  0  0  0
   34.1872   46.1442    5.2978 H   0  0  0  0  0
   32.3786   47.2226    8.2626 H   0  0  0  0  0
   33.1803   49.1609    9.4797 H   0  0  0  0  0
   35.7975   50.7180    8.3519 H   0  0  0  0  0
   34.8025   52.2514    8.4927 H   0  0  0  0  0
   36.7727   52.8517    7.6388 H   0  0  0  0  0
   35.5508   53.3595   10.3754 H   0  0  0  0  0
   37.5875   53.0365   11.2352 H   0  0  0  0  0
   36.1904   51.5106   12.1962 H   0  0  0  0  0
   34.2277   52.2696   12.6462 H   0  0  0  0  0
   33.8591   50.6359   12.2683 H   0  0  0  0  0
   32.5826   52.1253   10.9747 H   0  0  0  0  0
  1  9  1  0  0  0
  1  8  1  0  0  0
  1  2  1  0  0  0
  2  4  1  0  0  0
  2  3  2  0  0  0
  4  5  1  0  0  0
  5  7  1  0  0  0
  5  6  1  0  0  0
  7  8  2  0  0  0
  9 15  1  0  0  0
  9 10  1  0  0  0
 10 12  1  0  0  0
 10 11  1  0  0  0
 12 14  1  0  0  0
 12 13  1  0  0  0
 14 16  1  0  0  0
 14 15  1  0  0  0
 16 17  1  0  0  0
  4 18  1  0  0  0
  5 19  1  0  0  0
  6 20  1  0  0  0
  7 21  1  0  0  0
  8 22  1  0  0  0
  9 23  1  0  0  0
 10 24  1  0  0  0
 11 25  1  0  0  0
 12 26  1  0  0  0
 13 27  1  0  0  0
 14 28  1  0  0  0
 16 29  1  0  0  0
 16 30  1  0  0  0
 17 31  1  0  0  0
M  END
$$$$
