6dgl_ligand
  -I-interpret- 

 52 55  0  0  0  0  0  0  0  0999 V2000
   16.5570   69.7280    8.1880 C   0  0  0  0  0
   16.2710   62.1770    9.8460 C   0  0  0  0  0
   17.4920   61.9380   11.9040 C   0  0  0  0  0
   17.5850   61.8470   13.4180 C   0  0  0  0  0
   17.8280   61.7230   16.1430 C   0  0  0  0  0
   16.7030   62.3160   15.5810 C   0  0  0  0  0
   16.5760   62.3860   14.2060 C   0  0  0  0  0
   18.7450   62.8350   18.1980 C   0  0  0  0  0
   20.2880   64.7730   18.7720 C   0  0  0  0  0
   19.4880   62.7470    9.1710 C   0  0  0  0  0
   18.3240   63.7400    9.1780 C   0  0  0  0  0
   16.9660   63.4980    9.4730 C   0  0  0  0  0
   17.2760   65.6040    8.9940 C   0  0  0  0  0
   17.0240   67.0740    8.7180 C   0  0  0  0  0
   18.0700   67.8700    8.2830 C   0  0  0  0  0
   17.8340   69.2070    8.0230 C   0  0  0  0  0
   15.5100   68.9230    8.6140 C   0  0  0  0  0
   15.7510   67.5900    8.8720 C   0  0  0  0  0
   16.0880   62.0250   11.3460 C   0  0  0  0  0
   18.7150   61.2700   13.9810 C   0  0  0  0  0
   18.8400   61.1960   15.3560 C   0  0  0  0  0
   17.9560   61.6480   17.6550 C   0  0  0  0  0
   18.5790   63.4060   19.4690 C   0  0  0  0  0
   16.3520   64.7150    9.3370 N   0  0  0  0  0
   19.4260   64.4360   19.7390 N   0  0  0  0  0
   18.4300   65.0170    8.8950 O   0  0  0  0  0
   18.2490   60.9630   11.2550 O   0  0  0  0  0
   17.6240   62.9570   20.3730 O   0  0  0  0  0
   21.2310   65.8030   18.8270 O   0  0  0  0  0
   20.0080   63.7280   17.4710 S   0  0  0  0  0
   16.3750   70.7824    7.9803 H   0  0  0  0  0
   16.8967   61.3556    9.4969 H   0  0  0  0  0
   15.2843   62.1717    9.3828 H   0  0  0  0  0
   17.9390   62.9066   11.6800 H   0  0  0  0  0
   15.9228   62.7248   16.2231 H   0  0  0  0  0
   15.7033   62.8539   13.7504 H   0  0  0  0  0
   19.5973   62.3103   10.1637 H   0  0  0  0  0
   19.2868   61.9584    8.4459 H   0  0  0  0  0
   20.4062   63.2674    8.8985 H   0  0  0  0  0
   19.0659   67.4482    8.1474 H   0  0  0  0  0
   18.6479   69.8507    7.6894 H   0  0  0  0  0
   14.5107   69.3387    8.7429 H   0  0  0  0  0
   14.9368   66.9426    9.1977 H   0  0  0  0  0
   15.4989   61.1421   11.5940 H   0  0  0  0  0
   15.5345   62.8615   11.7726 H   0  0  0  0  0
   19.5032   60.8756   13.3396 H   0  0  0  0  0
   19.7156   60.7332   15.8113 H   0  0  0  0  0
   18.4828   60.7300   17.9156 H   0  0  0  0  0
   16.9572   61.6639   18.0911 H   0  0  0  0  0
   19.4052   64.9265   20.6331 H   0  0  0  0  0
   19.1301   60.9378   11.6353 H   0  0  0  0  0
   17.6760   63.4787   21.1772 H   0  0  0  0  0
 16  1  4  0  0  0
  1 17  4  0  0  0
 12  2  1  0  0  0
  2 19  1  0  0  0
  3  4  1  0  0  0
 19  3  1  0  0  0
  3 27  1  0  0  0
  4  7  4  0  0  0
  4 20  4  0  0  0
  6  5  4  0  0  0
  5 21  4  0  0  0
  5 22  1  0  0  0
  7  6  4  0  0  0
 22  8  1  0  0  0
  8 23  2  0  0  0
  8 30  1  0  0  0
  9 25  1  0  0  0
  9 29  2  0  0  0
 30  9  1  0  0  0
 11 10  1  0  0  0
 11 12  4  0  0  0
 26 11  4  0  0  0
 24 12  4  0  0  0
 14 13  1  0  0  0
 13 24  4  0  0  0
 13 26  4  0  0  0
 15 14  4  0  0  0
 14 18  4  0  0  0
 15 16  4  0  0  0
 17 18  4  0  0  0
 20 21  4  0  0  0
 23 25  1  0  0  0
 23 28  1  0  0  0
  1 31  1  0  0  0
  2 32  1  0  0  0
  2 33  1  0  0  0
  3 34  1  0  0  0
  6 35  1  0  0  0
  7 36  1  0  0  0
 10 37  1  0  0  0
 10 38  1  0  0  0
 10 39  1  0  0  0
 15 40  1  0  0  0
 16 41  1  0  0  0
 17 42  1  0  0  0
 18 43  1  0  0  0
 19 44  1  0  0  0
 19 45  1  0  0  0
 20 46  1  0  0  0
 21 47  1  0  0  0
 22 48  1  0  0  0
 22 49  1  0  0  0
 25 50  1  0  0  0
 27 51  1  0  0  0
 28 52  1  0  0  0
M  END
$$$$
