4v25_ligand
  -I-interpret- 

 62 65  0  0  0  0  0  0  0  0999 V2000
   44.0800  -45.5280   -6.1080 C   0  0  0  0  0
   45.0030  -45.0930   -7.2120 C   0  0  0  0  0
   45.9220  -44.1060   -6.9520 C   0  0  0  0  0
   46.7440  -43.7040   -7.8760 N   0  0  0  0  0
   46.6910  -44.2520   -9.0730 C   0  0  0  0  0
   47.7420  -43.7150  -10.2880 Cl  0  0  0  0  0
   45.8110  -45.1990   -9.3580 N   0  0  0  0  0
   44.9590  -45.6600   -8.4610 C   0  0  0  0  0
   44.0610  -46.6510   -8.8200 C   0  0  0  0  0
   43.6670  -47.6510   -7.9660 C   0  0  0  0  0
   42.7690  -48.6250   -8.3640 C   0  0  0  0  0
   43.5430  -46.6470  -10.0860 C   0  0  0  0  0
   42.6530  -47.6190  -10.4800 C   0  0  0  0  0
   42.2400  -48.6070   -9.6240 C   0  0  0  0  0
   41.3990  -49.5260  -10.0480 N   0  0  0  0  0
   40.2050  -49.2140  -10.4940 C   0  0  0  0  0
   39.4270  -50.0210  -10.9310 O   0  0  0  0  0
   39.7790  -47.7830  -10.4220 C   0  0  0  0  0
   39.6780  -47.1510   -9.2070 C   0  0  0  0  0
   39.2700  -45.8400   -9.1480 C   0  0  0  0  0
   38.9520  -45.1810  -10.2920 C   0  0  0  0  0
   38.5690  -43.9220  -10.2560 O   0  0  0  0  0
   39.0450  -45.8030  -11.4910 C   0  0  0  0  0
   39.4360  -47.1080  -11.5480 C   0  0  0  0  0
   39.5260  -47.7280  -12.7100 O   0  0  0  0  0
   41.8360  -50.9030  -10.0100 C   0  0  0  0  0
   42.7970  -51.2510  -11.0990 C   0  0  0  0  0
   44.1360  -51.4200  -10.8550 C   0  0  0  0  0
   44.9940  -51.7340  -11.8800 C   0  0  0  0  0
   42.3100  -51.4290  -12.3560 C   0  0  0  0  0
   43.1570  -51.7510  -13.3730 C   0  0  0  0  0
   44.4920  -51.9210  -13.1390 C   0  0  0  0  0
   45.3760  -52.2540  -14.3080 C   0  0  0  0  0
   45.5960  -53.6750  -14.5230 N   0  0  0  0  0
   46.7560  -54.1900  -14.2090 C   0  0  0  0  0
   47.6510  -53.5660  -13.6900 O   0  0  0  0  0
   46.9740  -55.6340  -14.4590 C   0  0  0  0  0
   45.7840  -56.2700  -14.4660 F   0  0  0  0  0
   47.7460  -56.0870  -13.4330 F   0  0  0  0  0
   44.6683  -45.9097   -5.2735 H   0  0  0  0  0
   43.4860  -44.6765   -5.7761 H   0  0  0  0  0
   43.4188  -46.3122   -6.4768 H   0  0  0  0  0
   45.9628  -43.6548   -5.9606 H   0  0  0  0  0
   44.0700  -47.6781   -6.9536 H   0  0  0  0  0
   42.4812  -49.4126   -7.6676 H   0  0  0  0  0
   43.8379  -45.8673  -10.7883 H   0  0  0  0  0
   42.2662  -47.6033  -11.4989 H   0  0  0  0  0
   39.9212  -47.6885   -8.2905 H   0  0  0  0  0
   39.2019  -45.3310   -8.1865 H   0  0  0  0  0
   38.3857  -43.6188  -11.1482 H   0  0  0  0  0
   38.8082  -45.2625  -12.4074 H   0  0  0  0  0
   39.2532  -47.1320  -13.4114 H   0  0  0  0  0
   40.9542  -51.5310  -10.1371 H   0  0  0  0  0
   42.3460  -51.0596   -9.0595 H   0  0  0  0  0
   44.5212  -51.3044   -9.8419 H   0  0  0  0  0
   46.0632  -51.8332  -11.6928 H   0  0  0  0  0
   41.2435  -51.3142  -12.5495 H   0  0  0  0  0
   42.7659  -51.8742  -14.3829 H   0  0  0  0  0
   46.3506  -51.8110  -14.1032 H   0  0  0  0  0
   44.8775  -51.8732  -15.1994 H   0  0  0  0  0
   44.8573  -54.2607  -14.9125 H   0  0  0  0  0
   47.4578  -55.8126  -15.4193 H   0  0  0  0  0
  1  2  1  0  0  0
  2  3  4  0  0  0
  2  8  4  0  0  0
  3  4  4  0  0  0
  4  5  4  0  0  0
  5  6  1  0  0  0
  5  7  4  0  0  0
  7  8  4  0  0  0
  8  9  1  0  0  0
  9 10  4  0  0  0
  9 12  4  0  0  0
 10 11  4  0  0  0
 11 14  4  0  0  0
 12 13  4  0  0  0
 13 14  4  0  0  0
 14 15  1  0  0  0
 15 16  1  0  0  0
 15 26  1  0  0  0
 16 17  2  0  0  0
 16 18  1  0  0  0
 18 19  4  0  0  0
 18 24  4  0  0  0
 19 20  4  0  0  0
 20 21  4  0  0  0
 21 22  1  0  0  0
 21 23  4  0  0  0
 23 24  4  0  0  0
 24 25  1  0  0  0
 26 27  1  0  0  0
 27 28  4  0  0  0
 27 30  4  0  0  0
 28 29  4  0  0  0
 29 32  4  0  0  0
 30 31  4  0  0  0
 31 32  4  0  0  0
 32 33  1  0  0  0
 33 34  1  0  0  0
 34 35  1  0  0  0
 35 36  2  0  0  0
 35 37  1  0  0  0
 37 38  1  0  0  0
 37 39  1  0  0  0
  1 40  1  0  0  0
  1 41  1  0  0  0
  1 42  1  0  0  0
  3 43  1  0  0  0
 10 44  1  0  0  0
 11 45  1  0  0  0
 12 46  1  0  0  0
 13 47  1  0  0  0
 19 48  1  0  0  0
 20 49  1  0  0  0
 22 50  1  0  0  0
 23 51  1  0  0  0
 25 52  1  0  0  0
 26 53  1  0  0  0
 26 54  1  0  0  0
 28 55  1  0  0  0
 29 56  1  0  0  0
 30 57  1  0  0  0
 31 58  1  0  0  0
 33 59  1  0  0  0
 33 60  1  0  0  0
 34 61  1  0  0  0
 37 62  1  0  0  0
M  END
$$$$
