4y87_ligand
  -I-interpret- 

 45 48  0  0  0  0  0  0  0  0999 V2000
   82.6280   51.1320   39.5640 C   0  0  0  0  0
   82.0420   52.0860   40.5540 C   0  0  0  0  0
   80.7520   50.0500   40.3120 C   0  0  0  0  0
   80.6540   51.5070   40.8130 C   0  0  0  0  0
   80.2650   51.6350   42.2670 N   0  0  0  0  0
   79.2190   52.3230   42.7130 C   0  0  0  0  0
   78.2860   53.0200   42.0620 N   0  0  0  0  0
   80.8630   51.1510   43.2180 N   0  0  0  0  0
   80.2560   51.4790   44.3520 C   0  0  0  0  0
   79.2030   52.2290   44.0440 C   0  0  0  0  0
   78.2470   52.8270   44.7860 C   0  0  0  0  0
   78.2180   52.7460   46.0230 O   0  0  0  0  0
   77.2610   53.5610   44.1200 N   0  0  0  0  0
   77.3070   53.6470   42.7310 C   0  0  0  0  0
   76.3890   54.3560   42.0850 N   0  0  0  0  0
   76.5270   54.6840   40.6490 C   0  0  0  0  0
   76.0080   56.0940   40.3750 C   0  0  0  0  0
   75.8170   53.7040   39.9420 C   0  0  0  0  0
   74.4500   53.5390   40.1870 C   0  0  0  0  0
   73.7390   52.5560   39.5190 C   0  0  0  0  0
   74.4040   51.7320   38.6150 C   0  0  0  0  0
   75.7700   51.8720   38.3570 C   0  0  0  0  0
   76.4780   52.8620   39.0300 C   0  0  0  0  0
   82.2190   49.8170   40.1630 C   0  0  0  0  0
   73.5250   50.5560   37.8290 Cl  0  0  0  0  0
   83.7040   51.2408   39.4279 H   0  0  0  0  0
   82.2763   51.2819   38.5433 H   0  0  0  0  0
   82.0087   53.1105   40.1832 H   0  0  0  0  0
   82.6393   52.1709   41.4618 H   0  0  0  0  0
   80.2125   49.8974   39.3773 H   0  0  0  0  0
   80.2896   49.3440   41.0018 H   0  0  0  0  0
   79.8586   52.0402   40.2924 H   0  0  0  0  0
   78.3176   53.0767   41.0441 H   0  0  0  0  0
   80.5655   51.1860   45.3552 H   0  0  0  0  0
   75.5668   54.6832   42.5922 H   0  0  0  0  0
   77.5695   54.6815   40.3308 H   0  0  0  0  0
   74.9562   56.1533   40.6547 H   0  0  0  0  0
   76.5822   56.8114   40.9612 H   0  0  0  0  0
   76.1165   56.3200   39.3142 H   0  0  0  0  0
   73.9436   54.1847   40.9044 H   0  0  0  0  0
   72.6715   52.4290   39.6989 H   0  0  0  0  0
   76.2707   51.2185   37.6427 H   0  0  0  0  0
   77.5460   52.9854   38.8504 H   0  0  0  0  0
   82.7328   49.5635   41.0903 H   0  0  0  0  0
   82.4795   48.9460   39.5617 H   0  0  0  0  0
  1  2  1  0  0  0
  1 24  1  0  0  0
  2  4  1  0  0  0
  4  3  1  0  0  0
  3 24  1  0  0  0
  4  5  1  0  0  0
  5  6  4  0  0  0
  5  8  4  0  0  0
  6  7  1  0  0  0
  6 10  4  0  0  0
  7 14  1  0  0  0
  8  9  4  0  0  0
  9 10  4  0  0  0
 10 11  1  0  0  0
 11 12  2  0  0  0
 11 13  1  0  0  0
 13 14  4  0  0  0
 14 15  1  0  0  0
 15 16  1  0  0  0
 16 17  1  0  0  0
 16 18  1  0  0  0
 18 19  4  0  0  0
 18 23  4  0  0  0
 19 20  4  0  0  0
 20 21  4  0  0  0
 21 22  4  0  0  0
 21 25  1  0  0  0
 22 23  4  0  0  0
  1 26  1  0  0  0
  1 27  1  0  0  0
  2 28  1  0  0  0
  2 29  1  0  0  0
  3 30  1  0  0  0
  3 31  1  0  0  0
  4 32  1  0  0  0
  7 33  1  0  0  0
  9 34  1  0  0  0
 15 35  1  0  0  0
 16 36  1  0  0  0
 17 37  1  0  0  0
 17 38  1  0  0  0
 17 39  1  0  0  0
 19 40  1  0  0  0
 20 41  1  0  0  0
 22 42  1  0  0  0
 23 43  1  0  0  0
 24 44  1  0  0  0
 24 45  1  0  0  0
M  END
$$$$
