### 
### Created by X-TOOL on Mon Sep 10 21:13:09 2018
### 

@<TRIPOS>MOLECULE
3v2x_ligand
  187   189     1     0     0
SMALL
GAST_HUCK


@<TRIPOS>ATOM
      1 N          -5.6400   -5.6870  -21.5470 N.4       1 LEU         0.2379
      2 CA         -4.2260   -5.2580  -21.2830 C.3       1 LEU         0.0652
      3 C          -4.0810   -3.8750  -20.6240 C.2       1 LEU         0.2267
      4 O          -2.9610   -3.4580  -20.3090 O.2       1 LEU        -0.3907
      5 CB         -3.3800   -5.3310  -22.5580 C.3       1 LEU         0.0102
      6 CG         -3.2490   -6.6870  -23.2580 C.3       1 LEU        -0.0394
      7 CD1        -2.2990   -6.5800  -24.4470 C.3       1 LEU        -0.0623
      8 CD2        -2.7920   -7.7890  -22.3100 C.3       1 LEU        -0.0623
      9 N          -5.1970   -3.1670  -20.4300 N.am      1 LEU        -0.2610
     10 CA         -5.2070   -1.9240  -19.6440 C.3       1 LEU         0.1315
     11 C          -5.1920   -2.2810  -18.1630 C.2       1 LEU         0.2064
     12 O          -5.6840   -3.3450  -17.7820 O.2       1 LEU        -0.3942
     13 CB         -6.4470   -1.0680  -19.9470 C.3       1 LEU        -0.0101
     14 CG         -6.6030   -0.3420  -21.2890 C.3       1 LEU        -0.0425
     15 CD1        -8.0110    0.2560  -21.3770 C.3       1 LEU        -0.0625
     16 CD2        -5.5410    0.7560  -21.4780 C.3       1 LEU        -0.0625
     17 N          -4.6370   -1.3880  -17.3150 N.am      1 PRO        -0.2498
     18 CA         -4.5890   -1.6900  -15.8910 C.3       1 PRO         0.1338
     19 C          -5.9740   -1.9870  -15.3360 C.2       1 PRO         0.2042
     20 O          -6.9370   -1.2740  -15.6320 O.2       1 PRO        -0.3944
     21 CB         -4.0390   -0.4010  -15.2690 C.3       1 PRO        -0.0104
     22 CG         -4.2520    0.6500  -16.2960 C.3       1 PRO        -0.0281
     23 CD         -4.1140   -0.0420  -17.6050 C.3       1 PRO         0.0369
     24 N          -6.0500   -3.0450  -14.5390 N.am      1 THR        -0.2613
     25 CA         -7.2890   -3.4590  -13.8970 C.3       1 THR         0.1565
     26 C          -7.5850   -2.5710  -12.6840 C.2       1 THR         0.2065
     27 O          -6.6740   -1.9630  -12.1200 O.2       1 THR        -0.3943
     28 CB         -7.1880   -4.9190  -13.4240 C.3       1 THR         0.0924
     29 OG1        -5.9700   -5.0730  -12.6780 O.3       1 THR        -0.3874
     30 CG2        -7.1720   -5.8760  -14.6180 C.3       1 THR        -0.0346
     31 N          -8.8620   -2.5010  -12.3090 N.am      1 LEU        -0.2636
     32 CA         -9.3100   -1.8230  -11.0850 C.3       1 LEU         0.1314
     33 C          -8.5090   -2.3110   -9.8660 C.2       1 LEU         0.2064
     34 O          -8.3150   -3.5230   -9.6920 O.2       1 LEU        -0.3942
     35 CB        -10.8040   -2.1190  -10.8760 C.3       1 LEU        -0.0101
     36 CG        -11.6530   -1.4630   -9.7850 C.3       1 LEU        -0.0425
     37 CD1       -11.8080    0.0530  -10.0050 C.3       1 LEU        -0.0625
     38 CD2       -13.0180   -2.1530   -9.7330 C.3       1 LEU        -0.0625
     39 N          -8.0300   -1.3770   -9.0220 N.am      1 PRO        -0.2498
     40 CA         -7.3420   -1.8490   -7.8230 C.3       1 PRO         0.1338
     41 C          -8.2770   -2.7250   -7.0020 C.2       1 PRO         0.2041
     42 O          -9.4680   -2.4290   -6.8700 O.2       1 PRO        -0.3944
     43 CB         -7.0120   -0.5550   -7.0680 C.3       1 PRO        -0.0104
     44 CG         -6.9170    0.4800   -8.1310 C.3       1 PRO        -0.0281
     45 CD         -8.0070    0.0920   -9.1200 C.3       1 PRO         0.0369
     46 N          -7.7400   -3.8180   -6.4780 N.am      1 LYS        -0.2637
     47 CA         -8.5250   -4.7370   -5.6690 C.3       1 LYS         0.1310
     48 C          -7.6290   -5.3270   -4.5950 C.2       1 LYS         0.2039
     49 O          -6.5450   -5.8270   -4.8870 O.2       1 LYS        -0.3944
     50 CB         -9.1280   -5.8630   -6.5260 C.3       1 LYS        -0.0122
     51 CG        -10.2300   -6.6550   -5.8190 C.3       1 LYS        -0.0440
     52 CD        -10.8710   -7.7120   -6.7210 C.3       1 LYS        -0.0124
     53 CE        -12.1810   -8.2130   -6.1070 C.3       1 LYS        -0.0354
     54 NZ        -13.0620   -8.9390   -7.0850 N.4       1 LYS         0.2185
     55 N          -8.0650   -5.2390   -3.3480 N.am      1 LEU        -0.2637
     56 CA         -7.3720   -5.9660   -2.2880 C.3       1 LEU         0.1314
     57 C          -7.8160   -7.4260   -2.3250 C.2       1 LEU         0.2064
     58 O          -9.0010   -7.7080   -2.5390 O.2       1 LEU        -0.3942
     59 CB         -7.6390   -5.3420   -0.9220 C.3       1 LEU        -0.0101
     60 CG         -6.9570   -3.9990   -0.6580 C.3       1 LEU        -0.0425
     61 CD1        -7.5250   -3.3840    0.6140 C.3       1 LEU        -0.0625
     62 CD2        -5.4490   -4.1620   -0.5750 C.3       1 LEU        -0.0625
     63 N          -6.8660   -8.3550   -2.1070 N.am      1 PRO        -0.2498
     64 CA         -7.1730   -9.7870   -2.1180 C.3       1 PRO         0.1338
     65 C          -7.8940  -10.2100   -0.8560 C.2       1 PRO         0.2042
     66 O          -7.7500   -9.5610    0.1810 O.2       1 PRO        -0.3944
     67 CB         -5.7900  -10.4420   -2.1490 C.3       1 PRO        -0.0104
     68 CG         -4.8840   -9.4300   -1.4420 C.3       1 PRO        -0.0281
     69 CD         -5.4280   -8.0910   -1.8830 C.3       1 PRO         0.0369
     70 N          -8.6450  -11.3010   -0.9340 N.am      1 SER        -0.2616
     71 CA         -9.2540  -11.8850    0.2580 C.3       1 SER         0.1539
     72 C          -8.1710  -12.4250    1.1640 C.2       1 SER         0.2056
     73 O          -7.1110  -12.8490    0.6920 O.2       1 SER        -0.3943
     74 CB        -10.2150  -13.0190   -0.0960 C.3       1 SER         0.0843
     75 OG        -11.4220  -12.4990   -0.6150 O.3       1 SER        -0.3903
     76 N          -8.4520  -12.4240    2.4660 N.am      1 LEU        -0.2694
     77 CA         -7.4810  -12.8810    3.4600 C.3       1 LEU         0.0946
     78 C          -7.8840  -14.2020    4.0920 C.2       1 LEU         0.0601
     79 O          -9.0190  -14.6690    3.9550 O.co2     1 LEU        -0.5666
     80 CB         -7.2780  -11.8120    4.5420 C.3       1 LEU        -0.0156
     81 CG         -6.6170  -10.5110    4.0760 C.3       1 LEU        -0.0431
     82 CD1        -6.7050   -9.4770    5.1700 C.3       1 LEU        -0.0625
     83 CD2        -5.1780  -10.7300    3.6790 C.3       1 LEU        -0.0625
     84 OXT        -7.0670  -14.8260    4.7600 O.co2     1 LEU        -0.5666
     85 H1         -5.6398   -6.5986  -21.9772 H         1 LEU         0.2015
     86 H2         -6.0825   -5.0243  -22.1643 H         1 LEU         0.2015
     87 H3         -6.1473   -5.7263  -20.6768 H         1 LEU         0.2015
     88 H4         -3.8089   -5.9873  -20.5730 H         1 LEU         0.1098
     89 H5         -2.3646   -4.9988  -22.2962 H         1 LEU         0.0348
     90 H6         -3.8197   -4.6300  -23.2828 H         1 LEU         0.0348
     91 H7         -4.2431   -6.9645  -23.6385 H         1 LEU         0.0299
     92 H8         -2.2153   -7.5604  -24.9388 H         1 LEU         0.0232
     93 H9         -1.3068   -6.2600  -24.0960 H         1 LEU         0.0232
     94 H10        -2.6899   -5.8426  -25.1635 H         1 LEU         0.0232
     95 H11        -3.4869   -7.8526  -21.4596 H         1 LEU         0.0232
     96 H12        -1.7813   -7.5597  -21.9413 H         1 LEU         0.0232
     97 H13        -2.7780   -8.7502  -22.8447 H         1 LEU         0.0232
     98 H14        -6.0528   -3.4925  -20.8320 H         1 LEU         0.1884
     99 H15        -4.3065   -1.3413  -19.8881 H         1 LEU         0.0800
    100 H16        -6.4894   -0.2936  -19.1669 H         1 LEU         0.0315
    101 H17        -7.3169   -1.7342  -19.8501 H         1 LEU         0.0315
    102 H18        -6.4816   -1.0781  -22.0974 H         1 LEU         0.0298
    103 H19        -8.1282    0.7781  -22.3381 H         1 LEU         0.0232
    104 H20        -8.1589    0.9686  -20.5522 H         1 LEU         0.0232
    105 H21        -8.7567   -0.5494  -21.3040 H         1 LEU         0.0232
    106 H22        -4.5374    0.3106  -21.4121 H         1 LEU         0.0232
    107 H23        -5.6566    1.5171  -20.6923 H         1 LEU         0.0232
    108 H24        -5.6699    1.2249  -22.4646 H         1 LEU         0.0232
    109 H25        -3.9222   -2.5423  -15.6936 H         1 PRO         0.0802
    110 H26        -2.9677   -0.5083  -15.0436 H         1 PRO         0.0313
    111 H27        -4.5849   -0.1547  -14.3464 H         1 PRO         0.0313
    112 H28        -3.4954    1.4424  -16.1982 H         1 PRO         0.0287
    113 H29        -5.2563    1.0875  -16.1962 H         1 PRO         0.0287
    114 H30        -4.7112    0.4568  -18.3825 H         1 PRO         0.0524
    115 H31        -3.0616   -0.0850  -17.9221 H         1 PRO         0.0524
    116 H32        -5.2218   -3.5801  -14.3725 H         1 THR         0.1884
    117 H33        -8.1121   -3.3692  -14.6212 H         1 THR         0.0826
    118 H34        -8.0489   -5.1553  -12.7814 H         1 THR         0.0639
    119 H35        -5.8945   -5.9716  -12.3792 H         1 THR         0.2101
    120 H36        -7.0994   -6.9123  -14.2563 H         1 THR         0.0257
    121 H37        -6.3064   -5.6496  -15.2579 H         1 THR         0.0257
    122 H38        -8.0986   -5.7542  -15.1980 H         1 THR         0.0257
    123 H39        -9.5512   -2.9325  -12.8911 H         1 LEU         0.1883
    124 H40        -9.1645   -0.7386  -11.1983 H         1 LEU         0.0800
    125 H41       -10.8734   -3.2025  -10.6993 H         1 LEU         0.0315
    126 H42       -11.2952   -1.8706  -11.8284 H         1 LEU         0.0315
    127 H43       -11.1493   -1.6140   -8.8189 H         1 LEU         0.0298
    128 H44       -12.4236    0.4794   -9.1992 H         1 LEU         0.0232
    129 H45       -12.2955    0.2349  -10.9741 H         1 LEU         0.0232
    130 H46       -10.8158    0.5278   -9.9987 H         1 LEU         0.0232
    131 H47       -12.8774   -3.2325   -9.5753 H         1 LEU         0.0232
    132 H48       -13.5491   -1.9872  -10.6819 H         1 LEU         0.0232
    133 H49       -13.6087   -1.7353   -8.9044 H         1 LEU         0.0232
    134 H50        -6.4288   -2.4072   -8.0767 H         1 PRO         0.0802
    135 H51        -6.0566   -0.6504   -6.5313 H         1 PRO         0.0313
    136 H52        -7.8107   -0.3068   -6.3535 H         1 PRO         0.0313
    137 H53        -5.9275    0.4580   -8.6110 H         1 PRO         0.0287
    138 H54        -7.1022    1.4827   -7.7183 H         1 PRO         0.0287
    139 H55        -8.9765    0.5235   -8.8303 H         1 PRO         0.0524
    140 H56        -7.7509    0.4170  -10.1392 H         1 PRO         0.0524
    141 H57        -6.7735   -4.0150   -6.6427 H         1 LYS         0.1883
    142 H58        -9.3448   -4.1806   -5.1910 H         1 LYS         0.0800
    143 H59        -8.3220   -6.5595   -6.8004 H         1 LYS         0.0312
    144 H60        -9.5524   -5.4160   -7.4371 H         1 LYS         0.0312
    145 H61       -11.0108   -5.9538   -5.4894 H         1 LYS         0.0269
    146 H62        -9.7948   -7.1577   -4.9427 H         1 LYS         0.0269
    147 H63       -10.1780   -8.5583   -6.8370 H         1 LYS         0.0317
    148 H64       -11.0783   -7.2701   -7.7067 H         1 LYS         0.0317
    149 H65       -12.7353   -7.3475   -5.7149 H         1 LYS         0.0813
    150 H66       -11.9390   -8.8982   -5.2812 H         1 LYS         0.0813
    151 H67       -13.9035   -9.2409   -6.6193 H         1 LYS         0.1994
    152 H68       -12.5718   -9.7420   -7.4470 H         1 LYS         0.1994
    153 H69       -13.3015   -8.3210   -7.8444 H         1 LYS         0.1994
    154 H70        -8.8644   -4.6778   -3.1332 H         1 LEU         0.1883
    155 H71        -6.2898   -5.9217   -2.4798 H         1 LEU         0.0800
    156 H72        -7.2959   -6.0512   -0.1543 H         1 LEU         0.0315
    157 H73        -8.7246   -5.1937   -0.8253 H         1 LEU         0.0315
    158 H74        -7.1803   -3.3244   -1.4977 H         1 LEU         0.0298
    159 H75        -7.0349   -2.4178    0.8046 H         1 LEU         0.0232
    160 H76        -7.3429   -4.0610    1.4616 H         1 LEU         0.0232
    161 H77        -8.6074   -3.2288    0.4946 H         1 LEU         0.0232
    162 H78        -5.0764   -4.6078   -1.5091 H         1 LEU         0.0232
    163 H79        -5.1972   -4.8188    0.2706 H         1 LEU         0.0232
    164 H80        -4.9814   -3.1775   -0.4266 H         1 LEU         0.0232
    165 H81        -7.7702  -10.0581   -3.0011 H         1 PRO         0.0802
    166 H82        -5.4585  -10.6064   -3.1849 H         1 PRO         0.0313
    167 H83        -5.7996  -11.4011   -1.6104 H         1 PRO         0.0313
    168 H84        -3.8378   -9.5518   -1.7592 H         1 PRO         0.0287
    169 H85        -4.9511   -9.5398   -0.3496 H         1 PRO         0.0287
    170 H86        -5.2856   -7.3322   -1.0995 H         1 PRO         0.0524
    171 H87        -4.9412   -7.7559   -2.8108 H         1 PRO         0.0524
    172 H88        -8.7966  -11.7307   -1.8242 H         1 SER         0.1884
    173 H89        -9.8126  -11.1001    0.7888 H         1 SER         0.0823
    174 H90       -10.4326  -13.6052    0.8089 H         1 SER         0.0606
    175 H91        -9.7466  -13.6687   -0.8500 H         1 SER         0.0606
    176 H92       -12.0077  -13.2154   -0.8298 H         1 SER         0.2097
    177 H93        -9.3485  -12.1030    2.7714 H         1 LEU         0.1875
    178 H94        -6.5208  -13.0339    2.9455 H         1 LEU         0.0726
    179 H95        -6.6482  -12.2466    5.3323 H         1 LEU         0.0308
    180 H96        -8.2650  -11.5596    4.9569 H         1 LEU         0.0308
    181 H97        -7.1641  -10.1399    3.1968 H         1 LEU         0.0297
    182 H98        -6.2296   -8.5444    4.8321 H         1 LEU         0.0232
    183 H99        -6.1882   -9.8478    6.0674 H         1 LEU         0.0232
    184 H100       -7.7614   -9.2845    5.4085 H         1 LEU         0.0232
    185 H101       -5.1287  -11.4857    2.8812 H         1 LEU         0.0232
    186 H102       -4.6062  -11.0798    4.5511 H         1 LEU         0.0232
    187 H103       -4.7500   -9.7843    3.3151 H         1 LEU         0.0232
@<TRIPOS>BOND
     1    1    2 1  
     2    2    3 1  
     3    2    5 1  
     4    3    4 2  
     5    3    9 am 
     6    5    6 1  
     7    6    7 1  
     8    6    8 1  
     9    9   10 1  
    10   10   11 1  
    11   10   13 1  
    12   11   12 2  
    13   11   17 am 
    14   13   14 1  
    15   14   15 1  
    16   14   16 1  
    17   17   18 1  
    18   17   23 1  
    19   18   19 1  
    20   18   21 1  
    21   19   20 2  
    22   19   24 am 
    23   21   22 1  
    24   22   23 1  
    25   24   25 1  
    26   25   26 1  
    27   25   28 1  
    28   26   27 2  
    29   26   31 am 
    30   28   29 1  
    31   28   30 1  
    32   31   32 1  
    33   32   33 1  
    34   32   35 1  
    35   33   34 2  
    36   33   39 am 
    37   35   36 1  
    38   36   37 1  
    39   36   38 1  
    40   39   40 1  
    41   39   45 1  
    42   40   41 1  
    43   40   43 1  
    44   41   42 2  
    45   41   46 am 
    46   43   44 1  
    47   44   45 1  
    48   46   47 1  
    49   47   48 1  
    50   47   50 1  
    51   48   49 2  
    52   48   55 am 
    53   50   51 1  
    54   51   52 1  
    55   52   53 1  
    56   53   54 1  
    57   55   56 1  
    58   56   57 1  
    59   56   59 1  
    60   57   58 2  
    61   57   63 am 
    62   59   60 1  
    63   60   61 1  
    64   60   62 1  
    65   63   64 1  
    66   63   69 1  
    67   64   65 1  
    68   64   67 1  
    69   65   66 2  
    70   65   70 am 
    71   67   68 1  
    72   68   69 1  
    73   70   71 1  
    74   71   72 1  
    75   71   74 1  
    76   72   73 2  
    77   72   76 am 
    78   74   75 1  
    79   76   77 1  
    80   77   78 1  
    81   77   80 1  
    82   78   79 ar 
    83   78   84 ar 
    84   80   81 1  
    85   81   82 1  
    86   81   83 1  
    87    1   85 1  
    88    1   86 1  
    89    1   87 1  
    90    2   88 1  
    91    5   89 1  
    92    5   90 1  
    93    6   91 1  
    94    7   92 1  
    95    7   93 1  
    96    7   94 1  
    97    8   95 1  
    98    8   96 1  
    99    8   97 1  
   100    9   98 1  
   101   10   99 1  
   102   13  100 1  
   103   13  101 1  
   104   14  102 1  
   105   15  103 1  
   106   15  104 1  
   107   15  105 1  
   108   16  106 1  
   109   16  107 1  
   110   16  108 1  
   111   18  109 1  
   112   21  110 1  
   113   21  111 1  
   114   22  112 1  
   115   22  113 1  
   116   23  114 1  
   117   23  115 1  
   118   24  116 1  
   119   25  117 1  
   120   28  118 1  
   121   29  119 1  
   122   30  120 1  
   123   30  121 1  
   124   30  122 1  
   125   31  123 1  
   126   32  124 1  
   127   35  125 1  
   128   35  126 1  
   129   36  127 1  
   130   37  128 1  
   131   37  129 1  
   132   37  130 1  
   133   38  131 1  
   134   38  132 1  
   135   38  133 1  
   136   40  134 1  
   137   43  135 1  
   138   43  136 1  
   139   44  137 1  
   140   44  138 1  
   141   45  139 1  
   142   45  140 1  
   143   46  141 1  
   144   47  142 1  
   145   50  143 1  
   146   50  144 1  
   147   51  145 1  
   148   51  146 1  
   149   52  147 1  
   150   52  148 1  
   151   53  149 1  
   152   53  150 1  
   153   54  151 1  
   154   54  152 1  
   155   54  153 1  
   156   55  154 1  
   157   56  155 1  
   158   59  156 1  
   159   59  157 1  
   160   60  158 1  
   161   61  159 1  
   162   61  160 1  
   163   61  161 1  
   164   62  162 1  
   165   62  163 1  
   166   62  164 1  
   167   64  165 1  
   168   67  166 1  
   169   67  167 1  
   170   68  168 1  
   171   68  169 1  
   172   69  170 1  
   173   69  171 1  
   174   70  172 1  
   175   71  173 1  
   176   74  174 1  
   177   74  175 1  
   178   75  176 1  
   179   76  177 1  
   180   77  178 1  
   181   80  179 1  
   182   80  180 1  
   183   81  181 1  
   184   82  182 1  
   185   82  183 1  
   186   82  184 1  
   187   83  185 1  
   188   83  186 1  
   189   83  187 1  
@<TRIPOS>SUBSTRUCTURE
     1 LEU         1

