3v2x_ligand
  -I-interpret- 

188190  0  0  0  0  0  0  0  0999 V2000
   -5.6400   -5.6870  -21.5470 N   0  3  0  0  0
   -4.2260   -5.2580  -21.2830 C   0  0  0  0  0
   -4.0810   -3.8750  -20.6240 C   0  0  0  0  0
   -2.9610   -3.4580  -20.3090 O   0  0  0  0  0
   -3.3800   -5.3310  -22.5580 C   0  0  0  0  0
   -3.2490   -6.6870  -23.2580 C   0  0  0  0  0
   -2.2990   -6.5800  -24.4470 C   0  0  0  0  0
   -2.7920   -7.7890  -22.3100 C   0  0  0  0  0
   -5.1970   -3.1670  -20.4300 N   0  0  0  0  0
   -5.2070   -1.9240  -19.6440 C   0  0  0  0  0
   -5.1920   -2.2810  -18.1630 C   0  0  0  0  0
   -5.6840   -3.3450  -17.7820 O   0  0  0  0  0
   -6.4470   -1.0680  -19.9470 C   0  0  0  0  0
   -6.6030   -0.3420  -21.2890 C   0  0  0  0  0
   -8.0110    0.2560  -21.3770 C   0  0  0  0  0
   -5.5410    0.7560  -21.4780 C   0  0  0  0  0
   -4.6370   -1.3880  -17.3150 N   0  0  0  0  0
   -4.5890   -1.6900  -15.8910 C   0  0  0  0  0
   -5.9740   -1.9870  -15.3360 C   0  0  0  0  0
   -6.9370   -1.2740  -15.6320 O   0  0  0  0  0
   -4.0390   -0.4010  -15.2690 C   0  0  0  0  0
   -4.2520    0.6500  -16.2960 C   0  0  0  0  0
   -4.1140   -0.0420  -17.6050 C   0  0  0  0  0
   -6.0500   -3.0450  -14.5390 N   0  0  0  0  0
   -7.2890   -3.4590  -13.8970 C   0  0  0  0  0
   -7.5850   -2.5710  -12.6840 C   0  0  0  0  0
   -6.6740   -1.9630  -12.1200 O   0  0  0  0  0
   -7.1880   -4.9190  -13.4240 C   0  0  0  0  0
   -5.9700   -5.0730  -12.6780 O   0  0  0  0  0
   -7.1720   -5.8760  -14.6180 C   0  0  0  0  0
   -8.8620   -2.5010  -12.3090 N   0  0  0  0  0
   -9.3100   -1.8230  -11.0850 C   0  0  0  0  0
   -8.5090   -2.3110   -9.8660 C   0  0  0  0  0
   -8.3150   -3.5230   -9.6920 O   0  0  0  0  0
  -10.8040   -2.1190  -10.8760 C   0  0  0  0  0
  -11.6530   -1.4630   -9.7850 C   0  0  0  0  0
  -11.8080    0.0530  -10.0050 C   0  0  0  0  0
  -13.0180   -2.1530   -9.7330 C   0  0  0  0  0
   -8.0300   -1.3770   -9.0220 N   0  0  0  0  0
   -7.3420   -1.8490   -7.8230 C   0  0  0  0  0
   -8.2770   -2.7250   -7.0020 C   0  0  0  0  0
   -9.4680   -2.4290   -6.8700 O   0  0  0  0  0
   -7.0120   -0.5550   -7.0680 C   0  0  0  0  0
   -6.9170    0.4800   -8.1310 C   0  0  0  0  0
   -8.0070    0.0920   -9.1200 C   0  0  0  0  0
   -7.7400   -3.8180   -6.4780 N   0  0  0  0  0
   -8.5250   -4.7370   -5.6690 C   0  0  0  0  0
   -7.6290   -5.3270   -4.5950 C   0  0  0  0  0
   -6.5450   -5.8270   -4.8870 O   0  0  0  0  0
   -9.1280   -5.8630   -6.5260 C   0  0  0  0  0
  -10.2300   -6.6550   -5.8190 C   0  0  0  0  0
  -10.8710   -7.7120   -6.7210 C   0  0  0  0  0
  -12.1810   -8.2130   -6.1070 C   0  0  0  0  0
  -13.0620   -8.9390   -7.0850 N   0  3  0  0  0
   -8.0650   -5.2390   -3.3480 N   0  0  0  0  0
   -7.3720   -5.9660   -2.2880 C   0  0  0  0  0
   -7.8160   -7.4260   -2.3250 C   0  0  0  0  0
   -9.0010   -7.7080   -2.5390 O   0  0  0  0  0
   -7.6390   -5.3420   -0.9220 C   0  0  0  0  0
   -6.9570   -3.9990   -0.6580 C   0  0  0  0  0
   -7.5250   -3.3840    0.6140 C   0  0  0  0  0
   -5.4490   -4.1620   -0.5750 C   0  0  0  0  0
   -6.8660   -8.3550   -2.1070 N   0  0  0  0  0
   -7.1730   -9.7870   -2.1180 C   0  0  0  0  0
   -7.8940  -10.2100   -0.8560 C   0  0  0  0  0
   -7.7500   -9.5610    0.1810 O   0  0  0  0  0
   -5.7900  -10.4420   -2.1490 C   0  0  0  0  0
   -4.8840   -9.4300   -1.4420 C   0  0  0  0  0
   -5.4280   -8.0910   -1.8830 C   0  0  0  0  0
   -8.6450  -11.3010   -0.9340 N   0  0  0  0  0
   -9.2540  -11.8850    0.2580 C   0  0  0  0  0
   -8.1710  -12.4250    1.1640 C   0  0  0  0  0
   -7.1110  -12.8490    0.6920 O   0  0  0  0  0
  -10.2150  -13.0190   -0.0960 C   0  0  0  0  0
  -11.4220  -12.4990   -0.6150 O   0  0  0  0  0
   -8.4520  -12.4240    2.4660 N   0  0  0  0  0
   -7.4810  -12.8810    3.4600 C   0  0  0  0  0
   -7.8840  -14.2020    4.0920 C   0  0  0  0  0
   -9.0190  -14.6690    3.9550 O   0  0  0  0  0
   -7.2780  -11.8120    4.5420 C   0  0  0  0  0
   -6.6170  -10.5110    4.0760 C   0  0  0  0  0
   -6.7050   -9.4770    5.1700 C   0  0  0  0  0
   -5.1780  -10.7300    3.6790 C   0  0  0  0  0
   -7.0670  -14.8260    4.7600 O   0  0  0  0  0
   -6.1787   -5.6285  -20.6829 H   0  0  0  0  0
   -6.0543   -5.0745  -22.2495 H   0  0  0  0  0
   -5.6444   -6.6485  -21.8874 H   0  0  0  0  0
   -3.8524   -5.9727  -20.5497 H   0  0  0  0  0
   -2.3687   -5.0663  -22.2493 H   0  0  0  0  0
   -3.8826   -4.6827  -23.2758 H   0  0  0  0  0
   -4.2418   -6.9625  -23.6136 H   0  0  0  0  0
   -1.2959   -6.3478  -24.0892 H   0  0  0  0  0
   -2.2839   -7.5280  -24.9848 H   0  0  0  0  0
   -2.6408   -5.7881  -25.1134 H   0  0  0  0  0
   -2.7785   -8.7408  -22.8410 H   0  0  0  0  0
   -1.7905   -7.5607  -21.9454 H   0  0  0  0  0
   -3.4813   -7.8510  -21.4679 H   0  0  0  0  0
   -6.0700   -3.4990  -20.8400 H   0  0  0  0  0
   -4.3258   -1.3412  -19.9122 H   0  0  0  0  0
   -6.3938   -0.2608  -19.2164 H   0  0  0  0  0
   -7.2688   -1.7840  -19.9387 H   0  0  0  0  0
   -6.4565   -1.0677  -22.0890 H   0  0  0  0  0
   -8.7489   -0.5430  -21.3045 H   0  0  0  0  0
   -8.1563    0.9619  -20.5592 H   0  0  0  0  0
   -8.1259    0.7730  -22.3297 H   0  0  0  0  0
   -5.6350    1.4919  -20.6794 H   0  0  0  0  0
   -4.5477    0.3083  -21.4462 H   0  0  0  0  0
   -5.6909    1.2426  -22.4418 H   0  0  0  0  0
   -3.9847   -2.5715  -15.6768 H   0  0  0  0  0
   -2.9855   -0.4991  -15.0072 H   0  0  0  0  0
   -4.5452   -0.1581  -14.3347 H   0  0  0  0  0
   -3.5306    1.4607  -16.1942 H   0  0  0  0  0
   -5.2309    1.1180  -16.1923 H   0  0  0  0  0
   -4.6514    0.4591  -18.4101 H   0  0  0  0  0
   -3.0884   -0.0542  -17.9740 H   0  0  0  0  0
   -5.2052   -3.5908  -14.3691 H   0  0  0  0  0
   -8.0923   -3.3643  -14.6276 H   0  0  0  0  0
   -8.0527   -5.1554  -12.8038 H   0  0  0  0  0
   -5.8937   -5.9811  -12.3760 H   0  0  0  0  0
   -8.0906   -5.7543  -15.1919 H   0  0  0  0  0
   -6.3139   -5.6506  -15.2512 H   0  0  0  0  0
   -7.1001   -6.9024  -14.2584 H   0  0  0  0  0
   -9.5650   -2.9411  -12.9027 H   0  0  0  0  0
   -9.1486   -0.7502  -11.1904 H   0  0  0  0  0
  -10.8057   -3.1699  -10.5866 H   0  0  0  0  0
  -11.2569   -1.7453  -11.7943 H   0  0  0  0  0
  -11.1438   -1.5852   -8.8290 H   0  0  0  0  0
  -10.8242    0.5222   -9.9986 H   0  0  0  0  0
  -12.2911    0.2319  -10.9656 H   0  0  0  0  0
  -12.4181    0.4743   -9.2060 H   0  0  0  0  0
  -13.5137   -2.0481  -10.6981 H   0  0  0  0  0
  -12.8808   -3.2104   -9.5066 H   0  0  0  0  0
  -13.6283   -1.6903   -8.9574 H   0  0  0  0  0
   -6.4578   -2.4494   -8.0372 H   0  0  0  0  0
   -6.0884   -0.6395   -6.4954 H   0  0  0  0  0
   -7.7708   -0.3099   -6.3248 H   0  0  0  0  0
   -5.9303    0.5085   -8.5933 H   0  0  0  0  0
   -7.0535    1.4882   -7.7398 H   0  0  0  0  0
   -8.9701    0.5473   -8.8895 H   0  0  0  0  0
   -7.8074    0.4463  -10.1313 H   0  0  0  0  0
   -6.7542   -4.0189   -6.6460 H   0  0  0  0  0
   -9.3510   -4.1898   -5.2147 H   0  0  0  0  0
   -8.3237   -6.5612   -6.7578 H   0  0  0  0  0
   -9.5746   -5.3986   -7.4052 H   0  0  0  0  0
  -11.0086   -5.9523   -5.5222 H   0  0  0  0  0
   -9.7798   -7.1690   -4.9697 H   0  0  0  0  0
  -10.1844   -8.5519   -6.8275 H   0  0  0  0  0
  -11.0815   -7.2683   -7.6941 H   0  0  0  0  0
  -12.7320   -7.3413   -5.7540 H   0  0  0  0  0
  -11.9238   -8.9150   -5.3138 H   0  0  0  0  0
  -13.9131   -9.2440   -6.6127 H   0  0  0  0  0
  -13.3037   -8.3127   -7.8530 H   0  0  0  0  0
  -12.5649   -9.7512   -7.4506 H   0  0  0  0  0
   -8.8804   -4.6666   -3.1289 H   0  0  0  0  0
   -6.2963   -5.9094   -2.4543 H   0  0  0  0  0
   -7.2429   -6.0385   -0.1831 H   0  0  0  0  0
   -8.7120   -5.1568   -0.8730 H   0  0  0  0  0
   -7.1585   -3.3243   -1.4900 H   0  0  0  0  0
   -8.5975   -3.2308    0.4944 H   0  0  0  0  0
   -7.3440   -4.0558    1.4531 H   0  0  0  0  0
   -7.0386   -2.4268    0.8018 H   0  0  0  0  0
   -5.2029   -4.8457    0.2375 H   0  0  0  0  0
   -5.0761   -4.5653   -1.5165 H   0  0  0  0  0
   -4.9898   -3.1916   -0.3867 H   0  0  0  0  0
   -7.8196  -10.0615   -2.9515 H   0  0  0  0  0
   -5.4569  -10.6554   -3.1647 H   0  0  0  0  0
   -5.7831  -11.4155   -1.6587 H   0  0  0  0  0
   -3.8338   -9.5585   -1.7043 H   0  0  0  0  0
   -4.8968   -9.5471   -0.3584 H   0  0  0  0  0
   -5.2586   -7.3087   -1.1432 H   0  0  0  0  0
   -4.9301   -7.7129   -2.7759 H   0  0  0  0  0
   -8.7996  -11.7393   -1.8420 H   0  0  0  0  0
   -9.8197  -11.1007    0.7610 H   0  0  0  0  0
  -10.4341  -13.5924    0.8047 H   0  0  0  0  0
   -9.7503  -13.6557   -0.8489 H   0  0  0  0  0
  -12.0139  -13.2230   -0.8321 H   0  0  0  0  0
   -9.3664  -12.0966    2.7775 H   0  0  0  0  0
   -6.5386  -13.0458    2.9376 H   0  0  0  0  0
   -9.5442  -14.0765    3.4121 H   0  0  0  0  0
   -6.6103  -12.2482    5.2850 H   0  0  0  0  0
   -8.2718  -11.5422    4.8992 H   0  0  0  0  0
   -7.1506  -10.1559    3.1943 H   0  0  0  0  0
   -7.7522   -9.2872    5.4054 H   0  0  0  0  0
   -6.1926   -9.8456    6.0586 H   0  0  0  0  0
   -6.2336   -8.5534    4.8340 H   0  0  0  0  0
   -4.6207  -11.1126    4.5341 H   0  0  0  0  0
   -5.1333  -11.4508    2.8626 H   0  0  0  0  0
   -4.7440   -9.7843    3.3545 H   0  0  0  0  0
  1  2  1  0  0  0
  2  3  1  0  0  0
  2  5  1  0  0  0
  3  4  2  0  0  0
  3  9  1  0  0  0
  5  6  1  0  0  0
  6  7  1  0  0  0
  6  8  1  0  0  0
  9 10  1  0  0  0
 10 11  1  0  0  0
 10 13  1  0  0  0
 11 12  2  0  0  0
 11 17  1  0  0  0
 13 14  1  0  0  0
 14 15  1  0  0  0
 14 16  1  0  0  0
 17 18  1  0  0  0
 17 23  1  0  0  0
 18 19  1  0  0  0
 18 21  1  0  0  0
 19 20  2  0  0  0
 19 24  1  0  0  0
 21 22  1  0  0  0
 22 23  1  0  0  0
 24 25  1  0  0  0
 25 26  1  0  0  0
 25 28  1  0  0  0
 26 27  2  0  0  0
 26 31  1  0  0  0
 28 29  1  0  0  0
 28 30  1  0  0  0
 31 32  1  0  0  0
 32 33  1  0  0  0
 32 35  1  0  0  0
 33 34  2  0  0  0
 33 39  1  0  0  0
 35 36  1  0  0  0
 36 37  1  0  0  0
 36 38  1  0  0  0
 39 40  1  0  0  0
 39 45  1  0  0  0
 40 41  1  0  0  0
 40 43  1  0  0  0
 41 42  2  0  0  0
 41 46  1  0  0  0
 43 44  1  0  0  0
 44 45  1  0  0  0
 46 47  1  0  0  0
 47 48  1  0  0  0
 47 50  1  0  0  0
 48 49  2  0  0  0
 48 55  1  0  0  0
 50 51  1  0  0  0
 51 52  1  0  0  0
 52 53  1  0  0  0
 53 54  1  0  0  0
 55 56  1  0  0  0
 56 57  1  0  0  0
 56 59  1  0  0  0
 57 58  2  0  0  0
 57 63  1  0  0  0
 59 60  1  0  0  0
 60 61  1  0  0  0
 60 62  1  0  0  0
 63 64  1  0  0  0
 63 69  1  0  0  0
 64 65  1  0  0  0
 64 67  1  0  0  0
 65 66  2  0  0  0
 65 70  1  0  0  0
 67 68  1  0  0  0
 68 69  1  0  0  0
 70 71  1  0  0  0
 71 72  1  0  0  0
 71 74  1  0  0  0
 72 73  2  0  0  0
 72 76  1  0  0  0
 74 75  1  0  0  0
 76 77  1  0  0  0
 77 78  1  0  0  0
 77 80  1  0  0  0
 78 79  1  0  0  0
 78 84  2  0  0  0
 80 81  1  0  0  0
 81 82  1  0  0  0
 81 83  1  0  0  0
  1 85  1  0  0  0
  1 86  1  0  0  0
  1 87  1  0  0  0
  2 88  1  0  0  0
  5 89  1  0  0  0
  5 90  1  0  0  0
  6 91  1  0  0  0
  7 92  1  0  0  0
  7 93  1  0  0  0
  7 94  1  0  0  0
  8 95  1  0  0  0
  8 96  1  0  0  0
  8 97  1  0  0  0
  9 98  1  0  0  0
 10 99  1  0  0  0
 13100  1  0  0  0
 13101  1  0  0  0
 14102  1  0  0  0
 15103  1  0  0  0
 15104  1  0  0  0
 15105  1  0  0  0
 16106  1  0  0  0
 16107  1  0  0  0
 16108  1  0  0  0
 18109  1  0  0  0
 21110  1  0  0  0
 21111  1  0  0  0
 22112  1  0  0  0
 22113  1  0  0  0
 23114  1  0  0  0
 23115  1  0  0  0
 24116  1  0  0  0
 25117  1  0  0  0
 28118  1  0  0  0
 29119  1  0  0  0
 30120  1  0  0  0
 30121  1  0  0  0
 30122  1  0  0  0
 31123  1  0  0  0
 32124  1  0  0  0
 35125  1  0  0  0
 35126  1  0  0  0
 36127  1  0  0  0
 37128  1  0  0  0
 37129  1  0  0  0
 37130  1  0  0  0
 38131  1  0  0  0
 38132  1  0  0  0
 38133  1  0  0  0
 40134  1  0  0  0
 43135  1  0  0  0
 43136  1  0  0  0
 44137  1  0  0  0
 44138  1  0  0  0
 45139  1  0  0  0
 45140  1  0  0  0
 46141  1  0  0  0
 47142  1  0  0  0
 50143  1  0  0  0
 50144  1  0  0  0
 51145  1  0  0  0
 51146  1  0  0  0
 52147  1  0  0  0
 52148  1  0  0  0
 53149  1  0  0  0
 53150  1  0  0  0
 54151  1  0  0  0
 54152  1  0  0  0
 54153  1  0  0  0
 55154  1  0  0  0
 56155  1  0  0  0
 59156  1  0  0  0
 59157  1  0  0  0
 60158  1  0  0  0
 61159  1  0  0  0
 61160  1  0  0  0
 61161  1  0  0  0
 62162  1  0  0  0
 62163  1  0  0  0
 62164  1  0  0  0
 64165  1  0  0  0
 67166  1  0  0  0
 67167  1  0  0  0
 68168  1  0  0  0
 68169  1  0  0  0
 69170  1  0  0  0
 69171  1  0  0  0
 70172  1  0  0  0
 71173  1  0  0  0
 74174  1  0  0  0
 74175  1  0  0  0
 75176  1  0  0  0
 76177  1  0  0  0
 77178  1  0  0  0
 79179  1  0  0  0
 80180  1  0  0  0
 80181  1  0  0  0
 81182  1  0  0  0
 82183  1  0  0  0
 82184  1  0  0  0
 82185  1  0  0  0
 83186  1  0  0  0
 83187  1  0  0  0
 83188  1  0  0  0
M  END
$$$$
