6dzx_ligand
  -I-interpret- 

 21 20  0  0  0  0  0  0  0  0999 V2000
   50.9570   -8.5300  -31.1120 N   0  3  0  0  0
   50.8680   -9.3820  -32.2890 C   0  0  0  0  0
   50.9420  -10.8260  -31.8330 C   0  0  0  0  0
   49.9430  -11.5750  -31.7800 O   0  0  0  0  0
   49.6330   -9.0390  -33.0820 C   0  0  0  0  0
   49.5720   -9.7980  -34.4180 C   0  0  0  0  0
   50.5080   -9.1650  -35.7800 S   0  0  0  0  0
   49.6560   -7.6460  -36.0140 C   0  0  0  0  0
   52.0820  -11.2390  -31.5320 O   0  0  0  0  0
   51.7953   -8.7699  -30.5827 H   0  0  0  0  0
   51.0051   -7.5537  -31.4033 H   0  0  0  0  0
   50.1327   -8.6716  -30.5281 H   0  0  0  0  0
   51.7005   -9.2182  -32.9733 H   0  0  0  0  0
   49.1619  -11.0841  -32.0455 H   0  0  0  0  0
   49.6548   -7.9711  -33.2991 H   0  0  0  0  0
   48.7613   -9.3209  -32.4914 H   0  0  0  0  0
   48.5302   -9.7426  -34.7337 H   0  0  0  0  0
   49.9941  -10.7813  -34.2104 H   0  0  0  0  0
   48.6094   -7.8491  -36.2409 H   0  0  0  0  0
   49.7227   -7.0495  -35.1041 H   0  0  0  0  0
   50.1092   -7.1004  -36.8417 H   0  0  0  0  0
  1  2  1  0  0  0
  2  3  1  0  0  0
  2  5  1  0  0  0
  3  4  1  0  0  0
  3  9  2  0  0  0
  5  6  1  0  0  0
  6  7  1  0  0  0
  7  8  1  0  0  0
  1 10  1  0  0  0
  1 11  1  0  0  0
  1 12  1  0  0  0
  2 13  1  0  0  0
  4 14  1  0  0  0
  5 15  1  0  0  0
  5 16  1  0  0  0
  6 17  1  0  0  0
  6 18  1  0  0  0
  8 19  1  0  0  0
  8 20  1  0  0  0
  8 21  1  0  0  0
M  END
$$$$
