4po7_ligand
  -I-interpret- 

162164  0  0  0  0  0  0  0  0999 V2000
  -28.8340   -7.3890   41.0390 N   0  0  0  0  0
  -28.6840   -6.5540   39.8500 C   0  0  0  0  0
  -29.9560   -5.7490   39.5990 C   0  0  0  0  0
  -30.7830   -5.8360   40.8690 C   0  0  0  0  0
  -30.0930   -6.9330   41.6340 C   0  0  0  0  0
  -30.5740   -7.4020   42.6660 O   0  0  0  0  0
  -27.5230   -5.5790   39.9860 C   0  0  0  0  0
  -27.4340   -4.8490   40.9740 O   0  0  0  0  0
  -26.6330   -5.5700   38.9990 N   0  0  0  0  0
  -25.5400   -4.6070   38.9780 C   0  0  0  0  0
  -25.4580   -3.8800   37.6420 C   0  0  0  0  0
  -26.0320   -4.3210   36.6510 O   0  0  0  0  0
  -24.2030   -5.2860   39.2890 C   0  0  0  0  0
  -23.8710   -6.7040   38.8140 C   0  0  0  0  0
  -24.1270   -6.9190   37.3290 C   0  0  0  0  0
  -22.4160   -6.9880   39.1380 C   0  0  0  0  0
  -24.7380   -2.7640   37.6290 N   0  0  0  0  0
  -24.5280   -1.9920   36.4100 C   0  0  0  0  0
  -23.0390   -1.8500   36.1040 C   0  0  0  0  0
  -22.3890   -0.9180   36.5760 O   0  0  0  0  0
  -25.1570   -0.6000   36.5290 C   0  0  0  0  0
  -26.6560   -0.5860   36.7310 C   0  0  0  0  0
  -27.4740   -1.5120   36.0950 C   0  0  0  0  0
  -27.2540    0.3600   37.5560 C   0  0  0  0  0
  -28.8480   -1.4950   36.2750 C   0  0  0  0  0
  -28.6250    0.3830   37.7450 C   0  0  0  0  0
  -29.4170   -0.5470   37.1020 C   0  0  0  0  0
  -30.7810   -0.5270   37.2880 O   0  0  0  0  0
  -22.4940   -2.7720   35.3190 N   0  0  0  0  0
  -21.1010   -2.6620   34.9030 C   0  0  0  0  0
  -20.9720   -1.5750   33.8330 C   0  0  0  0  0
  -21.1670   -1.8340   32.6430 O   0  0  0  0  0
  -20.5850   -4.0100   34.3970 C   0  0  0  0  0
  -20.5100   -5.0670   35.4910 C   0  0  0  0  0
  -20.7290   -6.4770   34.9750 C   0  0  0  0  0
  -20.7340   -6.6690   33.7410 O   0  0  0  0  0
  -20.9050   -7.3930   35.8090 O   0  0  0  0  0
  -20.6510   -0.3600   34.2810 N   0  0  0  0  0
  -20.6050    0.8290   33.4270 C   0  0  0  0  0
  -21.8630    0.9940   32.5780 C   0  0  0  0  0
  -21.7890    1.0820   31.3530 O   0  0  0  0  0
  -19.3700    0.8010   32.5220 C   0  0  0  0  0
  -18.0850    1.1020   33.2740 C   0  0  0  0  0
  -17.3520    0.1910   33.6630 O   0  0  0  0  0
  -17.8040    2.3860   33.4820 N   0  0  0  0  0
  -26.7100    3.6400   19.0660 N   0  3  0  0  0
  -26.9390    4.3430   17.8010 C   0  0  0  0  0
  -27.5880    5.7160   17.9790 C   0  0  0  0  0
  -28.5780    5.8440   18.7010 O   0  0  0  0  0
  -27.8740    3.3930   17.0500 C   0  0  0  0  0
  -27.4760    2.0470   17.5300 C   0  0  0  0  0
  -27.1140    2.2250   18.9850 C   0  0  0  0  0
  -27.0170    6.7280   17.3300 N   0  0  0  0  0
  -27.5980    8.0660   17.3090 C   0  0  0  0  0
  -28.9260    8.0630   16.5730 C   0  0  0  0  0
  -29.0430    7.4780   15.4960 O   0  0  0  0  0
  -26.6530    9.0640   16.6380 C   0  0  0  0  0
  -25.7050    9.7660   17.5770 C   0  0  0  0  0
  -26.0690   10.0440   18.8860 C   0  0  0  0  0
  -24.4430   10.1590   17.1480 C   0  0  0  0  0
  -25.1970   10.6930   19.7450 C   0  0  0  0  0
  -23.5650   10.8070   17.9970 C   0  0  0  0  0
  -23.9450   11.0720   19.2930 C   0  0  0  0  0
  -23.0670   11.7160   20.1380 O   0  0  0  0  0
  -29.9190    8.7270   17.1530 N   0  0  0  0  0
  -31.2240    8.8590   16.5260 C   0  0  0  0  0
  -31.4080   10.2740   15.9940 C   0  0  0  0  0
  -31.1870   11.2510   16.7110 O   0  0  0  0  0
  -32.3580    8.5200   17.5100 C   0  0  0  0  0
  -32.1680    7.1100   18.0650 C   0  0  0  0  0
  -33.7140    8.6360   16.8380 C   0  0  0  0  0
  -32.2320    6.0310   17.0170 C   0  0  0  0  0
  -31.8020   10.3690   14.7290 N   0  0  0  0  0
  -32.0360   11.6500   14.0720 C   0  0  0  0  0
  -33.4580   11.7580   13.5340 C   0  0  0  0  0
  -33.9320   12.8510   13.2230 O   0  0  0  0  0
  -31.0430   11.8490   12.9280 C   0  0  0  0  0
  -29.5800   11.8570   13.3460 C   0  0  0  0  0
  -28.7180   12.2270   12.1730 C   0  0  0  0  0
  -29.3940   12.8380   14.4780 C   0  0  0  0  0
  -34.1570   10.7560   13.3840 O   0  0  0  0  0
  -28.2077   -8.1199   41.3767 H   0  0  0  0  0
  -28.4881   -7.2274   39.0156 H   0  0  0  0  0
  -30.5073   -6.1482   38.7477 H   0  0  0  0  0
  -29.7193   -4.7124   39.3592 H   0  0  0  0  0
  -31.8357   -6.0454   40.6791 H   0  0  0  0  0
  -30.8239   -4.8945   41.4168 H   0  0  0  0  0
  -26.7167   -6.2494   38.2428 H   0  0  0  0  0
  -25.7477   -3.8697   39.7535 H   0  0  0  0  0
  -24.2138   -5.3795   40.3749 H   0  0  0  0  0
  -23.4768   -4.6668   38.7624 H   0  0  0  0  0
  -24.5340   -7.3939   39.3361 H   0  0  0  0  0
  -25.1801   -6.7388   37.1133 H   0  0  0  0  0
  -23.5131   -6.2274   36.7519 H   0  0  0  0  0
  -23.8704   -7.9442   37.0621 H   0  0  0  0  0
  -21.7829   -6.2640   38.6251 H   0  0  0  0  0
  -22.2626   -6.9086   40.2142 H   0  0  0  0  0
  -22.1611   -7.9946   38.8066 H   0  0  0  0  0
  -24.3187   -2.4366   38.4993 H   0  0  0  0  0
  -25.0091   -2.5318   35.5944 H   0  0  0  0  0
  -24.9633   -0.0874   35.5868 H   0  0  0  0  0
  -24.7180   -0.1324   37.4103 H   0  0  0  0  0
  -27.0277   -2.2638   35.4441 H   0  0  0  0  0
  -26.6317    1.0972   38.0633 H   0  0  0  0  0
  -29.4762   -2.2262   35.7663 H   0  0  0  0  0
  -29.0763    1.1306   38.3973 H   0  0  0  0  0
  -31.0108    0.1875   37.8865 H   0  0  0  0  0
  -23.0547   -3.5639   35.0044 H   0  0  0  0  0
  -20.4877   -2.3786   35.7584 H   0  0  0  0  0
  -19.5762   -3.8568   34.0135 H   0  0  0  0  0
  -21.2797   -4.3674   33.6369 H   0  0  0  0  0
  -21.2987   -4.8528   36.2122 H   0  0  0  0  0
  -19.5103   -5.0248   35.9234 H   0  0  0  0  0
  -20.8626   -7.0289   36.6963 H   0  0  0  0  0
  -20.4258   -0.2536   35.2701 H   0  0  0  0  0
  -20.5468    1.6867   34.0971 H   0  0  0  0  0
  -22.8384    1.0343   33.0628 H   0  0  0  0  0
  -19.4978    1.5675   31.7577 H   0  0  0  0  0
  -19.2852   -0.2015   32.1025 H   0  0  0  0  0
  -16.9536    2.6477   33.9808 H   0  0  0  0  0
  -18.4390    3.1085   33.1426 H   0  0  0  0  0
  -27.2679    4.0923   19.7903 H   0  0  0  0  0
  -25.7131    3.6777   19.2784 H   0  0  0  0  0
  -26.0051    4.5584   17.2818 H   0  0  0  0  0
  -27.7816    3.4907   15.9683 H   0  0  0  0  0
  -28.9249    3.6075   17.2439 H   0  0  0  0  0
  -26.6377    1.6514   16.9565 H   0  0  0  0  0
  -28.2832    1.3251   17.4058 H   0  0  0  0  0
  -27.9407    1.9867   19.6543 H   0  0  0  0  0
  -26.3248    1.5453   19.3062 H   0  0  0  0  0
  -26.1434    6.5624   16.8303 H   0  0  0  0  0
  -27.7590    8.3694   18.3435 H   0  0  0  0  0
  -27.2764    9.8339   16.1835 H   0  0  0  0  0
  -26.0414    8.4978   15.9355 H   0  0  0  0  0
  -27.0550    9.7477   19.2440 H   0  0  0  0  0
  -24.1393    9.9523   16.1218 H   0  0  0  0  0
  -25.4956   10.9041   20.7718 H   0  0  0  0  0
  -22.5786   11.1059   17.6424 H   0  0  0  0  0
  -22.2521   11.9052   19.6672 H   0  0  0  0  0
  -29.7616    9.1568   18.0646 H   0  0  0  0  0
  -31.2699    8.1503   15.6991 H   0  0  0  0  0
  -32.3212    9.2360   18.3311 H   0  0  0  0  0
  -32.9783    6.9264   18.7706 H   0  0  0  0  0
  -31.1758    7.0684   18.5143 H   0  0  0  0  0
  -33.8545    9.6558   16.4797 H   0  0  0  0  0
  -33.7617    7.9442   15.9970 H   0  0  0  0  0
  -34.4963    8.3910   17.5564 H   0  0  0  0  0
  -33.2058    6.0585   16.5280 H   0  0  0  0  0
  -31.4481    6.1970   16.2781 H   0  0  0  0  0
  -32.0883    5.0590   17.4889 H   0  0  0  0  0
  -31.9467    9.5117   14.1957 H   0  0  0  0  0
  -31.8950   12.4290   14.8212 H   0  0  0  0  0
  -33.2838   13.5390   13.3906 H   0  0  0  0  0
  -31.2530   12.8263   12.4935 H   0  0  0  0  0
  -31.1726   11.0079   12.2469 H   0  0  0  0  0
  -29.2855   10.8644   13.6866 H   0  0  0  0  0
  -28.8614   11.4991   11.3744 H   0  0  0  0  0
  -28.9973   13.2186   11.8170 H   0  0  0  0  0
  -27.6719   12.2308   12.4793 H   0  0  0  0  0
  -29.6860   13.8341   14.1455 H   0  0  0  0  0
  -30.0152   12.5387   15.3222 H   0  0  0  0  0
  -28.3470   12.8471   14.7809 H   0  0  0  0  0
  1  2  1  0  0  0
  1  5  1  0  0  0
  2  3  1  0  0  0
  2  7  1  0  0  0
  3  4  1  0  0  0
  4  5  1  0  0  0
  5  6  2  0  0  0
  7  8  2  0  0  0
  7  9  1  0  0  0
  9 10  1  0  0  0
 10 11  1  0  0  0
 10 13  1  0  0  0
 11 12  2  0  0  0
 11 17  1  0  0  0
 13 14  1  0  0  0
 14 15  1  0  0  0
 14 16  1  0  0  0
 17 18  1  0  0  0
 18 19  1  0  0  0
 18 21  1  0  0  0
 19 20  2  0  0  0
 19 29  1  0  0  0
 21 22  1  0  0  0
 22 23  4  0  0  0
 22 24  4  0  0  0
 23 25  4  0  0  0
 24 26  4  0  0  0
 25 27  4  0  0  0
 26 27  4  0  0  0
 27 28  1  0  0  0
 29 30  1  0  0  0
 30 31  1  0  0  0
 30 33  1  0  0  0
 31 32  2  0  0  0
 31 38  1  0  0  0
 33 34  1  0  0  0
 34 35  1  0  0  0
 35 36  2  0  0  0
 35 37  1  0  0  0
 38 39  1  0  0  0
 39 40  1  0  0  0
 39 42  1  0  0  0
 40 41  2  0  0  0
 42 43  1  0  0  0
 43 44  2  0  0  0
 43 45  1  0  0  0
 46 47  1  0  0  0
 46 52  1  0  0  0
 47 48  1  0  0  0
 47 50  1  0  0  0
 48 49  2  0  0  0
 48 53  1  0  0  0
 50 51  1  0  0  0
 51 52  1  0  0  0
 53 54  1  0  0  0
 54 55  1  0  0  0
 54 57  1  0  0  0
 55 56  2  0  0  0
 55 65  1  0  0  0
 57 58  1  0  0  0
 58 59  4  0  0  0
 58 60  4  0  0  0
 59 61  4  0  0  0
 60 62  4  0  0  0
 61 63  4  0  0  0
 62 63  4  0  0  0
 63 64  1  0  0  0
 65 66  1  0  0  0
 66 67  1  0  0  0
 66 69  1  0  0  0
 67 68  2  0  0  0
 67 73  1  0  0  0
 69 70  1  0  0  0
 69 71  1  0  0  0
 70 72  1  0  0  0
 73 74  1  0  0  0
 74 75  1  0  0  0
 74 77  1  0  0  0
 75 76  1  0  0  0
 75 81  2  0  0  0
 77 78  1  0  0  0
 78 79  1  0  0  0
 78 80  1  0  0  0
  1 82  1  0  0  0
  2 83  1  0  0  0
  3 84  1  0  0  0
  3 85  1  0  0  0
  4 86  1  0  0  0
  4 87  1  0  0  0
  9 88  1  0  0  0
 10 89  1  0  0  0
 13 90  1  0  0  0
 13 91  1  0  0  0
 14 92  1  0  0  0
 15 93  1  0  0  0
 15 94  1  0  0  0
 15 95  1  0  0  0
 16 96  1  0  0  0
 16 97  1  0  0  0
 16 98  1  0  0  0
 17 99  1  0  0  0
 18100  1  0  0  0
 21101  1  0  0  0
 21102  1  0  0  0
 23103  1  0  0  0
 24104  1  0  0  0
 25105  1  0  0  0
 26106  1  0  0  0
 28107  1  0  0  0
 29108  1  0  0  0
 30109  1  0  0  0
 33110  1  0  0  0
 33111  1  0  0  0
 34112  1  0  0  0
 34113  1  0  0  0
 37114  1  0  0  0
 38115  1  0  0  0
 39116  1  0  0  0
 40117  1  0  0  0
 42118  1  0  0  0
 42119  1  0  0  0
 45120  1  0  0  0
 45121  1  0  0  0
 46122  1  0  0  0
 46123  1  0  0  0
 47124  1  0  0  0
 50125  1  0  0  0
 50126  1  0  0  0
 51127  1  0  0  0
 51128  1  0  0  0
 52129  1  0  0  0
 52130  1  0  0  0
 53131  1  0  0  0
 54132  1  0  0  0
 57133  1  0  0  0
 57134  1  0  0  0
 59135  1  0  0  0
 60136  1  0  0  0
 61137  1  0  0  0
 62138  1  0  0  0
 64139  1  0  0  0
 65140  1  0  0  0
 66141  1  0  0  0
 69142  1  0  0  0
 70143  1  0  0  0
 70144  1  0  0  0
 71145  1  0  0  0
 71146  1  0  0  0
 71147  1  0  0  0
 72148  1  0  0  0
 72149  1  0  0  0
 72150  1  0  0  0
 73151  1  0  0  0
 74152  1  0  0  0
 76153  1  0  0  0
 77154  1  0  0  0
 77155  1  0  0  0
 78156  1  0  0  0
 79157  1  0  0  0
 79158  1  0  0  0
 79159  1  0  0  0
 80160  1  0  0  0
 80161  1  0  0  0
 80162  1  0  0  0
M  END
$$$$
