### 
### Created by X-TOOL on Mon Sep 10 21:13:17 2018
### 

@<TRIPOS>MOLECULE
4po7_ligand
  160   162     2     0     0
SMALL
GAST_HUCK


@<TRIPOS>ATOM
      1 N         -28.8340   -7.3890   41.0390 N.am      1 PCA        -0.2655
      2 CA        -28.6840   -6.5540   39.8500 C.3       1 PCA         0.1329
      3 CB        -29.9560   -5.7490   39.5990 C.3       1 PCA         0.0045
      4 CG        -30.7830   -5.8360   40.8690 C.3       1 PCA         0.0416
      5 CD        -30.0930   -6.9330   41.6340 C.2       1 PCA         0.1784
      6 OE        -30.5740   -7.4020   42.6660 O.2       1 PCA        -0.3969
      7 C         -27.5230   -5.5790   39.9860 C.2       1 PCA         0.2040
      8 O         -27.4340   -4.8490   40.9740 O.2       1 PCA        -0.3944
      9 N         -26.6330   -5.5700   38.9990 N.am      1 LEU        -0.2637
     10 CA        -25.5400   -4.6070   38.9780 C.3       1 LEU         0.1312
     11 C         -25.4580   -3.8800   37.6420 C.2       1 LEU         0.2040
     12 O         -26.0320   -4.3210   36.6510 O.2       1 LEU        -0.3944
     13 CB        -24.2030   -5.2860   39.2890 C.3       1 LEU        -0.0101
     14 CG        -23.8710   -6.7040   38.8140 C.3       1 LEU        -0.0425
     15 CD1       -24.1270   -6.9190   37.3290 C.3       1 LEU        -0.0625
     16 CD2       -22.4160   -6.9880   39.1380 C.3       1 LEU        -0.0625
     17 N         -24.7380   -2.7640   37.6290 N.am      1 TYR        -0.2621
     18 CA        -24.5280   -1.9920   36.4100 C.3       1 TYR         0.1390
     19 C         -23.0390   -1.8500   36.1040 C.2       1 TYR         0.2057
     20 O         -22.3890   -0.9180   36.5760 O.2       1 TYR        -0.3942
     21 CB        -25.1570   -0.6000   36.5290 C.3       1 TYR         0.0163
     22 CG        -26.6560   -0.5860   36.7310 C.ar      1 TYR        -0.0493
     23 CD1       -27.4740   -1.5120   36.0950 C.ar      1 TYR        -0.0685
     24 CD2       -27.2540    0.3600   37.5560 C.ar      1 TYR        -0.0685
     25 CE1       -28.8480   -1.4950   36.2750 C.ar      1 TYR        -0.0398
     26 CE2       -28.6250    0.3830   37.7450 C.ar      1 TYR        -0.0398
     27 CZ        -29.4170   -0.5470   37.1020 C.ar      1 TYR         0.0805
     28 OH        -30.7810   -0.5270   37.2880 O.3       1 TYR        -0.3376
     29 N         -22.4940   -2.7720   35.3190 N.am      1 GLU        -0.2635
     30 CA        -21.1010   -2.6620   34.9030 C.3       1 GLU         0.1325
     31 C         -20.9720   -1.5750   33.8330 C.2       1 GLU         0.2042
     32 O         -21.1670   -1.8340   32.6430 O.2       1 GLU        -0.3944
     33 CB        -20.5850   -4.0100   34.3970 C.3       1 GLU        -0.0008
     34 CG        -20.5100   -5.0670   35.4910 C.3       1 GLU         0.0044
     35 CD        -20.7290   -6.4770   34.9750 C.2       1 GLU         0.0350
     36 OE1       -20.7340   -6.6690   33.7410 O.co2     1 GLU        -0.5690
     37 OE2       -20.9050   -7.3930   35.8090 O.co2     1 GLU        -0.5690
     38 N         -20.6510   -0.3600   34.2810 N.am      1 ASN        -0.2629
     39 CA        -20.6050    0.8290   33.4270 C.3       1 ASN         0.1294
     40 C         -21.8630    0.9940   32.5780 C.2       1 ASN         0.1268
     41 O         -21.7890    1.0820   31.3530 O.2       1 ASN        -0.3723
     42 CB        -19.3700    0.8010   32.5220 C.3       1 ASN         0.0760
     43 CG        -18.0850    1.1020   33.2740 C.2       1 ASN         0.1781
     44 OD1       -17.3520    0.1910   33.6630 O.2       1 ASN        -0.3970
     45 ND2       -17.8040    2.3860   33.4820 N.am      1 ASN        -0.3007
     46 N         -26.7100    3.6400   19.0660 N.4       2 PRO         0.2461
     47 CA        -26.9390    4.3430   17.8010 C.3       2 PRO         0.0670
     48 C         -27.5880    5.7160   17.9790 C.2       2 PRO         0.2269
     49 O         -28.5780    5.8440   18.7010 O.2       2 PRO        -0.3907
     50 CB        -27.8740    3.3930   17.0500 C.3       2 PRO         0.0127
     51 CG        -27.4760    2.0470   17.5300 C.3       2 PRO        -0.0053
     52 CD        -27.1140    2.2250   18.9850 C.3       2 PRO        -0.0313
     53 N         -27.0170    6.7280   17.3300 N.am      2 TYR        -0.2594
     54 CA        -27.5980    8.0660   17.3090 C.3       2 TYR         0.1391
     55 C         -28.9260    8.0630   16.5730 C.2       2 TYR         0.2057
     56 O         -29.0430    7.4780   15.4960 O.2       2 TYR        -0.3942
     57 CB        -26.6530    9.0640   16.6380 C.3       2 TYR         0.0164
     58 CG        -25.7050    9.7660   17.5770 C.ar      2 TYR        -0.0493
     59 CD1       -26.0690   10.0440   18.8860 C.ar      2 TYR        -0.0685
     60 CD2       -24.4430   10.1590   17.1480 C.ar      2 TYR        -0.0685
     61 CE1       -25.1970   10.6930   19.7450 C.ar      2 TYR        -0.0398
     62 CE2       -23.5650   10.8070   17.9970 C.ar      2 TYR        -0.0398
     63 CZ        -23.9450   11.0720   19.2930 C.ar      2 TYR         0.0805
     64 OH        -23.0670   11.7160   20.1380 O.3       2 TYR        -0.3376
     65 N         -29.9190    8.7270   17.1530 N.am      2 ILE        -0.2633
     66 CA        -31.2240    8.8590   16.5260 C.3       2 ILE         0.1335
     67 C         -31.4080   10.2740   15.9940 C.2       2 ILE         0.2036
     68 O         -31.1870   11.2510   16.7110 O.2       2 ILE        -0.3944
     69 CB        -32.3580    8.5200   17.5100 C.3       2 ILE        -0.0037
     70 CG1       -32.1680    7.1100   18.0650 C.3       2 ILE        -0.0491
     71 CG2       -33.7140    8.6360   16.8380 C.3       2 ILE        -0.0582
     72 CD1       -32.2320    6.0310   17.0170 C.3       2 ILE        -0.0648
     73 N         -31.8020   10.3690   14.7290 N.am      2 LEU        -0.2695
     74 CA        -32.0360   11.6500   14.0720 C.3       2 LEU         0.0946
     75 C         -33.4580   11.7580   13.5340 C.2       2 LEU         0.0601
     76 O         -33.9320   12.8510   13.2230 O.co2     2 LEU        -0.5666
     77 CB        -31.0430   11.8490   12.9280 C.3       2 LEU        -0.0156
     78 CG        -29.5800   11.8570   13.3460 C.3       2 LEU        -0.0431
     79 CD1       -28.7180   12.2270   12.1730 C.3       2 LEU        -0.0625
     80 CD2       -29.3940   12.8380   14.4780 C.3       2 LEU        -0.0625
     81 OXT       -34.1570   10.7560   13.3840 O.co2     2 LEU        -0.5666
     82 H         -28.2200   -8.1055   41.3701 H         1 PCA         0.1883
     83 H         -28.4972   -7.2099   38.9870 H         1 PCA         0.0801
     84 H         -30.5143   -6.1758   38.7528 H         1 PCA         0.0337
     85 H         -29.7047   -4.7005   39.3811 H         1 PCA         0.0337
     86 H         -31.8266   -6.1029   40.6461 H         1 PCA         0.0505
     87 H         -30.7579   -4.8874   41.4252 H         1 PCA         0.0505
     88 H         -26.7150   -6.2361   38.2576 H         1 LEU         0.1883
     89 H         -25.7347   -3.8593   39.7610 H         1 LEU         0.0800
     90 H         -24.1164   -5.3029   40.3854 H         1 LEU         0.0315
     91 H         -23.4236   -4.6329   38.8696 H         1 LEU         0.0315
     92 H         -24.5040   -7.4102   39.3714 H         1 LEU         0.0298
     93 H         -23.8684   -7.9533   37.0584 H         1 LEU         0.0232
     94 H         -23.5080   -6.2217   36.7455 H         1 LEU         0.0232
     95 H         -25.1896   -6.7375   37.1100 H         1 LEU         0.0232
     96 H         -22.2420   -6.8298   40.2126 H         1 LEU         0.0232
     97 H         -21.7722   -6.3099   38.5586 H         1 LEU         0.0232
     98 H         -22.1790   -8.0302   38.8778 H         1 LEU         0.0232
     99 H         -24.3269   -2.4430   38.4822 H         1 TYR         0.1885
    100 H         -25.0088   -2.5247   35.5763 H         1 TYR         0.0821
    101 H         -24.9328   -0.0452   35.6060 H         1 TYR         0.0453
    102 H         -24.6934   -0.0891   37.3858 H         1 TYR         0.0453
    103 H         -27.0302   -2.2597   35.4476 H         1 TYR         0.0530
    104 H         -26.6351    1.0931   38.0605 H         1 TYR         0.0530
    105 H         -29.4728   -2.2222   35.7691 H         1 TYR         0.0525
    106 H         -29.0739    1.1265   38.3937 H         1 TYR         0.0525
    107 H         -31.1789   -1.2249   36.7810 H         1 TYR         0.2458
    108 H         -23.0437   -3.5483   35.0106 H         1 GLU         0.1883
    109 H         -20.4966   -2.3669   35.7734 H         1 GLU         0.0801
    110 H         -19.5776   -3.8655   33.9796 H         1 GLU         0.0330
    111 H         -21.2609   -4.3701   33.6074 H         1 GLU         0.0330
    112 H         -21.2811   -4.8465   36.2439 H         1 GLU         0.0433
    113 H         -19.5157   -5.0163   35.9587 H         1 GLU         0.0433
    114 H         -20.4302   -0.2556   35.2507 H         1 ASN         0.1886
    115 H         -20.5271    1.7070   34.0851 H         1 ASN         0.0816
    116 H         -22.8375    1.0343   33.0624 H         1 ASN         0.1375
    117 H         -19.4978    1.5525   31.7289 H         1 ASN         0.0552
    118 H         -19.2874   -0.1985   32.0702 H         1 ASN         0.0552
    119 H         -16.9708    2.6425   33.9718 H         1 ASN         0.1814
    120 H         -18.4261    3.0944   33.1485 H         1 ASN         0.1814
    121 H         -27.2446    4.0911   19.7917 H         2 PRO         0.2035
    122 H         -25.7290    3.6870   19.2928 H         2 PRO         0.2035
    123 H         -25.9908    4.4686   17.2577 H         2 PRO         0.1099
    124 H         -27.7291    3.4794   15.9630 H         2 PRO         0.0347
    125 H         -28.9253    3.6017   17.2976 H         2 PRO         0.0347
    126 H         -26.6100    1.6772   16.9614 H         2 PRO         0.0320
    127 H         -28.3120    1.3397   17.4262 H         2 PRO         0.0320
    128 H         -27.9799    2.0252   19.6333 H         2 PRO         0.0814
    129 H         -26.2833    1.5617   19.2679 H         2 PRO         0.0814
    130 H         -26.1605    6.5657   16.8400 H         2 TYR         0.1886
    131 H         -27.7697    8.3863   18.3472 H         2 TYR         0.0821
    132 H         -27.2634    9.8277   16.1339 H         2 TYR         0.0453
    133 H         -26.0553    8.5206   15.8913 H         2 TYR         0.0453
    134 H         -27.0495    9.7494   19.2421 H         2 TYR         0.0530
    135 H         -24.1409    9.9534   16.1274 H         2 TYR         0.0530
    136 H         -25.4939   10.9029   20.7662 H         2 TYR         0.0525
    137 H         -22.5840   11.1043   17.6443 H         2 TYR         0.0525
    138 H         -23.4721   11.8253   20.9903 H         2 TYR         0.2458
    139 H         -29.7647    9.1483   18.0467 H         2 ILE         0.1883
    140 H         -31.2752    8.1559   15.6816 H         2 ILE         0.0803
    141 H         -32.3203    9.2350   18.3450 H         2 ILE         0.0345
    142 H         -32.9575    6.9200   18.8070 H         2 ILE         0.0267
    143 H         -31.1844    7.0597   18.5549 H         2 ILE         0.0267
    144 H         -33.8410    9.6543   16.4419 H         2 ILE         0.0235
    145 H         -34.5061    8.4267   17.5720 H         2 ILE         0.0235
    146 H         -33.7776    7.9112   16.0130 H         2 ILE         0.0235
    147 H         -32.0871    5.0495   17.4920 H         2 ILE         0.0230
    148 H         -31.4413    6.1974   16.2706 H         2 ILE         0.0230
    149 H         -33.2143    6.0577   16.5227 H         2 ILE         0.0230
    150 H         -31.9439    9.5285   14.2061 H         2 LEU         0.1875
    151 H         -31.8840   12.4488   14.8128 H         2 LEU         0.0726
    152 H         -31.2660   12.8118   12.4451 H         2 LEU         0.0308
    153 H         -31.1874   11.0335   12.2040 H         2 LEU         0.0308
    154 H         -29.2971   10.8521   13.6927 H         2 LEU         0.0297
    155 H         -27.6620   12.2312   12.4809 H         2 LEU         0.0232
    156 H         -28.9988   13.2277   11.8127 H         2 LEU         0.0232
    157 H         -28.8618   11.4931   11.3663 H         2 LEU         0.0232
    158 H         -30.0340   12.5472   15.3241 H         2 LEU         0.0232
    159 H         -29.6714   13.8468   14.1383 H         2 LEU         0.0232
    160 H         -28.3412   12.8349   14.7966 H         2 LEU         0.0232
@<TRIPOS>BOND
     1    1    2 1  
     2    1    5 am 
     3    2    3 1  
     4    2    7 1  
     5    3    4 1  
     6    4    5 1  
     7    5    6 2  
     8    7    8 2  
     9    7    9 am 
    10    9   10 1  
    11   10   11 1  
    12   10   13 1  
    13   11   12 2  
    14   11   17 am 
    15   13   14 1  
    16   14   15 1  
    17   14   16 1  
    18   17   18 1  
    19   18   19 1  
    20   18   21 1  
    21   19   20 2  
    22   19   29 am 
    23   21   22 1  
    24   22   23 ar 
    25   22   24 ar 
    26   23   25 ar 
    27   24   26 ar 
    28   25   27 ar 
    29   26   27 ar 
    30   27   28 1  
    31   29   30 1  
    32   30   31 1  
    33   30   33 1  
    34   31   32 2  
    35   31   38 am 
    36   33   34 1  
    37   34   35 1  
    38   35   36 ar 
    39   35   37 ar 
    40   38   39 1  
    41   39   40 1  
    42   39   42 1  
    43   40   41 2  
    44   42   43 1  
    45   43   44 2  
    46   43   45 am 
    47   46   47 1  
    48   46   52 1  
    49   47   48 1  
    50   47   50 1  
    51   48   49 2  
    52   48   53 am 
    53   50   51 1  
    54   51   52 1  
    55   53   54 1  
    56   54   55 1  
    57   54   57 1  
    58   55   56 2  
    59   55   65 am 
    60   57   58 1  
    61   58   59 ar 
    62   58   60 ar 
    63   59   61 ar 
    64   60   62 ar 
    65   61   63 ar 
    66   62   63 ar 
    67   63   64 1  
    68   65   66 1  
    69   66   67 1  
    70   66   69 1  
    71   67   68 2  
    72   67   73 am 
    73   69   70 1  
    74   69   71 1  
    75   70   72 1  
    76   73   74 1  
    77   74   75 1  
    78   74   77 1  
    79   75   76 ar 
    80   75   81 ar 
    81   77   78 1  
    82   78   79 1  
    83   78   80 1  
    84    1   82 1  
    85    2   83 1  
    86    3   84 1  
    87    3   85 1  
    88    4   86 1  
    89    4   87 1  
    90    9   88 1  
    91   10   89 1  
    92   13   90 1  
    93   13   91 1  
    94   14   92 1  
    95   15   93 1  
    96   15   94 1  
    97   15   95 1  
    98   16   96 1  
    99   16   97 1  
   100   16   98 1  
   101   17   99 1  
   102   18  100 1  
   103   21  101 1  
   104   21  102 1  
   105   23  103 1  
   106   24  104 1  
   107   25  105 1  
   108   26  106 1  
   109   28  107 1  
   110   29  108 1  
   111   30  109 1  
   112   33  110 1  
   113   33  111 1  
   114   34  112 1  
   115   34  113 1  
   116   38  114 1  
   117   39  115 1  
   118   40  116 1  
   119   42  117 1  
   120   42  118 1  
   121   45  119 1  
   122   45  120 1  
   123   46  121 1  
   124   46  122 1  
   125   47  123 1  
   126   50  124 1  
   127   50  125 1  
   128   51  126 1  
   129   51  127 1  
   130   52  128 1  
   131   52  129 1  
   132   53  130 1  
   133   54  131 1  
   134   57  132 1  
   135   57  133 1  
   136   59  134 1  
   137   60  135 1  
   138   61  136 1  
   139   62  137 1  
   140   64  138 1  
   141   65  139 1  
   142   66  140 1  
   143   69  141 1  
   144   70  142 1  
   145   70  143 1  
   146   71  144 1  
   147   71  145 1  
   148   71  146 1  
   149   72  147 1  
   150   72  148 1  
   151   72  149 1  
   152   73  150 1  
   153   74  151 1  
   154   77  152 1  
   155   77  153 1  
   156   78  154 1  
   157   79  155 1  
   158   79  156 1  
   159   79  157 1  
   160   80  158 1  
   161   80  159 1  
   162   80  160 1  
@<TRIPOS>SUBSTRUCTURE
     1 PCA         1
     2 PRO        46

