5gwa_ligand
  -I-interpret- 

 31 31  0  0  0  0  0  0  0  0999 V2000
    8.1410   -2.8180   21.8830 O   0  0  0  0  0
    7.3910   -2.0360   21.3090 C   0  0  0  0  0
    6.1640   -1.9040   21.5460 N   0  0  0  0  0
    5.4190   -0.7630   21.0570 C   0  0  0  0  0
    5.5090   -2.8210   22.4690 C   0  0  0  0  0
    4.4670   -3.6990   21.8660 C   0  0  0  0  0
    4.0900   -3.5510   20.7180 O   0  0  0  0  0
    3.8890   -4.5500   22.7180 N   0  0  0  0  0
    4.9250   -2.0270   23.6090 C   0  0  0  0  0
    4.1460   -0.8160   23.1540 C   0  0  0  0  0
    4.9670    0.0730   22.2300 C   0  0  0  0  0
    6.1010    0.8000   22.8380 N   0  3  0  0  0
    6.5960    0.2960   23.9490 O   0  0  0  0  0
    8.0430    0.6960   24.2570 S   0  0  0  0  0
    7.9020    1.7890   25.1670 O   0  0  0  0  0
    8.8330   -0.2460   24.9690 O   0  0  0  0  0
    8.7480    0.7640   22.7860 O   0  0  0  0  0
    7.8227   -1.4055   20.5317 H   0  0  0  0  0
    4.5501   -1.1063   20.4955 H   0  0  0  0  0
    6.0534   -0.1643   20.4034 H   0  0  0  0  0
    6.2821   -3.5091   22.8110 H   0  0  0  0  0
    3.0936   -5.1126   22.4160 H   0  0  0  0  0
    4.2430   -4.6372   23.6706 H   0  0  0  0  0
    5.7531   -1.6747   24.2241 H   0  0  0  0  0
    4.2368   -2.6791   24.1469 H   0  0  0  0  0
    3.8734   -0.2343   24.0346 H   0  0  0  0  0
    3.2685   -1.1600   22.6065 H   0  0  0  0  0
    4.3046    0.8839   21.9270 H   0  0  0  0  0
    5.7451    1.7242   23.0819 H   0  0  0  0  0
    6.8561    0.7680   22.1530 H   0  0  0  0  0
    8.7142   -0.1033   22.3758 H   0  0  0  0  0
  1  2  2  0  0  0
  2  3  1  0  0  0
  3  4  1  0  0  0
  3  5  1  0  0  0
  4 11  1  0  0  0
  5  6  1  0  0  0
  5  9  1  0  0  0
  6  7  2  0  0  0
  6  8  1  0  0  0
  9 10  1  0  0  0
 10 11  1  0  0  0
 11 12  1  0  0  0
 12 13  1  0  0  0
 13 14  1  0  0  0
 14 15  2  0  0  0
 14 16  2  0  0  0
 14 17  1  0  0  0
  2 18  1  0  0  0
  4 19  1  0  0  0
  4 20  1  0  0  0
  5 21  1  0  0  0
  8 22  1  0  0  0
  8 23  1  0  0  0
  9 24  1  0  0  0
  9 25  1  0  0  0
 10 26  1  0  0  0
 10 27  1  0  0  0
 11 28  1  0  0  0
 12 29  1  0  0  0
 12 30  1  0  0  0
 17 31  1  0  0  0
M  END
$$$$
