4cg8_ligand
  -I-interpret- 

 84 88  0  0  0  0  0  0  0  0999 V2000
   25.0640  -10.6800   13.9720 Cl  0  0  0  0  0
   16.7420   -6.8320    7.9150 C   0  0  0  0  0
   16.4010   -9.2820    8.6830 C   0  0  0  0  0
   21.2630  -15.0480   10.4710 C   0  0  0  0  0
   24.7780  -12.5550   12.0130 C   0  0  0  0  0
   22.7390  -11.4100   12.6970 C   0  0  0  0  0
   15.8400   -5.9100    1.2630 C   0  0  0  0  0
   17.5950   -7.5920    1.0340 C   0  0  0  0  0
   19.3130   -8.8020    4.7580 C   0  0  0  0  0
   21.3180   -8.3160    3.5150 C   0  0  0  0  0
   14.9770   -6.9110    1.7060 C   0  0  0  0  0
   16.7430   -8.5910    1.4830 C   0  0  0  0  0
   19.7750  -10.1100    4.9970 C   0  0  0  0  0
   21.7820   -9.6210    3.7520 C   0  0  0  0  0
   24.0320  -13.2910   11.0860 C   0  0  0  0  0
   21.9970  -12.1540   11.7720 C   0  0  0  0  0
   15.8570   -7.5100    5.4830 C   0  0  0  0  0
   15.5560   -9.8460    6.0060 C   0  0  0  0  0
   20.9600  -13.9900    7.8310 C   0  0  0  0  0
   22.5190  -12.2090    8.3600 C   0  0  0  0  0
   15.4150   -7.7910    4.2030 C   0  0  0  0  0
   15.1150  -10.1380    4.7020 C   0  0  0  0  0
   20.8590  -13.5050    6.5170 C   0  0  0  0  0
   22.4300  -11.7210    7.0540 C   0  0  0  0  0
   18.8020   -4.9590    1.8590 C   0  0  0  0  0
   19.7710   -6.1060    2.3060 C   0  0  0  0  0
   18.0410   -5.3040    0.5270 C   0  0  0  0  0
   19.5790   -6.5680    3.7810 C   0  0  0  0  0
   14.5990   -9.2230    2.3210 C   0  0  0  0  0
   21.4980  -11.8380    4.7090 C   0  0  0  0  0
   24.1230  -11.6180   12.8160 C   0  0  0  0  0
   17.1430   -6.2700    0.9180 C   0  0  0  0  0
   20.0730   -7.8890    4.0080 C   0  0  0  0  0
   15.4240   -8.2430    1.7880 C   0  0  0  0  0
   21.0180  -10.5260    4.5100 C   0  0  0  0  0
   15.9260   -8.5450    6.4040 C   0  0  0  0  0
   22.6460  -13.0860   10.9600 C   0  0  0  0  0
   21.8000  -13.3460    8.7720 C   0  0  0  0  0
   16.3520   -8.2360    7.6410 N   0  3  0  0  0
   21.9220  -13.7940   10.0510 N   0  0  0  0  0
   15.0270   -9.0870    3.7690 N   0  0  0  0  0
   21.5880  -12.3490    6.1190 N   0  0  0  0  0
   17.5614   -6.5484    7.2545 H   0  0  0  0  0
   15.8881   -6.1780    7.7382 H   0  0  0  0  0
   17.0622   -6.7411    8.9529 H   0  0  0  0  0
   15.4003   -9.6849    8.8389 H   0  0  0  0  0
   17.0699  -10.0809    8.3629 H   0  0  0  0  0
   16.7689   -8.8493    9.6133 H   0  0  0  0  0
   22.0162  -15.7517   10.8254 H   0  0  0  0  0
   20.5569  -14.8347   11.2735 H   0  0  0  0  0
   20.7315  -15.4794    9.6228 H   0  0  0  0  0
   25.8528  -12.7101   12.1072 H   0  0  0  0  0
   22.2429  -10.6696   13.3246 H   0  0  0  0  0
   15.5062   -4.8751    1.1882 H   0  0  0  0  0
   18.6236   -7.8370    0.7694 H   0  0  0  0  0
   18.3491   -8.4922    5.1617 H   0  0  0  0  0
   21.9332   -7.6240    2.9398 H   0  0  0  0  0
   13.9544   -6.6618    1.9893 H   0  0  0  0  0
   17.0922   -9.6175    1.5946 H   0  0  0  0  0
   19.1582  -10.8049    5.5669 H   0  0  0  0  0
   22.7431   -9.9347    3.3445 H   0  0  0  0  0
   24.5288  -14.0292   10.4564 H   0  0  0  0  0
   20.9204  -12.0067   11.6863 H   0  0  0  0  0
   16.1451   -6.4965    5.7623 H   0  0  0  0  0
   15.6136  -10.6547    6.7346 H   0  0  0  0  0
   20.3877  -14.8685    8.1289 H   0  0  0  0  0
   23.1607  -11.6967    9.0768 H   0  0  0  0  0
   15.3613   -6.9715    3.4863 H   0  0  0  0  0
   14.8472  -11.1563    4.4201 H   0  0  0  0  0
   20.2190  -14.0165    5.7980 H   0  0  0  0  0
   23.0154  -10.8502    6.7587 H   0  0  0  0  0
   19.3973   -4.0626    1.6853 H   0  0  0  0  0
   18.0601   -4.8182    2.6450 H   0  0  0  0  0
   20.7866   -5.7197    2.2203 H   0  0  0  0  0
   19.5639   -6.9670    1.6705 H   0  0  0  0  0
   18.7100   -5.6471   -0.2622 H   0  0  0  0  0
   17.5560   -4.4346    0.0830 H   0  0  0  0  0
   18.5109   -6.5660    3.9982 H   0  0  0  0  0
   20.1358   -5.8853    4.4229 H   0  0  0  0  0
   14.7089  -10.2176    1.8887 H   0  0  0  0  0
   13.5332   -9.0961    2.1309 H   0  0  0  0  0
   22.5228  -11.8307    4.3378 H   0  0  0  0  0
   20.7786  -12.4880    4.2109 H   0  0  0  0  0
   21.5301  -14.2051    9.3861 H   0  0  0  0  0
 31  1  1  0  0  0
 39  2  1  0  0  0
 39  3  1  0  0  0
 40  4  1  0  0  0
 15  5  4  0  0  0
  5 31  4  0  0  0
 16  6  4  0  0  0
  6 31  4  0  0  0
  7 11  4  0  0  0
 32  7  4  0  0  0
  8 12  4  0  0  0
 32  8  4  0  0  0
 13  9  4  0  0  0
  9 33  4  0  0  0
 14 10  4  0  0  0
 10 33  4  0  0  0
 11 34  4  0  0  0
 12 34  4  0  0  0
 35 13  4  0  0  0
 35 14  4  0  0  0
 37 15  4  0  0  0
 37 16  4  0  0  0
 21 17  2  0  0  0
 17 36  1  0  0  0
 22 18  2  0  0  0
 18 36  1  0  0  0
 19 23  2  0  0  0
 38 19  1  0  0  0
 20 24  2  0  0  0
 38 20  1  0  0  0
 41 21  1  0  0  0
 41 22  1  0  0  0
 23 42  1  0  0  0
 24 42  1  0  0  0
 26 25  1  0  0  0
 25 27  1  0  0  0
 28 26  1  0  0  0
 27 32  1  0  0  0
 33 28  1  0  0  0
 34 29  1  0  0  0
 29 41  1  0  0  0
 30 35  1  0  0  0
 42 30  1  0  0  0
 36 39  2  0  0  0
 40 37  1  0  0  0
 38 40  1  0  0  0
  2 43  1  0  0  0
  2 44  1  0  0  0
  2 45  1  0  0  0
  3 46  1  0  0  0
  3 47  1  0  0  0
  3 48  1  0  0  0
  4 49  1  0  0  0
  4 50  1  0  0  0
  4 51  1  0  0  0
  5 52  1  0  0  0
  6 53  1  0  0  0
  7 54  1  0  0  0
  8 55  1  0  0  0
  9 56  1  0  0  0
 10 57  1  0  0  0
 11 58  1  0  0  0
 12 59  1  0  0  0
 13 60  1  0  0  0
 14 61  1  0  0  0
 15 62  1  0  0  0
 16 63  1  0  0  0
 17 64  1  0  0  0
 18 65  1  0  0  0
 19 66  1  0  0  0
 20 67  1  0  0  0
 21 68  1  0  0  0
 22 69  1  0  0  0
 23 70  1  0  0  0
 24 71  1  0  0  0
 25 72  1  0  0  0
 25 73  1  0  0  0
 26 74  1  0  0  0
 26 75  1  0  0  0
 27 76  1  0  0  0
 27 77  1  0  0  0
 28 78  1  0  0  0
 28 79  1  0  0  0
 29 80  1  0  0  0
 29 81  1  0  0  0
 30 82  1  0  0  0
 30 83  1  0  0  0
 38 84  1  0  0  0
M  END
$$$$
