1qaq_ligand
  -I-interpret- 

 52 54  0  0  0  0  0  0  0  0999 V2000
   12.1110   36.9810   22.6730 N   0  3  0  0  0
   13.0760   37.6830   21.8340 C   0  0  0  0  0
   12.5140   37.4720   20.4390 C   0  0  0  0  0
   12.1870   38.4400   19.7820 O   0  0  0  0  0
   12.4100   36.3410   19.9940 O   0  0  0  0  0
   14.5510   37.2050   21.9730 C   0  0  0  0  0
   14.7890   35.7010   21.6950 C   0  0  0  0  0
   16.2600   35.3190   21.4260 C   0  0  0  0  0
   16.3560   34.3510   20.3450 N   0  3  0  0  0
   17.0300   34.7280   22.6350 C   0  0  0  0  0
   16.9900   35.5940   23.9090 C   0  0  0  0  0
   17.3120   34.8440   25.0610 O   0  0  0  0  0
   17.9390   36.7900   23.8840 C   0  0  0  0  0
   17.3230   37.9760   24.4190 O   0  0  0  0  0
   19.0850   36.3570   24.7890 C   0  0  0  0  0
   19.6350   37.4930   25.4650 O   0  0  0  0  0
   18.3690   35.4470   25.7770 C   0  0  0  0  0
   19.2690   34.4050   26.3280 N   0  0  0  0  0
   20.2890   33.7290   25.7320 C   0  0  0  0  0
   20.9130   32.8310   26.5310 N   0  0  0  0  0
   20.2390   32.9270   27.7310 C   0  0  0  0  0
   20.3470   32.3090   28.9550 C   0  0  0  0  0
   21.2880   31.3770   29.1540 N   0  0  0  0  0
   19.5340   32.5960   30.0050 N   0  0  0  0  0
   18.5710   33.5490   29.8160 C   0  0  0  0  0
   18.3780   34.2110   28.6580 N   0  0  0  0  0
   19.2110   33.9080   27.6150 C   0  0  0  0  0
   11.1795   37.3638   22.5110 H   0  0  0  0  0
   12.1174   35.9883   22.4388 H   0  0  0  0  0
   12.3637   37.1018   23.6538 H   0  0  0  0  0
   13.1710   38.7302   22.1210 H   0  0  0  0  0
   12.7147   35.7106   20.6508 H   0  0  0  0  0
   14.8390   37.3798   23.0096 H   0  0  0  0  0
   15.1282   37.7546   21.2295 H   0  0  0  0  0
   14.2271   35.4522   20.7947 H   0  0  0  0  0
   14.4796   35.1604   22.5895 H   0  0  0  0  0
   16.7255   36.2720   21.1748 H   0  0  0  0  0
   17.3358   34.1155   20.1871 H   0  0  0  0  0
   15.8390   33.5088   20.5975 H   0  0  0  0  0
   15.9603   34.7522   19.4948 H   0  0  0  0  0
   18.0756   34.6491   22.3375 H   0  0  0  0  0
   16.5540   33.7789   22.8813 H   0  0  0  0  0
   15.9629   35.9576   23.9409 H   0  0  0  0  0
   18.2459   37.0418   22.8689 H   0  0  0  0  0
   17.9490   38.7030   24.3861 H   0  0  0  0  0
   19.9156   35.8818   24.2670 H   0  0  0  0  0
   20.3556   37.2086   26.0319 H   0  0  0  0  0
   18.0120   36.0248   26.6295 H   0  0  0  0  0
   20.5802   33.8969   24.6951 H   0  0  0  0  0
   21.9246   31.1255   28.3978 H   0  0  0  0  0
   21.3680   30.9187   30.0617 H   0  0  0  0  0
   17.9181   33.7882   30.6554 H   0  0  0  0  0
  1  2  1  0  0  0
  2  3  1  0  0  0
  2  6  1  0  0  0
  3  4  2  0  0  0
  3  5  1  0  0  0
  6  7  1  0  0  0
  7  8  1  0  0  0
  8  9  1  0  0  0
  8 10  1  0  0  0
 10 11  1  0  0  0
 11 12  1  0  0  0
 11 13  1  0  0  0
 12 17  1  0  0  0
 13 14  1  0  0  0
 13 15  1  0  0  0
 15 16  1  0  0  0
 15 17  1  0  0  0
 17 18  1  0  0  0
 18 19  4  0  0  0
 18 27  4  0  0  0
 19 20  4  0  0  0
 20 21  4  0  0  0
 21 22  4  0  0  0
 21 27  4  0  0  0
 22 23  1  0  0  0
 22 24  4  0  0  0
 24 25  4  0  0  0
 25 26  4  0  0  0
 26 27  4  0  0  0
  1 28  1  0  0  0
  1 29  1  0  0  0
  1 30  1  0  0  0
  2 31  1  0  0  0
  5 32  1  0  0  0
  6 33  1  0  0  0
  6 34  1  0  0  0
  7 35  1  0  0  0
  7 36  1  0  0  0
  8 37  1  0  0  0
  9 38  1  0  0  0
  9 39  1  0  0  0
  9 40  1  0  0  0
 10 41  1  0  0  0
 10 42  1  0  0  0
 11 43  1  0  0  0
 13 44  1  0  0  0
 14 45  1  0  0  0
 15 46  1  0  0  0
 16 47  1  0  0  0
 17 48  1  0  0  0
 19 49  1  0  0  0
 23 50  1  0  0  0
 23 51  1  0  0  0
 25 52  1  0  0  0
M  END
$$$$
