4whz_ligand
  -I-interpret- 

 59 63  0  0  0  0  0  0  0  0999 V2000
    3.2520  106.8380  141.2970 C   0  0  0  0  0
    1.3460  105.9770  142.0840 C   0  0  0  0  0
    2.4080  105.7420  141.2070 C   0  0  0  0  0
    3.2450  109.0390  142.5320 C   0  0  0  0  0
    1.7210  103.7400  139.8510 C   0  0  0  0  0
    6.6660   99.4520  140.5770 C   0  0  0  0  0
    4.8440   98.6360  139.6110 C   0  0  0  0  0
    8.3500   92.4320  140.6220 Cl  0  0  0  0  0
    8.1510   93.4850  142.0370 C   0  0  0  0  0
    9.0140   93.3690  143.1260 C   0  0  0  0  0
    8.8470   94.2580  144.2260 C   0  0  0  0  0
    7.8010   95.1810  144.2200 C   0  0  0  0  0
    6.9060   95.2280  143.1690 C   0  0  0  0  0
    7.1660   94.4360  141.9860 C   0  0  0  0  0
    6.2310   94.4830  140.9190 N   0  0  0  0  0
    5.7520   95.7140  140.3610 C   0  0  0  0  0
    4.7730   95.6800  139.6000 O   0  0  0  0  0
    6.4480   96.9810  140.6440 N   0  0  0  0  0
    6.0360   98.2860  140.2370 C   0  0  0  0  0
    5.9010  100.4640  140.1370 N   0  0  0  0  0
    4.8380   99.9670  139.5010 N   0  0  0  0  0
    3.7960  100.6530  138.9600 C   0  0  0  0  0
    3.0920  100.1520  137.8470 C   0  0  0  0  0
    1.9300  100.8040  137.4080 C   0  0  0  0  0
    1.5190  102.0020  137.9980 C   0  0  0  0  0
    2.2170  102.4940  139.1100 C   0  0  0  0  0
    3.3240  101.8050  139.6060 C   0  0  0  0  0
    0.5350  103.9680  139.9190 O   0  0  0  0  0
    2.6880  104.5440  140.4460 N   0  0  0  0  0
    1.5310  107.1950  142.6280 N   0  0  0  0  0
    2.7000  107.7190  142.1760 N   0  0  0  0  0
    2.3810  110.2320  142.0800 C   0  0  0  0  0
    2.1200  110.9640  143.1670 C   0  0  0  0  0
    3.1650  110.4890  144.2970 N   0  3  0  0  0
    3.3480  109.2070  144.0790 C   0  0  0  0  0
    4.1909  106.9708  140.7595 H   0  0  0  0  0
    0.5185  105.2982  142.2903 H   0  0  0  0  0
    4.2088  109.0556  142.0231 H   0  0  0  0  0
    7.6140   99.5427  141.1072 H   0  0  0  0  0
    4.0634   97.9538  139.2743 H   0  0  0  0  0
    9.7999   92.6138  143.1352 H   0  0  0  0  0
    9.5348   94.2173  145.0706 H   0  0  0  0  0
    7.6887   95.8732  145.0545 H   0  0  0  0  0
    6.0154   95.8535  143.2298 H   0  0  0  0  0
    5.8854   93.6044  140.5331 H   0  0  0  0  0
    7.3106   96.9199  141.1849 H   0  0  0  0  0
    3.4487   99.2616  137.3293 H   0  0  0  0  0
    1.3419  100.3717  136.5985 H   0  0  0  0  0
    0.6648  102.5483  137.5980 H   0  0  0  0  0
    3.8266  102.1652  140.5036 H   0  0  0  0  0
    3.6643  104.2691  140.3379 H   0  0  0  0  0
    1.4561  109.8841  141.6199 H   0  0  0  0  0
    2.9076  110.8268  141.3336 H   0  0  0  0  0
    1.0920  110.8184  143.4990 H   0  0  0  0  0
    2.2279  112.0281  142.9571 H   0  0  0  0  0
    2.8088  110.6640  145.2366 H   0  0  0  0  0
    4.0408  111.0090  144.2423 H   0  0  0  0  0
    4.3120  108.8674  144.4579 H   0  0  0  0  0
    2.6079  108.5999  144.6004 H   0  0  0  0  0
  3  1  4  0  0  0
  1 31  4  0  0  0
  3  2  4  0  0  0
  2 30  4  0  0  0
 29  3  1  0  0  0
 31  4  1  0  0  0
  4 32  1  0  0  0
  4 35  1  0  0  0
 26  5  1  0  0  0
  5 28  2  0  0  0
  5 29  1  0  0  0
  6 19  4  0  0  0
 20  6  4  0  0  0
  7 19  4  0  0  0
 21  7  4  0  0  0
  9  8  1  0  0  0
  9 10  4  0  0  0
 14  9  4  0  0  0
 10 11  4  0  0  0
 12 11  4  0  0  0
 13 12  4  0  0  0
 14 13  4  0  0  0
 15 14  1  0  0  0
 16 15  1  0  0  0
 16 17  2  0  0  0
 18 16  1  0  0  0
 19 18  1  0  0  0
 21 20  4  0  0  0
 22 21  1  0  0  0
 23 22  4  0  0  0
 22 27  4  0  0  0
 24 23  4  0  0  0
 25 24  4  0  0  0
 25 26  4  0  0  0
 26 27  4  0  0  0
 30 31  4  0  0  0
 32 33  1  0  0  0
 33 34  1  0  0  0
 34 35  1  0  0  0
  1 36  1  0  0  0
  2 37  1  0  0  0
  4 38  1  0  0  0
  6 39  1  0  0  0
  7 40  1  0  0  0
 10 41  1  0  0  0
 11 42  1  0  0  0
 12 43  1  0  0  0
 13 44  1  0  0  0
 15 45  1  0  0  0
 18 46  1  0  0  0
 23 47  1  0  0  0
 24 48  1  0  0  0
 25 49  1  0  0  0
 27 50  1  0  0  0
 29 51  1  0  0  0
 32 52  1  0  0  0
 32 53  1  0  0  0
 33 54  1  0  0  0
 33 55  1  0  0  0
 34 56  1  0  0  0
 34 57  1  0  0  0
 35 58  1  0  0  0
 35 59  1  0  0  0
M  END
$$$$
