5g4o_ligand
  -I-interpret- 

 40 42  0  0  0  0  0  0  0  0999 V2000
   91.5310   93.2210  -44.2720 C   0  0  0  0  0
   94.2510   93.5720  -41.1270 F   0  0  0  0  0
   91.8380   93.4660  -42.9490 N   0  0  0  0  0
   91.1050   94.4250  -44.8220 C   0  0  0  0  0
   94.2470   91.4000  -41.2450 F   0  0  0  0  0
   91.9430   99.7870  -42.5300 N   0  3  0  0  0
   91.1680   95.4030  -43.7890 C   0  0  0  0  0
   94.4060   92.5870  -43.0660 F   0  0  0  0  0
   91.6290   94.7800  -42.6280 C   0  0  0  0  0
   91.5840   92.0450  -45.0240 C   0  0  0  0  0
   91.2020   92.1010  -46.3650 C   0  0  0  0  0
   90.7740   93.2940  -46.9370 C   0  0  0  0  0
   90.7210   94.4660  -46.1770 C   0  0  0  0  0
   91.8110   95.4540  -41.4150 C   0  0  0  0  0
   91.5100   96.8130  -41.3930 C   0  0  0  0  0
   91.0480   97.4620  -42.5330 C   0  0  0  0  0
   90.8730   96.7690  -43.7320 C   0  0  0  0  0
   92.3190   92.4910  -42.0010 C   0  0  0  0  0
   93.8190   92.5240  -41.8570 C   0  0  0  0  0
   90.7380   98.9130  -42.4700 C   0  0  0  0  0
   92.5410   99.7380  -43.8930 C   0  0  0  0  0
   91.5620  101.1900  -42.2180 C   0  0  0  0  0
   92.6240   99.4545  -41.8473 H   0  0  0  0  0
   91.9150   91.1084  -44.5752 H   0  0  0  0  0
   91.2396   91.1969  -46.9726 H   0  0  0  0  0
   90.4776   93.3154  -47.9857 H   0  0  0  0  0
   90.3865   95.4006  -46.6273 H   0  0  0  0  0
   92.1727   94.9372  -40.5261 H   0  0  0  0  0
   91.6383   97.3766  -40.4689 H   0  0  0  0  0
   90.5088   97.2890  -44.6180 H   0  0  0  0  0
   92.0356   91.5017  -42.3604 H   0  0  0  0  0
   91.8811   92.7196  -41.0294 H   0  0  0  0  0
   90.1194   99.1516  -43.3351 H   0  0  0  0  0
   90.2475   99.0999  -41.5147 H   0  0  0  0  0
   92.8291   98.7128  -44.1253 H   0  0  0  0  0
   91.8090  100.0851  -44.6222 H   0  0  0  0  0
   93.4210  100.3804  -43.9256 H   0  0  0  0  0
   90.8278  101.5361  -42.9455 H   0  0  0  0  0
   91.1326  101.2345  -41.2171 H   0  0  0  0  0
   92.4473  101.8242  -42.2635 H   0  0  0  0  0
  3  1  4  0  0  0
  1  4  4  0  0  0
  1 10  4  0  0  0
 19  2  1  0  0  0
  3  9  4  0  0  0
 18  3  1  0  0  0
  7  4  4  0  0  0
  4 13  4  0  0  0
 19  5  1  0  0  0
 20  6  1  0  0  0
  6 21  1  0  0  0
  6 22  1  0  0  0
  9  7  4  0  0  0
  7 17  4  0  0  0
 19  8  1  0  0  0
  9 14  4  0  0  0
 10 11  4  0  0  0
 11 12  4  0  0  0
 13 12  4  0  0  0
 14 15  4  0  0  0
 15 16  4  0  0  0
 17 16  4  0  0  0
 16 20  1  0  0  0
 18 19  1  0  0  0
  6 23  1  0  0  0
 10 24  1  0  0  0
 11 25  1  0  0  0
 12 26  1  0  0  0
 13 27  1  0  0  0
 14 28  1  0  0  0
 15 29  1  0  0  0
 17 30  1  0  0  0
 18 31  1  0  0  0
 18 32  1  0  0  0
 20 33  1  0  0  0
 20 34  1  0  0  0
 21 35  1  0  0  0
 21 36  1  0  0  0
 21 37  1  0  0  0
 22 38  1  0  0  0
 22 39  1  0  0  0
 22 40  1  0  0  0
M  END
$$$$
