6pga_ligand
  -I-interpret- 

 32 32  0  0  0  0  0  0  0  0999 V2000
    3.2890   76.5820    6.5800 C   0  0  0  0  0
    4.0130   76.0960    5.4840 O   0  0  0  0  0
    4.8270   74.9690    5.7730 C   0  0  0  0  0
    5.9420   74.6670    4.8930 N   0  0  0  0  0
    6.7090   73.4600    5.0380 C   0  0  0  0  0
    6.4930   72.5750    3.8230 C   0  0  0  0  0
    5.0810   71.9910    3.7470 C   0  0  0  0  0
    4.8230   70.8920    4.7800 C   0  0  0  0  0
    3.4650   70.2250    4.6230 C   0  0  0  0  0
    2.6760   69.8090    5.6320 N   0  0  0  0  0
    1.5740   69.2980    5.1230 C   0  0  0  0  0
    0.4390   68.7140    5.9390 C   0  0  0  0  0
   -0.6380   68.3430    5.1010 O   0  0  0  0  0
    1.6710   69.3830    3.7670 C   0  0  0  0  0
    2.8180   69.9420    3.4840 N   0  0  0  0  0
    4.6010   74.2780    6.7070 O   0  0  0  0  0
    2.6289   75.7992    6.9537 H   0  0  0  0  0
    3.9811   76.8818    7.3669 H   0  0  0  0  0
    2.6955   77.4419    6.2693 H   0  0  0  0  0
    6.1866   75.3269    4.1547 H   0  0  0  0  0
    6.3879   72.9307    5.9351 H   0  0  0  0  0
    7.7667   73.7093    5.1229 H   0  0  0  0  0
    7.1921   71.7416    3.8926 H   0  0  0  0  0
    6.6449   73.1892    2.9354 H   0  0  0  0  0
    4.9609   71.5480    2.7583 H   0  0  0  0  0
    4.3789   72.8007    3.9457 H   0  0  0  0  0
    4.8506   71.3544    5.7667 H   0  0  0  0  0
    5.5847   70.1247    4.6417 H   0  0  0  0  0
    0.0916   69.4651    6.6485 H   0  0  0  0  0
    0.7999   67.8287    6.4626 H   0  0  0  0  0
   -1.3460   67.9758    5.6354 H   0  0  0  0  0
    0.9256   69.0453    3.0469 H   0  0  0  0  0
  1  2  1  0  0  0
  2  3  1  0  0  0
  3  4  1  0  0  0
  3 16  2  0  0  0
  4  5  1  0  0  0
  5  6  1  0  0  0
  6  7  1  0  0  0
  7  8  1  0  0  0
  8  9  1  0  0  0
  9 10  4  0  0  0
  9 15  4  0  0  0
 10 11  4  0  0  0
 11 12  1  0  0  0
 11 14  4  0  0  0
 12 13  1  0  0  0
 14 15  4  0  0  0
  1 17  1  0  0  0
  1 18  1  0  0  0
  1 19  1  0  0  0
  4 20  1  0  0  0
  5 21  1  0  0  0
  5 22  1  0  0  0
  6 23  1  0  0  0
  6 24  1  0  0  0
  7 25  1  0  0  0
  7 26  1  0  0  0
  8 27  1  0  0  0
  8 28  1  0  0  0
 12 29  1  0  0  0
 12 30  1  0  0  0
 13 31  1  0  0  0
 14 32  1  0  0  0
M  END
$$$$
