6b5i_ligand
  -I-interpret- 

 50 53  0  0  0  0  0  0  0  0999 V2000
   45.2550  146.7790  361.1900 C   0  0  0  0  0
   45.1610  149.1330  363.0060 C   0  0  0  0  0
   44.4980  148.7370  364.1890 C   0  0  0  0  0
   43.6510  149.6330  364.8820 C   0  0  0  0  0
   43.4230  150.9390  364.3910 C   0  0  0  0  0
   44.0940  151.3310  363.2080 C   0  0  0  0  0
   44.9450  150.4410  362.5210 C   0  0  0  0  0
   42.5860  151.8790  365.0490 C   0  0  0  0  0
   40.9790  153.0200  366.0450 C   0  0  0  0  0
   41.2460  151.7710  365.4820 C   0  0  0  0  0
   40.3330  150.6830  365.3890 C   0  0  0  0  0
   37.9870  149.9130  365.7610 C   0  0  0  0  0
   36.7000  150.3820  366.1140 C   0  0  0  0  0
   35.5930  149.5080  366.1070 C   0  0  0  0  0
   35.7520  148.1580  365.7440 C   0  0  0  0  0
   37.0240  147.6710  365.3840 C   0  0  0  0  0
   38.1180  148.5480  365.3950 C   0  0  0  0  0
   42.2600  155.0720  366.3600 C   0  0  0  0  0
   43.1540  155.9170  365.6640 C   0  0  0  0  0
   43.3440  157.2530  366.0680 C   0  0  0  0  0
   42.6370  157.7640  367.1790 C   0  0  0  0  0
   41.7420  156.9250  367.8760 C   0  0  0  0  0
   41.5530  155.5900  367.4680 C   0  0  0  0  0
   42.8120  158.9990  367.5520 C   0  0  0  0  0
   37.2070  146.4210  365.0410 F   0  0  0  0  0
   43.0240  153.1120  365.3550 N   0  0  0  0  0
   42.0880  153.7850  365.9450 N   0  0  0  0  0
   39.0240  150.8220  365.7800 N   0  0  0  0  0
   42.9730  160.0890  367.8750 N   0  0  0  0  0
   47.1810  148.7940  361.1090 O   0  0  0  0  0
   47.1900  147.2020  363.1480 O   0  0  0  0  0
   40.7540  149.5940  364.9340 O   0  0  0  0  0
   46.2340  148.0060  362.1390 S   0  0  0  0  0
   44.6511  147.2962  360.4444 H   0  0  0  0  0
   45.9308  146.0831  360.6929 H   0  0  0  0  0
   44.6034  146.2311  361.8707 H   0  0  0  0  0
   44.6412  147.7270  364.5730 H   0  0  0  0  0
   43.1684  149.3128  365.8054 H   0  0  0  0  0
   43.9502  152.3397  362.8208 H   0  0  0  0  0
   45.4409  150.7662  361.6064 H   0  0  0  0  0
   40.0331  153.3271  366.4911 H   0  0  0  0  0
   36.5628  151.4266  366.3935 H   0  0  0  0  0
   34.6072  149.8811  366.3848 H   0  0  0  0  0
   34.8913  147.4892  365.7413 H   0  0  0  0  0
   39.1005  148.1693  365.1134 H   0  0  0  0  0
   43.7026  155.5305  364.8050 H   0  0  0  0  0
   44.0374  157.8932  365.5227 H   0  0  0  0  0
   41.1938  157.3120  368.7349 H   0  0  0  0  0
   40.8560  154.9519  368.0113 H   0  0  0  0  0
   38.7799  151.7439  366.1419 H   0  0  0  0  0
 33  1  1  0  0  0
  3  2  4  0  0  0
  7  2  4  0  0  0
  2 33  1  0  0  0
  4  3  4  0  0  0
  5  4  4  0  0  0
  5  6  4  0  0  0
  8  5  1  0  0  0
  6  7  4  0  0  0
 10  8  4  0  0  0
  8 26  4  0  0  0
  9 10  4  0  0  0
 27  9  4  0  0  0
 10 11  1  0  0  0
 11 28  1  0  0  0
 11 32  2  0  0  0
 12 13  4  0  0  0
 12 17  4  0  0  0
 28 12  1  0  0  0
 13 14  4  0  0  0
 14 15  4  0  0  0
 16 15  4  0  0  0
 17 16  4  0  0  0
 16 25  1  0  0  0
 18 19  4  0  0  0
 18 23  4  0  0  0
 18 27  1  0  0  0
 19 20  4  0  0  0
 20 21  4  0  0  0
 21 22  4  0  0  0
 21 24  1  0  0  0
 22 23  4  0  0  0
 24 29  3  0  0  0
 26 27  4  0  0  0
 33 30  2  0  0  0
 33 31  2  0  0  0
  1 34  1  0  0  0
  1 35  1  0  0  0
  1 36  1  0  0  0
  3 37  1  0  0  0
  4 38  1  0  0  0
  6 39  1  0  0  0
  7 40  1  0  0  0
  9 41  1  0  0  0
 13 42  1  0  0  0
 14 43  1  0  0  0
 15 44  1  0  0  0
 17 45  1  0  0  0
 19 46  1  0  0  0
 20 47  1  0  0  0
 22 48  1  0  0  0
 23 49  1  0  0  0
 28 50  1  0  0  0
M  END
$$$$
