2q5k_ligand
  -I-interpret- 

 94 97  0  0  0  0  0  0  0  0999 V2000
   22.7850   24.6920    7.6740 C   0  0  0  0  0
   22.8720   26.9600    8.6950 C   0  0  0  0  0
   22.8430   26.2470    9.9800 N   0  0  0  0  0
   22.6460   24.9220   10.1120 C   0  0  0  0  0
   22.5750   24.1700    9.0120 N   0  0  0  0  0
   22.2230   32.6130   15.1280 C   0  0  0  0  0
   22.0280   33.4870   16.1990 C   0  0  0  0  0
   22.2160   34.8690   16.0550 C   0  0  0  0  0
   22.6080   35.3800   14.8310 C   0  0  0  0  0
   22.8160   34.5020   13.7580 C   0  0  0  0  0
   22.6240   33.1250   13.8940 C   0  0  0  0  0
   22.5470   24.3900   11.2140 O   0  0  0  0  0
   22.9900   27.1020   11.1820 C   0  0  0  0  0
   21.7670   27.9750   11.3490 C   0  0  0  0  0
   20.8990   27.5420   12.2660 N   0  0  0  0  0
   19.6460   28.2150   12.5740 C   0  0  0  0  0
   24.3250   27.8640   11.1850 C   0  0  0  0  0
   24.4610   28.7190   12.4490 C   0  0  0  0  0
   25.5050   26.8940   11.0710 C   0  0  0  0  0
   21.5840   28.9760   10.6680 O   0  0  0  0  0
   17.8410   27.5710    8.3780 C   0  0  0  0  0
   18.4630   26.4140    7.9150 C   0  0  0  0  0
   19.0920   25.5610    8.8140 C   0  0  0  0  0
   19.0850   25.8600   10.1690 C   0  0  0  0  0
   18.4880   27.0370   10.6270 C   0  0  0  0  0
   17.8540   27.8790    9.7300 C   0  0  0  0  0
   18.4610   27.3660   12.0980 C   0  0  0  0  0
   19.4440   28.4370   14.0760 C   0  0  0  0  0
   20.6100   29.1040   14.8020 C   0  0  0  0  0
   20.7920   30.6000   14.5020 C   0  0  0  0  0
   19.5940   31.3660   14.8060 N   0  0  0  0  0
   18.7790   31.8830   13.8680 C   0  0  0  0  0
   17.5640   32.6660   14.3130 C   0  0  0  0  0
   17.3860   32.6890   15.7200 O   0  0  0  0  0
   16.6480   33.6960   16.2900 C   0  0  0  0  0
   20.4030   28.9020   16.2120 O   0  0  0  0  0
   21.9980   31.1230   15.3060 C   0  0  0  0  0
   18.9350   31.7700   12.6620 O   0  0  0  0  0
   15.2580   33.6350   16.2760 C   0  0  0  0  0
   14.5200   34.6650   16.8560 C   0  0  0  0  0
   15.1560   35.7480   17.4580 C   0  0  0  0  0
   16.5400   35.8040   17.4710 C   0  0  0  0  0
   17.2900   34.7730   16.8980 C   0  0  0  0  0
   18.7990   34.8370   16.9370 C   0  0  0  0  0
   14.5440   32.4870   15.6100 C   0  0  0  0  0
   23.5400   26.0140    7.7090 C   0  0  0  0  0
   21.8130   24.8593    7.2100 H   0  0  0  0  0
   23.3743   23.9704    7.1082 H   0  0  0  0  0
   23.4196   27.8990    8.7756 H   0  0  0  0  0
   21.8672   27.2277    8.3681 H   0  0  0  0  0
   22.3623   23.1779    9.1167 H   0  0  0  0  0
   21.7236   33.0872   17.1662 H   0  0  0  0  0
   22.0543   35.5360   16.9018 H   0  0  0  0  0
   22.7535   36.4525   14.7022 H   0  0  0  0  0
   23.1348   34.9029   12.7958 H   0  0  0  0  0
   22.7855   32.4590   13.0464 H   0  0  0  0  0
   23.0403   26.4712   12.0695 H   0  0  0  0  0
   21.1269   26.6910   12.7801 H   0  0  0  0  0
   19.6942   29.1786   12.0668 H   0  0  0  0  0
   24.3358   28.5249   10.3183 H   0  0  0  0  0
   23.6443   29.4398   12.4881 H   0  0  0  0  0
   24.4214   28.0751   13.3276 H   0  0  0  0  0
   25.4137   29.2482   12.4274 H   0  0  0  0  0
   25.4907   26.2056   11.9159 H   0  0  0  0  0
   25.4228   26.3315   10.1410 H   0  0  0  0  0
   26.4383   27.4571   11.0753 H   0  0  0  0  0
   17.3418   28.2373    7.6745 H   0  0  0  0  0
   18.4565   26.1783    6.8508 H   0  0  0  0  0
   19.5894   24.6597    8.4557 H   0  0  0  0  0
   19.5471   25.1738   10.8788 H   0  0  0  0  0
   17.3644   28.7852   10.0867 H   0  0  0  0  0
   17.5561   27.9453   12.2815 H   0  0  0  0  0
   18.5041   26.4211   12.6397 H   0  0  0  0  0
   19.3225   27.4503   14.5229 H   0  0  0  0  0
   18.5894   29.1056   14.1797 H   0  0  0  0  0
   21.5293   28.6421   14.4421 H   0  0  0  0  0
   20.9760   30.7237   13.4348 H   0  0  0  0  0
   19.3578   31.5203   15.7862 H   0  0  0  0  0
   16.6878   32.1824   13.8810 H   0  0  0  0  0
   17.7013   33.6962   13.9845 H   0  0  0  0  0
   21.1209   29.3103   16.7014 H   0  0  0  0  0
   21.7997   30.9395   16.3620 H   0  0  0  0  0
   22.8878   30.6061   14.9466 H   0  0  0  0  0
   13.4310   34.6225   16.8383 H   0  0  0  0  0
   14.5695   36.5450   17.9151 H   0  0  0  0  0
   17.0454   36.6541   17.9292 H   0  0  0  0  0
   19.1846   33.9680   17.4701 H   0  0  0  0  0
   19.1876   34.8420   15.9186 H   0  0  0  0  0
   19.1096   35.7470   17.4503 H   0  0  0  0  0
   14.8130   32.4569   14.5541 H   0  0  0  0  0
   14.8372   31.5522   16.0877 H   0  0  0  0  0
   13.4672   32.6245   15.7082 H   0  0  0  0  0
   23.5303   26.4620    6.7154 H   0  0  0  0  0
   24.5688   25.8343    8.0211 H   0  0  0  0  0
  5  1  1  0  0  0
 46  1  1  0  0  0
  3  2  1  0  0  0
  2 46  1  0  0  0
  3  4  1  0  0  0
 13  3  1  0  0  0
  4  5  1  0  0  0
  4 12  2  0  0  0
  6  7  4  0  0  0
  6 11  4  0  0  0
 37  6  1  0  0  0
  7  8  4  0  0  0
  8  9  4  0  0  0
 10  9  4  0  0  0
 11 10  4  0  0  0
 14 13  1  0  0  0
 13 17  1  0  0  0
 15 14  1  0  0  0
 14 20  2  0  0  0
 16 15  1  0  0  0
 16 27  1  0  0  0
 28 16  1  0  0  0
 17 18  1  0  0  0
 17 19  1  0  0  0
 21 22  4  0  0  0
 26 21  4  0  0  0
 23 22  4  0  0  0
 24 23  4  0  0  0
 25 24  4  0  0  0
 25 26  4  0  0  0
 27 25  1  0  0  0
 29 28  1  0  0  0
 30 29  1  0  0  0
 29 36  1  0  0  0
 30 31  1  0  0  0
 30 37  1  0  0  0
 31 32  1  0  0  0
 32 33  1  0  0  0
 32 38  2  0  0  0
 33 34  1  0  0  0
 34 35  1  0  0  0
 35 39  4  0  0  0
 35 43  4  0  0  0
 39 40  4  0  0  0
 39 45  1  0  0  0
 40 41  4  0  0  0
 41 42  4  0  0  0
 42 43  4  0  0  0
 43 44  1  0  0  0
  1 47  1  0  0  0
  1 48  1  0  0  0
  2 49  1  0  0  0
  2 50  1  0  0  0
  5 51  1  0  0  0
  7 52  1  0  0  0
  8 53  1  0  0  0
  9 54  1  0  0  0
 10 55  1  0  0  0
 11 56  1  0  0  0
 13 57  1  0  0  0
 15 58  1  0  0  0
 16 59  1  0  0  0
 17 60  1  0  0  0
 18 61  1  0  0  0
 18 62  1  0  0  0
 18 63  1  0  0  0
 19 64  1  0  0  0
 19 65  1  0  0  0
 19 66  1  0  0  0
 21 67  1  0  0  0
 22 68  1  0  0  0
 23 69  1  0  0  0
 24 70  1  0  0  0
 26 71  1  0  0  0
 27 72  1  0  0  0
 27 73  1  0  0  0
 28 74  1  0  0  0
 28 75  1  0  0  0
 29 76  1  0  0  0
 30 77  1  0  0  0
 31 78  1  0  0  0
 33 79  1  0  0  0
 33 80  1  0  0  0
 36 81  1  0  0  0
 37 82  1  0  0  0
 37 83  1  0  0  0
 40 84  1  0  0  0
 41 85  1  0  0  0
 42 86  1  0  0  0
 44 87  1  0  0  0
 44 88  1  0  0  0
 44 89  1  0  0  0
 45 90  1  0  0  0
 45 91  1  0  0  0
 45 92  1  0  0  0
 46 93  1  0  0  0
 46 94  1  0  0  0
M  END
$$$$
