1bdq_ligand
  -I-interpret- 

 80 82  0  0  0  0  0  0  0  0999 V2000
  -10.6520   15.6080   33.1220 C   0  0  0  0  0
  -12.1320   15.3120   32.9150 C   0  0  0  0  0
   -9.8390   14.3680   33.4500 C   0  0  0  0  0
  -10.5140   16.5010   34.3430 C   0  0  0  0  0
  -10.0810   15.7520   30.7350 C   0  0  0  0  0
  -11.0340   15.6200   28.4770 C   0  0  0  0  0
  -12.4740   15.3050   28.0710 C   0  0  0  0  0
  -13.0690   14.1930   28.9300 C   0  0  0  0  0
  -14.0650   14.4900   29.8700 C   0  0  0  0  0
  -14.5900   13.4580   30.6480 C   0  0  0  0  0
  -14.1380   12.1430   30.5000 C   0  0  0  0  0
  -13.1560   11.8530   29.5700 C   0  0  0  0  0
  -12.6200   12.8700   28.7860 C   0  0  0  0  0
  -10.4210   16.7000   27.5410 C   0  0  0  0  0
   -8.9600   16.8980   27.8650 C   0  0  0  0  0
   -8.1280   17.6210   26.8790 C   0  0  0  0  0
   -6.7630   17.8950   27.5820 C   0  0  0  0  0
   -5.5980   18.0140   26.6140 C   0  0  0  0  0
   -5.5060   19.1210   25.7610 C   0  0  0  0  0
   -4.5030   19.1510   24.8050 C   0  0  0  0  0
   -3.6020   18.0940   24.6950 C   0  0  0  0  0
   -3.6960   16.9950   25.5380 C   0  0  0  0  0
   -4.6910   16.9510   26.5000 C   0  0  0  0  0
   -8.0190   16.7770   25.6070 C   0  0  0  0  0
   -8.1050   16.7030   23.1800 C   0  0  0  0  0
   -9.4460   16.6830   22.4220 C   0  0  0  0  0
  -10.5120   15.9660   23.2260 C   0  0  0  0  0
   -7.0610   17.4910   22.3880 C   0  0  0  0  0
   -5.2960   17.7920   21.1950 C   0  0  0  0  0
   -5.8430   19.0150   21.5680 C   0  0  0  0  0
  -11.0090   16.1020   29.8520 N   0  0  0  0  0
   -8.2020   17.4050   24.4550 N   0  0  0  0  0
   -6.1220   16.8400   21.7460 N   0  0  0  0  0
   -6.9820   18.8040   22.3280 N   0  0  0  0  0
   -9.1690   14.9890   30.4220 O   0  0  0  0  0
  -11.0130   18.0050   27.7150 O   0  0  0  0  0
   -7.7480   15.5820   25.6600 O   0  0  0  0  0
  -10.1180   16.2780   32.0270 O   0  0  0  0  0
   -9.2544   15.9562   21.0779 C   0  0  0  0  0
  -12.6732   16.2486   32.7805 H   0  0  0  0  0
  -12.2562   14.6887   32.0294 H   0  0  0  0  0
  -12.5218   14.7877   33.7875 H   0  0  0  0  0
   -9.8422   13.6956   32.5921 H   0  0  0  0  0
   -8.8142   14.6579   33.6822 H   0  0  0  0  0
  -10.2791   13.8636   34.3102 H   0  0  0  0  0
   -9.4599   16.7184   34.5153 H   0  0  0  0  0
  -11.0553   17.4318   34.1738 H   0  0  0  0  0
  -10.9281   15.9913   35.2130 H   0  0  0  0  0
  -10.4433   14.7078   28.3922 H   0  0  0  0  0
  -12.4748   14.9755   27.0320 H   0  0  0  0  0
  -13.0748   16.2042   28.2070 H   0  0  0  0  0
  -14.4241   15.5120   29.9914 H   0  0  0  0  0
  -15.3643   13.6800   31.3824 H   0  0  0  0  0
  -14.5586   11.3483   31.1161 H   0  0  0  0  0
  -12.8024   10.8288   29.4514 H   0  0  0  0  0
  -11.8458   12.6382   28.0546 H   0  0  0  0  0
  -10.5974   16.3325   26.5301 H   0  0  0  0  0
   -8.5363   15.8955   27.9243 H   0  0  0  0  0
   -8.9419   17.5106   28.7664 H   0  0  0  0  0
   -8.5513   18.5745   26.5633 H   0  0  0  0  0
   -6.5577   17.0511   28.2406 H   0  0  0  0  0
   -6.8501   18.8450   28.1092 H   0  0  0  0  0
   -6.2125   19.9465   25.8477 H   0  0  0  0  0
   -4.4186   20.0067   24.1351 H   0  0  0  0  0
   -2.8163   18.1303   23.9404 H   0  0  0  0  0
   -2.9896   16.1703   25.4430 H   0  0  0  0  0
   -4.7689   16.0923   27.1668 H   0  0  0  0  0
   -7.8347   15.6570   23.3246 H   0  0  0  0  0
   -9.7676   17.7113   22.2568 H   0  0  0  0  0
  -10.1974   14.9386   23.4094 H   0  0  0  0  0
  -10.6544   16.4790   24.1771 H   0  0  0  0  0
  -11.4482   15.9665   22.6677 H   0  0  0  0  0
   -4.4026   17.6236   20.5938 H   0  0  0  0  0
   -5.4372   19.9913   21.3027 H   0  0  0  0  0
  -11.7437   16.7426   30.1523 H   0  0  0  0  0
   -8.4156   18.4024   24.4597 H   0  0  0  0  0
  -11.9526   17.9569   27.5241 H   0  0  0  0  0
   -8.5055   16.4819   20.4856 H   0  0  0  0  0
   -8.9218   14.9348   21.2628 H   0  0  0  0  0
  -10.2008   15.9393   20.5373 H   0  0  0  0  0
  1 38  1  0  0  0
  1  4  1  0  0  0
  1  3  1  0  0  0
  1  2  1  0  0  0
 38  5  1  0  0  0
  5 35  2  0  0  0
  5 31  1  0  0  0
 31  6  1  0  0  0
  6 14  1  0  0  0
  6  7  1  0  0  0
  7  8  1  0  0  0
  8 13  4  0  0  0
  8  9  4  0  0  0
  9 10  4  0  0  0
 10 11  4  0  0  0
 11 12  4  0  0  0
 12 13  4  0  0  0
 14 36  1  0  0  0
 14 15  1  0  0  0
 15 16  1  0  0  0
 16 24  1  0  0  0
 16 17  1  0  0  0
 17 18  1  0  0  0
 18 23  4  0  0  0
 18 19  4  0  0  0
 19 20  4  0  0  0
 20 21  4  0  0  0
 21 22  4  0  0  0
 22 23  4  0  0  0
 24 37  2  0  0  0
 24 32  1  0  0  0
 32 25  1  0  0  0
 25 28  1  0  0  0
 25 26  1  0  0  0
 26 27  1  0  0  0
 28 34  4  0  0  0
 28 33  4  0  0  0
 33 29  4  0  0  0
 29 30  4  0  0  0
 30 34  4  0  0  0
 26 39  1  0  0  0
  2 40  1  0  0  0
  2 41  1  0  0  0
  2 42  1  0  0  0
  3 43  1  0  0  0
  3 44  1  0  0  0
  3 45  1  0  0  0
  4 46  1  0  0  0
  4 47  1  0  0  0
  4 48  1  0  0  0
  6 49  1  0  0  0
  7 50  1  0  0  0
  7 51  1  0  0  0
  9 52  1  0  0  0
 10 53  1  0  0  0
 11 54  1  0  0  0
 12 55  1  0  0  0
 13 56  1  0  0  0
 14 57  1  0  0  0
 15 58  1  0  0  0
 15 59  1  0  0  0
 16 60  1  0  0  0
 17 61  1  0  0  0
 17 62  1  0  0  0
 19 63  1  0  0  0
 20 64  1  0  0  0
 21 65  1  0  0  0
 22 66  1  0  0  0
 23 67  1  0  0  0
 25 68  1  0  0  0
 26 69  1  0  0  0
 27 70  1  0  0  0
 27 71  1  0  0  0
 27 72  1  0  0  0
 29 73  1  0  0  0
 30 74  1  0  0  0
 31 75  1  0  0  0
 32 76  1  0  0  0
 36 77  1  0  0  0
 39 78  1  0  0  0
 39 79  1  0  0  0
 39 80  1  0  0  0
M  END
$$$$
