2ypo_ligand
  -I-interpret- 

 24 24  0  0  0  0  0  0  0  0999 V2000
   80.2060  -61.0600   18.5260 N   0  3  0  0  0
   81.6350  -61.0050   18.9940 C   0  0  0  0  0
   82.5860  -60.7140   17.8180 C   0  0  0  0  0
   83.6760  -60.1470   18.0240 O   0  0  0  0  0
   82.0100  -62.3060   19.7080 C   0  0  0  0  0
   81.7820  -63.5570   18.9070 C   0  0  0  0  0
   82.8030  -64.0650   18.1260 C   0  0  0  0  0
   80.6170  -64.3060   19.0600 C   0  0  0  0  0
   82.5880  -65.2300   17.3900 C   0  0  0  0  0
   80.4150  -65.4760   18.3310 C   0  0  0  0  0
   81.3950  -65.9410   17.4990 C   0  0  0  0  0
   82.3080  -61.0380   16.6250 O   0  0  0  0  0
   79.9707  -60.1876   18.0528 H   0  0  0  0  0
   80.0910  -61.8406   17.8796 H   0  0  0  0  0
   79.5911  -61.1890   19.3295 H   0  0  0  0  0
   81.7373  -60.1870   19.7071 H   0  0  0  0  0
   81.3735  -62.3762   20.5901 H   0  0  0  0  0
   83.0789  -62.2549   19.9153 H   0  0  0  0  0
   83.7678  -63.5595   18.0857 H   0  0  0  0  0
   79.8520  -63.9714   19.7607 H   0  0  0  0  0
   83.3668  -65.5904   16.7179 H   0  0  0  0  0
   79.4754  -66.0207   18.4241 H   0  0  0  0  0
   81.2447  -66.8571   16.9278 H   0  0  0  0  0
   81.4477  -61.4635   16.6023 H   0  0  0  0  0
  1  2  1  0  0  0
  2  3  1  0  0  0
  2  5  1  0  0  0
  3  4  2  0  0  0
  3 12  1  0  0  0
  5  6  1  0  0  0
  6  7  4  0  0  0
  6  8  4  0  0  0
  7  9  4  0  0  0
  8 10  4  0  0  0
  9 11  4  0  0  0
 10 11  4  0  0  0
  1 13  1  0  0  0
  1 14  1  0  0  0
  1 15  1  0  0  0
  2 16  1  0  0  0
  5 17  1  0  0  0
  5 18  1  0  0  0
  7 19  1  0  0  0
  8 20  1  0  0  0
  9 21  1  0  0  0
 10 22  1  0  0  0
 11 23  1  0  0  0
 12 24  1  0  0  0
M  END
$$$$
