6q6o_ligand
  -I-interpret- 

 41 42  0  0  0  0  0  0  0  0999 V2000
    5.0860  -32.8230   -9.7560 C   0  0  0  0  0
    4.6210  -33.7480   -8.7990 C   0  0  0  0  0
    3.1320  -35.6530   -9.5820 C   0  0  0  0  0
    2.1000  -34.5200   -9.8310 C   0  0  0  0  0
    3.2480  -36.5240  -10.8160 C   0  0  0  0  0
    2.6110  -38.6210  -11.7960 C   0  0  0  0  0
    1.4410  -38.5170  -12.8190 C   0  0  0  0  0
    2.5700  -39.9980  -11.0870 C   0  0  0  0  0
    5.4200  -33.3460  -11.3930 Cl  0  0  0  0  0
    4.3530  -33.3320   -7.4840 C   0  0  0  0  0
    4.5310  -31.9920   -7.1270 C   0  0  0  0  0
    4.9920  -31.0660   -8.0820 C   0  0  0  0  0
    5.2740  -31.4770   -9.4000 C   0  0  0  0  0
    3.7840  -34.5230   -6.3320 Cl  0  0  0  0  0
    4.4450  -35.1220   -9.1300 N   0  0  0  0  0
    3.9740  -36.1970  -11.7470 O   0  0  0  0  0
    2.4990  -37.6380  -10.7390 O   0  0  0  0  0
    5.5070  -35.9750   -8.9960 C   0  0  0  0  0
    5.3480  -37.1510   -9.2750 O   0  0  0  0  0
    6.8910  -35.6850   -8.5300 C   0  0  0  0  0
    7.7720  -36.6970   -8.4960 O   0  0  0  0  0
    8.8770  -36.1060   -8.0210 C   0  0  0  0  0
    8.7610  -34.8060   -7.7540 C   0  0  0  0  0
    7.3690  -34.5150   -8.1030 C   0  0  0  0  0
    2.7722  -36.2771   -8.7640 H   0  0  0  0  0
    1.9427  -33.9640   -8.9068 H   0  0  0  0  0
    2.4790  -33.8479  -10.6009 H   0  0  0  0  0
    1.1564  -34.9556  -10.1595 H   0  0  0  0  0
    3.5278  -38.4676  -12.3653 H   0  0  0  0  0
    0.4941  -38.6780  -12.3037 H   0  0  0  0  0
    1.4448  -37.5265  -13.2739 H   0  0  0  0  0
    1.5683  -39.2740  -13.5928 H   0  0  0  0  0
    3.4020  -40.0694  -10.3865 H   0  0  0  0  0
    1.6287  -40.0992  -10.5467 H   0  0  0  0  0
    2.6505  -40.7907  -11.8308 H   0  0  0  0  0
    4.3131  -31.6646   -6.1104 H   0  0  0  0  0
    5.1319  -30.0226   -7.7995 H   0  0  0  0  0
    5.6343  -30.7580  -10.1358 H   0  0  0  0  0
    9.8073  -36.6518   -7.8638 H   0  0  0  0  0
    9.5190  -34.1239   -7.3689 H   0  0  0  0  0
    6.8444  -33.5623   -8.0306 H   0  0  0  0  0
  2  1  4  0  0  0
  1  9  1  0  0  0
  1 13  4  0  0  0
  2 10  4  0  0  0
 15  2  1  0  0  0
  3  4  1  0  0  0
  5  3  1  0  0  0
  3 15  1  0  0  0
  5 16  2  0  0  0
 17  5  1  0  0  0
  6  7  1  0  0  0
  6  8  1  0  0  0
  6 17  1  0  0  0
 10 11  4  0  0  0
 10 14  1  0  0  0
 11 12  4  0  0  0
 12 13  4  0  0  0
 15 18  1  0  0  0
 18 19  2  0  0  0
 18 20  1  0  0  0
 20 21  4  0  0  0
 20 24  4  0  0  0
 21 22  4  0  0  0
 22 23  4  0  0  0
 23 24  4  0  0  0
  3 25  1  0  0  0
  4 26  1  0  0  0
  4 27  1  0  0  0
  4 28  1  0  0  0
  6 29  1  0  0  0
  7 30  1  0  0  0
  7 31  1  0  0  0
  7 32  1  0  0  0
  8 33  1  0  0  0
  8 34  1  0  0  0
  8 35  1  0  0  0
 11 36  1  0  0  0
 12 37  1  0  0  0
 13 38  1  0  0  0
 22 39  1  0  0  0
 23 40  1  0  0  0
 24 41  1  0  0  0
M  END
$$$$
