### 
### Created by X-TOOL on Mon Sep 10 21:13:27 2018
### 

@<TRIPOS>MOLECULE
5eeq_ligand
  173   178     1     0     0
SMALL
GAST_HUCK


@<TRIPOS>ATOM
      1 N          -4.6960    1.6030    1.3970 N.am      1 SER        -0.2628
      2 CA         -4.4000    2.4490    0.2450 C.3       1 SER         0.1541
      3 C          -3.4930    1.7480   -0.7690 C.2       1 SER         0.2063
      4 O          -3.4190    2.1570   -1.9310 O.2       1 SER        -0.3943
      5 CB         -3.7550    3.7510    0.7070 C.3       1 SER         0.0878
      6 OG         -2.5980    3.4740    1.4670 O.3       1 SER        -0.3751
      7 N          -2.8110    0.6960   -0.3290 N.am      1 PHE        -0.2619
      8 CA         -1.9520   -0.0920   -1.2120 C.3       1 PHE         0.1404
      9 C          -2.3180   -1.5670   -1.1450 C.2       1 PHE         0.2060
     10 O          -2.2300   -2.1850   -0.0840 O.2       1 PHE        -0.3942
     11 CB         -0.4750    0.0900   -0.8410 C.3       1 PHE         0.0214
     12 CG         -0.0470    1.5240   -0.7350 C.ar      1 PHE        -0.0386
     13 CD1         0.0350    2.3230   -1.8620 C.ar      1 PHE        -0.0601
     14 CD2         0.2910    2.0690    0.4960 C.ar      1 PHE        -0.0601
     15 CE1         0.4320    3.6460   -1.7720 C.ar      1 PHE        -0.0686
     16 CE2         0.6920    3.3920    0.5980 C.ar      1 PHE        -0.0686
     17 CZ          0.7610    4.1850   -0.5380 C.ar      1 PHE        -0.0687
     18 N          -2.7280   -2.1340   -2.2790 N.am      1 GLU        -0.2635
     19 CA         -3.0430   -3.5560   -2.3410 C.3       1 GLU         0.1325
     20 C          -1.8480   -4.3820   -1.9030 C.2       1 GLU         0.2038
     21 O          -0.7540   -4.2160   -2.4310 O.2       1 GLU        -0.3944
     22 CB         -3.4640   -3.9520   -3.7630 C.3       1 GLU        -0.0008
     23 CG         -3.8140   -5.4390   -3.9390 C.3       1 GLU         0.0044
     24 CD         -2.6000   -6.3230   -4.1630 C.2       1 GLU         0.0350
     25 OE1        -1.9100   -6.1480   -5.1900 O.co2     1 GLU        -0.5690
     26 OE2        -2.3360   -7.2030   -3.3180 O.co2     1 GLU        -0.5690
     27 N          -2.0490   -5.2600   -0.9230 N.am      1 GLY        -0.2664
     28 CA         -0.9830   -6.1450   -0.4860 C.3       1 GLY         0.1201
     29 C          -0.1590   -5.6040    0.6710 C.2       1 GLY         0.2009
     30 O           0.8680   -6.1900    1.0390 O.2       1 GLY        -0.3947
     31 N          -0.5980   -4.4810    1.2370 N.am      1 TYR        -0.2624
     32 CA          0.0510   -3.8840    2.4070 C.3       1 TYR         0.1390
     33 C          -1.0020   -3.4800    3.4180 C.2       1 TYR         0.2058
     34 O          -2.1870   -3.4150    3.0860 O.2       1 TYR        -0.3942
     35 CB          0.9030   -2.6780    2.0010 C.3       1 TYR         0.0163
     36 CG          1.9790   -3.0470    1.0140 C.ar      1 TYR        -0.0493
     37 CD1         3.2330   -3.4690    1.4470 C.ar      1 TYR        -0.0685
     38 CD2         1.7360   -3.0050   -0.3610 C.ar      1 TYR        -0.0685
     39 CE1         4.2190   -3.8340    0.5370 C.ar      1 TYR        -0.0398
     40 CE2         2.7150   -3.3650   -1.2700 C.ar      1 TYR        -0.0398
     41 CZ          3.9530   -3.7720   -0.8210 C.ar      1 TYR         0.0805
     42 OH          4.9220   -4.1340   -1.7340 O.3       1 TYR        -0.3376
     43 N          -0.5720   -3.2100    4.6500 N.am      1 ASP        -0.2620
     44 CA         -1.5030   -2.9600    5.7330 C.3       1 ASP         0.1423
     45 C          -1.7730   -1.4830    5.9880 C.2       1 ASP         0.2057
     46 O          -2.5260   -1.1510    6.9170 O.2       1 ASP        -0.3943
     47 CB         -0.9890   -3.6350    7.0120 C.3       1 ASP         0.0406
     48 CG         -1.0460   -5.1520    6.9220 C.2       1 ASP         0.0393
     49 OD1        -2.1550   -5.7070    7.0630 O.co2     1 ASP        -0.5688
     50 OD2         0.0050   -5.7910    6.6990 O.co2     1 ASP        -0.5688
     51 N          -1.1890   -0.6050    5.1680 N.am      1 ASN        -0.2615
     52 CA         -1.3790    0.8410    5.3410 C.3       1 ASN         0.1476
     53 C          -2.8530    1.2190    5.3500 C.2       1 ASN         0.2063
     54 O          -3.5470    1.0090    4.3550 O.2       1 ASN        -0.3942
     55 CB         -0.6910    1.6310    4.2250 C.3       1 ASN         0.0773
     56 CG          0.7650    1.2670    4.0410 C.2       1 ASN         0.1780
     57 OD1         1.1180    0.0950    3.8660 O.2       1 ASN        -0.3970
     58 ND2         1.6210    2.2830    4.0380 N.am      1 ASN        -0.3007
     59 N          -3.3270    1.7650    6.4700 N.am      1 SER        -0.2614
     60 CA         -4.7100    2.2260    6.5830 C.3       1 SER         0.1542
     61 C          -5.7290    1.1470    6.2000 C.2       1 SER         0.2063
     62 O          -6.7590    1.4280    5.5860 O.2       1 SER        -0.3943
     63 CB         -4.9140    3.4850    5.7270 C.3       1 SER         0.0878
     64 OG         -4.1740    4.5690    6.2730 O.3       1 SER        -0.3751
     65 N          -5.4200   -0.0920    6.5620 N.am      1 PHE        -0.2619
     66 CA         -6.3450   -1.2060    6.4190 C.3       1 PHE         0.1406
     67 C          -7.3150   -1.1770    7.6030 C.2       1 PHE         0.2085
     68 O          -6.9120   -0.8410    8.7150 O.2       1 PHE        -0.3940
     69 CB         -5.5560   -2.5210    6.3580 C.3       1 PHE         0.0214
     70 CG         -6.4090   -3.7510    6.2800 C.ar      1 PHE        -0.0386
     71 CD1        -6.9170   -4.1820    5.0670 C.ar      1 PHE        -0.0601
     72 CD2        -6.6920   -4.4850    7.4200 C.ar      1 PHE        -0.0601
     73 CE1        -7.7000   -5.3160    4.9920 C.ar      1 PHE        -0.0686
     74 CE2        -7.4760   -5.6200    7.3530 C.ar      1 PHE        -0.0686
     75 CZ         -7.9800   -6.0360    6.1370 C.ar      1 PHE        -0.0687
     76 N          -8.6020   -1.5010    7.3760 N.am      1 PRO        -0.2497
     77 CA         -9.2370   -1.9250    6.1260 C.3       1 PRO         0.1338
     78 C          -9.6770   -0.7610    5.2440 C.2       1 PRO         0.2041
     79 O          -9.4780    0.3920    5.6180 O.2       1 PRO        -0.3944
     80 CB        -10.4500   -2.7120    6.6170 C.3       1 PRO        -0.0104
     81 CG        -10.8520   -1.9810    7.8490 C.3       1 PRO        -0.0281
     82 CD         -9.5680   -1.4950    8.4900 C.3       1 PRO         0.0369
     83 C1         -3.9200    5.5020    5.3610 C.3       1 73C         0.0480
     84 C2         -3.9430    5.3390    3.8960 C.3       1 73C        -0.0274
     85 C3         -2.8900    5.5470    3.1390 C.3       1 73C        -0.0274
     86 C4         -2.3310    4.5020    2.2570 C.3       1 73C         0.0480
     87 O10        -6.1340    0.4220    0.1670 O.2       1 48V        -0.3960
     88 N01        -9.3490   -1.2050    4.0450 N.am      1 48V        -0.2629
     89 C02        -9.1990   -0.2670    2.9840 C.3       1 48V         0.1397
     90 C03       -10.5420    0.3380    2.6350 C.2       1 48V         0.2000
     91 O04       -11.3530   -0.3070    2.0020 O.2       1 48V        -0.3947
     92 N05       -10.7700    1.5820    3.0490 N.am      1 48V        -0.2989
     93 C06        -8.6040   -0.9690    1.7840 C.3       1 48V         0.0363
     94 S07        -6.9180   -1.5380    2.1180 S.3       1 48V        -0.1344
     95 C08        -6.1330    0.0640    2.4720 C.3       1 48V         0.0836
     96 C09        -5.6160    0.6680    1.2490 C.2       1 48V         0.1882
     97 H1         -4.2190    1.7272    2.2671 H         1 SER         0.1884
     98 H2         -5.3499    2.6884   -0.2554 H         1 SER         0.0823
     99 H3         -4.4708    4.3128    1.3250 H         1 SER         0.0609
    100 H4         -3.4783    4.3522   -0.1716 H         1 SER         0.0609
    101 H5         -2.8873    0.4357    0.6335 H         1 PHE         0.1885
    102 H6         -2.1001    0.2596   -2.2437 H         1 PHE         0.0823
    103 H7          0.1386   -0.3984   -1.6123 H         1 PHE         0.0474
    104 H8         -0.2992   -0.3965    0.1298 H         1 PHE         0.0474
    105 H9         -0.2157    1.9061   -2.8307 H         1 PHE         0.0557
    106 H10         0.2409    1.4536    1.3870 H         1 PHE         0.0557
    107 H11         0.4855    4.2591   -2.6644 H         1 PHE         0.0599
    108 H12         0.9516    3.8068    1.5653 H         1 PHE         0.0599
    109 H13         1.0706    5.2210   -0.4612 H         1 PHE         0.0559
    110 H14        -2.8213   -1.5740   -3.1023 H         1 GLU         0.1883
    111 H15        -3.8805   -3.7592   -1.6574 H         1 GLU         0.0801
    112 H16        -2.6350   -3.7121   -4.4451 H         1 GLU         0.0330
    113 H17        -4.3479   -3.3573   -4.0368 H         1 GLU         0.0330
    114 H18        -4.4828   -5.5393   -4.8065 H         1 GLU         0.0433
    115 H19        -4.3340   -5.7842   -3.0332 H         1 GLU         0.0433
    116 H20        -2.9451   -5.3111   -0.4820 H         1 GLY         0.1881
    117 H21        -0.3089   -6.3198   -1.3375 H         1 GLY         0.0763
    118 H22        -1.4330   -7.0986   -0.1728 H         1 GLY         0.0763
    119 H23        -1.4007   -4.0284    0.8487 H         1 TYR         0.1885
    120 H24         0.7097   -4.6360    2.8659 H         1 TYR         0.0821
    121 H25         1.3768   -2.2599    2.9014 H         1 TYR         0.0453
    122 H26         0.2492   -1.9200    1.5451 H         1 TYR         0.0453
    123 H27         3.4439   -3.5137    2.5093 H         1 TYR         0.0530
    124 H28         0.7650   -2.6853   -0.7215 H         1 TYR         0.0530
    125 H29         5.1897   -4.1650    0.8881 H         1 TYR         0.0525
    126 H30         2.5087   -3.3270   -2.3335 H         1 TYR         0.0525
    127 H31         5.7122   -4.3877   -1.2716 H         1 TYR         0.2458
    128 H32         0.4110   -3.1792    4.8310 H         1 ASP         0.1884
    129 H33        -2.4613   -3.4256    5.4594 H         1 ASP         0.0819
    130 H34        -1.6084   -3.3067    7.8596 H         1 ASP         0.0478
    131 H35         0.0541   -3.3288    7.1798 H         1 ASP         0.0478
    132 H36        -0.6118   -0.9384    4.4226 H         1 ASN         0.1885
    133 H37        -0.9350    1.1304    6.3049 H         1 ASN         0.0826
    134 H38        -0.7547    2.7024    4.4659 H         1 ASN         0.0551
    135 H39        -1.2212    1.4352    3.2813 H         1 ASN         0.0551
    136 H40         2.5993    2.1122    3.9207 H         1 ASN         0.1814
    137 H41         1.2870    3.2185    4.1531 H         1 ASN         0.1814
    138 H42        -2.7179    1.8623    7.2571 H         1 SER         0.1884
    139 H43        -4.8885    2.4938    7.6349 H         1 SER         0.0823
    140 H44        -5.9827    3.7451    5.7105 H         1 SER         0.0609
    141 H45        -4.5686    3.2881    4.7014 H         1 SER         0.0609
    142 H46        -4.5146   -0.2670    6.9488 H         1 PHE         0.1885
    143 H47        -6.9155   -1.0921    5.4855 H         1 PHE         0.0823
    144 H48        -4.9331   -2.5909    7.2620 H         1 PHE         0.0474
    145 H49        -4.9095   -2.4936    5.4684 H         1 PHE         0.0474
    146 H50        -6.6973   -3.6223    4.1651 H         1 PHE         0.0557
    147 H51        -6.2935   -4.1649    8.3759 H         1 PHE         0.0557
    148 H52        -8.0946   -5.6411    4.0361 H         1 PHE         0.0599
    149 H53        -7.6951   -6.1829    8.2531 H         1 PHE         0.0599
    150 H54        -8.5950   -6.9269    6.0808 H         1 PHE         0.0559
    151 H55        -8.5563   -2.5694    5.5503 H         1 PRO         0.0802
    152 H56       -10.1785   -3.7529    6.8466 H         1 PRO         0.0313
    153 H57       -11.2572   -2.6998    5.8698 H         1 PRO         0.0313
    154 H58       -11.3890   -2.6540    8.5336 H         1 PRO         0.0287
    155 H59       -11.4970   -1.1276    7.5927 H         1 PRO         0.0287
    156 H60        -9.6917   -0.4808    8.8975 H         1 PRO         0.0524
    157 H61        -9.2471   -2.1759    9.2921 H         1 PRO         0.0524
    158 H62        -2.9037    5.8543    5.5912 H         1 73C         0.0560
    159 H63        -4.6423    6.3053    5.5683 H         1 73C         0.0560
    160 H64        -4.7222    6.0220    3.5266 H         1 73C         0.0288
    161 H65        -4.2493    4.2989    3.7109 H         1 73C         0.0288
    162 H66        -2.0770    5.8403    3.8194 H         1 73C         0.0288
    163 H67        -3.1452    6.3945    2.4858 H         1 73C         0.0288
    164 H68        -1.7671    5.1339    1.5551 H         1 73C         0.0560
    165 H69        -1.6337    4.0207    2.9585 H         1 73C         0.0560
    166 H70        -9.2084   -2.1820    3.8846 H         1 48V         0.1884
    167 H71        -8.5189    0.5360    3.3044 H         1 48V         0.0808
    168 H72       -11.6424    2.0255    2.8432 H         1 48V         0.1815
    169 H73       -10.0690    2.0733    3.5659 H         1 48V         0.1815
    170 H74        -8.5839   -0.2704    0.9346 H         1 48V         0.0426
    171 H75        -9.2306   -1.8368    1.5303 H         1 48V         0.0426
    172 H76        -5.3031   -0.0889    3.1776 H         1 48V         0.0616
    173 H77        -6.8766    0.7388    2.9212 H         1 48V         0.0616
@<TRIPOS>BOND
     1    1    2 1  
     2    1   96 am 
     3    2    3 1  
     4    2    5 1  
     5    3    4 2  
     6    3    7 am 
     7    5    6 1  
     8    6   86 1  
     9    7    8 1  
    10    8    9 1  
    11    8   11 1  
    12    9   10 2  
    13    9   18 am 
    14   11   12 1  
    15   12   13 ar 
    16   12   14 ar 
    17   13   15 ar 
    18   14   16 ar 
    19   15   17 ar 
    20   16   17 ar 
    21   18   19 1  
    22   19   20 1  
    23   19   22 1  
    24   20   21 2  
    25   20   27 am 
    26   22   23 1  
    27   23   24 1  
    28   24   25 ar 
    29   24   26 ar 
    30   27   28 1  
    31   28   29 1  
    32   29   30 2  
    33   29   31 am 
    34   31   32 1  
    35   32   33 1  
    36   32   35 1  
    37   33   34 2  
    38   33   43 am 
    39   35   36 1  
    40   36   37 ar 
    41   36   38 ar 
    42   37   39 ar 
    43   38   40 ar 
    44   39   41 ar 
    45   40   41 ar 
    46   41   42 1  
    47   43   44 1  
    48   44   45 1  
    49   44   47 1  
    50   45   46 2  
    51   45   51 am 
    52   47   48 1  
    53   48   49 ar 
    54   48   50 ar 
    55   51   52 1  
    56   52   53 1  
    57   52   55 1  
    58   53   54 2  
    59   53   59 am 
    60   55   56 1  
    61   56   57 2  
    62   56   58 am 
    63   59   60 1  
    64   60   61 1  
    65   60   63 1  
    66   61   62 2  
    67   61   65 am 
    68   63   64 1  
    69   64   83 1  
    70   65   66 1  
    71   66   67 1  
    72   66   69 1  
    73   67   68 2  
    74   67   76 am 
    75   69   70 1  
    76   70   71 ar 
    77   70   72 ar 
    78   71   73 ar 
    79   72   74 ar 
    80   73   75 ar 
    81   74   75 ar 
    82   76   77 1  
    83   76   82 1  
    84   77   78 1  
    85   77   80 1  
    86   78   79 2  
    87   78   88 am 
    88   80   81 1  
    89   81   82 1  
    90   83   84 1  
    91   84   85 1  
    92   85   86 1  
    93   96   87 2  
    94   88   89 1  
    95   89   90 1  
    96   89   93 1  
    97   90   91 2  
    98   90   92 am 
    99   93   94 1  
   100   94   95 1  
   101   95   96 1  
   102    1   97 1  
   103    2   98 1  
   104    5   99 1  
   105    5  100 1  
   106    7  101 1  
   107    8  102 1  
   108   11  103 1  
   109   11  104 1  
   110   13  105 1  
   111   14  106 1  
   112   15  107 1  
   113   16  108 1  
   114   17  109 1  
   115   18  110 1  
   116   19  111 1  
   117   22  112 1  
   118   22  113 1  
   119   23  114 1  
   120   23  115 1  
   121   27  116 1  
   122   28  117 1  
   123   28  118 1  
   124   31  119 1  
   125   32  120 1  
   126   35  121 1  
   127   35  122 1  
   128   37  123 1  
   129   38  124 1  
   130   39  125 1  
   131   40  126 1  
   132   42  127 1  
   133   43  128 1  
   134   44  129 1  
   135   47  130 1  
   136   47  131 1  
   137   51  132 1  
   138   52  133 1  
   139   55  134 1  
   140   55  135 1  
   141   58  136 1  
   142   58  137 1  
   143   59  138 1  
   144   60  139 1  
   145   63  140 1  
   146   63  141 1  
   147   65  142 1  
   148   66  143 1  
   149   69  144 1  
   150   69  145 1  
   151   71  146 1  
   152   72  147 1  
   153   73  148 1  
   154   74  149 1  
   155   75  150 1  
   156   77  151 1  
   157   80  152 1  
   158   80  153 1  
   159   81  154 1  
   160   81  155 1  
   161   82  156 1  
   162   82  157 1  
   163   83  158 1  
   164   83  159 1  
   165   84  160 1  
   166   84  161 1  
   167   85  162 1  
   168   85  163 1  
   169   86  164 1  
   170   86  165 1  
   171   88  166 1  
   172   89  167 1  
   173   92  168 1  
   174   92  169 1  
   175   93  170 1  
   176   93  171 1  
   177   95  172 1  
   178   95  173 1  
@<TRIPOS>SUBSTRUCTURE
     1 SER         1

