5eeq_ligand
  -I-interpret- 

175180  0  0  0  0  0  0  0  0999 V2000
   -4.6960    1.6030    1.3970 N   0  0  0  0  0
   -4.4000    2.4490    0.2450 C   0  0  0  0  0
   -3.4930    1.7480   -0.7690 C   0  0  0  0  0
   -3.4190    2.1570   -1.9310 O   0  0  0  0  0
   -3.7550    3.7510    0.7070 C   0  0  0  0  0
   -2.5980    3.4740    1.4670 O   0  0  0  0  0
   -2.8110    0.6960   -0.3290 N   0  0  0  0  0
   -1.9520   -0.0920   -1.2120 C   0  0  0  0  0
   -2.3180   -1.5670   -1.1450 C   0  0  0  0  0
   -2.2300   -2.1850   -0.0840 O   0  0  0  0  0
   -0.4750    0.0900   -0.8410 C   0  0  0  0  0
   -0.0470    1.5240   -0.7350 C   0  0  0  0  0
    0.0350    2.3230   -1.8620 C   0  0  0  0  0
    0.2910    2.0690    0.4960 C   0  0  0  0  0
    0.4320    3.6460   -1.7720 C   0  0  0  0  0
    0.6920    3.3920    0.5980 C   0  0  0  0  0
    0.7610    4.1850   -0.5380 C   0  0  0  0  0
   -2.7280   -2.1340   -2.2790 N   0  0  0  0  0
   -3.0430   -3.5560   -2.3410 C   0  0  0  0  0
   -1.8480   -4.3820   -1.9030 C   0  0  0  0  0
   -0.7540   -4.2160   -2.4310 O   0  0  0  0  0
   -3.4640   -3.9520   -3.7630 C   0  0  0  0  0
   -3.8140   -5.4390   -3.9390 C   0  0  0  0  0
   -2.6000   -6.3230   -4.1630 C   0  0  0  0  0
   -1.9100   -6.1480   -5.1900 O   0  0  0  0  0
   -2.3360   -7.2030   -3.3180 O   0  0  0  0  0
   -2.0490   -5.2600   -0.9230 N   0  0  0  0  0
   -0.9830   -6.1450   -0.4860 C   0  0  0  0  0
   -0.1590   -5.6040    0.6710 C   0  0  0  0  0
    0.8680   -6.1900    1.0390 O   0  0  0  0  0
   -0.5980   -4.4810    1.2370 N   0  0  0  0  0
    0.0510   -3.8840    2.4070 C   0  0  0  0  0
   -1.0020   -3.4800    3.4180 C   0  0  0  0  0
   -2.1870   -3.4150    3.0860 O   0  0  0  0  0
    0.9030   -2.6780    2.0010 C   0  0  0  0  0
    1.9790   -3.0470    1.0140 C   0  0  0  0  0
    3.2330   -3.4690    1.4470 C   0  0  0  0  0
    1.7360   -3.0050   -0.3610 C   0  0  0  0  0
    4.2190   -3.8340    0.5370 C   0  0  0  0  0
    2.7150   -3.3650   -1.2700 C   0  0  0  0  0
    3.9530   -3.7720   -0.8210 C   0  0  0  0  0
    4.9220   -4.1340   -1.7340 O   0  0  0  0  0
   -0.5720   -3.2100    4.6500 N   0  0  0  0  0
   -1.5030   -2.9600    5.7330 C   0  0  0  0  0
   -1.7730   -1.4830    5.9880 C   0  0  0  0  0
   -2.5260   -1.1510    6.9170 O   0  0  0  0  0
   -0.9890   -3.6350    7.0120 C   0  0  0  0  0
   -1.0460   -5.1520    6.9220 C   0  0  0  0  0
   -2.1550   -5.7070    7.0630 O   0  0  0  0  0
    0.0050   -5.7910    6.6990 O   0  0  0  0  0
   -1.1890   -0.6050    5.1680 N   0  0  0  0  0
   -1.3790    0.8410    5.3410 C   0  0  0  0  0
   -2.8530    1.2190    5.3500 C   0  0  0  0  0
   -3.5470    1.0090    4.3550 O   0  0  0  0  0
   -0.6910    1.6310    4.2250 C   0  0  0  0  0
    0.7650    1.2670    4.0410 C   0  0  0  0  0
    1.1180    0.0950    3.8660 O   0  0  0  0  0
    1.6210    2.2830    4.0380 N   0  0  0  0  0
   -3.3270    1.7650    6.4700 N   0  0  0  0  0
   -4.7100    2.2260    6.5830 C   0  0  0  0  0
   -5.7290    1.1470    6.2000 C   0  0  0  0  0
   -6.7590    1.4280    5.5860 O   0  0  0  0  0
   -4.9140    3.4850    5.7270 C   0  0  0  0  0
   -4.1740    4.5690    6.2730 O   0  0  0  0  0
   -5.4200   -0.0920    6.5620 N   0  0  0  0  0
   -6.3450   -1.2060    6.4190 C   0  0  0  0  0
   -7.3150   -1.1770    7.6030 C   0  0  0  0  0
   -6.9120   -0.8410    8.7150 O   0  0  0  0  0
   -5.5560   -2.5210    6.3580 C   0  0  0  0  0
   -6.4090   -3.7510    6.2800 C   0  0  0  0  0
   -6.9170   -4.1820    5.0670 C   0  0  0  0  0
   -6.6920   -4.4850    7.4200 C   0  0  0  0  0
   -7.7000   -5.3160    4.9920 C   0  0  0  0  0
   -7.4760   -5.6200    7.3530 C   0  0  0  0  0
   -7.9800   -6.0360    6.1370 C   0  0  0  0  0
   -8.6020   -1.5010    7.3760 N   0  0  0  0  0
   -9.2370   -1.9250    6.1260 C   0  0  0  0  0
   -9.6770   -0.7610    5.2440 C   0  0  0  0  0
   -9.4780    0.3920    5.6180 O   0  0  0  0  0
  -10.4500   -2.7120    6.6170 C   0  0  0  0  0
  -10.8520   -1.9810    7.8490 C   0  0  0  0  0
   -9.5680   -1.4950    8.4900 C   0  0  0  0  0
   -3.9200    5.5020    5.3610 C   0  0  0  0  0
   -3.9430    5.3390    3.8960 C   0  0  0  0  0
   -2.8900    5.5470    3.1390 C   0  0  0  0  0
   -2.3310    4.5020    2.2570 C   0  0  0  0  0
   -6.1340    0.4220    0.1670 O   0  0  0  0  0
   -9.3490   -1.2050    4.0450 N   0  0  0  0  0
   -9.1990   -0.2670    2.9840 C   0  0  0  0  0
  -10.5420    0.3380    2.6350 C   0  0  0  0  0
  -11.3530   -0.3070    2.0020 O   0  0  0  0  0
  -10.7700    1.5820    3.0490 N   0  0  0  0  0
   -8.6040   -0.9690    1.7840 C   0  0  0  0  0
   -6.9180   -1.5380    2.1180 S   0  0  0  0  0
   -6.1330    0.0640    2.4720 C   0  0  0  0  0
   -5.6160    0.6680    1.2490 C   0  0  0  0  0
   -4.2095    1.7297    2.2845 H   0  0  0  0  0
   -5.3450    2.6626   -0.2545 H   0  0  0  0  0
   -4.4645    4.3038    1.3228 H   0  0  0  0  0
   -3.4777    4.3429   -0.1653 H   0  0  0  0  0
   -2.8888    0.4304    0.6527 H   0  0  0  0  0
   -2.1065    0.2652   -2.2302 H   0  0  0  0  0
    0.1171   -0.3672   -1.6338 H   0  0  0  0  0
   -0.3283   -0.3653    0.1384 H   0  0  0  0  0
   -0.2171    1.9038   -2.8361 H   0  0  0  0  0
    0.2406    1.4502    1.3919 H   0  0  0  0  0
    0.4858    4.2625   -2.6693 H   0  0  0  0  0
    0.9530    3.8091    1.5706 H   0  0  0  0  0
    1.0724    5.2267   -0.4607 H   0  0  0  0  0
   -2.8231   -1.5628   -3.1187 H   0  0  0  0  0
   -3.8736   -3.7531   -1.6632 H   0  0  0  0  0
   -2.6143   -3.7469   -4.4141 H   0  0  0  0  0
   -4.3646   -3.3843   -3.9969 H   0  0  0  0  0
   -4.4493   -5.5245   -4.8206 H   0  0  0  0  0
   -4.2983   -5.7730   -3.0214 H   0  0  0  0  0
   -2.2805   -5.4269   -5.7041 H   0  0  0  0  0
   -2.9630   -5.3121   -0.4732 H   0  0  0  0  0
   -0.3059   -6.2742   -1.3303 H   0  0  0  0  0
   -1.4512   -7.0678   -0.1435 H   0  0  0  0  0
   -1.4168   -4.0193    0.8410 H   0  0  0  0  0
    0.7144   -4.6215    2.8588 H   0  0  0  0  0
    1.3848   -2.2865    2.8969 H   0  0  0  0  0
    0.2488   -1.9440    1.5304 H   0  0  0  0  0
    3.4451   -3.5140    2.5152 H   0  0  0  0  0
    0.7596   -2.6835   -0.7235 H   0  0  0  0  0
    5.1951   -4.1668    0.8900 H   0  0  0  0  0
    2.5076   -3.3268   -2.3394 H   0  0  0  0  0
    4.5756   -4.0329   -2.6236 H   0  0  0  0  0
    0.4307   -3.1786    4.8346 H   0  0  0  0  0
   -2.4588   -3.3874    5.4297 H   0  0  0  0  0
   -1.6231   -3.3199    7.8407 H   0  0  0  0  0
    0.0510   -3.3422    7.1561 H   0  0  0  0  0
    0.7406   -5.1788    6.6242 H   0  0  0  0  0
   -0.6002   -0.9451    4.4077 H   0  0  0  0  0
   -0.9330    1.0928    6.3032 H   0  0  0  0  0
   -0.7342    2.6862    4.4948 H   0  0  0  0  0
   -1.2074    1.4008    3.2931 H   0  0  0  0  0
    2.6151    2.1119    3.8870 H   0  0  0  0  0
    1.2841    3.2342    4.1867 H   0  0  0  0  0
   -2.7058    1.8642    7.2729 H   0  0  0  0  0
   -4.8858    2.4628    7.6323 H   0  0  0  0  0
   -5.9729    3.7433    5.7155 H   0  0  0  0  0
   -4.5673    3.2890    4.7124 H   0  0  0  0  0
   -4.4965   -0.2705    6.9565 H   0  0  0  0  0
   -6.9181   -1.1258    5.4953 H   0  0  0  0  0
   -4.9777   -2.5904    7.2793 H   0  0  0  0  0
   -4.9536   -2.4911    5.4501 H   0  0  0  0  0
   -6.6961   -3.6192    4.1601 H   0  0  0  0  0
   -6.2913   -4.1631    8.3812 H   0  0  0  0  0
   -8.0968   -5.6429    4.0308 H   0  0  0  0  0
   -7.6963   -6.1860    8.2581 H   0  0  0  0  0
   -8.5984   -6.9318    6.0805 H   0  0  0  0  0
   -8.5516   -2.4921    5.4962 H   0  0  0  0  0
  -10.2229   -3.7613    6.8054 H   0  0  0  0  0
  -11.2485   -2.7600    5.8766 H   0  0  0  0  0
  -11.4087   -2.6287    8.5263 H   0  0  0  0  0
  -11.5135   -1.1474    7.6131 H   0  0  0  0  0
   -9.6751   -0.5099    8.9442 H   0  0  0  0  0
   -9.2513   -2.1260    9.3204 H   0  0  0  0  0
   -2.8634    5.7000    5.5411 H   0  0  0  0  0
   -4.7513    6.1897    5.5162 H   0  0  0  0  0
   -4.6404    6.1107    3.5703 H   0  0  0  0  0
   -4.1364    4.2741    3.7667 H   0  0  0  0  0
   -2.0914    5.7242    3.8593 H   0  0  0  0  0
   -3.2272    6.3135    2.4412 H   0  0  0  0  0
   -2.0923    5.1858    1.4424 H   0  0  0  0  0
   -1.9374    3.8937    3.0714 H   0  0  0  0  0
   -9.2056   -2.2015    3.8814 H   0  0  0  0  0
   -8.5325    0.5376    3.2945 H   0  0  0  0  0
  -11.6589    2.0352    2.8370 H   0  0  0  0  0
  -10.0559    2.0823    3.5783 H   0  0  0  0  0
   -8.5728   -0.2652    0.9523 H   0  0  0  0  0
   -9.2214   -1.8362    1.5497 H   0  0  0  0  0
   -5.3052   -0.0949    3.1630 H   0  0  0  0  0
   -6.8767    0.7317    2.9070 H   0  0  0  0  0
  1  2  1  0  0  0
  1 96  1  0  0  0
  2  3  1  0  0  0
  2  5  1  0  0  0
  3  4  2  0  0  0
  3  7  1  0  0  0
  5  6  1  0  0  0
  6 86  1  0  0  0
  7  8  1  0  0  0
  8  9  1  0  0  0
  8 11  1  0  0  0
  9 10  2  0  0  0
  9 18  1  0  0  0
 11 12  1  0  0  0
 12 13  4  0  0  0
 12 14  4  0  0  0
 13 15  4  0  0  0
 14 16  4  0  0  0
 15 17  4  0  0  0
 16 17  4  0  0  0
 18 19  1  0  0  0
 19 20  1  0  0  0
 19 22  1  0  0  0
 20 21  2  0  0  0
 20 27  1  0  0  0
 22 23  1  0  0  0
 23 24  1  0  0  0
 24 25  1  0  0  0
 24 26  2  0  0  0
 27 28  1  0  0  0
 28 29  1  0  0  0
 29 30  2  0  0  0
 29 31  1  0  0  0
 31 32  1  0  0  0
 32 33  1  0  0  0
 32 35  1  0  0  0
 33 34  2  0  0  0
 33 43  1  0  0  0
 35 36  1  0  0  0
 36 37  4  0  0  0
 36 38  4  0  0  0
 37 39  4  0  0  0
 38 40  4  0  0  0
 39 41  4  0  0  0
 40 41  4  0  0  0
 41 42  1  0  0  0
 43 44  1  0  0  0
 44 45  1  0  0  0
 44 47  1  0  0  0
 45 46  2  0  0  0
 45 51  1  0  0  0
 47 48  1  0  0  0
 48 49  2  0  0  0
 48 50  1  0  0  0
 51 52  1  0  0  0
 52 53  1  0  0  0
 52 55  1  0  0  0
 53 54  2  0  0  0
 53 59  1  0  0  0
 55 56  1  0  0  0
 56 57  2  0  0  0
 56 58  1  0  0  0
 59 60  1  0  0  0
 60 61  1  0  0  0
 60 63  1  0  0  0
 61 62  2  0  0  0
 61 65  1  0  0  0
 63 64  1  0  0  0
 64 83  1  0  0  0
 65 66  1  0  0  0
 66 67  1  0  0  0
 66 69  1  0  0  0
 67 68  2  0  0  0
 67 76  1  0  0  0
 69 70  1  0  0  0
 70 71  4  0  0  0
 70 72  4  0  0  0
 71 73  4  0  0  0
 72 74  4  0  0  0
 73 75  4  0  0  0
 74 75  4  0  0  0
 76 77  1  0  0  0
 76 82  1  0  0  0
 77 78  1  0  0  0
 77 80  1  0  0  0
 78 79  2  0  0  0
 78 88  1  0  0  0
 80 81  1  0  0  0
 81 82  1  0  0  0
 83 84  1  0  0  0
 84 85  1  0  0  0
 85 86  1  0  0  0
 96 87  2  0  0  0
 88 89  1  0  0  0
 89 90  1  0  0  0
 89 93  1  0  0  0
 90 91  2  0  0  0
 90 92  1  0  0  0
 93 94  1  0  0  0
 94 95  1  0  0  0
 95 96  1  0  0  0
  1 97  1  0  0  0
  2 98  1  0  0  0
  5 99  1  0  0  0
  5100  1  0  0  0
  7101  1  0  0  0
  8102  1  0  0  0
 11103  1  0  0  0
 11104  1  0  0  0
 13105  1  0  0  0
 14106  1  0  0  0
 15107  1  0  0  0
 16108  1  0  0  0
 17109  1  0  0  0
 18110  1  0  0  0
 19111  1  0  0  0
 22112  1  0  0  0
 22113  1  0  0  0
 23114  1  0  0  0
 23115  1  0  0  0
 25116  1  0  0  0
 27117  1  0  0  0
 28118  1  0  0  0
 28119  1  0  0  0
 31120  1  0  0  0
 32121  1  0  0  0
 35122  1  0  0  0
 35123  1  0  0  0
 37124  1  0  0  0
 38125  1  0  0  0
 39126  1  0  0  0
 40127  1  0  0  0
 42128  1  0  0  0
 43129  1  0  0  0
 44130  1  0  0  0
 47131  1  0  0  0
 47132  1  0  0  0
 50133  1  0  0  0
 51134  1  0  0  0
 52135  1  0  0  0
 55136  1  0  0  0
 55137  1  0  0  0
 58138  1  0  0  0
 58139  1  0  0  0
 59140  1  0  0  0
 60141  1  0  0  0
 63142  1  0  0  0
 63143  1  0  0  0
 65144  1  0  0  0
 66145  1  0  0  0
 69146  1  0  0  0
 69147  1  0  0  0
 71148  1  0  0  0
 72149  1  0  0  0
 73150  1  0  0  0
 74151  1  0  0  0
 75152  1  0  0  0
 77153  1  0  0  0
 80154  1  0  0  0
 80155  1  0  0  0
 81156  1  0  0  0
 81157  1  0  0  0
 82158  1  0  0  0
 82159  1  0  0  0
 83160  1  0  0  0
 83161  1  0  0  0
 84162  1  0  0  0
 84163  1  0  0  0
 85164  1  0  0  0
 85165  1  0  0  0
 86166  1  0  0  0
 86167  1  0  0  0
 88168  1  0  0  0
 89169  1  0  0  0
 92170  1  0  0  0
 92171  1  0  0  0
 93172  1  0  0  0
 93173  1  0  0  0
 95174  1  0  0  0
 95175  1  0  0  0
M  END
$$$$
