3s0d_ligand
  -I-interpret- 

 33 32  0  0  0  0  0  0  0  0999 V2000
    8.4290   10.5450   29.6370 C   0  0  0  0  0
    8.3110   15.0570   33.2940 N   0  3  0  0  0
    8.0320   12.4880   28.4760 C   0  0  0  0  0
    8.4860   11.8660   29.5840 C   0  0  0  0  0
    8.6150   12.6790   30.8830 C   0  0  0  0  0
    9.8330   12.7030   31.6070 C   0  0  0  0  0
   10.0100   11.4250   32.3590 C   0  0  0  0  0
    9.9170   11.5230   33.9240 C   0  0  0  0  0
    9.4170   12.6810   34.6790 C   0  0  0  0  0
   10.2830   10.2120   34.8180 C   0  0  0  0  0
    8.9130   13.8440   34.0050 C   0  0  0  0  0
    8.4735   10.0358   30.5997 H   0  0  0  0  0
    8.3376    9.9661   28.7180 H   0  0  0  0  0
    9.0576   15.6996   33.0293 H   0  0  0  0  0
    7.8146   14.7480   32.4583 H   0  0  0  0  0
    7.6607   15.5295   33.9219 H   0  0  0  0  0
    8.6032   12.1501   27.6113 H   0  0  0  0  0
    6.9782   12.2491   28.3328 H   0  0  0  0  0
    8.1492   13.5655   28.5919 H   0  0  0  0  0
    7.9099   12.2037   31.5650 H   0  0  0  0  0
    8.4747   13.7121   30.5649 H   0  0  0  0  0
    9.8124   13.5330   32.3132 H   0  0  0  0  0
   10.6612   12.8242   30.9088 H   0  0  0  0  0
   11.0184   11.0771   32.1351 H   0  0  0  0  0
    9.1953   10.7721   32.0458 H   0  0  0  0  0
   10.4363   12.2598   33.3112 H   0  0  0  0  0
   10.2941   13.0457   35.2137 H   0  0  0  0  0
    8.5519   12.2919   35.2159 H   0  0  0  0  0
    9.6123    9.3945   34.5533 H   0  0  0  0  0
   11.3136    9.9162   34.6218 H   0  0  0  0  0
   10.1672   10.4509   35.8752 H   0  0  0  0  0
    8.8356   14.3644   34.9596 H   0  0  0  0  0
    9.0368   13.3422   33.0453 H   0  0  0  0  0
  4  1  2  0  0  0
 11  2  1  0  0  0
  4  3  1  0  0  0
  5  4  1  0  0  0
  6  5  1  0  0  0
  7  6  1  0  0  0
  8  7  1  0  0  0
  9  8  1  0  0  0
  8 10  1  0  0  0
  9 11  1  0  0  0
  1 12  1  0  0  0
  1 13  1  0  0  0
  2 14  1  0  0  0
  2 15  1  0  0  0
  2 16  1  0  0  0
  3 17  1  0  0  0
  3 18  1  0  0  0
  3 19  1  0  0  0
  5 20  1  0  0  0
  5 21  1  0  0  0
  6 22  1  0  0  0
  6 23  1  0  0  0
  7 24  1  0  0  0
  7 25  1  0  0  0
  8 26  1  0  0  0
  9 27  1  0  0  0
  9 28  1  0  0  0
 10 29  1  0  0  0
 10 30  1  0  0  0
 10 31  1  0  0  0
 11 32  1  0  0  0
 11 33  1  0  0  0
M  END
$$$$
