5k09_ligand
  -I-interpret- 

 37 39  0  0  0  0  0  0  0  0999 V2000
   -5.3980   45.5560  -30.4900 C   0  0  0  0  0
   -6.4630   44.4990  -30.3860 C   0  0  0  0  0
   -4.0650   47.3000  -31.3170 N   0  0  0  0  0
   -5.1310   46.4700  -31.5460 C   0  0  0  0  0
   -7.1620   44.1720  -29.1940 C   0  0  0  0  0
   -8.0150   43.1250  -29.5910 C   0  0  0  0  0
   -8.9900   42.4250  -28.6860 C   0  0  0  0  0
   -7.0810   42.0160  -24.8940 C   0  0  0  0  0
   -8.6670   43.1480  -26.2830 C   0  0  0  0  0
   -7.3700   41.3220  -27.1750 C   0  0  0  0  0
   -6.7460   41.1850  -25.9490 C   0  0  0  0  0
   -8.0350   43.0060  -25.0530 C   0  0  0  0  0
   -2.2400   47.9110  -29.6710 C   0  0  0  0  0
   -7.2400   41.7900  -22.5400 C   0  0  0  0  0
   -4.2330   45.8800  -29.2950 S   0  0  0  0  0
   -6.8750   43.6900  -31.3520 N   0  0  0  0  0
   -7.7910   42.8930  -30.8780 N   0  0  0  0  0
   -3.4380   47.1180  -30.1370 C   0  0  0  0  0
   -8.3300   42.3020  -27.3360 C   0  0  0  0  0
   -5.9390   46.5320  -32.8200 C   0  0  0  0  0
   -6.4150   41.8440  -23.6750 O   0  0  0  0  0
   -7.0619   44.6239  -28.2071 H   0  0  0  0  0
   -9.2449   41.4417  -29.0813 H   0  0  0  0  0
   -9.9193   42.9897  -28.6105 H   0  0  0  0  0
   -9.4242   43.9195  -26.4226 H   0  0  0  0  0
   -7.1077   40.6649  -28.0042 H   0  0  0  0  0
   -5.9847   40.4170  -25.8122 H   0  0  0  0  0
   -8.2878   43.6665  -24.2236 H   0  0  0  0  0
   -1.4199   47.7760  -30.3762 H   0  0  0  0  0
   -2.5039   48.9672  -29.6165 H   0  0  0  0  0
   -1.9347   47.5601  -28.6852 H   0  0  0  0  0
   -7.8021   42.7201  -22.4564 H   0  0  0  0  0
   -7.9319   40.9531  -22.6348 H   0  0  0  0  0
   -6.6241   41.6550  -21.6508 H   0  0  0  0  0
   -5.8841   45.5706  -33.3307 H   0  0  0  0  0
   -6.9777   46.7582  -32.5793 H   0  0  0  0  0
   -5.5364   47.3118  -33.4665 H   0  0  0  0  0
  2  1  1  0  0  0
  1  4  4  0  0  0
  1 15  4  0  0  0
  5  2  4  0  0  0
  2 16  4  0  0  0
  4  3  4  0  0  0
  3 18  4  0  0  0
  4 20  1  0  0  0
  6  5  4  0  0  0
  7  6  1  0  0  0
  6 17  4  0  0  0
 19  7  1  0  0  0
  8 11  4  0  0  0
 12  8  4  0  0  0
  8 21  1  0  0  0
  9 12  4  0  0  0
  9 19  4  0  0  0
 11 10  4  0  0  0
 10 19  4  0  0  0
 18 13  1  0  0  0
 21 14  1  0  0  0
 15 18  4  0  0  0
 16 17  4  0  0  0
  5 22  1  0  0  0
  7 23  1  0  0  0
  7 24  1  0  0  0
  9 25  1  0  0  0
 10 26  1  0  0  0
 11 27  1  0  0  0
 12 28  1  0  0  0
 13 29  1  0  0  0
 13 30  1  0  0  0
 13 31  1  0  0  0
 14 32  1  0  0  0
 14 33  1  0  0  0
 14 34  1  0  0  0
 20 35  1  0  0  0
 20 36  1  0  0  0
 20 37  1  0  0  0
M  END
$$$$
