1sqp_ligand
  -I-interpret- 

 66 67  0  0  0  0  0  0  0  0999 V2000
   66.4770   58.6540  168.1130 O   0  0  0  0  0
   67.2970   59.5610  168.0940 C   0  0  0  0  0
   67.0800   60.6070  167.2990 N   0  0  0  0  0
   68.5770   59.5160  168.9290 C   0  0  0  0  0
   68.9790   58.5510  169.8500 C   0  0  0  0  0
   70.2340   58.6990  170.5960 O   0  0  0  0  0
   71.0910   59.8200  170.5010 C   0  0  0  0  0
   68.2020   57.2730  170.1130 C   0  0  0  0  0
   67.5670   57.3660  171.5030 C   0  0  0  0  0
   69.1270   56.0670  169.9760 C   0  0  0  0  0
   68.6270   54.8540  170.5710 O   0  0  0  0  0
   69.6580   54.0270  171.1430 C   0  0  0  0  0
   69.6750   55.9030  168.5610 C   0  0  0  0  0
   69.3830   54.8800  167.7490 C   0  0  0  0  0
   70.1060   54.7350  166.4380 C   0  0  0  0  0
   69.8170   53.6910  165.6560 C   0  0  0  0  0
   71.0290   55.5970  165.9880 N   0  0  0  0  0
   71.4770   55.1940  164.6790 C   0  0  0  0  0
   72.4960   55.8270  163.8630 C   0  0  0  0  0
   73.2610   56.8890  164.3330 C   0  0  0  0  0
   72.8590   55.3700  162.5920 N   0  0  0  0  0
   73.9370   56.1800  162.0650 C   0  0  0  0  0
   74.6260   55.9310  160.7130 C   0  0  0  0  0
   73.7770   55.0990  159.7700 C   0  0  0  0  0
   75.0820   57.2190  160.0430 C   0  0  0  0  0
   76.4290   57.4020  159.8280 C   0  0  0  0  0
   76.9030   58.6870  159.1660 C   0  0  0  0  0
   78.2520   58.8640  158.9540 C   0  0  0  0  0
   78.7640   60.1350  158.3020 C   0  0  0  0  0
   79.3620   61.0460  159.3630 C   0  0  0  0  0
   79.8150   59.8170  157.2440 C   0  0  0  0  0
   70.7080   53.7470  164.2160 S   0  0  0  0  0
   74.4640   57.3670  163.2160 S   0  0  0  0  0
   66.2413   60.6419  166.7196 H   0  0  0  0  0
   67.7525   61.3733  167.2694 H   0  0  0  0  0
   69.2657   60.3485  168.7847 H   0  0  0  0  0
   71.4326   59.9284  169.4716 H   0  0  0  0  0
   70.5490   60.7166  170.8017 H   0  0  0  0  0
   71.9496   59.6759  171.1568 H   0  0  0  0  0
   67.4043   57.1459  169.3812 H   0  0  0  0  0
   66.9803   56.4674  171.6939 H   0  0  0  0  0
   68.3517   57.4556  172.2543 H   0  0  0  0  0
   66.9185   58.2410  171.5470 H   0  0  0  0  0
   69.9937   56.2992  170.5949 H   0  0  0  0  0
   70.3664   53.7417  170.3653 H   0  0  0  0  0
   70.1775   54.5836  171.9230 H   0  0  0  0  0
   69.2077   53.1319  171.5722 H   0  0  0  0  0
   70.3506   56.6718  168.1860 H   0  0  0  0  0
   68.6231   54.1536  168.0370 H   0  0  0  0  0
   69.1031   52.9076  165.9105 H   0  0  0  0  0
   73.1108   57.3628  165.3031 H   0  0  0  0  0
   75.5194   55.3505  160.9434 H   0  0  0  0  0
   73.5730   54.1302  160.2259 H   0  0  0  0  0
   72.8372   55.6163  159.5772 H   0  0  0  0  0
   74.3131   54.9549  158.8319 H   0  0  0  0  0
   74.3599   57.9776  159.7410 H   0  0  0  0  0
   77.1457   56.6374  160.1277 H   0  0  0  0  0
   76.1883   59.4531  158.8652 H   0  0  0  0  0
   78.9552   58.0877  159.2558 H   0  0  0  0  0
   77.9277   60.6370  157.8155 H   0  0  0  0  0
   78.5968   61.2973  160.0975 H   0  0  0  0  0
   80.1873   60.5333  159.8571 H   0  0  0  0  0
   79.7289   61.9580  158.8921 H   0  0  0  0  0
   80.6530   59.2990  157.7104 H   0  0  0  0  0
   79.3748   59.1808  156.4762 H   0  0  0  0  0
   80.1658   60.7447  156.7918 H   0  0  0  0  0
  1  2  2  0  0  0
  2  3  1  0  0  0
  2  4  1  0  0  0
  4  5  2  0  0  0
  5  6  1  0  0  0
  5  8  1  0  0  0
  6  7  1  0  0  0
  8  9  1  0  0  0
  8 10  1  0  0  0
 10 11  1  0  0  0
 10 13  1  0  0  0
 11 12  1  0  0  0
 13 14  2  0  0  0
 14 15  1  0  0  0
 15 16  4  0  0  0
 15 17  4  0  0  0
 16 32  4  0  0  0
 17 18  4  0  0  0
 18 19  1  0  0  0
 18 32  4  0  0  0
 19 20  4  0  0  0
 19 21  4  0  0  0
 20 33  4  0  0  0
 21 22  4  0  0  0
 22 23  1  0  0  0
 22 33  4  0  0  0
 23 24  1  0  0  0
 23 25  1  0  0  0
 25 26  2  0  0  0
 26 27  1  0  0  0
 27 28  2  0  0  0
 28 29  1  0  0  0
 29 30  1  0  0  0
 29 31  1  0  0  0
  3 34  1  0  0  0
  3 35  1  0  0  0
  4 36  1  0  0  0
  7 37  1  0  0  0
  7 38  1  0  0  0
  7 39  1  0  0  0
  8 40  1  0  0  0
  9 41  1  0  0  0
  9 42  1  0  0  0
  9 43  1  0  0  0
 10 44  1  0  0  0
 12 45  1  0  0  0
 12 46  1  0  0  0
 12 47  1  0  0  0
 13 48  1  0  0  0
 14 49  1  0  0  0
 16 50  1  0  0  0
 20 51  1  0  0  0
 23 52  1  0  0  0
 24 53  1  0  0  0
 24 54  1  0  0  0
 24 55  1  0  0  0
 25 56  1  0  0  0
 26 57  1  0  0  0
 27 58  1  0  0  0
 28 59  1  0  0  0
 29 60  1  0  0  0
 30 61  1  0  0  0
 30 62  1  0  0  0
 30 63  1  0  0  0
 31 64  1  0  0  0
 31 65  1  0  0  0
 31 66  1  0  0  0
M  END
$$$$
