2w6p_ligand
  -I-interpret- 

 33 35  0  0  0  0  0  0  0  0999 V2000
    3.8980  -24.7580   24.4630 C   0  0  0  0  0
    3.1600  -23.8480   25.2400 C   0  0  0  0  0
    1.9130  -24.3210   25.7360 C   0  0  0  0  0
    1.5130  -25.5850   25.4710 N   0  0  0  0  0
    2.2700  -26.4180   24.7280 C   0  0  0  0  0
    3.4480  -26.0070   24.2230 N   0  0  0  0  0
    1.0210  -23.6410   26.4960 N   0  0  0  0  0
    5.1270  -24.4250   23.9150 C   0  0  0  0  0
    5.6500  -23.1650   24.1240 C   0  0  0  0  0
    4.9510  -22.2260   24.8820 C   0  0  0  0  0
    3.7080  -22.5530   25.4540 C   0  0  0  0  0
    1.8390  -27.6700   24.4780 N   0  0  0  0  0
    7.6540  -19.7410   25.7260 C   0  0  0  0  0
    7.0590  -18.5320   25.3870 C   0  0  0  0  0
    2.9910  -21.5090   26.2790 C   0  0  0  0  0
    5.7630  -18.5070   24.8820 C   0  0  0  0  0
    5.0510  -19.6940   24.7070 C   0  0  0  0  0
    5.6390  -20.9100   25.0510 C   0  0  0  0  0
    6.9440  -20.9270   25.5530 C   0  0  0  0  0
    1.2154  -22.6786   26.7723 H   0  0  0  0  0
    0.1550  -24.0915   26.7919 H   0  0  0  0  0
    5.6778  -25.1549   23.3218 H   0  0  0  0  0
    6.6162  -22.9019   23.6936 H   0  0  0  0  0
    0.9431  -27.9848   24.8503 H   0  0  0  0  0
    2.4087  -28.3029   23.9165 H   0  0  0  0  0
    8.6685  -19.7613   26.1242 H   0  0  0  0  0
    7.6094  -17.6002   25.5172 H   0  0  0  0  0
    2.0222  -21.2939   25.8282 H   0  0  0  0  0
    2.8464  -21.8846   27.2920 H   0  0  0  0  0
    3.5891  -20.5983   26.3097 H   0  0  0  0  0
    5.3012  -17.5546   24.6216 H   0  0  0  0  0
    4.0390  -19.6705   24.3029 H   0  0  0  0  0
    7.4103  -21.8777   25.8115 H   0  0  0  0  0
  2  1  4  0  0  0
  1  6  4  0  0  0
  8  1  4  0  0  0
  2  3  4  0  0  0
 11  2  4  0  0  0
  3  4  4  0  0  0
  3  7  1  0  0  0
  4  5  4  0  0  0
  6  5  4  0  0  0
  5 12  1  0  0  0
  9  8  4  0  0  0
 10  9  4  0  0  0
 10 11  4  0  0  0
 18 10  1  0  0  0
 11 15  1  0  0  0
 14 13  4  0  0  0
 13 19  4  0  0  0
 16 14  4  0  0  0
 17 16  4  0  0  0
 17 18  4  0  0  0
 18 19  4  0  0  0
  7 20  1  0  0  0
  7 21  1  0  0  0
  8 22  1  0  0  0
  9 23  1  0  0  0
 12 24  1  0  0  0
 12 25  1  0  0  0
 13 26  1  0  0  0
 14 27  1  0  0  0
 15 28  1  0  0  0
 15 29  1  0  0  0
 15 30  1  0  0  0
 16 31  1  0  0  0
 17 32  1  0  0  0
 19 33  1  0  0  0
M  END
$$$$
