5tz3_ligand
  -I-interpret- 

 51 55  0  0  0  0  0  0  0  0999 V2000
    5.6980    3.8130    2.3270 C   0  0  0  0  0
    6.3030    4.6390    1.2200 C   0  0  0  0  0
    7.7450    4.2530    0.9850 C   0  0  0  0  0
    6.4760    4.3910    8.0770 N   0  0  0  0  0
    7.5470    4.9040    7.3990 C   0  0  0  0  0
    4.6290    3.0270    4.7680 C   0  0  0  0  0
    9.2390    7.1880    4.3570 C   0  0  0  0  0
    9.7330    7.4590    5.6120 C   0  0  0  0  0
    9.8870    8.7630    6.0290 C   0  0  0  0  0
    9.0550    9.5090    3.9260 C   0  0  0  0  0
   10.3770    9.0540    7.2830 C   0  0  0  0  0
   10.1870   11.3840    6.8400 C   0  0  0  0  0
   10.5270   10.3590    7.6890 C   0  0  0  0  0
    9.6940   11.0980    5.5860 C   0  0  0  0  0
    8.8970    8.2120    3.5070 C   0  0  0  0  0
    9.5430    9.7940    5.1790 C   0  0  0  0  0
    5.7410    3.8900    7.1080 C   0  0  0  0  0
    5.7970    3.6610    4.7190 C   0  0  0  0  0
    4.0310    2.8500    6.0940 C   0  0  0  0  0
    8.9490    5.6690    2.5760 C   0  0  0  0  0
    7.8870    3.6600    3.4630 C   0  0  0  0  0
    8.5700    4.2560    2.2520 C   0  0  0  0  0
    2.7110    2.1440    6.1510 C   0  0  0  0  0
    7.5050    4.7390    6.0750 N   0  0  0  0  0
    4.5590    3.2540    7.2000 N   0  0  0  0  0
    6.3490    4.0870    5.9000 N   0  0  0  0  0
    6.4640    3.8960    3.5500 N   0  0  0  0  0
    9.0750    5.8700    3.9250 N   0  0  0  0  0
    9.1280    6.5260    1.7230 O   0  0  0  0  0
    5.6843    2.7717    2.0050 H   0  0  0  0  0
    4.6967    4.1946    2.5270 H   0  0  0  0  0
    6.2638    5.6902    1.5056 H   0  0  0  0  0
    5.7395    4.4633    0.3037 H   0  0  0  0  0
    8.1786    4.9855    0.3041 H   0  0  0  0  0
    7.7568    3.2399    0.5829 H   0  0  0  0  0
    8.3720    5.4091    7.9013 H   0  0  0  0  0
    4.1406    2.6573    3.8664 H   0  0  0  0  0
   10.0033    6.6398    6.2783 H   0  0  0  0  0
    8.7895   10.3259    3.2549 H   0  0  0  0  0
   10.6481    8.2430    7.9590 H   0  0  0  0  0
   10.3069   12.4198    7.1575 H   0  0  0  0  0
   10.9152   10.5800    8.6833 H   0  0  0  0  0
    9.4220   11.9107    4.9125 H   0  0  0  0  0
    8.5053    7.9968    2.5128 H   0  0  0  0  0
    8.3351    4.1323    4.3372 H   0  0  0  0  0
    8.0201    2.5803    3.3958 H   0  0  0  0  0
    9.4323    3.6222    2.0449 H   0  0  0  0  0
    1.9773    2.7005    5.5678 H   0  0  0  0  0
    2.8190    1.1406    5.7392 H   0  0  0  0  0
    2.3796    2.0790    7.1874 H   0  0  0  0  0
    9.0502    5.0922    4.5844 H   0  0  0  0  0
  2  1  1  0  0  0
  1 27  1  0  0  0
  3  2  1  0  0  0
 22  3  1  0  0  0
  4  5  4  0  0  0
 17  4  4  0  0  0
  5 24  4  0  0  0
 18  6  4  0  0  0
  6 19  4  0  0  0
  7  8  4  0  0  0
  7 15  4  0  0  0
 28  7  1  0  0  0
  8  9  4  0  0  0
  9 11  4  0  0  0
  9 16  4  0  0  0
 15 10  4  0  0  0
 10 16  4  0  0  0
 11 13  4  0  0  0
 13 12  4  0  0  0
 14 12  4  0  0  0
 16 14  4  0  0  0
 17 25  4  0  0  0
 26 17  4  0  0  0
 18 26  4  0  0  0
 27 18  1  0  0  0
 19 23  1  0  0  0
 19 25  4  0  0  0
 20 22  1  0  0  0
 20 28  1  0  0  0
 20 29  2  0  0  0
 22 21  1  0  0  0
 21 27  1  0  0  0
 24 26  4  0  0  0
  1 30  1  0  0  0
  1 31  1  0  0  0
  2 32  1  0  0  0
  2 33  1  0  0  0
  3 34  1  0  0  0
  3 35  1  0  0  0
  5 36  1  0  0  0
  6 37  1  0  0  0
  8 38  1  0  0  0
 10 39  1  0  0  0
 11 40  1  0  0  0
 12 41  1  0  0  0
 13 42  1  0  0  0
 14 43  1  0  0  0
 15 44  1  0  0  0
 21 45  1  0  0  0
 21 46  1  0  0  0
 22 47  1  0  0  0
 23 48  1  0  0  0
 23 49  1  0  0  0
 23 50  1  0  0  0
 28 51  1  0  0  0
M  END
$$$$
