### 
### Created by X-TOOL on Mon Sep 10 21:13:09 2018
### 

@<TRIPOS>MOLECULE
4acd_ligand
   55    58     1     0     0
SMALL
GAST_HUCK


@<TRIPOS>ATOM
      1 C1         28.6260  -22.2340   10.1040 C.3       1 GR9        -0.0959
      2 N2         28.5940  -22.6390   11.5260 N.4       1 GR9         0.4029
      3 C3         28.4150  -24.0830   11.7060 C.3       1 GR9        -0.1255
      4 C4         27.6330  -21.8810   12.3420 C.3       1 GR9        -0.0959
      5 C5         28.1180  -20.4220   12.4170 C.3       1 GR9         0.0110
      6 N6         28.4110  -19.9100   11.0560 N.am      1 GR9        -0.2379
      7 S7         28.0170  -18.3430   10.7030 S.o2      1 GR9         0.0707
      8 O8         27.8260  -17.6930   11.9600 O.2       1 GR9        -0.1500
      9 O9         28.9730  -17.8780    9.7470 O.2       1 GR9        -0.1500
     10 C10        26.4400  -18.4140    9.8600 C.ar      1 GR9         0.1090
     11 C11        26.3610  -18.8110    8.5150 C.ar      1 GR9        -0.0338
     12 C12        25.1450  -18.8940    7.8650 C.ar      1 GR9        -0.0503
     13 C13        23.9600  -18.5870    8.5510 C.ar      1 GR9        -0.0003
     14 C14        24.0370  -18.1570    9.8890 C.ar      1 GR9        -0.0503
     15 C15        25.2570  -18.0960   10.5340 C.ar      1 GR9        -0.0338
     16 C16        22.6340  -18.6100    7.8570 C.ar      1 GR9         0.0738
     17 C17        22.4390  -19.3250    6.6570 C.ar      1 GR9         0.0379
     18 N18        21.2820  -19.2520    6.0170 N.ar      1 GR9        -0.2533
     19 C19        20.2620  -18.5310    6.5060 C.ar      1 GR9         0.1616
     20 C20        20.4330  -17.8180    7.7220 C.ar      1 GR9         0.1756
     21 N21        21.6220  -17.8810    8.3430 N.ar      1 GR9        -0.2600
     22 C22        19.3740  -16.9660    8.3160 C.2       1 GR9         0.2541
     23 O23        18.2930  -16.8370    7.7550 O.2       1 GR9        -0.3700
     24 N24        19.6900  -16.3120    9.4710 N.am      1 GR9        -0.2251
     25 C25        18.9020  -15.4550   10.2490 C.ar      1 GR9         0.0941
     26 C26        19.5150  -14.8480   11.3390 C.ar      1 GR9        -0.0215
     27 C27        18.7940  -13.9700   12.1480 C.ar      1 GR9        -0.0479
     28 C28        17.4490  -13.7770   11.8680 C.ar      1 GR9        -0.0050
     29 N29        16.8710  -14.3760   10.8280 N.ar      1 GR9        -0.3127
     30 C30        17.5370  -15.2090   10.0310 C.ar      1 GR9         0.0313
     31 N31        19.0710  -18.4940    5.8060 N.pl3     1 GR9        -0.3111
     32 C6         29.0610  -20.7580   10.0070 C.3       1 GR9         0.0110
     33 H          27.6343  -22.3526    9.6675 H         1 GR9         0.0033
     34 H          29.3338  -22.8604    9.5611 H         1 GR9         0.0033
     35 H          28.5684  -24.3389   12.7544 H         1 GR9        -0.0019
     36 H          27.4050  -24.3628   11.4064 H         1 GR9        -0.0019
     37 H          29.1390  -24.6171   11.0906 H         1 GR9        -0.0019
     38 H          27.5697  -22.3084   13.3427 H         1 GR9         0.0033
     39 H          26.6408  -21.9251   11.8928 H         1 GR9         0.0033
     40 H          29.0261  -20.3780   13.0183 H         1 GR9         0.0458
     41 H          27.3381  -19.8092   12.8689 H         1 GR9         0.0458
     42 H          27.2750  -19.0578    7.9748 H         1 GR9         0.0639
     43 H          25.1059  -19.1980    6.8190 H         1 GR9         0.0630
     44 H          23.1288  -17.8705   10.4192 H         1 GR9         0.0630
     45 H          25.2979  -17.7963   11.5812 H         1 GR9         0.0639
     46 H          23.2439  -19.9402    6.2548 H         1 GR9         0.0922
     47 H          20.6362  -16.4701    9.8175 H         1 GR9         0.2279
     48 H          20.5610  -15.0586   11.5618 H         1 GR9         0.0622
     49 H          19.2739  -13.4500   12.9771 H         1 GR9         0.0667
     50 H          16.8558  -13.1249   12.5091 H         1 GR9         0.0691
     51 H          17.0210  -15.7015    9.2068 H         1 GR9         0.0711
     52 H          18.9773  -19.0102    4.9312 H         1 GR9         0.1819
     53 H          18.2856  -17.9505    6.1641 H         1 GR9         0.1819
     54 H          28.7624  -20.3788    9.0297 H         1 GR9         0.0458
     55 H          30.1403  -20.7111   10.1521 H         1 GR9         0.0458
@<TRIPOS>BOND
     1    1    2 1  
     2    1   32 1  
     3    2    3 1  
     4    2    4 1  
     5    4    5 1  
     6    5    6 1  
     7    6    7 am 
     8    6   32 1  
     9    7    8 2  
    10    7    9 2  
    11    7   10 1  
    12   10   11 ar 
    13   10   15 ar 
    14   11   12 ar 
    15   12   13 ar 
    16   13   14 ar 
    17   13   16 1  
    18   14   15 ar 
    19   16   17 ar 
    20   16   21 ar 
    21   17   18 ar 
    22   18   19 ar 
    23   19   20 ar 
    24   19   31 1  
    25   20   21 ar 
    26   20   22 1  
    27   22   23 2  
    28   22   24 am 
    29   24   25 1  
    30   25   26 ar 
    31   25   30 ar 
    32   26   27 ar 
    33   27   28 ar 
    34   28   29 ar 
    35   29   30 ar 
    36    1   33 1  
    37    1   34 1  
    38    3   35 1  
    39    3   36 1  
    40    3   37 1  
    41    4   38 1  
    42    4   39 1  
    43    5   40 1  
    44    5   41 1  
    45   11   42 1  
    46   12   43 1  
    47   14   44 1  
    48   15   45 1  
    49   17   46 1  
    50   24   47 1  
    51   26   48 1  
    52   27   49 1  
    53   28   50 1  
    54   30   51 1  
    55   31   52 1  
    56   31   53 1  
    57   32   54 1  
    58   32   55 1  
@<TRIPOS>SUBSTRUCTURE
     1 GR9         1

