4acd_ligand
  -I-interpret- 

 56 59  0  0  0  0  0  0  0  0999 V2000
   28.6260  -22.2340   10.1040 C   0  0  0  0  0
   28.5940  -22.6390   11.5260 N   0  3  0  0  0
   28.4150  -24.0830   11.7060 C   0  0  0  0  0
   27.6330  -21.8810   12.3420 C   0  0  0  0  0
   28.1180  -20.4220   12.4170 C   0  0  0  0  0
   28.4110  -19.9100   11.0560 N   0  0  0  0  0
   28.0170  -18.3430   10.7030 S   0  0  0  0  0
   27.8260  -17.6930   11.9600 O   0  0  0  0  0
   28.9730  -17.8780    9.7470 O   0  0  0  0  0
   26.4400  -18.4140    9.8600 C   0  0  0  0  0
   26.3610  -18.8110    8.5150 C   0  0  0  0  0
   25.1450  -18.8940    7.8650 C   0  0  0  0  0
   23.9600  -18.5870    8.5510 C   0  0  0  0  0
   24.0370  -18.1570    9.8890 C   0  0  0  0  0
   25.2570  -18.0960   10.5340 C   0  0  0  0  0
   22.6340  -18.6100    7.8570 C   0  0  0  0  0
   22.4390  -19.3250    6.6570 C   0  0  0  0  0
   21.2820  -19.2520    6.0170 N   0  0  0  0  0
   20.2620  -18.5310    6.5060 C   0  0  0  0  0
   20.4330  -17.8180    7.7220 C   0  0  0  0  0
   21.6220  -17.8810    8.3430 N   0  0  0  0  0
   19.3740  -16.9660    8.3160 C   0  0  0  0  0
   18.2930  -16.8370    7.7550 O   0  0  0  0  0
   19.6900  -16.3120    9.4710 N   0  0  0  0  0
   18.9020  -15.4550   10.2490 C   0  0  0  0  0
   19.5150  -14.8480   11.3390 C   0  0  0  0  0
   18.7940  -13.9700   12.1480 C   0  0  0  0  0
   17.4490  -13.7770   11.8680 C   0  0  0  0  0
   16.8710  -14.3760   10.8280 N   0  0  0  0  0
   17.5370  -15.2090   10.0310 C   0  0  0  0  0
   19.0710  -18.4940    5.8060 N   0  0  0  0  0
   29.0610  -20.7580   10.0070 C   0  0  0  0  0
   27.6343  -22.3526    9.6675 H   0  0  0  0  0
   29.3338  -22.8604    9.5611 H   0  0  0  0  0
   29.5215  -22.3981   11.8755 H   0  0  0  0  0
   28.5684  -24.3389   12.7544 H   0  0  0  0  0
   27.4050  -24.3628   11.4064 H   0  0  0  0  0
   29.1390  -24.6171   11.0906 H   0  0  0  0  0
   27.5697  -22.3084   13.3427 H   0  0  0  0  0
   26.6408  -21.9251   11.8928 H   0  0  0  0  0
   29.0261  -20.3780   13.0183 H   0  0  0  0  0
   27.3381  -19.8092   12.8689 H   0  0  0  0  0
   27.2750  -19.0578    7.9748 H   0  0  0  0  0
   25.1059  -19.1980    6.8190 H   0  0  0  0  0
   23.1288  -17.8705   10.4192 H   0  0  0  0  0
   25.2979  -17.7963   11.5812 H   0  0  0  0  0
   23.2439  -19.9402    6.2548 H   0  0  0  0  0
   20.6362  -16.4701    9.8175 H   0  0  0  0  0
   20.5610  -15.0586   11.5618 H   0  0  0  0  0
   19.2739  -13.4500   12.9771 H   0  0  0  0  0
   16.8558  -13.1249   12.5091 H   0  0  0  0  0
   17.0210  -15.7015    9.2068 H   0  0  0  0  0
   18.9773  -19.0102    4.9312 H   0  0  0  0  0
   18.2856  -17.9505    6.1641 H   0  0  0  0  0
   28.7624  -20.3788    9.0297 H   0  0  0  0  0
   30.1403  -20.7111   10.1521 H   0  0  0  0  0
  1  2  1  0  0  0
  1 32  1  0  0  0
  2  3  1  0  0  0
  2  4  1  0  0  0
  4  5  1  0  0  0
  5  6  1  0  0  0
  6  7  1  0  0  0
  6 32  1  0  0  0
  7  8  2  0  0  0
  7  9  2  0  0  0
  7 10  1  0  0  0
 10 11  4  0  0  0
 10 15  4  0  0  0
 11 12  4  0  0  0
 12 13  4  0  0  0
 13 14  4  0  0  0
 13 16  1  0  0  0
 14 15  4  0  0  0
 16 17  4  0  0  0
 16 21  4  0  0  0
 17 18  4  0  0  0
 18 19  4  0  0  0
 19 20  4  0  0  0
 19 31  1  0  0  0
 20 21  4  0  0  0
 20 22  1  0  0  0
 22 23  2  0  0  0
 22 24  1  0  0  0
 24 25  1  0  0  0
 25 26  4  0  0  0
 25 30  4  0  0  0
 26 27  4  0  0  0
 27 28  4  0  0  0
 28 29  4  0  0  0
 29 30  4  0  0  0
  1 33  1  0  0  0
  1 34  1  0  0  0
  2 35  1  0  0  0
  3 36  1  0  0  0
  3 37  1  0  0  0
  3 38  1  0  0  0
  4 39  1  0  0  0
  4 40  1  0  0  0
  5 41  1  0  0  0
  5 42  1  0  0  0
 11 43  1  0  0  0
 12 44  1  0  0  0
 14 45  1  0  0  0
 15 46  1  0  0  0
 17 47  1  0  0  0
 24 48  1  0  0  0
 26 49  1  0  0  0
 27 50  1  0  0  0
 28 51  1  0  0  0
 30 52  1  0  0  0
 31 53  1  0  0  0
 31 54  1  0  0  0
 32 55  1  0  0  0
 32 56  1  0  0  0
M  END
$$$$
