2vl4_ligand
  -I-interpret- 

 25 25  0  0  0  0  0  0  0  0999 V2000
   27.9420   47.1990    0.2660 C   0  0  0  0  0
   27.3400   45.8880   -0.2660 C   0  0  0  0  0
   27.6210   48.3830   -0.6710 C   0  0  0  0  0
   29.3650   47.0810    0.4150 O   0  0  0  0  0
   27.9690   44.7130    0.2310 O   0  0  0  0  0
   27.4450   45.7790   -1.7160 N   0  3  0  0  0
   27.3180   49.5580    0.0990 O   0  0  0  0  0
   26.5030   48.0750   -1.7060 C   0  0  0  0  0
   26.1150   49.3000   -2.5750 C   0  0  0  0  0
   26.9730   46.8880   -2.5590 C   0  0  0  0  0
   27.2120   49.7050   -3.3890 O   0  0  0  0  0
   27.4926   47.3915    1.2402 H   0  0  0  0  0
   26.3063   45.9430    0.0755 H   0  0  0  0  0
   28.5176   48.5662   -1.2631 H   0  0  0  0  0
   29.5646   46.3447    0.9977 H   0  0  0  0  0
   27.9375   44.7159    1.1905 H   0  0  0  0  0
   26.8443   44.9921   -1.9616 H   0  0  0  0  0
   28.4465   45.7206   -1.9003 H   0  0  0  0  0
   28.0263   49.7194    0.7266 H   0  0  0  0  0
   25.5862   47.8210   -1.1740 H   0  0  0  0  0
   25.8386   50.1252   -1.9187 H   0  0  0  0  0
   25.2796   49.0257   -3.2191 H   0  0  0  0  0
   26.1327   46.5361   -3.1575 H   0  0  0  0  0
   27.7972   47.2191   -3.1908 H   0  0  0  0  0
   26.9534   50.4628   -3.9186 H   0  0  0  0  0
  1  2  1  0  0  0
  1  3  1  0  0  0
  1  4  1  0  0  0
  2  5  1  0  0  0
  2  6  1  0  0  0
  3  7  1  0  0  0
  3  8  1  0  0  0
  6 10  1  0  0  0
  8  9  1  0  0  0
  8 10  1  0  0  0
  9 11  1  0  0  0
  1 12  1  0  0  0
  2 13  1  0  0  0
  3 14  1  0  0  0
  4 15  1  0  0  0
  5 16  1  0  0  0
  6 17  1  0  0  0
  6 18  1  0  0  0
  7 19  1  0  0  0
  8 20  1  0  0  0
  9 21  1  0  0  0
  9 22  1  0  0  0
 10 23  1  0  0  0
 10 24  1  0  0  0
 11 25  1  0  0  0
M  END
$$$$
