4g68_ligand
  -I-interpret- 

 52 54  0  0  0  0  0  0  0  0999 V2000
   -3.4270   23.8570   20.6840 C   0  0  0  0  0
   -2.3300   24.4640   21.5900 C   0  0  0  0  0
   -1.2390   23.4750   22.0250 C   0  0  0  0  0
   -1.8590   22.1220   22.4160 C   0  0  0  0  0
   -2.7290   21.5970   21.2750 C   0  0  0  0  0
   -3.7470   24.5930   19.5460 O   0  0  0  0  0
   -1.7520   25.6330   21.1540 O   0  0  0  0  0
   -0.5440   24.0710   23.0590 O   0  0  0  0  0
   -0.9550   21.1920   22.9680 O   0  0  0  0  0
   -3.3760   22.4810   20.4850 O   0  0  0  0  0
   -0.4330   21.3340   24.1360 C   0  0  0  0  0
   -0.7580   20.0400   24.8880 C   0  0  0  0  0
   -0.0130   20.1360   26.2390 C   0  0  0  0  0
    1.4530   20.2570   25.8900 C   0  0  0  0  0
    1.6920   21.4960   25.0050 C   0  0  0  0  0
   -2.1620   20.0500   25.1450 O   0  0  0  0  0
   -0.2420   18.8500   26.8530 O   0  0  0  0  0
    2.1360   20.4330   27.1360 O   0  0  0  0  0
    0.9190   21.3340   23.8090 O   0  0  0  0  0
    3.4460   19.9660   27.2430 C   0  0  0  0  0
    4.1510   20.7750   28.3270 C   0  0  0  0  0
    5.5570   20.1910   28.5080 C   0  0  0  0  0
    5.5330   18.6520   28.6900 C   0  0  0  0  0
    4.6170   17.9400   27.6530 C   0  0  0  0  0
    4.1500   22.1400   27.9620 O   0  0  0  0  0
    6.1320   20.8570   29.6540 O   0  0  0  0  0
    6.8400   18.0740   28.6270 O   0  0  0  0  0
    3.3580   18.5990   27.5780 O   0  0  0  0  0
   -2.9252   24.7271   22.4644 H   0  0  0  0  0
   -0.5488   23.2529   21.2112 H   0  0  0  0  0
   -2.5206   22.2950   23.2648 H   0  0  0  0  0
   -3.5188   21.0265   21.7637 H   0  0  0  0  0
   -2.0377   21.0795   20.6099 H   0  0  0  0  0
   -2.4388   26.2468   20.8836 H   0  0  0  0  0
   -0.1811   24.9075   22.7588 H   0  0  0  0  0
   -0.7523   22.1950   24.7232 H   0  0  0  0  0
   -0.4742   19.1439   24.3360 H   0  0  0  0  0
   -0.3238   20.9605   26.8807 H   0  0  0  0  0
    1.8025   19.3804   25.3446 H   0  0  0  0  0
    2.7505   21.5899   24.7623 H   0  0  0  0  0
    1.3904   22.4016   25.5314 H   0  0  0  0  0
   -2.4054   19.2506   25.6175 H   0  0  0  0  0
    0.1925   18.8233   27.7086 H   0  0  0  0  0
    4.0167   20.0762   26.3209 H   0  0  0  0  0
    3.6386   20.7132   29.2871 H   0  0  0  0  0
    6.1590   20.3612   27.6154 H   0  0  0  0  0
    5.1228   18.4938   29.6874 H   0  0  0  0  0
    4.4617   16.9067   27.9632 H   0  0  0  0  0
    5.0950   17.9698   26.6739 H   0  0  0  0  0
    4.5931   22.6523   28.6423 H   0  0  0  0  0
    7.0183   20.5212   29.8064 H   0  0  0  0  0
    6.7743   17.1235   28.7445 H   0  0  0  0  0
  1  2  1  0  0  0
  1  6  2  0  0  0
  1 10  1  0  0  0
  2  3  1  0  0  0
  2  7  1  0  0  0
  3  4  1  0  0  0
  3  8  1  0  0  0
  4  5  1  0  0  0
  4  9  1  0  0  0
  5 10  1  0  0  0
  9 11  1  0  0  0
 11 12  1  0  0  0
 11 19  1  0  0  0
 12 13  1  0  0  0
 12 16  1  0  0  0
 13 14  1  0  0  0
 13 17  1  0  0  0
 14 15  1  0  0  0
 14 18  1  0  0  0
 15 19  1  0  0  0
 18 20  1  0  0  0
 20 21  1  0  0  0
 20 28  1  0  0  0
 21 22  1  0  0  0
 21 25  1  0  0  0
 22 23  1  0  0  0
 22 26  1  0  0  0
 23 24  1  0  0  0
 23 27  1  0  0  0
 24 28  1  0  0  0
  2 29  1  0  0  0
  3 30  1  0  0  0
  4 31  1  0  0  0
  5 32  1  0  0  0
  5 33  1  0  0  0
  7 34  1  0  0  0
  8 35  1  0  0  0
 11 36  1  0  0  0
 12 37  1  0  0  0
 13 38  1  0  0  0
 14 39  1  0  0  0
 15 40  1  0  0  0
 15 41  1  0  0  0
 16 42  1  0  0  0
 17 43  1  0  0  0
 20 44  1  0  0  0
 21 45  1  0  0  0
 22 46  1  0  0  0
 23 47  1  0  0  0
 24 48  1  0  0  0
 24 49  1  0  0  0
 25 50  1  0  0  0
 26 51  1  0  0  0
 27 52  1  0  0  0
M  END
$$$$
