1fwv_ligand
  -I-interpret- 

 75 77  0  0  0  0  0  0  0  0999 V2000
   -0.8320    6.5040   10.2130 C   0  0  0  0  0
   -0.7520    8.0050    9.9990 C   0  0  0  0  0
    0.2330    8.6370   10.9840 C   0  0  0  0  0
   -0.2420    8.3060   12.4150 C   0  0  0  0  0
   -0.3140    6.7670   12.5720 C   0  0  0  0  0
   -0.8260    6.2880   13.9470 C   0  0  0  0  0
   -1.8060    5.9140    9.3310 O   0  0  0  0  0
   -0.3400    8.2850    8.6440 O   0  0  0  0  0
    0.3010   10.0500   10.8040 O   0  0  0  0  0
   -1.5400    8.8430   12.6340 O   0  0  0  0  0
   -1.2240    6.1750   11.5830 O   0  0  0  0  0
    0.0120    6.8160   14.9990 O   0  0  0  0  0
    1.5960   10.7420   11.1330 S   0  0  0  0  0
    2.7460   10.0460   10.4870 O   0  0  0  0  0
    1.5640   12.1270   10.6300 O   0  0  0  0  0
    1.8010   10.7780   12.5840 O   0  0  0  0  0
   -1.3970    2.4970    7.7660 C   0  0  0  0  0
   -1.3760    4.0320    7.8480 C   0  0  0  0  0
   -1.8300    4.5070    9.2300 C   0  0  0  0  0
   -3.2860    3.9820    9.4410 C   0  0  0  0  0
   -3.2600    2.4230    9.3270 C   0  0  0  0  0
   -4.6350    1.8040    9.4690 C   0  0  0  0  0
    0.2110    5.3750    6.5710 C   0  0  0  0  0
    1.6370    5.7390    6.3820 C   0  0  0  0  0
   -0.0320    4.4960    7.5530 N   0  0  0  0  0
   -1.0150    2.0500    6.5440 O   0  0  0  0  0
   -2.7440    2.0110    8.0580 O   0  0  0  0  0
   -4.5760    0.3730    9.3510 O   0  0  0  0  0
   -0.6800    5.8810    5.8260 O   0  0  0  0  0
   -5.1140    4.9920   10.7810 C   0  0  0  0  0
   -5.5030    5.1670   12.2620 C   0  0  0  0  0
   -4.6690    6.2790   12.9120 C   0  0  0  0  0
   -4.8630    7.5910   12.1270 C   0  0  0  0  0
   -4.4720    7.4110   10.6880 C   0  0  0  0  0
   -4.6550    8.6200    9.8100 C   0  0  0  0  0
   -3.7930    4.4090   10.7560 O   0  0  0  0  0
   -5.3860    3.9090   12.9320 O   0  0  0  0  0
   -5.1330    6.4550   14.2480 O   0  0  0  0  0
   -6.2500    8.0070   12.2250 O   0  0  0  0  0
   -5.1940    6.2720   10.0690 O   0  0  0  0  0
    0.1630    6.1089   10.0082 H   0  0  0  0  0
   -1.7388    8.4344   10.1720 H   0  0  0  0  0
    1.2315    8.2357   10.8107 H   0  0  0  0  0
    0.4556    8.7358   13.1338 H   0  0  0  0  0
    0.7195    6.4469   12.4395 H   0  0  0  0  0
   -0.7985    5.1988   13.9798 H   0  0  0  0  0
   -1.8472    6.6406   14.0916 H   0  0  0  0  0
   -0.9627    7.8854    8.0323 H   0  0  0  0  0
   -1.5101    9.7979   12.5397 H   0  0  0  0  0
   -0.3145    6.5126   15.8493 H   0  0  0  0  0
    2.6115   10.0225    9.5368 H   0  0  0  0  0
   -0.6873    2.1159    8.5003 H   0  0  0  0  0
   -2.0704    4.4480    7.1181 H   0  0  0  0  0
   -1.1527    4.1228    9.9928 H   0  0  0  0  0
   -3.9542    4.3923    8.6838 H   0  0  0  0  0
   -2.6218    2.0828   10.1425 H   0  0  0  0  0
   -5.2746    2.1922    8.6763 H   0  0  0  0  0
   -5.0297    2.0557   10.4534 H   0  0  0  0  0
    1.9504    5.4643    5.3748 H   0  0  0  0  0
    1.7580    6.8133    6.5212 H   0  0  0  0  0
    2.2465    5.2059    7.1116 H   0  0  0  0  0
    0.7479    4.1435    8.1080 H   0  0  0  0  0
   -0.1302    2.3682    6.3503 H   0  0  0  0  0
   -5.4592    0.0086    9.4448 H   0  0  0  0  0
   -5.8052    4.3296   10.2599 H   0  0  0  0  0
   -6.5424    5.4850   12.3435 H   0  0  0  0  0
   -3.6119    6.0133   12.9073 H   0  0  0  0  0
   -4.2222    8.3613   12.5560 H   0  0  0  0  0
   -3.4003    7.2193   10.7403 H   0  0  0  0  0
   -5.7053    8.9115    9.8095 H   0  0  0  0  0
   -4.0490    9.4409   10.1933 H   0  0  0  0  0
   -4.3427    8.3800    8.7936 H   0  0  0  0  0
   -5.6279    4.0155   13.8549 H   0  0  0  0  0
   -4.6232    7.1481   14.6739 H   0  0  0  0  0
   -6.3731    8.8243   11.7366 H   0  0  0  0  0
  1 11  1  0  0  0
  7  1  1  0  0  0
  1  2  1  0  0  0
  2  8  1  0  0  0
  2  3  1  0  0  0
  3  9  1  0  0  0
  3  4  1  0  0  0
  4 10  1  0  0  0
  5  4  1  0  0  0
 11  5  1  0  0  0
  5  6  1  0  0  0
  6 12  1  0  0  0
  9 13  1  0  0  0
 13 16  2  0  0  0
 13 15  2  0  0  0
 13 14  1  0  0  0
 27 17  1  0  0  0
 17 26  1  0  0  0
 18 17  1  0  0  0
 18 25  1  0  0  0
 19 18  1  0  0  0
 20 19  1  0  0  0
 20 21  1  0  0  0
 21 27  1  0  0  0
 21 22  1  0  0  0
 22 28  1  0  0  0
 25 23  1  0  0  0
 23 29  2  0  0  0
 23 24  1  0  0  0
 30 40  1  0  0  0
 36 30  1  0  0  0
 30 31  1  0  0  0
 31 37  1  0  0  0
 31 32  1  0  0  0
 32 38  1  0  0  0
 32 33  1  0  0  0
 33 39  1  0  0  0
 34 33  1  0  0  0
 40 34  1  0  0  0
 34 35  1  0  0  0
 19  7  1  0  0  0
 36 20  1  0  0  0
  1 41  1  0  0  0
  2 42  1  0  0  0
  3 43  1  0  0  0
  4 44  1  0  0  0
  5 45  1  0  0  0
  6 46  1  0  0  0
  6 47  1  0  0  0
  8 48  1  0  0  0
 10 49  1  0  0  0
 12 50  1  0  0  0
 14 51  1  0  0  0
 17 52  1  0  0  0
 18 53  1  0  0  0
 19 54  1  0  0  0
 20 55  1  0  0  0
 21 56  1  0  0  0
 22 57  1  0  0  0
 22 58  1  0  0  0
 24 59  1  0  0  0
 24 60  1  0  0  0
 24 61  1  0  0  0
 25 62  1  0  0  0
 26 63  1  0  0  0
 28 64  1  0  0  0
 30 65  1  0  0  0
 31 66  1  0  0  0
 32 67  1  0  0  0
 33 68  1  0  0  0
 34 69  1  0  0  0
 35 70  1  0  0  0
 35 71  1  0  0  0
 35 72  1  0  0  0
 37 73  1  0  0  0
 38 74  1  0  0  0
 39 75  1  0  0  0
M  END
$$$$
