3ktr_ligand
  -I-interpret- 

257260  0  0  0  0  0  0  0  0999 V2000
    0.1930   10.4640    3.7990 N   0  3  0  0  0
   -1.0650   10.1840    4.5660 C   0  0  0  0  0
   -2.2060   11.0980    4.1120 C   0  0  0  0  0
   -1.9890   12.0490    3.3600 O   0  0  0  0  0
   -0.8590   10.2440    6.1150 C   0  0  0  0  0
   -1.1260   11.5640    6.6130 O   0  0  0  0  0
    0.5570    9.8070    6.5180 C   0  0  0  0  0
   -3.4090   10.8120    4.6010 N   0  0  0  0  0
   -4.6460   11.4150    4.1100 C   0  0  0  0  0
   -4.9000   12.7960    4.7190 C   0  0  0  0  0
   -4.8590   12.9560    5.9380 O   0  0  0  0  0
   -5.8160   10.4790    4.4160 C   0  0  0  0  0
   -5.6670    9.0360    3.9070 C   0  0  0  0  0
   -6.6490    8.0940    4.5980 C   0  0  0  0  0
   -5.8370    8.9910    2.3990 C   0  0  0  0  0
   -5.1410   13.7780    3.8540 N   0  0  0  0  0
   -5.3940   15.1570    4.2770 C   0  0  0  0  0
   -6.8780   15.4880    4.1130 C   0  0  0  0  0
   -7.3960   15.5130    2.9720 O   0  0  0  0  0
   -4.5100   16.1360    3.4520 C   0  0  0  0  0
   -4.6130   17.5940    3.9250 C   0  0  0  0  0
   -5.6110   17.9990    4.4710 O   0  0  0  0  0
   -3.5770   18.3920    3.6640 N   0  0  0  0  0
   -7.5680   15.7600    5.2320 N   0  0  0  0  0
   -8.9930   16.0460    5.1940 C   0  0  0  0  0
   -9.2990   17.3790    4.5190 C   0  0  0  0  0
  -10.4700   17.6810    4.3160 O   0  0  0  0  0
   -9.3840   16.0940    6.6810 C   0  0  0  0  0
   -8.1140   16.5380    7.3550 C   0  0  0  0  0
   -7.0460   15.8180    6.6090 C   0  0  0  0  0
   -8.2700   18.1710    4.1890 N   0  0  0  0  0
   -8.4600   19.4000    3.4200 C   0  0  0  0  0
   -8.3610   19.2160    1.9110 C   0  0  0  0  0
   -8.4190   20.1690    1.1770 O   0  0  0  0  0
   -7.4580   20.4750    3.8880 C   0  0  0  0  0
   -7.7570   20.9560    5.2570 C   0  0  0  0  0
   -8.9280   21.1270    5.6370 O   0  0  0  0  0
   -6.7160   21.2310    6.0100 N   0  0  0  0  0
   -8.2650   17.9710    1.4510 N   0  0  0  0  0
   -8.1580   17.6900    0.0240 C   0  0  0  0  0
   -9.3420   18.2090   -0.7970 C   0  0  0  0  0
  -10.4740   18.3120   -0.2960 O   0  0  0  0  0
   -7.9940   16.1940   -0.1940 C   0  0  0  0  0
   -9.0650   18.5450   -2.0600 N   0  0  0  0  0
  -10.0950   18.9420   -3.0160 C   0  0  0  0  0
  -11.1470   17.8450   -3.1250 C   0  0  0  0  0
  -10.8010   16.6770   -3.3240 O   0  0  0  0  0
   -9.4980   19.0910   -4.4240 C   0  0  0  0  0
   -8.5660   20.2360   -4.6550 C   0  0  0  0  0
   -7.8080   20.0370   -5.9660 C   0  0  0  0  0
   -6.9870   21.2670   -6.3540 C   0  0  0  0  0
   -5.8970   21.5710   -5.3780 N   0  3  0  0  0
  -12.4210   18.2090   -3.0380 N   0  0  0  0  0
  -13.4790   17.2380   -3.3120 C   0  0  0  0  0
  -13.4500   16.7920   -4.7770 C   0  0  0  0  0
  -13.1230   17.5700   -5.6720 O   0  0  0  0  0
  -14.8560   17.8020   -2.9630 C   0  0  0  0  0
  -15.0210   18.1410   -1.4800 C   0  0  0  0  0
  -16.4740   18.2870   -1.0700 C   0  0  0  0  0
  -16.7320   18.7410    0.0670 O   0  0  0  0  0
  -17.3540   17.9420   -1.8920 O   0  0  0  0  0
  -13.7960   15.5270   -4.9940 N   0  0  0  0  0
  -13.8900   14.9610   -6.3280 C   0  0  0  0  0
  -15.2820   15.1610   -6.9110 C   0  0  0  0  0
  -16.2810   14.9230   -6.2340 O   0  0  0  0  0
  -13.5810   13.4600   -6.2740 C   0  0  0  0  0
  -13.6940   12.8010   -7.5930 C   0  0  0  0  0
  -12.7090   12.9780   -8.5540 C   0  0  0  0  0
  -14.8330   12.0390   -7.9120 C   0  0  0  0  0
  -12.8410   12.3810   -9.8150 C   0  0  0  0  0
  -14.9750   11.4450   -9.1670 C   0  0  0  0  0
  -13.9740   11.6300  -10.1250 C   0  0  0  0  0
  -15.3310   15.5560   -8.1870 N   0  0  0  0  0
  -16.5920   15.6600   -8.9130 C   0  0  0  0  0
  -16.7030   14.6190  -10.0340 C   0  0  0  0  0
  -15.9480   14.6680  -11.0090 O   0  0  0  0  0
  -16.7780   17.0920   -9.4210 C   0  0  0  0  0
  -16.6700   18.1290   -8.2910 C   0  0  0  0  0
  -17.2620   17.9690   -7.2120 O   0  0  0  0  0
  -15.9120   19.1940   -8.5370 N   0  0  0  0  0
  -17.6270   13.6490   -9.8800 N   0  0  0  0  0
  -17.7990   12.6020  -10.8850 C   0  0  0  0  0
  -18.5180   13.1570  -12.1100 C   0  0  0  0  0
  -19.1090   14.2530  -12.0440 O   0  0  0  0  0
  -18.6940   11.5930  -10.1700 C   0  0  0  0  0
  -19.5350   12.4430   -9.2830 C   0  0  0  0  0
  -18.5860   13.5080   -8.7740 C   0  0  0  0  0
  -18.4630   12.4070  -13.2080 N   0  0  0  0  0
  -19.1860   12.7610  -14.4260 C   0  0  0  0  0
  -20.6780   12.6660  -14.1870 C   0  0  0  0  0
  -21.4530   13.4410  -14.7500 O   0  0  0  0  0
  -18.7700   11.8350  -15.5740 C   0  0  0  0  0
  -19.6180   11.9930  -16.8400 C   0  0  0  0  0
  -18.8830   11.5280  -18.0740 C   0  0  0  0  0
  -19.6270   11.8420  -19.2960 N   0  0  0  0  0
  -19.5290   12.9920  -19.9650 C   0  0  0  0  0
  -18.7220   13.9590  -19.5320 N   0  0  0  0  0
  -20.2350   13.1780  -21.0740 N   0  0  0  0  0
  -21.0700   11.6900  -13.3680 N   0  0  0  0  0
  -22.4600   11.5560  -12.9100 C   0  0  0  0  0
  -22.5160   10.8580  -11.5400 C   0  0  0  0  0
  -21.5970   10.1470  -11.1720 O   0  0  0  0  0
  -23.3080   10.7860  -13.9390 C   0  0  0  0  0
  -22.9820    9.4000  -13.9780 O   0  0  0  0  0
  -23.6200   11.0590  -10.8130 N   0  0  0  0  0
  -23.8350   10.4510   -9.4940 C   0  0  0  0  0
  -24.4940    9.0830   -9.5770 C   0  0  0  0  0
  -24.4000    8.2830   -8.6400 O   0  0  0  0  0
  -24.6660   11.3720   -8.5930 C   0  0  0  0  0
  -23.9110   12.5710   -8.1140 C   0  0  0  0  0
  -24.1320   13.8170   -8.6810 C   0  0  0  0  0
  -22.9530   12.4520   -7.1130 C   0  0  0  0  0
  -23.4060   14.9260   -8.2380 C   0  0  0  0  0
  -22.2080   13.5580   -6.6830 C   0  0  0  0  0
  -22.4390   14.7890   -7.2410 C   0  0  0  0  0
  -25.1770    8.8330  -10.6940 N   0  0  0  0  0
  -25.7710    7.5290  -10.9910 C   0  0  0  0  0
  -24.6810    6.4770  -11.1510 C   0  0  0  0  0
  -24.9630    5.2760  -11.1510 O   0  0  0  0  0
  -26.6510    7.5970  -12.2400 C   0  0  0  0  0
  -26.1400    8.5320  -13.1760 O   0  0  0  0  0
  -23.4430    6.9540  -11.3060 N   0  0  0  0  0
  -22.2440    6.1610  -11.0670 C   0  0  0  0  0
  -22.3810    5.5530   -9.6820 C   0  0  0  0  0
  -22.7200    4.3800   -9.5110 O   0  0  0  0  0
  -20.9920    7.0560  -11.0840 C   0  0  0  0  0
  -20.5550    7.5330  -12.4550 C   0  0  0  0  0
  -19.1800    8.1930  -12.4420 C   0  0  0  0  0
  -18.2000    7.6290  -11.9370 O   0  0  0  0  0
  -19.0960    9.3850  -13.0260 N   0  0  0  0  0
  -22.1690    6.2520   -8.6920 O   0  0  0  0  0
   -0.0011   10.4114    2.7990 H   0  0  0  0  0
    0.5313   11.3976    4.0322 H   0  0  0  0  0
    0.9013    9.7728    4.0460 H   0  0  0  0  0
   -1.3466    9.1560    4.3377 H   0  0  0  0  0
   -1.5668    9.5456    6.5615 H   0  0  0  0  0
   -2.0125   11.8284    6.3564 H   0  0  0  0  0
    1.2837   10.5029    6.0988 H   0  0  0  0  0
    0.6395    9.8044    7.6049 H   0  0  0  0  0
    0.7492    8.8046    6.1353 H   0  0  0  0  0
   -3.4717   10.1343    5.3607 H   0  0  0  0  0
   -4.5487   11.5561    3.0336 H   0  0  0  0  0
   -6.6858   10.8966    3.9090 H   0  0  0  0  0
   -5.8857   10.4173    5.5020 H   0  0  0  0  0
   -4.6625    8.6922    4.1538 H   0  0  0  0  0
   -6.4637    8.1021    5.6721 H   0  0  0  0  0
   -7.6684    8.4259    4.4014 H   0  0  0  0  0
   -6.5138    7.0835    4.2123 H   0  0  0  0  0
   -6.8272    9.3624    2.1350 H   0  0  0  0  0
   -5.0765    9.6154    1.9301 H   0  0  0  0  0
   -5.7289    7.9630    2.0530 H   0  0  0  0  0
   -5.1499   13.5618    2.8572 H   0  0  0  0  0
   -5.1333   15.2660    5.3297 H   0  0  0  0  0
   -4.8549   16.0999    2.4186 H   0  0  0  0  0
   -3.4726   15.8235    3.5718 H   0  0  0  0  0
   -3.6128   19.3768    3.9271 H   0  0  0  0  0
   -2.7487   18.0176    3.2012 H   0  0  0  0  0
   -9.5438   15.3031    4.6171 H   0  0  0  0  0
   -9.7446   15.1348    7.0526 H   0  0  0  0  0
  -10.2204   16.7656    6.8748 H   0  0  0  0  0
   -8.1058   16.3050    8.4198 H   0  0  0  0  0
   -7.9843   17.6198    7.3247 H   0  0  0  0  0
   -6.0815   16.3221    6.6694 H   0  0  0  0  0
   -6.8424   14.8295    7.0207 H   0  0  0  0  0
   -7.3287   17.9096    4.4821 H   0  0  0  0  0
   -9.4834   19.7203    3.6153 H   0  0  0  0  0
   -7.5261   21.3232    3.2068 H   0  0  0  0  0
   -6.4618   20.0326    3.8927 H   0  0  0  0  0
   -6.8507   21.6018    6.9506 H   0  0  0  0  0
   -5.7732   21.0737    5.6539 H   0  0  0  0  0
   -8.2663   17.1945    2.1124 H   0  0  0  0  0
   -7.2793   18.2279   -0.3318 H   0  0  0  0  0
   -7.0906   15.8515    0.3107 H   0  0  0  0  0
   -8.8596   15.6717    0.2134 H   0  0  0  0  0
   -7.9146   15.9903   -1.2618 H   0  0  0  0  0
   -8.0933   18.5233   -2.3695 H   0  0  0  0  0
  -10.5193   19.8829   -2.6656 H   0  0  0  0  0
  -10.3457   19.2618   -5.0876 H   0  0  0  0  0
   -8.9066   18.1907   -4.5907 H   0  0  0  0  0
   -7.8523   20.2887   -3.8328 H   0  0  0  0  0
   -9.1408   21.1605   -4.7101 H   0  0  0  0  0
   -8.5382   19.8553   -6.7546 H   0  0  0  0  0
   -7.1222   19.1998   -5.8364 H   0  0  0  0  0
   -7.6612   22.1232   -6.3771 H   0  0  0  0  0
   -6.5226   21.0660   -7.3194 H   0  0  0  0  0
   -5.3858   22.3975   -5.6876 H   0  0  0  0  0
   -6.3040   21.7459   -4.4592 H   0  0  0  0  0
   -5.2599   20.7764   -5.3233 H   0  0  0  0  0
  -12.6615   19.1661   -2.7800 H   0  0  0  0  0
  -13.2938   16.3699   -2.6794 H   0  0  0  0  0
  -15.5938   17.0379   -3.2077 H   0  0  0  0  0
  -14.9827   18.7268   -3.5258 H   0  0  0  0  0
  -14.5248   19.0943   -1.2978 H   0  0  0  0  0
  -14.5906   17.3243   -0.9005 H   0  0  0  0  0
  -16.9337   17.6252   -2.6949 H   0  0  0  0  0
  -14.0034   14.9310   -4.1927 H   0  0  0  0  0
  -13.1673   15.4714   -6.9646 H   0  0  0  0  0
  -14.3062   12.9948   -5.6063 H   0  0  0  0  0
  -12.5529   13.3440   -5.9310 H   0  0  0  0  0
  -11.8307   13.5826   -8.3277 H   0  0  0  0  0
  -15.6177   11.9104   -7.1665 H   0  0  0  0  0
  -12.0531   12.5046  -10.5580 H   0  0  0  0  0
  -15.8551   10.8446   -9.3971 H   0  0  0  0  0
  -14.0793   11.1867  -11.1152 H   0  0  0  0  0
  -14.4621   15.7914   -8.6666 H   0  0  0  0  0
  -17.4075   15.4344   -8.2258 H   0  0  0  0  0
  -17.7735   17.1697   -9.8580 H   0  0  0  0  0
  -15.9915   17.2988  -10.1468 H   0  0  0  0  0
  -15.8010   19.9163   -7.8254 H   0  0  0  0  0
  -15.4418   19.2884   -9.4372 H   0  0  0  0  0
  -16.8573   12.1819  -11.2384 H   0  0  0  0  0
  -18.1238   10.8471   -9.6163 H   0  0  0  0  0
  -19.2875   10.9962  -10.8626 H   0  0  0  0  0
  -19.9826   11.8705   -8.4706 H   0  0  0  0  0
  -20.3861   12.8714   -9.8123 H   0  0  0  0  0
  -19.0906   14.4427   -8.5294 H   0  0  0  0  0
  -18.1093   13.2352   -7.8325 H   0  0  0  0  0
  -17.8978   11.5580  -13.1983 H   0  0  0  0  0
  -18.9392   13.7867  -14.7000 H   0  0  0  0  0
  -18.8973   10.8102  -15.2253 H   0  0  0  0  0
  -17.7435   12.0888  -15.8385 H   0  0  0  0  0
  -19.8549   13.0499  -16.9621 H   0  0  0  0  0
  -20.5152   11.3842  -16.7277 H   0  0  0  0  0
  -18.7601   10.4466  -18.0143 H   0  0  0  0  0
  -17.9216   12.0400  -18.1153 H   0  0  0  0  0
  -20.2634   11.1330  -19.6603 H   0  0  0  0  0
  -18.6500   14.8339  -20.0514 H   0  0  0  0  0
  -18.1760   13.8247  -18.6810 H   0  0  0  0  0
  -20.8527   12.4414  -21.4149 H   0  0  0  0  0
  -20.3796   11.0110  -13.0473 H   0  0  0  0  0
  -22.8766   12.5579  -12.8060 H   0  0  0  0  0
  -23.1103   11.2081  -14.9243 H   0  0  0  0  0
  -24.3555   10.8795  -13.6523 H   0  0  0  0  0
  -23.5327    8.9611  -14.6305 H   0  0  0  0  0
  -24.3480   11.6639  -11.1931 H   0  0  0  0  0
  -22.8455   10.3134   -9.0580 H   0  0  0  0  0
  -24.9601   10.7961   -7.7155 H   0  0  0  0  0
  -25.5130   11.7289   -9.1790 H   0  0  0  0  0
  -24.8724   13.9316   -9.4727 H   0  0  0  0  0
  -22.7782   11.4790   -6.6538 H   0  0  0  0  0
  -23.5966   15.9063   -8.6749 H   0  0  0  0  0
  -21.4492   13.4405   -5.9094 H   0  0  0  0  0
  -21.8699   15.6567   -6.9074 H   0  0  0  0  0
  -25.2909    9.5854  -11.3732 H   0  0  0  0  0
  -26.4074    7.2435  -10.1534 H   0  0  0  0  0
  -27.6518    7.9118  -11.9442 H   0  0  0  0  0
  -26.6701    6.6121  -12.7066 H   0  0  0  0  0
  -26.7101    8.5543  -13.9481 H   0  0  0  0  0
  -23.3312    7.9222  -11.6068 H   0  0  0  0  0
  -22.1396    5.3999  -11.8402 H   0  0  0  0  0
  -22.8503    3.9582  -10.3635 H   0  0  0  0  0
  -20.1736    6.4553  -10.6871 H   0  0  0  0  0
  -21.2379    7.9476  -10.5072 H   0  0  0  0  0
  -21.2775    8.2745  -12.7959 H   0  0  0  0  0
  -20.5009    6.6628  -13.1091 H   0  0  0  0  0
  -18.1994    9.8694  -13.0699 H   0  0  0  0  0
  -19.9282    9.8148  -13.4300 H   0  0  0  0  0
  1  2  1  0  0  0
  2  3  1  0  0  0
  2  5  1  0  0  0
  3  4  2  0  0  0
  3  8  1  0  0  0
  5  6  1  0  0  0
  5  7  1  0  0  0
  8  9  1  0  0  0
  9 10  1  0  0  0
  9 12  1  0  0  0
 10 11  2  0  0  0
 10 16  1  0  0  0
 12 13  1  0  0  0
 13 14  1  0  0  0
 13 15  1  0  0  0
 16 17  1  0  0  0
 17 18  1  0  0  0
 17 20  1  0  0  0
 18 19  2  0  0  0
 18 24  1  0  0  0
 20 21  1  0  0  0
 21 22  2  0  0  0
 21 23  1  0  0  0
 24 25  1  0  0  0
 24 30  1  0  0  0
 25 26  1  0  0  0
 25 28  1  0  0  0
 26 27  2  0  0  0
 26 31  1  0  0  0
 28 29  1  0  0  0
 29 30  1  0  0  0
 31 32  1  0  0  0
 32 33  1  0  0  0
 32 35  1  0  0  0
 33 34  2  0  0  0
 33 39  1  0  0  0
 35 36  1  0  0  0
 36 37  2  0  0  0
 36 38  1  0  0  0
 39 40  1  0  0  0
 40 41  1  0  0  0
 40 43  1  0  0  0
 41 42  2  0  0  0
 41 44  1  0  0  0
 44 45  1  0  0  0
 45 46  1  0  0  0
 45 48  1  0  0  0
 46 47  2  0  0  0
 46 53  1  0  0  0
 48 49  1  0  0  0
 49 50  1  0  0  0
 50 51  1  0  0  0
 51 52  1  0  0  0
 53 54  1  0  0  0
 54 55  1  0  0  0
 54 57  1  0  0  0
 55 56  2  0  0  0
 55 62  1  0  0  0
 57 58  1  0  0  0
 58 59  1  0  0  0
 59 60  2  0  0  0
 59 61  1  0  0  0
 62 63  1  0  0  0
 63 64  1  0  0  0
 63 66  1  0  0  0
 64 65  2  0  0  0
 64 73  1  0  0  0
 66 67  1  0  0  0
 67 68  4  0  0  0
 67 69  4  0  0  0
 68 70  4  0  0  0
 69 71  4  0  0  0
 70 72  4  0  0  0
 71 72  4  0  0  0
 73 74  1  0  0  0
 74 75  1  0  0  0
 74 77  1  0  0  0
 75 76  2  0  0  0
 75 81  1  0  0  0
 77 78  1  0  0  0
 78 79  2  0  0  0
 78 80  1  0  0  0
 81 82  1  0  0  0
 81 87  1  0  0  0
 82 83  1  0  0  0
 82 85  1  0  0  0
 83 84  2  0  0  0
 83 88  1  0  0  0
 85 86  1  0  0  0
 86 87  1  0  0  0
 88 89  1  0  0  0
 89 90  1  0  0  0
 89 92  1  0  0  0
 90 91  2  0  0  0
 90 99  1  0  0  0
 92 93  1  0  0  0
 93 94  1  0  0  0
 94 95  1  0  0  0
 95 96  1  0  0  0
 96 97  1  0  0  0
 96 98  2  0  0  0
 99100  1  0  0  0
100101  1  0  0  0
100103  1  0  0  0
101102  2  0  0  0
101105  1  0  0  0
103104  1  0  0  0
105106  1  0  0  0
106107  1  0  0  0
106109  1  0  0  0
107108  2  0  0  0
107116  1  0  0  0
109110  1  0  0  0
110111  4  0  0  0
110112  4  0  0  0
111113  4  0  0  0
112114  4  0  0  0
113115  4  0  0  0
114115  4  0  0  0
116117  1  0  0  0
117118  1  0  0  0
117120  1  0  0  0
118119  2  0  0  0
118122  1  0  0  0
120121  1  0  0  0
122123  1  0  0  0
123124  1  0  0  0
123126  1  0  0  0
124125  1  0  0  0
124131  2  0  0  0
126127  1  0  0  0
127128  1  0  0  0
128129  2  0  0  0
128130  1  0  0  0
  1132  1  0  0  0
  1133  1  0  0  0
  1134  1  0  0  0
  2135  1  0  0  0
  5136  1  0  0  0
  6137  1  0  0  0
  7138  1  0  0  0
  7139  1  0  0  0
  7140  1  0  0  0
  8141  1  0  0  0
  9142  1  0  0  0
 12143  1  0  0  0
 12144  1  0  0  0
 13145  1  0  0  0
 14146  1  0  0  0
 14147  1  0  0  0
 14148  1  0  0  0
 15149  1  0  0  0
 15150  1  0  0  0
 15151  1  0  0  0
 16152  1  0  0  0
 17153  1  0  0  0
 20154  1  0  0  0
 20155  1  0  0  0
 23156  1  0  0  0
 23157  1  0  0  0
 25158  1  0  0  0
 28159  1  0  0  0
 28160  1  0  0  0
 29161  1  0  0  0
 29162  1  0  0  0
 30163  1  0  0  0
 30164  1  0  0  0
 31165  1  0  0  0
 32166  1  0  0  0
 35167  1  0  0  0
 35168  1  0  0  0
 38169  1  0  0  0
 38170  1  0  0  0
 39171  1  0  0  0
 40172  1  0  0  0
 43173  1  0  0  0
 43174  1  0  0  0
 43175  1  0  0  0
 44176  1  0  0  0
 45177  1  0  0  0
 48178  1  0  0  0
 48179  1  0  0  0
 49180  1  0  0  0
 49181  1  0  0  0
 50182  1  0  0  0
 50183  1  0  0  0
 51184  1  0  0  0
 51185  1  0  0  0
 52186  1  0  0  0
 52187  1  0  0  0
 52188  1  0  0  0
 53189  1  0  0  0
 54190  1  0  0  0
 57191  1  0  0  0
 57192  1  0  0  0
 58193  1  0  0  0
 58194  1  0  0  0
 61195  1  0  0  0
 62196  1  0  0  0
 63197  1  0  0  0
 66198  1  0  0  0
 66199  1  0  0  0
 68200  1  0  0  0
 69201  1  0  0  0
 70202  1  0  0  0
 71203  1  0  0  0
 72204  1  0  0  0
 73205  1  0  0  0
 74206  1  0  0  0
 77207  1  0  0  0
 77208  1  0  0  0
 80209  1  0  0  0
 80210  1  0  0  0
 82211  1  0  0  0
 85212  1  0  0  0
 85213  1  0  0  0
 86214  1  0  0  0
 86215  1  0  0  0
 87216  1  0  0  0
 87217  1  0  0  0
 88218  1  0  0  0
 89219  1  0  0  0
 92220  1  0  0  0
 92221  1  0  0  0
 93222  1  0  0  0
 93223  1  0  0  0
 94224  1  0  0  0
 94225  1  0  0  0
 95226  1  0  0  0
 97227  1  0  0  0
 97228  1  0  0  0
 98229  1  0  0  0
 99230  1  0  0  0
100231  1  0  0  0
103232  1  0  0  0
103233  1  0  0  0
104234  1  0  0  0
105235  1  0  0  0
106236  1  0  0  0
109237  1  0  0  0
109238  1  0  0  0
111239  1  0  0  0
112240  1  0  0  0
113241  1  0  0  0
114242  1  0  0  0
115243  1  0  0  0
116244  1  0  0  0
117245  1  0  0  0
120246  1  0  0  0
120247  1  0  0  0
121248  1  0  0  0
122249  1  0  0  0
123250  1  0  0  0
125251  1  0  0  0
126252  1  0  0  0
126253  1  0  0  0
127254  1  0  0  0
127255  1  0  0  0
130256  1  0  0  0
130257  1  0  0  0
M  END
$$$$
