### 
### Created by X-TOOL on Mon Sep 10 21:13:04 2018
### 

@<TRIPOS>MOLECULE
3ktr_ligand
  256   259     1     0     0
SMALL
GAST_HUCK


@<TRIPOS>ATOM
      1 N           0.1930   10.4640    3.7990 N.4       1 THR         0.2398
      2 CA         -1.0650   10.1840    4.5660 C.3       1 THR         0.0910
      3 C          -2.2060   11.0980    4.1120 C.2       1 THR         0.2293
      4 O          -1.9890   12.0490    3.3600 O.2       1 THR        -0.3906
      5 CB         -0.8590   10.2440    6.1150 C.3       1 THR         0.1120
      6 OG1        -1.1260   11.5640    6.6130 O.3       1 THR        -0.3840
      7 CG2         0.5570    9.8070    6.5180 C.3       1 THR        -0.0314
      8 N          -3.4090   10.8120    4.6010 N.am      1 LEU        -0.2609
      9 CA         -4.6460   11.4150    4.1100 C.3       1 LEU         0.1313
     10 C          -4.9000   12.7960    4.7190 C.2       1 LEU         0.2040
     11 O          -4.8590   12.9560    5.9380 O.2       1 LEU        -0.3944
     12 CB         -5.8160   10.4790    4.4160 C.3       1 LEU        -0.0101
     13 CG         -5.6670    9.0360    3.9070 C.3       1 LEU        -0.0425
     14 CD1        -6.6490    8.0940    4.5980 C.3       1 LEU        -0.0625
     15 CD2        -5.8370    8.9910    2.3990 C.3       1 LEU        -0.0625
     16 N          -5.1410   13.7780    3.8540 N.am      1 ASN        -0.2616
     17 CA         -5.3940   15.1570    4.2770 C.3       1 ASN         0.1478
     18 C          -6.8780   15.4880    4.1130 C.2       1 ASN         0.2088
     19 O          -7.3960   15.5130    2.9720 O.2       1 ASN        -0.3940
     20 CB         -4.5100   16.1360    3.4520 C.3       1 ASN         0.0773
     21 CG         -4.6130   17.5940    3.9250 C.2       1 ASN         0.1780
     22 OD1        -5.6110   17.9990    4.4710 O.2       1 ASN        -0.3970
     23 ND2        -3.5770   18.3920    3.6640 N.am      1 ASN        -0.3007
     24 N          -7.5680   15.7600    5.2320 N.am      1 PRO        -0.2497
     25 CA         -8.9930   16.0460    5.1940 C.3       1 PRO         0.1338
     26 C          -9.2990   17.3790    4.5190 C.2       1 PRO         0.2042
     27 O         -10.4700   17.6810    4.3160 O.2       1 PRO        -0.3944
     28 CB         -9.3840   16.0940    6.6810 C.3       1 PRO        -0.0104
     29 CG         -8.1140   16.5380    7.3550 C.3       1 PRO        -0.0281
     30 CD         -7.0460   15.8180    6.6090 C.3       1 PRO         0.0369
     31 N          -8.2700   18.1710    4.1890 N.am      1 ASN        -0.2616
     32 CA         -8.4600   19.4000    3.4200 C.3       1 ASN         0.1476
     33 C          -8.3610   19.2160    1.9110 C.2       1 ASN         0.2062
     34 O          -8.4190   20.1690    1.1770 O.2       1 ASN        -0.3942
     35 CB         -7.4580   20.4750    3.8880 C.3       1 ASN         0.0773
     36 CG         -7.7570   20.9560    5.2570 C.2       1 ASN         0.1780
     37 OD1        -8.9280   21.1270    5.6370 O.2       1 ASN        -0.3970
     38 ND2        -6.7160   21.2310    6.0100 N.am      1 ASN        -0.3007
     39 N          -8.2650   17.9710    1.4510 N.am      1 ALA        -0.2639
     40 CA         -8.1580   17.6900    0.0240 C.3       1 ALA         0.1282
     41 C          -9.3420   18.2090   -0.7970 C.2       1 ALA         0.2036
     42 O         -10.4740   18.3120   -0.2960 O.2       1 ALA        -0.3944
     43 CB         -7.9940   16.1940   -0.1940 C.3       1 ALA        -0.0244
     44 N          -9.0650   18.5450   -2.0600 N.am      1 LYS        -0.2637
     45 CA        -10.0950   18.9420   -3.0160 C.3       1 LYS         0.1310
     46 C         -11.1470   17.8450   -3.1250 C.2       1 LYS         0.2039
     47 O         -10.8010   16.6770   -3.3240 O.2       1 LYS        -0.3944
     48 CB         -9.4980   19.0910   -4.4240 C.3       1 LYS        -0.0122
     49 CG         -8.5660   20.2360   -4.6550 C.3       1 LYS        -0.0440
     50 CD         -7.8080   20.0370   -5.9660 C.3       1 LYS        -0.0124
     51 CE         -6.9870   21.2670   -6.3540 C.3       1 LYS        -0.0354
     52 NZ         -5.8970   21.5710   -5.3780 N.4       1 LYS         0.2185
     53 N         -12.4210   18.2090   -3.0380 N.am      1 GLU        -0.2636
     54 CA        -13.4790   17.2380   -3.3120 C.3       1 GLU         0.1325
     55 C         -13.4500   16.7920   -4.7770 C.2       1 GLU         0.2041
     56 O         -13.1230   17.5700   -5.6720 O.2       1 GLU        -0.3944
     57 CB        -14.8560   17.8020   -2.9630 C.3       1 GLU        -0.0008
     58 CG        -15.0210   18.1410   -1.4800 C.3       1 GLU         0.0044
     59 CD        -16.4740   18.2870   -1.0700 C.2       1 GLU         0.0350
     60 OE1       -16.7320   18.7410    0.0670 O.co2     1 GLU        -0.5690
     61 OE2       -17.3540   17.9420   -1.8920 O.co2     1 GLU        -0.5690
     62 N         -13.7960   15.5270   -4.9940 N.am      1 PHE        -0.2619
     63 CA        -13.8900   14.9610   -6.3280 C.3       1 PHE         0.1404
     64 C         -15.2820   15.1610   -6.9110 C.2       1 PHE         0.2061
     65 O         -16.2810   14.9230   -6.2340 O.2       1 PHE        -0.3942
     66 CB        -13.5810   13.4600   -6.2740 C.3       1 PHE         0.0214
     67 CG        -13.6940   12.8010   -7.5930 C.ar      1 PHE        -0.0386
     68 CD1       -12.7090   12.9780   -8.5540 C.ar      1 PHE        -0.0601
     69 CD2       -14.8330   12.0390   -7.9120 C.ar      1 PHE        -0.0601
     70 CE1       -12.8410   12.3810   -9.8150 C.ar      1 PHE        -0.0686
     71 CE2       -14.9750   11.4450   -9.1670 C.ar      1 PHE        -0.0686
     72 CZ        -13.9740   11.6300  -10.1250 C.ar      1 PHE        -0.0687
     73 N         -15.3310   15.5560   -8.1870 N.am      1 ASN        -0.2614
     74 CA        -16.5920   15.6600   -8.9130 C.3       1 ASN         0.1478
     75 C         -16.7030   14.6190  -10.0340 C.2       1 ASN         0.2088
     76 O         -15.9480   14.6680  -11.0090 O.2       1 ASN        -0.3940
     77 CB        -16.7780   17.0920   -9.4210 C.3       1 ASN         0.0773
     78 CG        -16.6700   18.1290   -8.2910 C.2       1 ASN         0.1780
     79 OD1       -17.2620   17.9690   -7.2120 O.2       1 ASN        -0.3970
     80 ND2       -15.9120   19.1940   -8.5370 N.am      1 ASN        -0.3007
     81 N         -17.6270   13.6490   -9.8800 N.am      1 PRO        -0.2497
     82 CA        -17.7990   12.6020  -10.8850 C.3       1 PRO         0.1338
     83 C         -18.5180   13.1570  -12.1100 C.2       1 PRO         0.2041
     84 O         -19.1090   14.2530  -12.0440 O.2       1 PRO        -0.3944
     85 CB        -18.6940   11.5930  -10.1700 C.3       1 PRO        -0.0104
     86 CG        -19.5350   12.4430   -9.2830 C.3       1 PRO        -0.0281
     87 CD        -18.5860   13.5080   -8.7740 C.3       1 PRO         0.0369
     88 N         -18.4630   12.4070  -13.2080 N.am      1 ARG        -0.2637
     89 CA        -19.1860   12.7610  -14.4260 C.3       1 ARG         0.1311
     90 C         -20.6780   12.6660  -14.1870 C.2       1 ARG         0.2040
     91 O         -21.4530   13.4410  -14.7500 O.2       1 ARG        -0.3944
     92 CB        -18.7700   11.8350  -15.5740 C.3       1 ARG        -0.0092
     93 CG        -19.6180   11.9930  -16.8400 C.3       1 ARG        -0.0156
     94 CD        -18.8830   11.5280  -18.0740 C.3       1 ARG         0.0627
     95 NE        -19.6270   11.8420  -19.2960 N.pl3     1 ARG        -0.2723
     96 CZ        -19.5290   12.9920  -19.9650 C.cat     1 ARG         0.2882
     97 NH1       -18.7220   13.9590  -19.5320 N.pl3     1 ARG        -0.2849
     98 NH2       -20.2350   13.1780  -21.0740 N.pl3     1 ARG        -0.2849
     99 N         -21.0700   11.6900  -13.3680 N.am      1 SER        -0.2616
    100 CA        -22.4600   11.5560  -12.9100 C.3       1 SER         0.1539
    101 C         -22.5160   10.8580  -11.5400 C.2       1 SER         0.2063
    102 O         -21.5970   10.1470  -11.1720 O.2       1 SER        -0.3943
    103 CB        -23.3080   10.7860  -13.9390 C.3       1 SER         0.0843
    104 OG        -22.9820    9.4000  -13.9780 O.3       1 SER        -0.3903
    105 N         -23.6200   11.0590  -10.8130 N.am      1 PHE        -0.2619
    106 CA        -23.8350   10.4510   -9.4940 C.3       1 PHE         0.1404
    107 C         -24.4940    9.0830   -9.5770 C.2       1 PHE         0.2060
    108 O         -24.4000    8.2830   -8.6400 O.2       1 PHE        -0.3942
    109 CB        -24.6660   11.3720   -8.5930 C.3       1 PHE         0.0214
    110 CG        -23.9110   12.5710   -8.1140 C.ar      1 PHE        -0.0386
    111 CD1       -24.1320   13.8170   -8.6810 C.ar      1 PHE        -0.0601
    112 CD2       -22.9530   12.4520   -7.1130 C.ar      1 PHE        -0.0601
    113 CE1       -23.4060   14.9260   -8.2380 C.ar      1 PHE        -0.0686
    114 CE2       -22.2080   13.5580   -6.6830 C.ar      1 PHE        -0.0686
    115 CZ        -22.4390   14.7890   -7.2410 C.ar      1 PHE        -0.0687
    116 N         -25.1770    8.8330  -10.6940 N.am      1 SER        -0.2614
    117 CA        -25.7710    7.5290  -10.9910 C.3       1 SER         0.1539
    118 C         -24.6810    6.4770  -11.1510 C.2       1 SER         0.2056
    119 O         -24.9630    5.2760  -11.1510 O.2       1 SER        -0.3943
    120 CB        -26.6510    7.5970  -12.2400 C.3       1 SER         0.0843
    121 OG        -26.1400    8.5320  -13.1760 O.3       1 SER        -0.3903
    122 N         -23.4430    6.9540  -11.3060 N.am      1 GLN        -0.2693
    123 CA        -22.2440    6.1610  -11.0670 C.3       1 GLN         0.0964
    124 C         -22.3810    5.5530   -9.6820 C.2       1 GLN         0.0602
    125 O         -22.7200    4.3800   -9.5110 O.co2     1 GLN        -0.5666
    126 CB        -20.9920    7.0560  -11.0840 C.3       1 GLN        -0.0010
    127 CG        -20.5550    7.5330  -12.4550 C.3       1 GLN         0.0407
    128 CD        -19.1800    8.1930  -12.4420 C.2       1 GLN         0.1737
    129 OE1       -18.2000    7.6290  -11.9370 O.2       1 GLN        -0.3973
    130 NE2       -19.0960    9.3850  -13.0260 N.am      1 GLN        -0.3009
    131 OXT       -22.1690    6.2520   -8.6920 O.co2     1 GLN        -0.5666
    132 H          -0.0011   10.4114    2.7990 H         1 THR         0.2016
    133 H           0.5313   11.3976    4.0322 H         1 THR         0.2016
    134 H           0.9013    9.7728    4.0460 H         1 THR         0.2016
    135 H          -1.3466    9.1560    4.3377 H         1 THR         0.1125
    136 H          -1.5668    9.5456    6.5615 H         1 THR         0.0674
    137 H          -0.9939   11.5789    7.5638 H         1 THR         0.2102
    138 H           1.2837   10.5029    6.0988 H         1 THR         0.0258
    139 H           0.6395    9.8044    7.6049 H         1 THR         0.0258
    140 H           0.7492    8.8046    6.1353 H         1 THR         0.0258
    141 H          -3.4717   10.1343    5.3607 H         1 LEU         0.1885
    142 H          -4.5487   11.5561    3.0336 H         1 LEU         0.0800
    143 H          -6.6858   10.8966    3.9090 H         1 LEU         0.0315
    144 H          -5.8857   10.4173    5.5020 H         1 LEU         0.0315
    145 H          -4.6625    8.6922    4.1538 H         1 LEU         0.0298
    146 H          -6.4637    8.1021    5.6721 H         1 LEU         0.0232
    147 H          -7.6684    8.4259    4.4014 H         1 LEU         0.0232
    148 H          -6.5138    7.0835    4.2123 H         1 LEU         0.0232
    149 H          -6.8272    9.3624    2.1350 H         1 LEU         0.0232
    150 H          -5.0765    9.6154    1.9301 H         1 LEU         0.0232
    151 H          -5.7289    7.9630    2.0530 H         1 LEU         0.0232
    152 H          -5.1499   13.5618    2.8572 H         1 ASN         0.1885
    153 H          -5.1333   15.2660    5.3297 H         1 ASN         0.0826
    154 H          -4.8549   16.0999    2.4186 H         1 ASN         0.0551
    155 H          -3.4726   15.8235    3.5718 H         1 ASN         0.0551
    156 H          -3.6128   19.3768    3.9271 H         1 ASN         0.1814
    157 H          -2.7487   18.0176    3.2012 H         1 ASN         0.1814
    158 H          -9.5438   15.3031    4.6171 H         1 PRO         0.0802
    159 H          -9.7446   15.1348    7.0526 H         1 PRO         0.0313
    160 H         -10.2204   16.7656    6.8748 H         1 PRO         0.0313
    161 H          -8.1058   16.3050    8.4198 H         1 PRO         0.0287
    162 H          -7.9843   17.6198    7.3247 H         1 PRO         0.0287
    163 H          -6.0815   16.3221    6.6694 H         1 PRO         0.0524
    164 H          -6.8424   14.8295    7.0207 H         1 PRO         0.0524
    165 H          -7.3287   17.9096    4.4821 H         1 ASN         0.1885
    166 H          -9.4834   19.7203    3.6153 H         1 ASN         0.0826
    167 H          -7.5261   21.3232    3.2068 H         1 ASN         0.0551
    168 H          -6.4618   20.0326    3.8927 H         1 ASN         0.0551
    169 H          -6.8507   21.6018    6.9506 H         1 ASN         0.1814
    170 H          -5.7732   21.0737    5.6539 H         1 ASN         0.1814
    171 H          -8.2663   17.1945    2.1124 H         1 ALA         0.1883
    172 H          -7.2793   18.2279   -0.3318 H         1 ALA         0.0797
    173 H          -7.0906   15.8515    0.3107 H         1 ALA         0.0277
    174 H          -8.8596   15.6717    0.2134 H         1 ALA         0.0277
    175 H          -7.9146   15.9903   -1.2618 H         1 ALA         0.0277
    176 H          -8.0933   18.5233   -2.3695 H         1 LYS         0.1883
    177 H         -10.5193   19.8829   -2.6656 H         1 LYS         0.0800
    178 H         -10.3457   19.2618   -5.0876 H         1 LYS         0.0312
    179 H          -8.9066   18.1907   -4.5907 H         1 LYS         0.0312
    180 H          -7.8523   20.2887   -3.8328 H         1 LYS         0.0269
    181 H          -9.1408   21.1605   -4.7101 H         1 LYS         0.0269
    182 H          -8.5382   19.8553   -6.7546 H         1 LYS         0.0317
    183 H          -7.1222   19.1998   -5.8364 H         1 LYS         0.0317
    184 H          -7.6612   22.1232   -6.3771 H         1 LYS         0.0813
    185 H          -6.5226   21.0660   -7.3194 H         1 LYS         0.0813
    186 H          -5.3858   22.3975   -5.6876 H         1 LYS         0.1994
    187 H          -6.3040   21.7459   -4.4592 H         1 LYS         0.1994
    188 H          -5.2599   20.7764   -5.3233 H         1 LYS         0.1994
    189 H         -12.6615   19.1661   -2.7800 H         1 GLU         0.1883
    190 H         -13.2938   16.3699   -2.6794 H         1 GLU         0.0801
    191 H         -15.5938   17.0379   -3.2077 H         1 GLU         0.0330
    192 H         -14.9827   18.7268   -3.5258 H         1 GLU         0.0330
    193 H         -14.5248   19.0943   -1.2978 H         1 GLU         0.0433
    194 H         -14.5906   17.3243   -0.9005 H         1 GLU         0.0433
    195 H         -14.0034   14.9310   -4.1927 H         1 PHE         0.1885
    196 H         -13.1673   15.4714   -6.9646 H         1 PHE         0.0823
    197 H         -14.3062   12.9948   -5.6063 H         1 PHE         0.0474
    198 H         -12.5529   13.3440   -5.9310 H         1 PHE         0.0474
    199 H         -11.8307   13.5826   -8.3277 H         1 PHE         0.0557
    200 H         -15.6177   11.9104   -7.1665 H         1 PHE         0.0557
    201 H         -12.0531   12.5046  -10.5580 H         1 PHE         0.0599
    202 H         -15.8551   10.8446   -9.3971 H         1 PHE         0.0599
    203 H         -14.0793   11.1867  -11.1152 H         1 PHE         0.0559
    204 H         -14.4621   15.7914   -8.6666 H         1 ASN         0.1885
    205 H         -17.4075   15.4344   -8.2258 H         1 ASN         0.0826
    206 H         -17.7735   17.1697   -9.8580 H         1 ASN         0.0551
    207 H         -15.9915   17.2988  -10.1468 H         1 ASN         0.0551
    208 H         -15.8010   19.9163   -7.8254 H         1 ASN         0.1814
    209 H         -15.4418   19.2884   -9.4372 H         1 ASN         0.1814
    210 H         -16.8573   12.1819  -11.2384 H         1 PRO         0.0802
    211 H         -18.1238   10.8471   -9.6163 H         1 PRO         0.0313
    212 H         -19.2875   10.9962  -10.8626 H         1 PRO         0.0313
    213 H         -19.9826   11.8705   -8.4706 H         1 PRO         0.0287
    214 H         -20.3861   12.8714   -9.8123 H         1 PRO         0.0287
    215 H         -19.0906   14.4427   -8.5294 H         1 PRO         0.0524
    216 H         -18.1093   13.2352   -7.8325 H         1 PRO         0.0524
    217 H         -17.8978   11.5580  -13.1983 H         1 ARG         0.1883
    218 H         -18.9392   13.7867  -14.7000 H         1 ARG         0.0800
    219 H         -18.8973   10.8102  -15.2253 H         1 ARG         0.0313
    220 H         -17.7435   12.0888  -15.8385 H         1 ARG         0.0313
    221 H         -19.8549   13.0499  -16.9621 H         1 ARG         0.0301
    222 H         -20.5152   11.3842  -16.7277 H         1 ARG         0.0301
    223 H         -18.7601   10.4466  -18.0143 H         1 ARG         0.0689
    224 H         -17.9216   12.0400  -18.1153 H         1 ARG         0.0689
    225 H         -20.2634   11.1330  -19.6603 H         1 ARG         0.2642
    226 H         -18.1731   13.8232  -18.6830 H         1 ARG         0.2615
    227 H         -18.6528   14.8353  -20.0493 H         1 ARG         0.2615
    228 H         -20.8527   12.4414  -21.4149 H         1 ARG         0.2615
    229 H         -20.1596   14.0575  -21.5851 H         1 ARG         0.2615
    230 H         -20.3796   11.0110  -13.0473 H         1 SER         0.1884
    231 H         -22.8766   12.5579  -12.8060 H         1 SER         0.0823
    232 H         -23.1103   11.2081  -14.9243 H         1 SER         0.0606
    233 H         -24.3555   10.8795  -13.6523 H         1 SER         0.0606
    234 H         -23.5327    8.9611  -14.6305 H         1 SER         0.2097
    235 H         -24.3480   11.6639  -11.1931 H         1 PHE         0.1885
    236 H         -22.8455   10.3134   -9.0580 H         1 PHE         0.0823
    237 H         -24.9601   10.7961   -7.7155 H         1 PHE         0.0474
    238 H         -25.5130   11.7289   -9.1790 H         1 PHE         0.0474
    239 H         -24.8724   13.9316   -9.4727 H         1 PHE         0.0557
    240 H         -22.7782   11.4790   -6.6538 H         1 PHE         0.0557
    241 H         -23.5966   15.9063   -8.6749 H         1 PHE         0.0599
    242 H         -21.4492   13.4405   -5.9094 H         1 PHE         0.0599
    243 H         -21.8699   15.6567   -6.9074 H         1 PHE         0.0559
    244 H         -25.2909    9.5854  -11.3732 H         1 SER         0.1884
    245 H         -26.4074    7.2435  -10.1534 H         1 SER         0.0823
    246 H         -27.6518    7.9118  -11.9442 H         1 SER         0.0606
    247 H         -26.6701    6.6121  -12.7066 H         1 SER         0.0606
    248 H         -25.2545    8.2694  -13.4381 H         1 SER         0.2097
    249 H         -23.3312    7.9222  -11.6068 H         1 GLN         0.1875
    250 H         -22.1396    5.3999  -11.8402 H         1 GLN         0.0727
    251 H         -20.1736    6.4553  -10.6871 H         1 GLN         0.0330
    252 H         -21.2379    7.9476  -10.5072 H         1 GLN         0.0330
    253 H         -21.2775    8.2745  -12.7959 H         1 GLN         0.0504
    254 H         -20.5009    6.6628  -13.1091 H         1 GLN         0.0504
    255 H         -18.1994    9.8694  -13.0699 H         1 GLN         0.1814
    256 H         -19.9282    9.8148  -13.4300 H         1 GLN         0.1814
@<TRIPOS>BOND
     1    1    2 1  
     2    2    3 1  
     3    2    5 1  
     4    3    4 2  
     5    3    8 am 
     6    5    6 1  
     7    5    7 1  
     8    8    9 1  
     9    9   10 1  
    10    9   12 1  
    11   10   11 2  
    12   10   16 am 
    13   12   13 1  
    14   13   14 1  
    15   13   15 1  
    16   16   17 1  
    17   17   18 1  
    18   17   20 1  
    19   18   19 2  
    20   18   24 am 
    21   20   21 1  
    22   21   22 2  
    23   21   23 am 
    24   24   25 1  
    25   24   30 1  
    26   25   26 1  
    27   25   28 1  
    28   26   27 2  
    29   26   31 am 
    30   28   29 1  
    31   29   30 1  
    32   31   32 1  
    33   32   33 1  
    34   32   35 1  
    35   33   34 2  
    36   33   39 am 
    37   35   36 1  
    38   36   37 2  
    39   36   38 am 
    40   39   40 1  
    41   40   41 1  
    42   40   43 1  
    43   41   42 2  
    44   41   44 am 
    45   44   45 1  
    46   45   46 1  
    47   45   48 1  
    48   46   47 2  
    49   46   53 am 
    50   48   49 1  
    51   49   50 1  
    52   50   51 1  
    53   51   52 1  
    54   53   54 1  
    55   54   55 1  
    56   54   57 1  
    57   55   56 2  
    58   55   62 am 
    59   57   58 1  
    60   58   59 1  
    61   59   60 ar 
    62   59   61 ar 
    63   62   63 1  
    64   63   64 1  
    65   63   66 1  
    66   64   65 2  
    67   64   73 am 
    68   66   67 1  
    69   67   68 ar 
    70   67   69 ar 
    71   68   70 ar 
    72   69   71 ar 
    73   70   72 ar 
    74   71   72 ar 
    75   73   74 1  
    76   74   75 1  
    77   74   77 1  
    78   75   76 2  
    79   75   81 am 
    80   77   78 1  
    81   78   79 2  
    82   78   80 am 
    83   81   82 1  
    84   81   87 1  
    85   82   83 1  
    86   82   85 1  
    87   83   84 2  
    88   83   88 am 
    89   85   86 1  
    90   86   87 1  
    91   88   89 1  
    92   89   90 1  
    93   89   92 1  
    94   90   91 2  
    95   90   99 am 
    96   92   93 1  
    97   93   94 1  
    98   94   95 1  
    99   95   96 ar 
   100   96   97 ar 
   101   96   98 ar 
   102   99  100 1  
   103  100  101 1  
   104  100  103 1  
   105  101  102 2  
   106  101  105 am 
   107  103  104 1  
   108  105  106 1  
   109  106  107 1  
   110  106  109 1  
   111  107  108 2  
   112  107  116 am 
   113  109  110 1  
   114  110  111 ar 
   115  110  112 ar 
   116  111  113 ar 
   117  112  114 ar 
   118  113  115 ar 
   119  114  115 ar 
   120  116  117 1  
   121  117  118 1  
   122  117  120 1  
   123  118  119 2  
   124  118  122 am 
   125  120  121 1  
   126  122  123 1  
   127  123  124 1  
   128  123  126 1  
   129  124  125 ar 
   130  124  131 ar 
   131  126  127 1  
   132  127  128 1  
   133  128  129 2  
   134  128  130 am 
   135    1  132 1  
   136    1  133 1  
   137    1  134 1  
   138    2  135 1  
   139    5  136 1  
   140    6  137 1  
   141    7  138 1  
   142    7  139 1  
   143    7  140 1  
   144    8  141 1  
   145    9  142 1  
   146   12  143 1  
   147   12  144 1  
   148   13  145 1  
   149   14  146 1  
   150   14  147 1  
   151   14  148 1  
   152   15  149 1  
   153   15  150 1  
   154   15  151 1  
   155   16  152 1  
   156   17  153 1  
   157   20  154 1  
   158   20  155 1  
   159   23  156 1  
   160   23  157 1  
   161   25  158 1  
   162   28  159 1  
   163   28  160 1  
   164   29  161 1  
   165   29  162 1  
   166   30  163 1  
   167   30  164 1  
   168   31  165 1  
   169   32  166 1  
   170   35  167 1  
   171   35  168 1  
   172   38  169 1  
   173   38  170 1  
   174   39  171 1  
   175   40  172 1  
   176   43  173 1  
   177   43  174 1  
   178   43  175 1  
   179   44  176 1  
   180   45  177 1  
   181   48  178 1  
   182   48  179 1  
   183   49  180 1  
   184   49  181 1  
   185   50  182 1  
   186   50  183 1  
   187   51  184 1  
   188   51  185 1  
   189   52  186 1  
   190   52  187 1  
   191   52  188 1  
   192   53  189 1  
   193   54  190 1  
   194   57  191 1  
   195   57  192 1  
   196   58  193 1  
   197   58  194 1  
   198   62  195 1  
   199   63  196 1  
   200   66  197 1  
   201   66  198 1  
   202   68  199 1  
   203   69  200 1  
   204   70  201 1  
   205   71  202 1  
   206   72  203 1  
   207   73  204 1  
   208   74  205 1  
   209   77  206 1  
   210   77  207 1  
   211   80  208 1  
   212   80  209 1  
   213   82  210 1  
   214   85  211 1  
   215   85  212 1  
   216   86  213 1  
   217   86  214 1  
   218   87  215 1  
   219   87  216 1  
   220   88  217 1  
   221   89  218 1  
   222   92  219 1  
   223   92  220 1  
   224   93  221 1  
   225   93  222 1  
   226   94  223 1  
   227   94  224 1  
   228   95  225 1  
   229   97  226 1  
   230   97  227 1  
   231   98  228 1  
   232   98  229 1  
   233   99  230 1  
   234  100  231 1  
   235  103  232 1  
   236  103  233 1  
   237  104  234 1  
   238  105  235 1  
   239  106  236 1  
   240  109  237 1  
   241  109  238 1  
   242  111  239 1  
   243  112  240 1  
   244  113  241 1  
   245  114  242 1  
   246  115  243 1  
   247  116  244 1  
   248  117  245 1  
   249  120  246 1  
   250  120  247 1  
   251  121  248 1  
   252  122  249 1  
   253  123  250 1  
   254  126  251 1  
   255  126  252 1  
   256  127  253 1  
   257  127  254 1  
   258  130  255 1  
   259  130  256 1  
@<TRIPOS>SUBSTRUCTURE
     1 THR         1

