2vcq_ligand
  -I-interpret- 

 24 26  0  0  0  0  0  0  0  0999 V2000
  -49.3520   -4.8210   27.4710 C   0  0  0  0  0
  -47.9820   -4.7140   27.1550 C   0  0  0  0  0
  -47.3850   -4.8110   25.8090 C   0  0  0  0  0
  -46.1390   -4.3860   25.4400 C   0  0  0  0  0
  -49.4850   -4.6710   28.8100 C   0  0  0  0  0
  -47.9520   -5.3080   24.6940 O   0  0  0  0  0
  -47.1910   -5.2300   23.7280 N   0  0  0  0  0
  -46.0470   -4.6760   24.0530 C   0  0  0  0  0
  -44.8530   -4.4140   23.2040 C   0  0  0  0  0
  -44.5510   -5.2340   22.1140 C   0  0  0  0  0
  -43.4100   -4.9780   21.3760 C   0  0  0  0  0
  -42.5630   -3.9230   21.7110 C   0  0  0  0  0
  -42.8540   -3.1130   22.7900 C   0  0  0  0  0
  -43.9920   -3.3570   23.5350 C   0  0  0  0  0
  -47.3260   -4.4890   28.2730 N   0  0  0  0  0
  -48.2500   -4.4620   29.3260 N   0  0  0  0  0
  -50.1616   -4.9940   26.7620 H   0  0  0  0  0
  -45.3809   -3.9248   26.0730 H   0  0  0  0  0
  -50.4182   -4.7112   29.3719 H   0  0  0  0  0
  -45.2058   -6.0641   21.8490 H   0  0  0  0  0
  -43.1698   -5.6097   20.5208 H   0  0  0  0  0
  -41.6672   -3.7369   21.1185 H   0  0  0  0  0
  -42.1918   -2.2879   23.0522 H   0  0  0  0  0
  -44.2233   -2.7210   24.3895 H   0  0  0  0  0
  1  2  4  0  0  0
  1  5  4  0  0  0
  2  3  1  0  0  0
  2 15  4  0  0  0
  3  4  4  0  0  0
  3  6  4  0  0  0
  4  8  4  0  0  0
  5 16  4  0  0  0
  6  7  4  0  0  0
  7  8  4  0  0  0
  8  9  1  0  0  0
  9 10  4  0  0  0
  9 14  4  0  0  0
 10 11  4  0  0  0
 11 12  4  0  0  0
 12 13  4  0  0  0
 13 14  4  0  0  0
 15 16  4  0  0  0
  1 17  1  0  0  0
  4 18  1  0  0  0
  5 19  1  0  0  0
 10 20  1  0  0  0
 11 21  1  0  0  0
 12 22  1  0  0  0
 13 23  1  0  0  0
 14 24  1  0  0  0
M  END
$$$$
