4btw_ligand
  -I-interpret- 

 44 47  0  0  0  0  0  0  0  0999 V2000
   16.4310  143.6570   32.3770 C   0  0  0  0  0
   15.5740  142.4800   31.9260 C   0  0  0  0  0
   14.3160  142.3480   32.7920 C   0  0  0  0  0
   14.6010  142.4030   34.3040 C   0  0  0  0  0
   15.6060  143.4790   34.7360 C   0  0  0  0  0
   16.8360  143.4340   33.8360 C   0  0  0  0  0
   17.8410  144.4040   34.2340 N   0  0  0  0  0
   19.1730  144.1620   34.1080 C   0  0  0  0  0
   19.6390  143.0170   33.4430 C   0  0  0  0  0
   20.9850  142.7230   33.3330 C   0  0  0  0  0
   21.2820  141.5750   32.6600 O   0  0  0  0  0
   21.8860  143.5650   33.8850 N   0  0  0  0  0
   23.2230  143.4340   33.8700 C   0  0  0  0  0
   23.8710  142.4040   33.2420 C   0  0  0  0  0
   25.2500  142.3110   33.2560 C   0  0  0  0  0
   26.0190  143.2590   33.8890 C   0  0  0  0  0
   25.3820  144.2990   34.5150 C   0  0  0  0  0
   24.0020  144.3860   34.4990 C   0  0  0  0  0
   21.4120  144.7070   34.5410 N   0  0  0  0  0
   20.1090  145.0260   34.6630 C   0  0  0  0  0
   19.7830  146.1960   35.3530 C   0  0  0  0  0
   20.6450  147.0680   35.9150 N   0  0  0  0  0
   19.9640  148.0830   36.5040 C   0  0  0  0  0
   18.6680  147.8750   36.3160 N   0  0  0  0  0
   18.5670  146.6810   35.5880 N   0  0  0  0  0
   15.8658  144.5845   32.2860 H   0  0  0  0  0
   17.3207  143.7300   31.7515 H   0  0  0  0  0
   16.1599  141.5658   32.0211 H   0  0  0  0  0
   15.2697  142.6464   30.8926 H   0  0  0  0  0
   13.8721  141.3758   32.5780 H   0  0  0  0  0
   13.6637  143.1874   32.5513 H   0  0  0  0  0
   15.0334  141.4406   34.5778 H   0  0  0  0  0
   13.6565  142.6400   34.7937 H   0  0  0  0  0
   15.9086  143.2944   35.7668 H   0  0  0  0  0
   15.1381  144.4602   34.6555 H   0  0  0  0  0
   17.2812  142.4445   33.9404 H   0  0  0  0  0
   18.9139  142.3358   32.9977 H   0  0  0  0  0
   22.2344  141.4568   32.6359 H   0  0  0  0  0
   23.2887  141.6436   32.7216 H   0  0  0  0  0
   25.7358  141.4725   32.7571 H   0  0  0  0  0
   27.1065  143.1855   33.8929 H   0  0  0  0  0
   25.9669  145.0621   35.0285 H   0  0  0  0  0
   23.5167  145.2266   34.9950 H   0  0  0  0  0
   20.4057  148.9237   37.0390 H   0  0  0  0  0
  1  2  1  0  0  0
  1  6  1  0  0  0
  2  3  1  0  0  0
  3  4  1  0  0  0
  4  5  1  0  0  0
  5  6  1  0  0  0
  6  7  1  0  0  0
  7  8  2  0  0  0
  8  9  1  0  0  0
  8 20  1  0  0  0
  9 10  2  0  0  0
 10 11  1  0  0  0
 10 12  1  0  0  0
 12 13  1  0  0  0
 12 19  1  0  0  0
 13 14  4  0  0  0
 13 18  4  0  0  0
 14 15  4  0  0  0
 15 16  4  0  0  0
 16 17  4  0  0  0
 17 18  4  0  0  0
 19 20  2  0  0  0
 20 21  1  0  0  0
 21 22  4  0  0  0
 21 25  4  0  0  0
 22 23  4  0  0  0
 23 24  4  0  0  0
 24 25  4  0  0  0
  1 26  1  0  0  0
  1 27  1  0  0  0
  2 28  1  0  0  0
  2 29  1  0  0  0
  3 30  1  0  0  0
  3 31  1  0  0  0
  4 32  1  0  0  0
  4 33  1  0  0  0
  5 34  1  0  0  0
  5 35  1  0  0  0
  6 36  1  0  0  0
  9 37  1  0  0  0
 11 38  1  0  0  0
 14 39  1  0  0  0
 15 40  1  0  0  0
 16 41  1  0  0  0
 17 42  1  0  0  0
 18 43  1  0  0  0
 23 44  1  0  0  0
M  END
$$$$
