3zmm_ligand
  -I-interpret- 

 49 52  0  0  0  0  0  0  0  0999 V2000
    3.4120    1.3310   24.3740 C   0  0  0  0  0
    2.5890    1.5260   25.5870 C   0  0  0  0  0
    1.3260    2.0310   25.7770 C   0  0  0  0  0
    1.0960    1.9570   27.1720 C   0  0  0  0  0
    2.1650    1.4320   27.7870 N   0  0  0  0  0
    3.0500    1.1800   26.8210 N   0  0  0  0  0
   -0.0520    2.3490   27.8050 N   0  0  0  0  0
   -1.2130    2.9170   27.2730 C   0  0  0  0  0
   -2.2120    3.0590   28.1590 N   0  0  0  0  0
   -3.3710    3.6030   27.7660 C   0  0  0  0  0
   -3.4790    3.9930   26.4470 C   0  0  0  0  0
   -2.4240    3.8210   25.5770 C   0  0  0  0  0
   -1.2680    3.2810   25.9810 N   0  0  0  0  0
   -2.6270    4.2550   24.2520 O   0  0  0  0  0
   -1.5950    3.8520   23.3030 C   0  0  0  0  0
   -2.1870    3.8430   21.9110 C   0  0  0  0  0
   -0.4030    4.7670   23.3660 C   0  0  0  0  0
   -0.6040    6.0350   23.7610 N   0  0  0  0  0
    0.4790    6.8220   23.8410 C   0  0  0  0  0
    1.7270    6.3470   23.5230 C   0  0  0  0  0
    1.8440    5.0390   23.1180 C   0  0  0  0  0
    0.7760    4.2290   23.0380 N   0  0  0  0  0
    2.7910    7.1410   23.6010 F   0  0  0  0  0
   -4.6030    4.5390   25.9930 F   0  0  0  0  0
   -4.4310    3.7600   28.7200 N   0  0  0  0  0
   -4.3100    3.0700   30.0050 C   0  0  0  0  0
   -5.5890    2.3190   30.3550 C   0  0  0  0  0
   -6.7480    3.1320   30.0840 O   0  0  0  0  0
   -6.8000    3.5130   28.7060 C   0  0  0  0  0
   -5.6600    4.4820   28.4350 C   0  0  0  0  0
    2.8932    0.6611   23.6883 H   0  0  0  0  0
    3.5761    2.2934   23.8892 H   0  0  0  0  0
    4.3712    0.8953   24.6535 H   0  0  0  0  0
    0.6446    2.4089   25.0148 H   0  0  0  0  0
   -0.0620    2.2054   28.8148 H   0  0  0  0  0
   -1.2465    2.8522   23.5622 H   0  0  0  0  0
   -3.0173    3.1378   21.8752 H   0  0  0  0  0
   -2.5462    4.8420   21.6639 H   0  0  0  0  0
   -1.4225    3.5428   21.1944 H   0  0  0  0  0
    0.3662    7.8569   24.1642 H   0  0  0  0  0
    2.8276    4.6496   22.8553 H   0  0  0  0  0
   -4.1212    3.8125   30.7803 H   0  0  0  0  0
   -3.4939    2.3508   29.9364 H   0  0  0  0  0
   -5.5728    2.0714   31.4164 H   0  0  0  0  0
   -5.6436    1.4147   29.7489 H   0  0  0  0  0
   -7.7555    3.9889   28.4856 H   0  0  0  0  0
   -6.7013    2.6327   28.0708 H   0  0  0  0  0
   -5.6790    4.8292   27.4019 H   0  0  0  0  0
   -5.7453    5.3709   29.0601 H   0  0  0  0  0
  1  2  1  0  0  0
  2  3  4  0  0  0
  2  6  4  0  0  0
  3  4  4  0  0  0
  4  5  4  0  0  0
  4  7  1  0  0  0
  5  6  4  0  0  0
  7  8  1  0  0  0
  8  9  4  0  0  0
  8 13  4  0  0  0
  9 10  4  0  0  0
 10 11  4  0  0  0
 10 25  1  0  0  0
 11 12  4  0  0  0
 11 24  1  0  0  0
 12 13  4  0  0  0
 12 14  1  0  0  0
 14 15  1  0  0  0
 15 16  1  0  0  0
 15 17  1  0  0  0
 17 18  4  0  0  0
 17 22  4  0  0  0
 18 19  4  0  0  0
 19 20  4  0  0  0
 20 21  4  0  0  0
 20 23  1  0  0  0
 21 22  4  0  0  0
 25 26  1  0  0  0
 25 30  1  0  0  0
 26 27  1  0  0  0
 27 28  1  0  0  0
 28 29  1  0  0  0
 29 30  1  0  0  0
  1 31  1  0  0  0
  1 32  1  0  0  0
  1 33  1  0  0  0
  3 34  1  0  0  0
  7 35  1  0  0  0
 15 36  1  0  0  0
 16 37  1  0  0  0
 16 38  1  0  0  0
 16 39  1  0  0  0
 19 40  1  0  0  0
 21 41  1  0  0  0
 26 42  1  0  0  0
 26 43  1  0  0  0
 27 44  1  0  0  0
 27 45  1  0  0  0
 29 46  1  0  0  0
 29 47  1  0  0  0
 30 48  1  0  0  0
 30 49  1  0  0  0
M  END
$$$$
