6b7d_ligand
  -I-interpret- 

 30 31  0  0  0  0  0  0  0  0999 V2000
 -100.0090   38.5750  192.0730 C   0  0  0  0  0
  -99.8530   37.2800  191.3660 C   0  0  0  0  0
  -99.1570   38.8040  193.1520 C   0  0  0  0  0
  -98.6740   35.8870  189.7480 C   0  0  0  0  0
 -100.1770   40.9260  193.4710 C   0  0  0  0  0
  -98.2910   40.2700  195.0680 C   0  0  0  0  0
  -99.4940   34.8090  190.0960 C   0  0  0  0  0
 -101.0660   42.0710  195.3660 C   0  0  0  0  0
 -100.4720   34.9740  191.0750 C   0  0  0  0  0
 -100.6560   36.1960  191.7220 C   0  0  0  0  0
  -98.8570   37.1180  190.3870 C   0  0  0  0  0
  -99.2260   39.9870  193.8740 C   0  0  0  0  0
  -98.1590   37.7060  193.5010 C   0  0  0  0  0
 -100.9160   39.5050  191.7210 N   0  0  0  0  0
 -100.9890   40.6600  192.4180 N   0  0  0  0  0
 -100.2830   42.1270  194.1690 O   0  0  0  0  0
  -99.3160   33.2440  189.3280 Cl  0  0  0  0  0
  -97.9015   35.7695  188.9880 H   0  0  0  0  0
  -98.4394   39.5076  195.8327 H   0  0  0  0  0
  -97.2551   40.2500  194.7294 H   0  0  0  0  0
  -98.5202   41.2517  195.4826 H   0  0  0  0  0
 -102.0826   41.7645  195.1196 H   0  0  0  0  0
 -100.6245   41.3501  196.0541 H   0  0  0  0  0
 -101.0851   43.0559  195.8326 H   0  0  0  0  0
 -101.1074   34.1293  191.3411 H   0  0  0  0  0
 -101.4168   36.3026  192.4952 H   0  0  0  0  0
  -98.2196   37.9618  190.1227 H   0  0  0  0  0
  -98.6983   36.7910  193.7459 H   0  0  0  0  0
  -97.5051   37.5265  192.6476 H   0  0  0  0  0
  -97.5624   38.0181  194.3582 H   0  0  0  0  0
  2  1  1  0  0  0
  1  3  4  0  0  0
  1 14  4  0  0  0
  2 10  4  0  0  0
 11  2  4  0  0  0
  3 12  4  0  0  0
  3 13  1  0  0  0
  4  7  4  0  0  0
  4 11  4  0  0  0
 12  5  4  0  0  0
  5 15  4  0  0  0
  5 16  1  0  0  0
 12  6  1  0  0  0
  7  9  4  0  0  0
  7 17  1  0  0  0
 16  8  1  0  0  0
  9 10  4  0  0  0
 14 15  4  0  0  0
  4 18  1  0  0  0
  6 19  1  0  0  0
  6 20  1  0  0  0
  6 21  1  0  0  0
  8 22  1  0  0  0
  8 23  1  0  0  0
  8 24  1  0  0  0
  9 25  1  0  0  0
 10 26  1  0  0  0
 11 27  1  0  0  0
 13 28  1  0  0  0
 13 29  1  0  0  0
 13 30  1  0  0  0
M  END
$$$$
