5jyo_ligand
  -I-interpret- 

 64 67  0  0  0  0  0  0  0  0999 V2000
   -4.8600  -68.2910   26.8770 C   0  0  0  0  0
   -8.4630  -68.8440   27.9700 C   0  0  0  0  0
   -7.5220  -70.9000   27.1660 C   0  0  0  0  0
   -3.2060  -72.5800   17.1920 C   0  0  0  0  0
   -3.4780  -73.7020   17.9600 C   0  0  0  0  0
   -4.6520  -74.3840   17.7220 C   0  0  0  0  0
   -8.4730  -76.5130   16.5370 C   0  0  0  0  0
  -10.6740  -75.9210   17.6390 C   0  0  0  0  0
   -1.8710  -71.0420   18.7250 C   0  0  0  0  0
   -2.9090  -69.9510   18.7820 C   0  0  0  0  0
   -2.4020  -68.7250   19.5210 C   0  0  0  0  0
   -2.4910  -68.8610   21.0340 C   0  0  0  0  0
   -1.5060  -69.3410   21.8050 N   0  0  0  0  0
   -1.7560  -69.3810   23.1250 N   0  0  0  0  0
   -2.9590  -68.9390   23.5370 C   0  0  0  0  0
   -3.3690  -68.9080   24.9040 N   0  0  0  0  0
   -4.5510  -68.2690   25.3850 C   0  0  0  0  0
   -6.1890  -68.9560   27.1710 C   0  0  0  0  0
   -7.2460  -68.2290   27.7040 C   0  0  0  0  0
   -8.5980  -70.2020   27.6950 C   0  0  0  0  0
   -6.3580  -70.2650   26.9250 N   0  0  0  0  0
   -5.3040  -67.7030   24.6190 O   0  0  0  0  0
   -3.7950  -68.4450   22.1020 S   0  0  0  0  0
   -1.9210  -71.7910   17.4040 C   0  0  0  0  0
   -5.5200  -73.9440   16.7270 C   0  0  0  0  0
   -6.7670  -74.6020   16.4450 N   0  0  0  0  0
   -7.1110  -75.9250   16.8770 C   0  0  0  0  0
   -9.3840  -76.4210   17.7530 C   0  0  0  0  0
  -11.4980  -75.8340   18.7600 C   0  0  0  0  0
  -11.0360  -76.2390   20.0050 C   0  0  0  0  0
   -9.7450  -76.7400   20.1250 C   0  0  0  0  0
   -8.9310  -76.8270   18.9990 C   0  0  0  0  0
   -9.2590  -77.1470   21.3820 O   0  0  0  0  0
   -8.4740  -76.1580   22.0080 C   0  0  0  0  0
   -9.1920  -75.0270   22.1290 F   0  0  0  0  0
   -7.3660  -75.9180   21.2810 F   0  0  0  0  0
   -8.1250  -76.5910   23.2260 F   0  0  0  0  0
   -6.3380  -76.5970   17.5310 O   0  0  0  0  0
   -5.2160  -72.8450   16.0200 N   0  0  0  0  0
   -4.0710  -72.1740   16.2460 N   0  0  0  0  0
   -4.9084  -67.2610   27.2305 H   0  0  0  0  0
   -4.0763  -68.8582   27.3792 H   0  0  0  0  0
   -9.2948  -68.2751   28.3854 H   0  0  0  0  0
   -7.6182  -71.9630   26.9451 H   0  0  0  0  0
   -2.7828  -74.0354   18.7305 H   0  0  0  0  0
   -4.9001  -75.2663   18.3120 H   0  0  0  0  0
   -8.3559  -77.5578   16.2493 H   0  0  0  0  0
   -8.9132  -75.9552   15.7105 H   0  0  0  0  0
  -11.0447  -75.5946   16.6674 H   0  0  0  0  0
   -2.0694  -71.7493   19.5303 H   0  0  0  0  0
   -0.8859  -70.5865   18.8262 H   0  0  0  0  0
   -3.7795  -70.3349   19.3139 H   0  0  0  0  0
   -3.1532  -69.6579   17.7609 H   0  0  0  0  0
   -3.0247  -67.8800   19.2271 H   0  0  0  0  0
   -1.3517  -68.5926   19.2615 H   0  0  0  0  0
   -2.7737  -69.3768   25.5869 H   0  0  0  0  0
   -7.1195  -67.1672   27.9153 H   0  0  0  0  0
   -9.5405  -70.7123   27.8935 H   0  0  0  0  0
   -1.8603  -71.0492   16.6077 H   0  0  0  0  0
   -1.0977  -72.5053   17.4044 H   0  0  0  0  0
   -7.4580  -74.0895   15.8970 H   0  0  0  0  0
  -12.5114  -75.4456   18.6585 H   0  0  0  0  0
  -11.6803  -76.1647   20.8811 H   0  0  0  0  0
   -7.9197  -77.2212   19.0986 H   0  0  0  0  0
 17  1  1  0  0  0
  1 18  1  0  0  0
 19  2  4  0  0  0
  2 20  4  0  0  0
  3 20  4  0  0  0
 21  3  4  0  0  0
  5  4  4  0  0  0
  4 24  1  0  0  0
  4 40  4  0  0  0
  6  5  4  0  0  0
 25  6  4  0  0  0
 27  7  1  0  0  0
  7 28  1  0  0  0
 28  8  4  0  0  0
  8 29  4  0  0  0
  9 10  1  0  0  0
 24  9  1  0  0  0
 10 11  1  0  0  0
 11 12  1  0  0  0
 12 13  4  0  0  0
 12 23  4  0  0  0
 13 14  4  0  0  0
 15 14  4  0  0  0
 15 16  1  0  0  0
 23 15  4  0  0  0
 16 17  1  0  0  0
 17 22  2  0  0  0
 18 19  4  0  0  0
 18 21  4  0  0  0
 26 25  1  0  0  0
 25 39  4  0  0  0
 26 27  1  0  0  0
 27 38  2  0  0  0
 28 32  4  0  0  0
 29 30  4  0  0  0
 30 31  4  0  0  0
 31 32  4  0  0  0
 31 33  1  0  0  0
 33 34  1  0  0  0
 34 35  1  0  0  0
 34 36  1  0  0  0
 34 37  1  0  0  0
 39 40  4  0  0  0
  1 41  1  0  0  0
  1 42  1  0  0  0
  2 43  1  0  0  0
  3 44  1  0  0  0
  5 45  1  0  0  0
  6 46  1  0  0  0
  7 47  1  0  0  0
  7 48  1  0  0  0
  8 49  1  0  0  0
  9 50  1  0  0  0
  9 51  1  0  0  0
 10 52  1  0  0  0
 10 53  1  0  0  0
 11 54  1  0  0  0
 11 55  1  0  0  0
 16 56  1  0  0  0
 19 57  1  0  0  0
 20 58  1  0  0  0
 24 59  1  0  0  0
 24 60  1  0  0  0
 26 61  1  0  0  0
 29 62  1  0  0  0
 30 63  1  0  0  0
 32 64  1  0  0  0
M  END
$$$$
