1owd_ligand
  -I-interpret- 

 53 56  0  0  0  0  0  0  0  0999 V2000
   29.9610   10.5100   33.5110 C   0  0  0  0  0
   28.5190   10.8440   33.1590 C   0  0  0  0  0
   28.3610   10.9620   31.6530 C   0  0  0  0  0
   28.8240    9.8200   30.7370 C   0  0  0  0  0
   29.2180   10.4030   29.4480 N   0  3  0  0  0
   28.2460   11.2590   28.7480 C   0  0  0  0  0
   27.3310   12.0620   29.6560 C   0  0  0  0  0
   27.2540   11.7970   31.0550 C   0  0  0  0  0
   26.1890   12.3400   31.8040 C   0  0  0  0  0
   25.3520   13.3140   31.2130 C   0  0  0  0  0
   24.2760   13.8910   31.8340 N   0  0  0  0  0
   24.3750   14.6380   32.9380 C   0  0  0  0  0
   25.3290   14.4670   33.6600 O   0  0  0  0  0
   23.3220   15.6590   33.2280 C   0  0  0  0  0
   23.6510   16.7190   34.1180 C   0  0  0  0  0
   22.7050   17.6950   34.4790 C   0  0  0  0  0
   21.4010   17.6640   33.9270 C   0  0  0  0  0
   20.4950   18.7210   34.1490 C   0  0  0  0  0
   19.2050   18.7230   33.5720 C   0  0  0  0  0
   18.8770   17.7140   32.6360 C   0  0  0  0  0
   19.7930   16.6790   32.3730 C   0  0  0  0  0
   21.0590   16.6360   33.0030 C   0  0  0  0  0
   22.0140   15.6320   32.6690 C   0  0  0  0  0
   18.2110   19.7350   33.9890 C   0  0  0  0  0
   18.5880   20.9290   34.4080 N   0  0  0  0  0
   16.9240   19.4960   33.9780 N   0  0  0  0  0
   25.6060   13.7230   29.8970 C   0  0  0  0  0
   26.5440   13.0830   29.0890 C   0  0  0  0  0
   30.2368    9.5629   33.0472 H   0  0  0  0  0
   30.6157   11.3002   33.1436 H   0  0  0  0  0
   30.0599   10.4284   34.5934 H   0  0  0  0  0
   28.2493   11.7934   33.6217 H   0  0  0  0  0
   27.8690   10.0492   33.5249 H   0  0  0  0  0
   29.2040   11.6530   31.6557 H   0  0  0  0  0
   28.0171    9.1013   30.5942 H   0  0  0  0  0
   29.6672    9.2953   31.1863 H   0  0  0  0  0
   29.3726    9.6078   28.8282 H   0  0  0  0  0
   30.0104   11.0101   29.6574 H   0  0  0  0  0
   27.6078   10.5978   28.1618 H   0  0  0  0  0
   28.8212   11.9776   28.1643 H   0  0  0  0  0
   26.0132   12.0118   32.8284 H   0  0  0  0  0
   23.3501   13.7427   31.4326 H   0  0  0  0  0
   24.6588   16.7760   34.5293 H   0  0  0  0  0
   22.9764   18.4785   35.1865 H   0  0  0  0  0
   20.7966   19.5565   34.7807 H   0  0  0  0  0
   17.9172   17.7384   32.1200 H   0  0  0  0  0
   19.5213   15.8930   31.6684 H   0  0  0  0  0
   21.7393   14.8351   31.9780 H   0  0  0  0  0
   17.8885   21.6106   34.7022 H   0  0  0  0  0
   19.5787   21.1698   34.4375 H   0  0  0  0  0
   16.5768   18.5862   33.6744 H   0  0  0  0  0
   25.0517   14.5696   29.4919 H   0  0  0  0  0
   26.6656   13.3659   28.0434 H   0  0  0  0  0
  1  2  1  0  0  0
  2  3  1  0  0  0
  3  4  1  0  0  0
  3  8  1  0  0  0
  4  5  1  0  0  0
  5  6  1  0  0  0
  6  7  1  0  0  0
  7  8  4  0  0  0
  7 28  4  0  0  0
  8  9  4  0  0  0
  9 10  4  0  0  0
 10 11  1  0  0  0
 10 27  4  0  0  0
 11 12  1  0  0  0
 12 13  2  0  0  0
 12 14  1  0  0  0
 14 15  4  0  0  0
 14 23  4  0  0  0
 15 16  4  0  0  0
 16 17  4  0  0  0
 17 18  4  0  0  0
 17 22  4  0  0  0
 18 19  4  0  0  0
 19 20  4  0  0  0
 19 24  1  0  0  0
 20 21  4  0  0  0
 21 22  4  0  0  0
 22 23  4  0  0  0
 24 25  1  0  0  0
 24 26  2  0  0  0
 27 28  4  0  0  0
  1 29  1  0  0  0
  1 30  1  0  0  0
  1 31  1  0  0  0
  2 32  1  0  0  0
  2 33  1  0  0  0
  3 34  1  0  0  0
  4 35  1  0  0  0
  4 36  1  0  0  0
  5 37  1  0  0  0
  5 38  1  0  0  0
  6 39  1  0  0  0
  6 40  1  0  0  0
  9 41  1  0  0  0
 11 42  1  0  0  0
 15 43  1  0  0  0
 16 44  1  0  0  0
 18 45  1  0  0  0
 20 46  1  0  0  0
 21 47  1  0  0  0
 23 48  1  0  0  0
 25 49  1  0  0  0
 25 50  1  0  0  0
 26 51  1  0  0  0
 27 52  1  0  0  0
 28 53  1  0  0  0
M  END
$$$$
