3ljj_ligand
  -I-interpret- 

 57 59  0  0  0  0  0  0  0  0999 V2000
   17.2950   -9.2790   12.5180 N   0  0  0  0  0
   18.1970   -9.4790   11.5250 C   0  0  0  0  0
   18.3640   -8.5910   10.6860 O   0  0  0  0  0
   19.4270  -10.3590   11.7460 C   0  0  0  0  0
   17.3000   -9.9670   13.8220 C   0  0  0  0  0
   15.8740   -9.7790   14.3670 C   0  0  0  0  0
   15.4830   -8.3680   13.8780 C   0  0  0  0  0
   16.2910   -8.2150   12.5730 C   0  0  0  0  0
   16.8870   -6.8400   12.4850 C   0  0  0  0  0
   16.1390   -5.9220   11.8180 N   0  0  0  0  0
   16.4880   -4.5290   11.7010 C   0  0  0  0  0
   17.2600   -4.2410   10.4520 C   0  0  0  0  0
   16.7620   -3.2870    9.5850 C   0  0  0  0  0
   17.3700   -3.0840    8.3550 C   0  0  0  0  0
   18.4800   -3.8480    8.0090 C   0  0  0  0  0
   19.1110   -3.5550    6.7030 C   0  0  0  0  0
   20.5140   -3.9190    6.4700 N   0  0  0  0  0
   18.4120   -3.0990    5.6580 N   0  0  0  0  0
   18.9880   -4.8130    8.8830 C   0  0  0  0  0
   18.3690   -5.0050   10.1070 C   0  0  0  0  0
   17.8280   -6.4870   13.1940 O   0  0  0  0  0
   20.3220  -10.3180   10.5710 N   0  3  0  0  0
   20.2720  -11.5310    9.7800 C   0  0  0  0  0
   21.0290  -11.4640    8.4420 C   0  0  0  0  0
   21.2500  -12.9600    8.0610 C   0  0  0  0  0
   21.3560  -13.7090    9.4070 C   0  0  0  0  0
   20.8400  -12.7580   10.5100 C   0  0  0  0  0
   19.0994  -11.3869   11.9017 H   0  0  0  0  0
   19.9715   -9.9889   12.6147 H   0  0  0  0  0
   18.0510   -9.5555   14.4964 H   0  0  0  0  0
   17.5632  -11.0203   13.7254 H   0  0  0  0  0
   15.8262   -9.8728   15.4519 H   0  0  0  0  0
   15.1874  -10.5483   14.0136 H   0  0  0  0  0
   15.7094   -7.5908   14.6079 H   0  0  0  0  0
   14.4095   -8.2570   13.7250 H   0  0  0  0  0
   15.6425   -8.3193   11.7031 H   0  0  0  0  0
   15.2776   -6.2387   11.3729 H   0  0  0  0  0
   17.1128   -4.2637   12.5539 H   0  0  0  0  0
   15.5649   -3.9502   11.6694 H   0  0  0  0  0
   15.8919   -2.6944    9.8676 H   0  0  0  0  0
   16.9820   -2.3334    7.6664 H   0  0  0  0  0
   20.9188   -3.8197    5.5390 H   0  0  0  0  0
   21.0840   -4.2712    7.2391 H   0  0  0  0  0
   17.4080   -2.9417    5.7455 H   0  0  0  0  0
   19.8592   -5.4063    8.6052 H   0  0  0  0  0
   18.7513   -5.7549   10.7996 H   0  0  0  0  0
   21.2772  -10.2076   10.9112 H   0  0  0  0  0
   20.0198   -9.5462    9.9765 H   0  0  0  0  0
   19.2016  -11.6291    9.5991 H   0  0  0  0  0
   21.9669  -10.9148    8.5240 H   0  0  0  0  0
   20.4728  -10.9201    7.6785 H   0  0  0  0  0
   22.1465  -13.0925    7.4553 H   0  0  0  0  0
   20.4331  -13.3443    7.4502 H   0  0  0  0  0
   22.3892  -13.9953    9.6034 H   0  0  0  0  0
   20.7616  -14.6224    9.3827 H   0  0  0  0  0
   20.0783  -13.2405   11.1225 H   0  0  0  0  0
   21.6406  -12.4751   11.1934 H   0  0  0  0  0
  1  2  1  0  0  0
  1  5  1  0  0  0
  1  8  1  0  0  0
  2  3  2  0  0  0
  2  4  1  0  0  0
  4 22  1  0  0  0
  5  6  1  0  0  0
  6  7  1  0  0  0
  7  8  1  0  0  0
  8  9  1  0  0  0
  9 10  1  0  0  0
  9 21  2  0  0  0
 10 11  1  0  0  0
 11 12  1  0  0  0
 12 13  4  0  0  0
 12 20  4  0  0  0
 13 14  4  0  0  0
 14 15  4  0  0  0
 15 16  1  0  0  0
 15 19  4  0  0  0
 16 17  1  0  0  0
 16 18  2  0  0  0
 19 20  4  0  0  0
 22 23  1  0  0  0
 23 24  1  0  0  0
 23 27  1  0  0  0
 24 25  1  0  0  0
 25 26  1  0  0  0
 26 27  1  0  0  0
  4 28  1  0  0  0
  4 29  1  0  0  0
  5 30  1  0  0  0
  5 31  1  0  0  0
  6 32  1  0  0  0
  6 33  1  0  0  0
  7 34  1  0  0  0
  7 35  1  0  0  0
  8 36  1  0  0  0
 10 37  1  0  0  0
 11 38  1  0  0  0
 11 39  1  0  0  0
 13 40  1  0  0  0
 14 41  1  0  0  0
 17 42  1  0  0  0
 17 43  1  0  0  0
 18 44  1  0  0  0
 19 45  1  0  0  0
 20 46  1  0  0  0
 22 47  1  0  0  0
 22 48  1  0  0  0
 23 49  1  0  0  0
 24 50  1  0  0  0
 24 51  1  0  0  0
 25 52  1  0  0  0
 25 53  1  0  0  0
 26 54  1  0  0  0
 26 55  1  0  0  0
 27 56  1  0  0  0
 27 57  1  0  0  0
M  END
$$$$
