### 
### Created by X-TOOL on Mon Aug  2 16:12:32 2021
### 

@<TRIPOS>MOLECULE
6a30_ligand
  130   134     1     0     0
SMALL
GAST_HUCK


@<TRIPOS>ATOM
      1 N          85.9250   88.1130  -46.0740 N.4       1 LYS         0.2379
      2 CA         85.6890   86.7180  -46.4320 C.3       1 LYS         0.0650
      3 C          85.2020   85.9200  -45.2280 C.2       1 LYS         0.2268
      4 O          85.2540   86.4030  -44.0930 O.2       1 LYS        -0.3907
      5 CB         86.9600   86.0910  -47.0070 C.3       1 LYS         0.0080
      6 CG         87.4890   86.8190  -48.2310 C.3       1 LYS        -0.0410
      7 CD         88.7360   86.1560  -48.7950 C.3       1 LYS        -0.0123
      8 CE         89.2160   86.8790  -50.0470 C.3       1 LYS        -0.0354
      9 NZ         90.3820   86.2090  -50.6860 N.4       1 LYS         0.2185
     10 N          84.7230   84.7050  -45.4870 N.am      1 LYS        -0.2594
     11 CA         84.2260   83.8250  -44.4330 C.3       1 LYS         0.1391
     12 C          85.2920   83.6190  -43.3550 C.2       1 LYS         0.2058
     13 O          86.4330   83.2650  -43.6580 O.2       1 LYS        -0.3942
     14 CB         83.8020   82.4690  -45.0090 C.3       1 LYS         0.0164
     15 CG         82.7730   82.5250  -46.1240 C.ar      1 LYS        -0.0493
     16 CD1        82.6720   81.4880  -47.0480 C.ar      1 LYS        -0.0685
     17 CD2        81.8960   83.5990  -46.2510 C.ar      1 LYS        -0.0685
     18 CE1        81.7370   81.5220  -48.0700 C.ar      1 LYS        -0.0398
     19 CE2        80.9570   83.6390  -47.2760 C.ar      1 LYS        -0.0398
     20 CZ         80.8830   82.5980  -48.1790 C.ar      1 LYS         0.0805
     21 OH         79.9510   82.6330  -49.1960 O.3       1 LYS        -0.3376
     22 N          84.9120   83.8410  -42.1000 N.am      1 LYS        -0.2625
     23 CA         85.8450   83.7640  -40.9800 C.3       1 LYS         0.1352
     24 C          86.3630   82.3490  -40.7220 C.2       1 LYS         0.2052
     25 O          87.3000   82.1550  -39.9460 O.2       1 LYS        -0.3942
     26 CB         85.1830   84.3120  -39.7130 C.3       1 LYS         0.0042
     27 CG         83.9370   83.5750  -39.3180 C.2       1 LYS        -0.0418
     28 CD1        82.6500   83.9170  -39.6180 C.2       1 LYS         0.0167
     29 CD2        83.8610   82.3690  -38.5450 C.ar      1 LYS        -0.0214
     30 NE1        81.7790   82.9990  -39.0810 N.pl3     1 LYS        -0.2890
     31 CE2        82.4960   82.0410  -38.4200 C.ar      1 LYS         0.0603
     32 CE3        84.8150   81.5390  -37.9500 C.ar      1 LYS        -0.0747
     33 CZ2        82.0660   80.9140  -37.7190 C.ar      1 LYS        -0.0443
     34 CZ3        84.3840   80.4250  -37.2590 C.ar      1 LYS        -0.0792
     35 CH2        83.0230   80.1210  -37.1500 C.ar      1 LYS        -0.0768
     36 N          85.7490   81.3640  -41.3710 N.am      1 LYS        -0.2626
     37 CA         86.0500   79.9630  -41.0950 C.3       1 LYS         0.1352
     38 C          86.8560   79.2720  -42.1930 C.2       1 LYS         0.2052
     39 O          86.8900   78.0430  -42.2540 O.2       1 LYS        -0.3942
     40 CB         84.7540   79.1880  -40.8430 C.3       1 LYS         0.0042
     41 CG         83.8360   79.1160  -42.0350 C.2       1 LYS        -0.0418
     42 CD1        83.8210   78.1520  -43.0000 C.2       1 LYS         0.0167
     43 CD2        82.7920   80.0410  -42.3780 C.ar      1 LYS        -0.0214
     44 NE1        82.8360   78.4200  -43.9250 N.pl3     1 LYS        -0.2890
     45 CE2        82.1920   79.5720  -43.5650 C.ar      1 LYS         0.0603
     46 CE3        82.3110   81.2180  -41.7970 C.ar      1 LYS        -0.0747
     47 CZ2        81.1330   80.2430  -44.1800 C.ar      1 LYS        -0.0443
     48 CZ3        81.2590   81.8820  -42.4120 C.ar      1 LYS        -0.0792
     49 CH2        80.6840   81.3920  -43.5890 C.ar      1 LYS        -0.0768
     50 N          87.5080   80.0520  -43.0520 N.am      1 LYS        -0.2636
     51 CA         88.2720   79.4790  -44.1610 C.3       1 LYS         0.1309
     52 C          89.7850   79.4950  -43.9240 C.2       1 LYS         0.2035
     53 O          90.4940   78.5760  -44.3390 O.2       1 LYS        -0.3944
     54 CB         87.9260   80.1710  -45.4840 C.3       1 LYS        -0.0122
     55 CG         86.5260   79.8600  -46.0070 C.3       1 LYS        -0.0440
     56 CD         86.5290   79.6260  -47.5170 C.3       1 LYS        -0.0124
     57 CE         85.8280   80.7460  -48.2770 C.3       1 LYS        -0.0354
     58 NZ         86.4990   82.0670  -48.1220 N.4       1 LYS         0.2185
     59 N          90.2740   80.5410  -43.2630 N.am      1 LYS        -0.2674
     60 CA         91.6950   80.6450  -42.9410 C.3       1 LYS         0.1110
     61 C          92.0370   80.0260  -41.5870 C.2       1 LYS         0.0624
     62 O          93.0690   79.3710  -41.4330 O.co2     1 LYS        -0.5665
     63 CB         92.1590   82.1060  -42.9890 C.3       1 LYS         0.0718
     64 CG         91.3290   83.0140  -42.0980 C.2       1 LYS         0.1774
     65 OD1        90.1000   83.0320  -42.1820 O.2       1 LYS        -0.3971
     66 ND2        91.9990   83.7720  -41.2360 N.am      1 LYS        -0.3007
     67 OXT        91.2880   80.1680  -40.6190 O.co2     1 LYS        -0.5665
     68 H1         86.2456   88.6184  -46.8851 H         1 LYS         0.2015
     69 H2         86.6250   88.1604  -45.3503 H         1 LYS         0.2015
     70 H3         85.0674   88.5238  -45.7395 H         1 LYS         0.2015
     71 H4         84.9070   86.6881  -47.2050 H         1 LYS         0.1098
     72 H5         86.7397   85.0505  -47.2879 H         1 LYS         0.0346
     73 H6         87.7382   86.1041  -46.2297 H         1 LYS         0.0346
     74 H7         87.7336   87.8541  -47.9502 H         1 LYS         0.0270
     75 H8         86.7084   86.8240  -49.0060 H         1 LYS         0.0270
     76 H9         88.5050   85.1109  -49.0487 H         1 LYS         0.0317
     77 H10        89.5322   86.1818  -48.0365 H         1 LYS         0.0317
     78 H11        89.5062   87.9038  -49.7722 H         1 LYS         0.0813
     79 H12        88.3894   86.9139  -50.7720 H         1 LYS         0.0813
     80 H13        90.6584   86.7256  -51.5062 H         1 LYS         0.1994
     81 H14        90.1269   85.2703  -50.9503 H         1 LYS         0.1994
     82 H15        91.1502   86.1775  -50.0341 H         1 LYS         0.1994
     83 H16        84.7029   84.3847  -46.4341 H         1 LYS         0.1886
     84 H17        83.3474   84.2990  -43.9712 H         1 LYS         0.0821
     85 H18        83.3805   81.8693  -44.1888 H         1 LYS         0.0453
     86 H19        84.7010   81.9719  -45.4023 H         1 LYS         0.0453
     87 H20        83.3384   80.6369  -46.9660 H         1 LYS         0.0530
     88 H21        81.9459   84.4161  -45.5404 H         1 LYS         0.0530
     89 H22        81.6776   80.7057  -48.7808 H         1 LYS         0.0525
     90 H23        80.2853   84.4851  -47.3654 H         1 LYS         0.0525
     91 H24        80.0312   81.8477  -49.7247 H         1 LYS         0.2458
     92 H25        83.9554   84.0682  -41.9176 H         1 LYS         0.1884
     93 H26        86.7105   84.3985  -41.2215 H         1 LYS         0.0815
     94 H27        84.9230   85.3669  -39.8851 H         1 LYS         0.0397
     95 H28        85.9048   84.2425  -38.8859 H         1 LYS         0.0397
     96 H29        82.3560   84.7902  -40.1984 H         1 LYS         0.0795
     97 H30        80.7527   83.0282  -39.1633 H         1 LYS         0.2216
     98 H31        85.8720   81.7657  -38.0297 H         1 LYS         0.0540
     99 H32        81.0123   80.6761  -37.6289 H         1 LYS         0.0541
    100 H33        85.1137   79.7734  -36.7920 H         1 LYS         0.0510
    101 H34        82.7203   79.2362  -36.6017 H         1 LYS         0.0530
    102 H35        85.0647   81.5887  -42.0647 H         1 LYS         0.1884
    103 H36        86.6529   79.9324  -40.1755 H         1 LYS         0.0815
    104 H37        84.2132   79.6784  -40.0202 H         1 LYS         0.0397
    105 H38        85.0176   78.1616  -40.5481 H         1 LYS         0.0397
    106 H39        84.4911   77.2942  -43.0342 H         1 LYS         0.0795
    107 H40        82.6197   77.8465  -44.7528 H         1 LYS         0.2216
    108 H41        82.7508   81.6042  -40.8846 H         1 LYS         0.0540
    109 H42        80.6834   79.8672  -45.0920 H         1 LYS         0.0541
    110 H43        80.8764   82.7961  -41.9726 H         1 LYS         0.0510
    111 H44        79.8635   81.9354  -44.0435 H         1 LYS         0.0530
    112 H45        87.4753   81.0449  -42.9379 H         1 LYS         0.1883
    113 H46        87.9696   78.4251  -44.2495 H         1 LYS         0.0800
    114 H47        88.6561   79.8506  -46.2418 H         1 LYS         0.0312
    115 H48        88.0048   81.2580  -45.3354 H         1 LYS         0.0312
    116 H49        85.8630   80.7075  -45.7784 H         1 LYS         0.0269
    117 H50        86.1506   78.9553  -45.5063 H         1 LYS         0.0269
    118 H51        86.0133   78.6778  -47.7291 H         1 LYS         0.0317
    119 H52        87.5712   79.5620  -47.8631 H         1 LYS         0.0317
    120 H53        84.7971   80.8311  -47.9028 H         1 LYS         0.0813
    121 H54        85.8099   80.4859  -49.3456 H         1 LYS         0.0813
    122 H55        85.9924   82.7645  -48.6444 H         1 LYS         0.1994
    123 H56        87.4433   82.0071  -48.4694 H         1 LYS         0.1994
    124 H57        86.5152   82.3233  -47.1473 H         1 LYS         0.1994
    125 H58        89.6543   81.2731  -42.9800 H         1 LYS         0.1877
    126 H59        92.2496   80.0880  -43.7105 H         1 LYS         0.0752
    127 H60        92.0832   82.4655  -44.0258 H         1 LYS         0.0544
    128 H61        93.2076   82.1532  -42.6602 H         1 LYS         0.0544
    129 H62        91.5049   84.3895  -40.6240 H         1 LYS         0.1814
    130 H63        92.9972   83.7248  -41.1995 H         1 LYS         0.1814
@<TRIPOS>BOND
     1    1    2 1  
     2    2    3 1  
     3    2    5 1  
     4    3    4 2  
     5    3   10 am 
     6    5    6 1  
     7    6    7 1  
     8    7    8 1  
     9    8    9 1  
    10   10   11 1  
    11   11   12 1  
    12   11   14 1  
    13   12   13 2  
    14   12   22 am 
    15   14   15 1  
    16   15   16 ar 
    17   15   17 ar 
    18   16   18 ar 
    19   17   19 ar 
    20   18   20 ar 
    21   19   20 ar 
    22   20   21 1  
    23   22   23 1  
    24   23   24 1  
    25   23   26 1  
    26   24   25 2  
    27   24   36 am 
    28   26   27 1  
    29   27   28 2  
    30   27   29 1  
    31   28   30 1  
    32   29   31 ar 
    33   29   32 ar 
    34   30   31 1  
    35   31   33 ar 
    36   32   34 ar 
    37   33   35 ar 
    38   34   35 ar 
    39   36   37 1  
    40   37   38 1  
    41   37   40 1  
    42   38   39 2  
    43   38   50 am 
    44   40   41 1  
    45   41   42 2  
    46   41   43 1  
    47   42   44 1  
    48   43   45 ar 
    49   43   46 ar 
    50   44   45 1  
    51   45   47 ar 
    52   46   48 ar 
    53   47   49 ar 
    54   48   49 ar 
    55   50   51 1  
    56   51   52 1  
    57   51   54 1  
    58   52   53 2  
    59   52   59 am 
    60   54   55 1  
    61   55   56 1  
    62   56   57 1  
    63   57   58 1  
    64   59   60 1  
    65   60   61 1  
    66   60   63 1  
    67   61   62 ar 
    68   61   67 ar 
    69   63   64 1  
    70   64   65 2  
    71   64   66 am 
    72    1   68 1  
    73    1   69 1  
    74    1   70 1  
    75    2   71 1  
    76    5   72 1  
    77    5   73 1  
    78    6   74 1  
    79    6   75 1  
    80    7   76 1  
    81    7   77 1  
    82    8   78 1  
    83    8   79 1  
    84    9   80 1  
    85    9   81 1  
    86    9   82 1  
    87   10   83 1  
    88   11   84 1  
    89   14   85 1  
    90   14   86 1  
    91   16   87 1  
    92   17   88 1  
    93   18   89 1  
    94   19   90 1  
    95   21   91 1  
    96   22   92 1  
    97   23   93 1  
    98   26   94 1  
    99   26   95 1  
   100   28   96 1  
   101   30   97 1  
   102   32   98 1  
   103   33   99 1  
   104   34  100 1  
   105   35  101 1  
   106   36  102 1  
   107   37  103 1  
   108   40  104 1  
   109   40  105 1  
   110   42  106 1  
   111   44  107 1  
   112   46  108 1  
   113   47  109 1  
   114   48  110 1  
   115   49  111 1  
   116   50  112 1  
   117   51  113 1  
   118   54  114 1  
   119   54  115 1  
   120   55  116 1  
   121   55  117 1  
   122   56  118 1  
   123   56  119 1  
   124   57  120 1  
   125   57  121 1  
   126   58  122 1  
   127   58  123 1  
   128   58  124 1  
   129   59  125 1  
   130   60  126 1  
   131   63  127 1  
   132   63  128 1  
   133   66  129 1  
   134   66  130 1  
@<TRIPOS>SUBSTRUCTURE
     1 LYS         1

