6a30_ligand
  -I-interpret- 

129133  0  0  0  0  0  0  0  0999 V2000
   85.9250   88.1130  -46.0740 N   0  3  0  0  0
   85.6890   86.7180  -46.4320 C   0  0  0  0  0
   85.2020   85.9200  -45.2280 C   0  0  0  0  0
   85.2540   86.4030  -44.0930 O   0  0  0  0  0
   86.9600   86.0910  -47.0070 C   0  0  0  0  0
   87.4890   86.8190  -48.2310 C   0  0  0  0  0
   88.7360   86.1560  -48.7950 C   0  0  0  0  0
   89.2160   86.8790  -50.0470 C   0  0  0  0  0
   90.3820   86.2090  -50.6860 N   0  3  0  0  0
   84.7230   84.7050  -45.4870 N   0  0  0  0  0
   84.2260   83.8250  -44.4330 C   0  0  0  0  0
   85.2920   83.6190  -43.3550 C   0  0  0  0  0
   86.4330   83.2650  -43.6580 O   0  0  0  0  0
   83.8020   82.4690  -45.0090 C   0  0  0  0  0
   82.7730   82.5250  -46.1240 C   0  0  0  0  0
   82.6720   81.4880  -47.0480 C   0  0  0  0  0
   81.8960   83.5990  -46.2510 C   0  0  0  0  0
   81.7370   81.5220  -48.0700 C   0  0  0  0  0
   80.9570   83.6390  -47.2760 C   0  0  0  0  0
   80.8830   82.5980  -48.1790 C   0  0  0  0  0
   79.9510   82.6330  -49.1960 O   0  0  0  0  0
   84.9120   83.8410  -42.1000 N   0  0  0  0  0
   85.8450   83.7640  -40.9800 C   0  0  0  0  0
   86.3630   82.3490  -40.7220 C   0  0  0  0  0
   87.3000   82.1550  -39.9460 O   0  0  0  0  0
   85.1830   84.3120  -39.7130 C   0  0  0  0  0
   83.9370   83.5750  -39.3180 C   0  0  0  0  0
   82.6500   83.9170  -39.6180 C   0  0  0  0  0
   83.8610   82.3690  -38.5450 C   0  0  0  0  0
   81.7790   82.9990  -39.0810 N   0  0  0  0  0
   82.4960   82.0410  -38.4200 C   0  0  0  0  0
   84.8150   81.5390  -37.9500 C   0  0  0  0  0
   82.0660   80.9140  -37.7190 C   0  0  0  0  0
   84.3840   80.4250  -37.2590 C   0  0  0  0  0
   83.0230   80.1210  -37.1500 C   0  0  0  0  0
   85.7490   81.3640  -41.3710 N   0  0  0  0  0
   86.0500   79.9630  -41.0950 C   0  0  0  0  0
   86.8560   79.2720  -42.1930 C   0  0  0  0  0
   86.8900   78.0430  -42.2540 O   0  0  0  0  0
   84.7540   79.1880  -40.8430 C   0  0  0  0  0
   83.8360   79.1160  -42.0350 C   0  0  0  0  0
   83.8210   78.1520  -43.0000 C   0  0  0  0  0
   82.7920   80.0410  -42.3780 C   0  0  0  0  0
   82.8360   78.4200  -43.9250 N   0  0  0  0  0
   82.1920   79.5720  -43.5650 C   0  0  0  0  0
   82.3110   81.2180  -41.7970 C   0  0  0  0  0
   81.1330   80.2430  -44.1800 C   0  0  0  0  0
   81.2590   81.8820  -42.4120 C   0  0  0  0  0
   80.6840   81.3920  -43.5890 C   0  0  0  0  0
   87.5080   80.0520  -43.0520 N   0  0  0  0  0
   88.2720   79.4790  -44.1610 C   0  0  0  0  0
   89.7850   79.4950  -43.9240 C   0  0  0  0  0
   90.4940   78.5760  -44.3390 O   0  0  0  0  0
   87.9260   80.1710  -45.4840 C   0  0  0  0  0
   86.5260   79.8600  -46.0070 C   0  0  0  0  0
   86.5290   79.6260  -47.5170 C   0  0  0  0  0
   85.8280   80.7460  -48.2770 C   0  0  0  0  0
   86.4990   82.0670  -48.1220 N   0  3  0  0  0
   90.2740   80.5410  -43.2630 N   0  0  0  0  0
   91.6950   80.6450  -42.9410 C   0  0  0  0  0
   92.0370   80.0260  -41.5870 C   0  0  0  0  0
   93.0690   79.3710  -41.4330 O   0  0  0  0  0
   92.1590   82.1060  -42.9890 C   0  0  0  0  0
   91.3290   83.0140  -42.0980 C   0  0  0  0  0
   90.1000   83.0320  -42.1820 O   0  0  0  0  0
   91.9990   83.7720  -41.2360 N   0  0  0  0  0
   91.2880   80.1680  -40.6190 O   0  0  0  0  0
   85.0683   88.5146  -45.6929 H   0  0  0  0  0
   86.6657   88.1626  -45.3745 H   0  0  0  0  0
   86.2054   88.6334  -46.9053 H   0  0  0  0  0
   84.9104   86.6921  -47.1944 H   0  0  0  0  0
   86.7170   85.0723  -47.3092 H   0  0  0  0  0
   87.7293   86.1405  -46.2364 H   0  0  0  0  0
   87.7478   87.8361  -47.9367 H   0  0  0  0  0
   86.7160   86.7994  -48.9992 H   0  0  0  0  0
   88.4979   85.1246  -49.0550 H   0  0  0  0  0
   89.5245   86.1949  -48.0434 H   0  0  0  0  0
   89.5250   87.8830  -49.7560 H   0  0  0  0  0
   88.3968   86.8829  -50.7660 H   0  0  0  0  0
   90.6608   86.7326  -51.5158 H   0  0  0  0  0
   91.1586   86.1777  -50.0255 H   0  0  0  0  0
   90.1226   85.2593  -50.9530 H   0  0  0  0  0
   84.7025   84.3783  -46.4530 H   0  0  0  0  0
   83.3552   84.3019  -43.9831 H   0  0  0  0  0
   83.3429   81.9142  -44.1907 H   0  0  0  0  0
   84.6983   82.0195  -45.4363 H   0  0  0  0  0
   83.3421   80.6322  -46.9656 H   0  0  0  0  0
   81.9462   84.4206  -45.5364 H   0  0  0  0  0
   81.6772   80.7012  -48.7847 H   0  0  0  0  0
   80.2816   84.4898  -47.3659 H   0  0  0  0  0
   79.4391   83.4426  -49.1316 H   0  0  0  0  0
   83.9363   84.0728  -41.9139 H   0  0  0  0  0
   86.7090   84.3711  -41.2501 H   0  0  0  0  0
   84.9012   85.3458  -39.9130 H   0  0  0  0  0
   85.8985   84.2037  -38.8979 H   0  0  0  0  0
   82.3557   84.7910  -40.1990 H   0  0  0  0  0
   85.8779   81.7669  -38.0301 H   0  0  0  0  0
   81.0064   80.6748  -37.6284 H   0  0  0  0  0
   85.1177   79.7698  -36.7894 H   0  0  0  0  0
   82.7186   79.2313  -36.5987 H   0  0  0  0  0
   85.0510   81.5932  -42.0786 H   0  0  0  0  0
   86.6788   79.9613  -40.2047 H   0  0  0  0  0
   84.2150   79.7110  -40.0530 H   0  0  0  0  0
   85.0346   78.1653  -40.5909 H   0  0  0  0  0
   84.4917   77.2934  -43.0343 H   0  0  0  0  0
   82.7533   81.6063  -40.8796 H   0  0  0  0  0
   80.6809   79.8652  -45.0970 H   0  0  0  0  0
   80.8742   82.8012  -41.9702 H   0  0  0  0  0
   79.8589   81.9384  -44.0460 H   0  0  0  0  0
   87.4747   81.0648  -42.9356 H   0  0  0  0  0
   87.9773   78.4314  -44.2215 H   0  0  0  0  0
   88.6347   79.8108  -46.2297 H   0  0  0  0  0
   87.9709   81.2454  -45.3058 H   0  0  0  0  0
   85.8808   80.7117  -45.7917 H   0  0  0  0  0
   86.1694   78.9531  -45.5186 H   0  0  0  0  0
   85.9957   78.6965  -47.7163 H   0  0  0  0  0
   87.5658   79.5876  -47.8513 H   0  0  0  0  0
   84.8191   80.8379  -47.8749 H   0  0  0  0  0
   85.8447   80.4884  -49.3360 H   0  0  0  0  0
   85.9856   82.7719  -48.6510 H   0  0  0  0  0
   86.5148   82.3253  -47.1354 H   0  0  0  0  0
   87.4544   82.0051  -48.4739 H   0  0  0  0  0
   89.6419   81.2877  -42.9744 H   0  0  0  0  0
   92.2294   80.0748  -43.7009 H   0  0  0  0  0
   92.0537   82.4571  -44.0155 H   0  0  0  0  0
   93.1896   82.1417  -42.6360 H   0  0  0  0  0
   91.4949   84.4004  -40.6103 H   0  0  0  0  0
   93.0173   83.7254  -41.2001 H   0  0  0  0  0
   90.5286   80.6950  -40.8780 H   0  0  0  0  0
  1  2  1  0  0  0
  2  3  1  0  0  0
  2  5  1  0  0  0
  3  4  2  0  0  0
  3 10  1  0  0  0
  5  6  1  0  0  0
  6  7  1  0  0  0
  7  8  1  0  0  0
  8  9  1  0  0  0
 10 11  1  0  0  0
 11 12  1  0  0  0
 11 14  1  0  0  0
 12 13  2  0  0  0
 12 22  1  0  0  0
 14 15  1  0  0  0
 15 16  4  0  0  0
 15 17  4  0  0  0
 16 18  4  0  0  0
 17 19  4  0  0  0
 18 20  4  0  0  0
 19 20  4  0  0  0
 20 21  1  0  0  0
 22 23  1  0  0  0
 23 24  1  0  0  0
 23 26  1  0  0  0
 24 25  2  0  0  0
 24 36  1  0  0  0
 26 27  1  0  0  0
 27 28  4  0  0  0
 27 29  4  0  0  0
 28 30  4  0  0  0
 29 31  4  0  0  0
 29 32  4  0  0  0
 30 31  4  0  0  0
 31 33  4  0  0  0
 32 34  4  0  0  0
 33 35  4  0  0  0
 34 35  4  0  0  0
 36 37  1  0  0  0
 37 38  1  0  0  0
 37 40  1  0  0  0
 38 39  2  0  0  0
 38 50  1  0  0  0
 40 41  1  0  0  0
 41 42  4  0  0  0
 41 43  4  0  0  0
 42 44  4  0  0  0
 43 45  4  0  0  0
 43 46  4  0  0  0
 44 45  4  0  0  0
 45 47  4  0  0  0
 46 48  4  0  0  0
 47 49  4  0  0  0
 48 49  4  0  0  0
 50 51  1  0  0  0
 51 52  1  0  0  0
 51 54  1  0  0  0
 52 53  2  0  0  0
 52 59  1  0  0  0
 54 55  1  0  0  0
 55 56  1  0  0  0
 56 57  1  0  0  0
 57 58  1  0  0  0
 59 60  1  0  0  0
 60 61  1  0  0  0
 60 63  1  0  0  0
 61 62  2  0  0  0
 61 67  1  0  0  0
 63 64  1  0  0  0
 64 65  2  0  0  0
 64 66  1  0  0  0
  1 68  1  0  0  0
  1 69  1  0  0  0
  1 70  1  0  0  0
  2 71  1  0  0  0
  5 72  1  0  0  0
  5 73  1  0  0  0
  6 74  1  0  0  0
  6 75  1  0  0  0
  7 76  1  0  0  0
  7 77  1  0  0  0
  8 78  1  0  0  0
  8 79  1  0  0  0
  9 80  1  0  0  0
  9 81  1  0  0  0
  9 82  1  0  0  0
 10 83  1  0  0  0
 11 84  1  0  0  0
 14 85  1  0  0  0
 14 86  1  0  0  0
 16 87  1  0  0  0
 17 88  1  0  0  0
 18 89  1  0  0  0
 19 90  1  0  0  0
 21 91  1  0  0  0
 22 92  1  0  0  0
 23 93  1  0  0  0
 26 94  1  0  0  0
 26 95  1  0  0  0
 28 96  1  0  0  0
 32 97  1  0  0  0
 33 98  1  0  0  0
 34 99  1  0  0  0
 35100  1  0  0  0
 36101  1  0  0  0
 37102  1  0  0  0
 40103  1  0  0  0
 40104  1  0  0  0
 42105  1  0  0  0
 46106  1  0  0  0
 47107  1  0  0  0
 48108  1  0  0  0
 49109  1  0  0  0
 50110  1  0  0  0
 51111  1  0  0  0
 54112  1  0  0  0
 54113  1  0  0  0
 55114  1  0  0  0
 55115  1  0  0  0
 56116  1  0  0  0
 56117  1  0  0  0
 57118  1  0  0  0
 57119  1  0  0  0
 58120  1  0  0  0
 58121  1  0  0  0
 58122  1  0  0  0
 59123  1  0  0  0
 60124  1  0  0  0
 63125  1  0  0  0
 63126  1  0  0  0
 66127  1  0  0  0
 66128  1  0  0  0
 67129  1  0  0  0
M  END
$$$$
