3eks_ligand
  -I-interpret- 

 74 77  0  0  0  0  0  0  0  0999 V2000
  159.7530  -16.4910   31.3260 C   0  0  0  0  0
  157.0340  -14.9310   29.8150 C   0  0  0  0  0
  157.5720  -16.2730   30.3190 C   0  0  0  0  0
  158.6160  -16.8420   29.3530 C   0  0  0  0  0
  160.6910  -16.3750   32.1150 O   0  0  0  0  0
  158.1750  -13.9180   29.8910 C   0  0  0  0  0
  157.1910  -18.0370   26.6500 C   0  0  0  0  0
  156.1200  -18.1900   25.7780 C   0  0  0  0  0
  154.9140  -18.7000   26.2460 C   0  0  0  0  0
  154.7780  -19.0550   27.5830 C   0  0  0  0  0
  155.8490  -18.9020   28.4560 C   0  0  0  0  0
  157.0570  -18.3950   27.9880 C   0  0  0  0  0
  158.2550  -18.2670   28.9290 C   0  0  0  0  0
  159.9060  -16.8640   30.0590 N   0  0  0  0  0
  158.3000  -16.1490   31.6630 C   0  0  0  0  0
  156.5080  -15.0410   28.3820 C   0  0  0  0  0
  158.6530  -13.2530   28.7680 C   0  0  0  0  0
  158.8180  -13.7030   31.2600 C   0  0  0  0  0
  158.5050  -12.3810   31.7060 O   0  0  0  0  0
  158.2280  -14.7270   32.2330 C   0  0  0  0  0
  158.9940  -14.5870   33.5520 C   0  0  0  0  0
  158.3960  -13.9600   34.6390 C   0  0  0  0  0
  159.0790  -13.8060   35.8420 C   0  0  0  0  0
  158.8530  -14.9530   36.8280 C   0  0  0  0  0
  159.2980  -14.5540   38.2370 C   0  0  0  0  0
  159.6250  -16.2010   36.3920 C   0  0  0  0  0
  160.8520  -16.1800   36.3050 O   0  0  0  0  0
  158.8540  -17.4850   36.0850 C   0  0  0  0  0
  159.7870  -18.5200   35.7610 O   0  0  0  0  0
  158.0240  -17.8740   37.3100 C   0  0  0  0  0
  158.0210  -17.2360   35.0000 C   0  0  0  0  0
  158.4930  -17.4350   33.7080 C   0  0  0  0  0
  157.6790  -17.1820   32.6090 C   0  0  0  0  0
  156.3950  -16.7120   33.0430 O   0  0  0  0  0
  155.4260  -17.6380   32.8130 C   0  0  0  0  0
  154.1030  -17.3380   33.1180 C   0  0  0  0  0
  155.7080  -18.7260   32.3130 O   0  0  0  0  0
  156.1952  -14.6139   30.4346 H   0  0  0  0  0
  156.6938  -16.9123   30.4099 H   0  0  0  0  0
  158.6594  -16.2236   28.4565 H   0  0  0  0  0
  158.1369  -17.6362   26.2856 H   0  0  0  0  0
  156.2250  -17.9109   24.7296 H   0  0  0  0  0
  154.0734  -18.8217   25.5629 H   0  0  0  0  0
  153.8311  -19.4536   27.9471 H   0  0  0  0  0
  155.7425  -19.1787   29.5049 H   0  0  0  0  0
  157.9902  -18.8026   29.8406 H   0  0  0  0  0
  159.1168  -18.6553   28.3862 H   0  0  0  0  0
  160.7952  -17.1288   29.6352 H   0  0  0  0  0
  156.1404  -14.0682   28.0556 H   0  0  0  0  0
  157.3143  -15.3655   27.7243 H   0  0  0  0  0
  155.6960  -15.7674   28.3492 H   0  0  0  0  0
  159.4964  -12.5684   28.8579 H   0  0  0  0  0
  158.1844  -13.4161   27.7975 H   0  0  0  0  0
  159.8999  -13.8242   31.2058 H   0  0  0  0  0
  158.8764  -11.7416   31.0937 H   0  0  0  0  0
  157.1676  -14.5372   32.3992 H   0  0  0  0  0
  160.0075  -14.9788   33.6382 H   0  0  0  0  0
  157.3772  -13.5834   34.5479 H   0  0  0  0  0
  158.7100  -12.8944   36.3121 H   0  0  0  0  0
  160.1440  -13.7795   35.6112 H   0  0  0  0  0
  157.7857  -15.1743   36.8381 H   0  0  0  0  0
  160.3590  -14.3044   38.2245 H   0  0  0  0  0
  158.7236  -13.6882   38.5665 H   0  0  0  0  0
  159.1272  -15.3862   38.9199 H   0  0  0  0  0
  159.3099  -19.3301   35.5669 H   0  0  0  0  0
  158.6871  -18.0374   38.1596 H   0  0  0  0  0
  157.3241  -17.0715   37.5428 H   0  0  0  0  0
  157.4716  -18.7893   37.0973 H   0  0  0  0  0
  157.0015  -16.8860   35.1621 H   0  0  0  0  0
  159.5111  -17.7929   33.5545 H   0  0  0  0  0
  157.5697  -18.1203   32.0651 H   0  0  0  0  0
  153.5043  -17.3750   32.2079 H   0  0  0  0  0
  153.7226  -18.0660   33.8346 H   0  0  0  0  0
  154.0486  -16.3386   33.5498 H   0  0  0  0  0
  1  5  2  0  0  0
 14  1  1  0  0  0
  1 15  1  0  0  0
  3  2  1  0  0  0
  2  6  1  0  0  0
  2 16  1  0  0  0
  4  3  1  0  0  0
  3 15  1  0  0  0
 13  4  1  0  0  0
  4 14  1  0  0  0
  6 17  2  0  0  0
  6 18  1  0  0  0
  7  8  4  0  0  0
 12  7  4  0  0  0
  8  9  4  0  0  0
 10  9  4  0  0  0
 11 10  4  0  0  0
 12 11  4  0  0  0
 12 13  1  0  0  0
 15 20  1  0  0  0
 15 33  1  0  0  0
 18 19  1  0  0  0
 18 20  1  0  0  0
 20 21  1  0  0  0
 21 22  2  0  0  0
 22 23  1  0  0  0
 23 24  1  0  0  0
 24 25  1  0  0  0
 24 26  1  0  0  0
 26 27  2  0  0  0
 26 28  1  0  0  0
 28 29  1  0  0  0
 28 30  1  0  0  0
 28 31  1  0  0  0
 31 32  2  0  0  0
 32 33  1  0  0  0
 33 34  1  0  0  0
 34 35  1  0  0  0
 35 36  1  0  0  0
 35 37  2  0  0  0
  2 38  1  0  0  0
  3 39  1  0  0  0
  4 40  1  0  0  0
  7 41  1  0  0  0
  8 42  1  0  0  0
  9 43  1  0  0  0
 10 44  1  0  0  0
 11 45  1  0  0  0
 13 46  1  0  0  0
 13 47  1  0  0  0
 14 48  1  0  0  0
 16 49  1  0  0  0
 16 50  1  0  0  0
 16 51  1  0  0  0
 17 52  1  0  0  0
 17 53  1  0  0  0
 18 54  1  0  0  0
 19 55  1  0  0  0
 20 56  1  0  0  0
 21 57  1  0  0  0
 22 58  1  0  0  0
 23 59  1  0  0  0
 23 60  1  0  0  0
 24 61  1  0  0  0
 25 62  1  0  0  0
 25 63  1  0  0  0
 25 64  1  0  0  0
 29 65  1  0  0  0
 30 66  1  0  0  0
 30 67  1  0  0  0
 30 68  1  0  0  0
 31 69  1  0  0  0
 32 70  1  0  0  0
 33 71  1  0  0  0
 36 72  1  0  0  0
 36 73  1  0  0  0
 36 74  1  0  0  0
M  END
$$$$
