4l7n_ligand
  -I-interpret- 

 48 50  0  0  0  0  0  0  0  0999 V2000
   24.3520   -2.3810   12.6390 C   0  0  0  0  0
   24.9550   -1.4520   11.7860 C   0  0  0  0  0
   24.8540   -0.0840   12.0850 C   0  0  0  0  0
   25.6960    1.1480   11.0320 S   0  0  0  0  0
   26.9310    0.4030   10.5120 O   0  0  0  0  0
   24.7990    1.6600    9.9060 O   0  0  0  0  0
   26.1820    2.3810   12.0160 N   0  0  0  0  0
   24.1880    0.3370   13.2320 C   0  0  0  0  0
   23.5510   -0.6030   14.0510 C   0  0  0  0  0
   23.6310   -1.9700   13.7650 C   0  0  0  0  0
   23.0300   -2.9330   14.6240 C   0  0  0  0  0
   24.0980   -3.8010   15.2750 C   0  0  0  0  0
   22.2200   -3.9200   13.9050 N   0  0  0  0  0
   20.9290   -3.8140   13.8250 C   0  0  0  0  0
   20.2950   -2.8580   14.2800 O   0  0  0  0  0
   20.3030   -4.9800   13.0790 C   0  0  0  0  0
   18.8360   -4.6960   13.1170 C   0  0  0  0  0
   18.0510   -5.6520   12.4220 C   0  0  0  0  0
   18.4530   -6.8890   12.0780 N   0  0  0  0  0
   17.5940   -7.7260   11.3810 C   0  0  0  0  0
   18.0060   -9.0470   11.0910 C   0  0  0  0  0
   17.1700   -9.9000   10.4090 C   0  0  0  0  0
   15.9030   -9.4880   10.0510 C   0  0  0  0  0
   15.4670   -8.1680   10.3920 C   0  0  0  0  0
   16.3310   -7.3120   11.0400 C   0  0  0  0  0
   15.8930   -6.0230   11.3910 C   0  0  0  0  0
   14.7290   -5.6210   11.1790 O   0  0  0  0  0
   16.7780   -5.2220   12.0810 N   0  0  0  0  0
   24.4454   -3.4452   12.4227 H   0  0  0  0  0
   25.4964   -1.7853   10.9006 H   0  0  0  0  0
   27.1757    2.5367   12.1857 H   0  0  0  0  0
   25.4886    2.9872   12.4543 H   0  0  0  0  0
   24.1623    1.3952   13.4920 H   0  0  0  0  0
   22.9868   -0.2661   14.9206 H   0  0  0  0  0
   22.4345   -2.3413   15.3192 H   0  0  0  0  0
   24.6651   -4.3186   14.5013 H   0  0  0  0  0
   24.7691   -3.1718   15.8597 H   0  0  0  0  0
   23.6217   -4.5319   15.9285 H   0  0  0  0  0
   22.6826   -4.7104   13.4560 H   0  0  0  0  0
   20.5478   -5.9390   13.5357 H   0  0  0  0  0
   20.6788   -5.0647   12.0594 H   0  0  0  0  0
   18.6784   -3.7319   12.6336 H   0  0  0  0  0
   18.5269   -4.7186   14.1620 H   0  0  0  0  0
   18.9902   -9.3908   11.4092 H   0  0  0  0  0
   17.5091  -10.9032   10.1509 H   0  0  0  0  0
   15.2384  -10.1632    9.5120 H   0  0  0  0  0
   14.4578   -7.8418   10.1407 H   0  0  0  0  0
   16.4865   -4.2821   12.3494 H   0  0  0  0  0
  1  2  4  0  0  0
  1 10  4  0  0  0
  2  3  4  0  0  0
  3  4  1  0  0  0
  3  8  4  0  0  0
  4  5  2  0  0  0
  4  6  2  0  0  0
  4  7  1  0  0  0
  8  9  4  0  0  0
  9 10  4  0  0  0
 10 11  1  0  0  0
 11 12  1  0  0  0
 11 13  1  0  0  0
 13 14  1  0  0  0
 14 15  2  0  0  0
 14 16  1  0  0  0
 16 17  1  0  0  0
 17 18  1  0  0  0
 18 19  2  0  0  0
 18 28  1  0  0  0
 19 20  1  0  0  0
 20 21  4  0  0  0
 20 25  4  0  0  0
 21 22  4  0  0  0
 22 23  4  0  0  0
 23 24  4  0  0  0
 24 25  4  0  0  0
 25 26  1  0  0  0
 26 27  2  0  0  0
 26 28  1  0  0  0
  1 29  1  0  0  0
  2 30  1  0  0  0
  7 31  1  0  0  0
  7 32  1  0  0  0
  8 33  1  0  0  0
  9 34  1  0  0  0
 11 35  1  0  0  0
 12 36  1  0  0  0
 12 37  1  0  0  0
 12 38  1  0  0  0
 13 39  1  0  0  0
 16 40  1  0  0  0
 16 41  1  0  0  0
 17 42  1  0  0  0
 17 43  1  0  0  0
 21 44  1  0  0  0
 22 45  1  0  0  0
 23 46  1  0  0  0
 24 47  1  0  0  0
 28 48  1  0  0  0
M  END
$$$$
