5ewd_ligand
  -I-interpret- 

 21 22  0  0  0  0  0  0  0  0999 V2000
    8.8630  -10.1590    6.4510 C   0  0  0  0  0
    8.9170   -9.3250    7.5640 C   0  0  0  0  0
    8.0520   -8.2400    7.6610 C   0  0  0  0  0
    7.1320   -7.9900    6.6490 C   0  0  0  0  0
    7.0770   -8.8270    5.5390 C   0  0  0  0  0
    7.9410   -9.9140    5.4380 C   0  0  0  0  0
    7.8860  -10.7480    4.3220 C   0  0  0  0  0
    9.0530  -11.3280    3.8350 C   0  0  0  0  0
    9.0130  -12.1500    2.7200 C   0  0  0  0  0
    7.7920  -12.4100    2.0800 N   0  0  0  0  0
    6.6190  -11.8240    2.5700 C   0  0  0  0  0
    6.6720  -10.9940    3.6860 C   0  0  0  0  0
    9.5445  -11.0060    6.3727 H   0  0  0  0  0
    9.6364   -9.5219    8.3588 H   0  0  0  0  0
    8.0955   -7.5851    8.5313 H   0  0  0  0  0
    6.4547   -7.1394    6.7251 H   0  0  0  0  0
    6.3553   -8.6311    4.7460 H   0  0  0  0  0
   10.0033  -11.1350    4.3328 H   0  0  0  0  0
    9.9322  -12.5955    2.3395 H   0  0  0  0  0
    5.6656  -12.0174    2.0783 H   0  0  0  0  0
    5.7588  -10.5343    4.0639 H   0  0  0  0  0
  1  2  4  0  0  0
  1  6  4  0  0  0
  2  3  4  0  0  0
  3  4  4  0  0  0
  4  5  4  0  0  0
  5  6  4  0  0  0
  6  7  1  0  0  0
  7  8  4  0  0  0
  7 12  4  0  0  0
  8  9  4  0  0  0
  9 10  4  0  0  0
 10 11  4  0  0  0
 11 12  4  0  0  0
  1 13  1  0  0  0
  2 14  1  0  0  0
  3 15  1  0  0  0
  4 16  1  0  0  0
  5 17  1  0  0  0
  8 18  1  0  0  0
  9 19  1  0  0  0
 11 20  1  0  0  0
 12 21  1  0  0  0
M  END
$$$$
