5enj_ligand
  -I-interpret- 

 25 25  0  0  0  0  0  0  0  0999 V2000
  -27.3530    2.8060   -7.1700 C   0  0  0  0  0
  -26.9610    1.5370   -6.7170 C   0  0  0  0  0
  -27.6860    0.8140   -5.7790 C   0  0  0  0  0
  -28.8390    1.3580   -5.2500 C   0  0  0  0  0
  -29.2600    2.6150   -5.6400 C   0  0  0  0  0
  -24.0120    2.8290   -9.2430 O   0  0  0  0  0
  -24.0630    3.6310   -8.3210 C   0  0  0  0  0
  -22.8040    4.2050   -7.7380 C   0  0  0  0  0
  -25.2570    3.9720   -7.7290 N   0  0  0  0  0
  -25.3510    4.7880   -6.5240 C   0  0  0  0  0
  -26.5840    3.5430   -8.2430 C   0  0  0  0  0
  -28.5140    3.3270   -6.5700 C   0  0  0  0  0
  -29.0320    4.9360   -6.9390 Cl  0  0  0  0  0
  -25.4920    0.8560   -7.3350 Cl  0  0  0  0  0
  -27.3480   -0.1731   -5.4636 H   0  0  0  0  0
  -29.4203    0.7933   -4.5211 H   0  0  0  0  0
  -30.1702    3.0442   -5.2211 H   0  0  0  0  0
  -22.1863    3.3977   -7.3446 H   0  0  0  0  0
  -22.2557    4.7383   -8.5146 H   0  0  0  0  0
  -23.0592    4.8943   -6.9331 H   0  0  0  0  0
  -24.8235    4.2924   -5.7090 H   0  0  0  0  0
  -24.9002    5.7627   -6.7107 H   0  0  0  0  0
  -26.3994    4.9167   -6.2548 H   0  0  0  0  0
  -27.1502    4.4249   -8.5427 H   0  0  0  0  0
  -26.4366    2.8778   -9.0938 H   0  0  0  0  0
  1  2  4  0  0  0
 11  1  1  0  0  0
  1 12  4  0  0  0
  2  3  4  0  0  0
  2 14  1  0  0  0
  3  4  4  0  0  0
  5  4  4  0  0  0
 12  5  4  0  0  0
  7  6  2  0  0  0
  7  8  1  0  0  0
  9  7  1  0  0  0
  9 10  1  0  0  0
  9 11  1  0  0  0
 12 13  1  0  0  0
  3 15  1  0  0  0
  4 16  1  0  0  0
  5 17  1  0  0  0
  8 18  1  0  0  0
  8 19  1  0  0  0
  8 20  1  0  0  0
 10 21  1  0  0  0
 10 22  1  0  0  0
 10 23  1  0  0  0
 11 24  1  0  0  0
 11 25  1  0  0  0
M  END
$$$$
