5klt_ligand
  -I-interpret- 

147148  0  0  0  0  0  0  0  0999 V2000
    2.0070   31.4010  100.7370 N   0  3  0  0  0
    2.4740   32.6050  100.0590 C   0  0  0  0  0
    1.3560   33.2060   99.2050 C   0  0  0  0  0
    0.4820   32.4820   98.7290 O   0  0  0  0  0
    3.6970   32.2920   99.1930 C   0  0  0  0  0
    3.4530   31.2370   98.1520 C   0  0  0  0  0
    3.5180   29.8920   98.4820 C   0  0  0  0  0
    3.1650   31.5890   96.8430 C   0  0  0  0  0
    3.2950   28.9180   97.5250 C   0  0  0  0  0
    2.9420   30.6210   95.8820 C   0  0  0  0  0
    3.0070   29.2830   96.2230 C   0  0  0  0  0
    1.3850   34.5250   99.0060 N   0  0  0  0  0
    0.2830   35.1830   98.2940 C   0  0  0  0  0
    0.1300   34.6680   96.8700 C   0  0  0  0  0
    1.1040   34.3190   96.1980 O   0  0  0  0  0
    0.6780   36.6660   98.3150 C   0  0  0  0  0
    2.1480   36.6730   98.5520 C   0  0  0  0  0
    2.4280   35.4830   99.4110 C   0  0  0  0  0
   -1.1210   34.6310   96.4130 N   0  0  0  0  0
   -1.4490   34.1190   95.0910 C   0  0  0  0  0
   -1.5380   35.2040   94.0270 C   0  0  0  0  0
   -1.6210   34.8730   92.8400 O   0  0  0  0  0
   -2.7770   33.3600   95.1400 C   0  0  0  0  0
   -1.5260   36.4760   94.4100 N   0  0  0  0  0
   -1.6400   37.5730   93.4610 C   0  0  0  0  0
   -0.2760   38.2130   93.2250 C   0  0  0  0  0
    0.5920   38.2110   94.1010 O   0  0  0  0  0
   -2.6370   38.6210   93.9640 C   0  0  0  0  0
   -4.0030   38.0440   94.3120 C   0  0  0  0  0
   -4.9710   39.1090   94.7940 C   0  0  0  0  0
   -6.3180   38.4980   95.1580 C   0  0  0  0  0
   -7.2930   39.5110   95.6490 N   0  3  0  0  0
   -0.0930   38.7520   92.0200 N   0  0  0  0  0
    1.1510   39.3960   91.6200 C   0  0  0  0  0
    0.8480   40.7780   91.0680 C   0  0  0  0  0
    0.0280   40.9180   90.1550 O   0  0  0  0  0
    1.8970   38.5850   90.5550 C   0  0  0  0  0
    2.4700   37.2650   91.0210 C   0  0  0  0  0
    3.1770   36.5740   89.8620 C   0  0  0  0  0
    3.7830   35.2420   90.2710 C   0  0  0  0  0
    4.4380   34.5630   89.1170 N   0  3  0  0  0
    1.5160   41.7900   91.6120 N   0  0  0  0  0
    1.4520   43.1410   91.0750 C   0  0  0  0  0
    2.5790   43.3110   90.0640 C   0  0  0  0  0
    3.7350   42.9920   90.3600 O   0  0  0  0  0
    1.5690   44.1710   92.2020 C   0  0  0  0  0
    1.6170   45.6310   91.7560 C   0  0  0  0  0
    1.5420   46.7730   93.1620 S   0  0  0  0  0
    2.9340   47.8640   92.8520 C   0  0  0  0  0
    2.2420   43.7880   88.8680 N   0  0  0  0  0
    3.2440   44.0010   87.8290 C   0  0  0  0  0
    3.9120   45.3510   88.0620 C   0  0  0  0  0
    3.2920   46.4010   87.8720 O   0  0  0  0  0
    2.6190   43.9340   86.4390 C   0  0  0  0  0
    3.6520   44.0110   85.3240 C   0  0  0  0  0
    3.0300   43.9120   83.9450 C   0  0  0  0  0
    4.0960   44.0310   82.8680 C   0  0  0  0  0
    3.5190   44.0210   81.4970 N   0  3  0  0  0
    5.1770   45.3200   88.4680 N   0  0  0  0  0
    5.9350   46.5280   88.7560 C   0  0  0  0  0
    6.7130   46.9560   87.5170 C   0  0  0  0  0
    7.0790   48.1230   87.3760 O   0  0  0  0  0
    6.8780   46.3070   89.9500 C   0  0  0  0  0
    7.6660   47.5730   90.2640 C   0  0  0  0  0
    6.0840   45.8530   91.1710 C   0  0  0  0  0
    6.9890   46.1420   86.6350 O   0  0  0  0  0
    1.1931   31.6280  101.3084 H   0  0  0  0  0
    1.7514   30.6988  100.0428 H   0  0  0  0  0
    2.7511   31.0372  101.3323 H   0  0  0  0  0
    2.7630   33.3354  100.8146 H   0  0  0  0  0
    4.4765   31.9179   99.8567 H   0  0  0  0  0
    3.9653   33.2089   98.6681 H   0  0  0  0  0
    3.7473   29.5987   99.5065 H   0  0  0  0  0
    3.1137   32.6424   96.5678 H   0  0  0  0  0
    3.3463   27.8638   97.7973 H   0  0  0  0  0
    2.7151   30.9123   94.8564 H   0  0  0  0  0
    2.8316   28.5175   95.4671 H   0  0  0  0  0
   -0.6839   34.9917   98.7594 H   0  0  0  0  0
    0.1424   37.2146   99.0897 H   0  0  0  0  0
    0.4180   37.1654   97.3817 H   0  0  0  0  0
    2.4669   37.5957   99.0369 H   0  0  0  0  0
    2.7009   36.6236   97.6140 H   0  0  0  0  0
    3.4359   35.0916   99.2728 H   0  0  0  0  0
    2.3962   35.7151  100.4755 H   0  0  0  0  0
   -1.8741   34.9731   97.0099 H   0  0  0  0  0
   -0.6314   33.4556   94.8092 H   0  0  0  0  0
   -2.6923   32.5268   95.8377 H   0  0  0  0  0
   -3.5672   34.0339   95.4711 H   0  0  0  0  0
   -3.0141   32.9806   94.1460 H   0  0  0  0  0
   -1.4338   36.6909   95.4028 H   0  0  0  0  0
   -2.0080   37.1727   92.5163 H   0  0  0  0  0
   -2.7823   39.3455   93.1627 H   0  0  0  0  0
   -2.2237   39.0554   94.8743 H   0  0  0  0  0
   -3.8698   37.3191   95.1150 H   0  0  0  0  0
   -4.4186   37.5911   93.4118 H   0  0  0  0  0
   -5.1206   39.8336   93.9936 H   0  0  0  0  0
   -4.5527   39.5865   95.6801 H   0  0  0  0  0
   -6.1534   37.7759   95.9578 H   0  0  0  0  0
   -6.7328   38.0414   94.2594 H   0  0  0  0  0
   -8.1739   39.0504   95.8775 H   0  0  0  0  0
   -6.9191   39.9650   96.4824 H   0  0  0  0  0
   -7.4514   40.2089   94.9222 H   0  0  0  0  0
   -0.8587   38.7118   91.3473 H   0  0  0  0  0
    1.7883   39.4649   92.5016 H   0  0  0  0  0
    2.7429   39.1949   90.2378 H   0  0  0  0  0
    1.1688   38.3495   89.7789 H   0  0  0  0  0
    1.6626   36.6284   91.3828 H   0  0  0  0  0
    3.1844   37.4448   91.8243 H   0  0  0  0  0
    3.9837   37.2232   89.5214 H   0  0  0  0  0
    2.4415   36.3859   89.0799 H   0  0  0  0  0
    2.9851   34.5991   90.6426 H   0  0  0  0  0
    4.5366   35.4259   91.0367 H   0  0  0  0  0
    4.8329   33.6748   89.4261 H   0  0  0  0  0
    3.7464   34.3932   88.3867 H   0  0  0  0  0
    5.1814   35.1580   88.7512 H   0  0  0  0  0
    2.0934   41.6137   92.4342 H   0  0  0  0  0
    0.4929   43.3017   90.5828 H   0  0  0  0  0
    2.5126   43.9702   92.7093 H   0  0  0  0  0
    0.6744   44.0630   92.8153 H   0  0  0  0  0
    0.7550   45.8206   91.1164 H   0  0  0  0  0
    2.5583   45.7967   91.2320 H   0  0  0  0  0
    3.8539   47.2798   92.8297 H   0  0  0  0  0
    2.7960   48.3635   91.8931 H   0  0  0  0  0
    2.9941   48.6087   93.6457 H   0  0  0  0  0
    1.2652   44.0087   88.6742 H   0  0  0  0  0
    3.9921   43.2100   87.8815 H   0  0  0  0  0
    1.9487   44.7870   86.3328 H   0  0  0  0  0
    2.1029   42.9780   86.3506 H   0  0  0  0  0
    4.3377   43.1722   85.4436 H   0  0  0  0  0
    4.1533   44.9761   85.3973 H   0  0  0  0  0
    2.3117   44.7226   83.8223 H   0  0  0  0  0
    2.5366   42.9448   83.8485 H   0  0  0  0  0
    4.7649   43.1752   82.9590 H   0  0  0  0  0
    4.6143   44.9794   83.0093 H   0  0  0  0  0
    4.2707   44.1028   80.8124 H   0  0  0  0  0
    3.0153   43.1467   81.3478 H   0  0  0  0  0
    2.8767   44.8067   81.3940 H   0  0  0  0  0
    5.6338   44.4151   88.5820 H   0  0  0  0  0
    5.2420   47.3251   89.0252 H   0  0  0  0  0
    7.5900   45.5255   89.6847 H   0  0  0  0  0
    8.2608   47.8541   89.3949 H   0  0  0  0  0
    6.9740   48.3789   90.5084 H   0  0  0  0  0
    8.3248   47.3883   91.1125 H   0  0  0  0  0
    5.3511   46.6169   91.4308 H   0  0  0  0  0
    5.5714   44.9186   90.9426 H   0  0  0  0  0
    6.7642   45.7003   92.0089 H   0  0  0  0  0
    6.6436   45.2797   86.8775 H   0  0  0  0  0
  1  2  1  0  0  0
  2  3  1  0  0  0
  2  5  1  0  0  0
  3  4  2  0  0  0
  3 12  1  0  0  0
  5  6  1  0  0  0
  6  7  4  0  0  0
  6  8  4  0  0  0
  7  9  4  0  0  0
  8 10  4  0  0  0
  9 11  4  0  0  0
 10 11  4  0  0  0
 12 13  1  0  0  0
 12 18  1  0  0  0
 13 14  1  0  0  0
 13 16  1  0  0  0
 14 15  2  0  0  0
 14 19  1  0  0  0
 16 17  1  0  0  0
 17 18  1  0  0  0
 19 20  1  0  0  0
 20 21  1  0  0  0
 20 23  1  0  0  0
 21 22  2  0  0  0
 21 24  1  0  0  0
 24 25  1  0  0  0
 25 26  1  0  0  0
 25 28  1  0  0  0
 26 27  2  0  0  0
 26 33  1  0  0  0
 28 29  1  0  0  0
 29 30  1  0  0  0
 30 31  1  0  0  0
 31 32  1  0  0  0
 33 34  1  0  0  0
 34 35  1  0  0  0
 34 37  1  0  0  0
 35 36  2  0  0  0
 35 42  1  0  0  0
 37 38  1  0  0  0
 38 39  1  0  0  0
 39 40  1  0  0  0
 40 41  1  0  0  0
 42 43  1  0  0  0
 43 44  1  0  0  0
 43 46  1  0  0  0
 44 45  2  0  0  0
 44 50  1  0  0  0
 46 47  1  0  0  0
 47 48  1  0  0  0
 48 49  1  0  0  0
 50 51  1  0  0  0
 51 52  1  0  0  0
 51 54  1  0  0  0
 52 53  2  0  0  0
 52 59  1  0  0  0
 54 55  1  0  0  0
 55 56  1  0  0  0
 56 57  1  0  0  0
 57 58  1  0  0  0
 59 60  1  0  0  0
 60 61  1  0  0  0
 60 63  1  0  0  0
 61 62  2  0  0  0
 61 66  1  0  0  0
 63 64  1  0  0  0
 63 65  1  0  0  0
  1 67  1  0  0  0
  1 68  1  0  0  0
  1 69  1  0  0  0
  2 70  1  0  0  0
  5 71  1  0  0  0
  5 72  1  0  0  0
  7 73  1  0  0  0
  8 74  1  0  0  0
  9 75  1  0  0  0
 10 76  1  0  0  0
 11 77  1  0  0  0
 13 78  1  0  0  0
 16 79  1  0  0  0
 16 80  1  0  0  0
 17 81  1  0  0  0
 17 82  1  0  0  0
 18 83  1  0  0  0
 18 84  1  0  0  0
 19 85  1  0  0  0
 20 86  1  0  0  0
 23 87  1  0  0  0
 23 88  1  0  0  0
 23 89  1  0  0  0
 24 90  1  0  0  0
 25 91  1  0  0  0
 28 92  1  0  0  0
 28 93  1  0  0  0
 29 94  1  0  0  0
 29 95  1  0  0  0
 30 96  1  0  0  0
 30 97  1  0  0  0
 31 98  1  0  0  0
 31 99  1  0  0  0
 32100  1  0  0  0
 32101  1  0  0  0
 32102  1  0  0  0
 33103  1  0  0  0
 34104  1  0  0  0
 37105  1  0  0  0
 37106  1  0  0  0
 38107  1  0  0  0
 38108  1  0  0  0
 39109  1  0  0  0
 39110  1  0  0  0
 40111  1  0  0  0
 40112  1  0  0  0
 41113  1  0  0  0
 41114  1  0  0  0
 41115  1  0  0  0
 42116  1  0  0  0
 43117  1  0  0  0
 46118  1  0  0  0
 46119  1  0  0  0
 47120  1  0  0  0
 47121  1  0  0  0
 49122  1  0  0  0
 49123  1  0  0  0
 49124  1  0  0  0
 50125  1  0  0  0
 51126  1  0  0  0
 54127  1  0  0  0
 54128  1  0  0  0
 55129  1  0  0  0
 55130  1  0  0  0
 56131  1  0  0  0
 56132  1  0  0  0
 57133  1  0  0  0
 57134  1  0  0  0
 58135  1  0  0  0
 58136  1  0  0  0
 58137  1  0  0  0
 59138  1  0  0  0
 60139  1  0  0  0
 63140  1  0  0  0
 64141  1  0  0  0
 64142  1  0  0  0
 64143  1  0  0  0
 65144  1  0  0  0
 65145  1  0  0  0
 65146  1  0  0  0
 66147  1  0  0  0
M  END
$$$$
