### 
### Created by X-TOOL on Wed Jan  1 15:39:34 2020
### 

@<TRIPOS>MOLECULE
5klt_ligand
  146   147     1     0     0
SMALL
GAST_HUCK


@<TRIPOS>ATOM
      1 N           2.0070   31.4010  100.7370 N.4       1 PHE         0.2394
      2 CA          2.4740   32.6050  100.0590 C.3       1 PHE         0.0746
      3 C           1.3560   33.2060   99.2050 C.2       1 PHE         0.2313
      4 O           0.4820   32.4820   98.7290 O.2       1 PHE        -0.3903
      5 CB          3.6970   32.2920   99.1930 C.3       1 PHE         0.0416
      6 CG          3.4530   31.2370   98.1520 C.ar      1 PHE        -0.0353
      7 CD1         3.5180   29.8920   98.4820 C.ar      1 PHE        -0.0600
      8 CD2         3.1650   31.5890   96.8430 C.ar      1 PHE        -0.0600
      9 CE1         3.2950   28.9180   97.5250 C.ar      1 PHE        -0.0686
     10 CE2         2.9420   30.6210   95.8820 C.ar      1 PHE        -0.0686
     11 CZ          3.0070   29.2830   96.2230 C.ar      1 PHE        -0.0687
     12 N           1.3850   34.5250   99.0060 N.am      1 PRO        -0.2470
     13 CA          0.2830   35.1830   98.2940 C.3       1 PRO         0.1339
     14 C           0.1300   34.6680   96.8700 C.2       1 PRO         0.2041
     15 O           1.1040   34.3190   96.1980 O.2       1 PRO        -0.3944
     16 CB          0.6780   36.6660   98.3150 C.3       1 PRO        -0.0104
     17 CG          2.1480   36.6730   98.5520 C.3       1 PRO        -0.0281
     18 CD          2.4280   35.4830   99.4110 C.3       1 PRO         0.0371
     19 N          -1.1210   34.6310   96.4130 N.am      1 ALA        -0.2640
     20 CA         -1.4490   34.1190   95.0910 C.3       1 ALA         0.1282
     21 C          -1.5380   35.2040   94.0270 C.2       1 ALA         0.2036
     22 O          -1.6210   34.8730   92.8400 O.2       1 ALA        -0.3944
     23 CB         -2.7770   33.3600   95.1400 C.3       1 ALA        -0.0244
     24 N          -1.5260   36.4760   94.4100 N.am      1 LYS        -0.2637
     25 CA         -1.6400   37.5730   93.4610 C.3       1 LYS         0.1310
     26 C          -0.2760   38.2130   93.2250 C.2       1 LYS         0.2039
     27 O           0.5920   38.2110   94.1010 O.2       1 LYS        -0.3944
     28 CB         -2.6370   38.6210   93.9640 C.3       1 LYS        -0.0122
     29 CG         -4.0030   38.0440   94.3120 C.3       1 LYS        -0.0440
     30 CD         -4.9710   39.1090   94.7940 C.3       1 LYS        -0.0124
     31 CE         -6.3180   38.4980   95.1580 C.3       1 LYS        -0.0354
     32 NZ         -7.2930   39.5110   95.6490 N.4       1 LYS         0.2185
     33 N          -0.0930   38.7520   92.0200 N.am      1 LYS        -0.2637
     34 CA          1.1510   39.3960   91.6200 C.3       1 LYS         0.1310
     35 C           0.8480   40.7780   91.0680 C.2       1 LYS         0.2039
     36 O           0.0280   40.9180   90.1550 O.2       1 LYS        -0.3944
     37 CB          1.8970   38.5850   90.5550 C.3       1 LYS        -0.0122
     38 CG          2.4700   37.2650   91.0210 C.3       1 LYS        -0.0440
     39 CD          3.1770   36.5740   89.8620 C.3       1 LYS        -0.0124
     40 CE          3.7830   35.2420   90.2710 C.3       1 LYS        -0.0354
     41 NZ          4.4380   34.5630   89.1170 N.4       1 LYS         0.2185
     42 N           1.5160   41.7900   91.6120 N.am      1 MET        -0.2637
     43 CA          1.4520   43.1410   91.0750 C.3       1 MET         0.1317
     44 C           2.5790   43.3110   90.0640 C.2       1 MET         0.2039
     45 O           3.7350   42.9920   90.3600 O.2       1 MET        -0.3944
     46 CB          1.5690   44.1710   92.2020 C.3       1 MET        -0.0034
     47 CG          1.6170   45.6310   91.7560 C.3       1 MET        -0.0024
     48 SD          1.5420   46.7730   93.1620 S.3       1 MET        -0.1639
     49 CE          2.9340   47.8640   92.8520 C.3       1 MET        -0.0181
     50 N           2.2420   43.7880   88.8680 N.am      1 LYS        -0.2637
     51 CA          3.2440   44.0010   87.8290 C.3       1 LYS         0.1309
     52 C           3.9120   45.3510   88.0620 C.2       1 LYS         0.2033
     53 O           3.2920   46.4010   87.8720 O.2       1 LYS        -0.3944
     54 CB          2.6190   43.9340   86.4390 C.3       1 LYS        -0.0122
     55 CG          3.6520   44.0110   85.3240 C.3       1 LYS        -0.0440
     56 CD          3.0300   43.9120   83.9450 C.3       1 LYS        -0.0124
     57 CE          4.0960   44.0310   82.8680 C.3       1 LYS        -0.0354
     58 NZ          3.5190   44.0210   81.4970 N.4       1 LYS         0.2185
     59 N           5.1770   45.3200   88.4680 N.am      1 VAL        -0.2692
     60 CA          5.9350   46.5280   88.7560 C.3       1 VAL         0.0967
     61 C           6.7130   46.9560   87.5170 C.2       1 VAL         0.0603
     62 O           7.0790   48.1230   87.3760 O.co2     1 VAL        -0.5666
     63 CB          6.8780   46.3070   89.9500 C.3       1 VAL        -0.0118
     64 CG1         7.6660   47.5730   90.2640 C.3       1 VAL        -0.0590
     65 CG2         6.0840   45.8530   91.1710 C.3       1 VAL        -0.0590
     66 OXT         6.9890   46.1420   86.6350 O.co2     1 VAL        -0.5666
     67 H1          2.7544   31.0181  101.2945 H         1 PHE         0.2017
     68 H2          1.7164   30.7210  100.0521 H         1 PHE         0.2017
     69 H3          1.2276   31.6319  101.3330 H         1 PHE         0.2017
     70 H4          2.7659   33.3428  100.8208 H         1 PHE         0.1123
     71 H5          4.5083   31.9477   99.8512 H         1 PHE         0.0507
     72 H6          4.0059   33.2164   98.6831 H         1 PHE         0.0507
     73 H7          3.7460   29.6003   99.5008 H         1 PHE         0.0557
     74 H8          3.1140   32.6366   96.5693 H         1 PHE         0.0557
     75 H9          3.3461   27.8696   97.7958 H         1 PHE         0.0599
     76 H10         2.7164   30.9107   94.8621 H         1 PHE         0.0599
     77 H11         2.8326   28.5217   95.4713 H         1 PHE         0.0559
     78 H12        -0.6650   35.0291   98.8303 H         1 PRO         0.0802
     79 H13         0.1538   37.1938   99.1253 H         1 PRO         0.0313
     80 H14         0.4398   37.1427   97.3527 H         1 PRO         0.0313
     81 H15         2.4483   37.5969   99.0680 H         1 PRO         0.0287
     82 H16         2.6901   36.5928   97.5982 H         1 PRO         0.0287
     83 H17         3.4323   35.0805   99.2126 H         1 PRO         0.0524
     84 H18         2.3386   35.7364  100.4777 H         1 PRO         0.0524
     85 H19        -1.8593   34.9664   96.9982 H         1 ALA         0.1883
     86 H20        -0.6541   33.4185   94.7955 H         1 ALA         0.0797
     87 H21        -3.0174   32.9766   94.1374 H         1 ALA         0.0277
     88 H22        -3.5754   34.0390   95.4739 H         1 ALA         0.0277
     89 H23        -2.6928   32.5188   95.8438 H         1 ALA         0.0277
     90 H24        -1.4356   36.6866   95.3834 H         1 LYS         0.1883
     91 H25        -2.0084   37.1710   92.5057 H         1 LYS         0.0800
     92 H26        -2.7697   39.3800   93.1790 H         1 LYS         0.0312
     93 H27        -2.2195   39.0943   94.8649 H         1 LYS         0.0312
     94 H28        -3.8783   37.2934   95.1064 H         1 LYS         0.0269
     95 H29        -4.4229   37.5634   93.4161 H         1 LYS         0.0269
     96 H30        -5.1167   39.8508   93.9950 H         1 LYS         0.0317
     97 H31        -4.5490   39.6037   95.6812 H         1 LYS         0.0317
     98 H32        -6.1626   37.7474   95.9470 H         1 LYS         0.0813
     99 H33        -6.7364   38.0104   94.2652 H         1 LYS         0.0813
    100 H34        -8.1641   39.0569   95.8752 H         1 LYS         0.1994
    101 H35        -7.4504   40.2013   94.9315 H         1 LYS         0.1994
    102 H36        -6.9246   39.9604   96.4727 H         1 LYS         0.1994
    103 H37        -0.8437   38.7126   91.3605 H         1 LYS         0.1883
    104 H38         1.7966   39.4936   92.5052 H         1 LYS         0.0800
    105 H39         2.7278   39.2012   90.1807 H         1 LYS         0.0312
    106 H40         1.1950   38.3781   89.7338 H         1 LYS         0.0312
    107 H41         1.6562   36.6224   91.3881 H         1 LYS         0.0269
    108 H42         3.1898   37.4452   91.8331 H         1 LYS         0.0269
    109 H43         3.9797   37.2304   89.4947 H         1 LYS         0.0317
    110 H44         2.4487   36.3993   89.0564 H         1 LYS         0.0317
    111 H45         2.9867   34.5922   90.6631 H         1 LYS         0.0813
    112 H46         4.5335   35.4166   91.0560 H         1 LYS         0.0813
    113 H47         4.8286   33.6850   89.4213 H         1 LYS         0.1994
    114 H48         5.1729   35.1501   88.7547 H         1 LYS         0.1994
    115 H49         3.7555   34.3946   88.3946 H         1 LYS         0.1994
    116 H50         2.0821   41.6171   92.4180 H         1 MET         0.1883
    117 H51         0.4872   43.2828   90.5662 H         1 MET         0.0800
    118 H52         2.4913   43.9573   92.7621 H         1 MET         0.0320
    119 H53         0.7002   44.0477   92.8654 H         1 MET         0.0320
    120 H54         0.7621   45.8280   91.0924 H         1 MET         0.0378
    121 H55         2.5546   45.8042   91.2074 H         1 MET         0.0378
    122 H56         2.9957   48.6161   93.6524 H         1 MET         0.0340
    123 H57         2.7959   48.3688   91.8845 H         1 MET         0.0340
    124 H58         3.8631   47.2756   92.8293 H         1 MET         0.0340
    125 H59         1.2844   44.0044   88.6780 H         1 LYS         0.1883
    126 H60         4.0055   43.2108   87.9043 H         1 LYS         0.0800
    127 H61         1.9184   44.7746   86.3277 H         1 LYS         0.0312
    128 H62         2.0709   42.9849   86.3454 H         1 LYS         0.0312
    129 H63         4.3667   43.1841   85.4482 H         1 LYS         0.0269
    130 H64         4.1841   44.9705   85.4023 H         1 LYS         0.0269
    131 H65         2.2974   44.7229   83.8197 H         1 LYS         0.0317
    132 H66         2.5228   42.9410   83.8459 H         1 LYS         0.0317
    133 H67         4.7921   43.1848   82.9646 H         1 LYS         0.0813
    134 H68         4.6427   44.9742   83.0145 H         1 LYS         0.0813
    135 H69         4.2611   44.1018   80.8196 H         1 LYS         0.1994
    136 H70         2.8841   44.7971   81.3940 H         1 LYS         0.1994
    137 H71         3.0210   43.1573   81.3483 H         1 LYS         0.1994
    138 H72         5.6248   44.4329   88.5798 H         1 VAL         0.1875
    139 H73         5.2288   47.3296   89.0181 H         1 VAL         0.0729
    140 H74         7.5920   45.5133   89.6850 H         1 VAL         0.0336
    141 H75         8.3313   47.3878   91.1202 H         1 VAL         0.0234
    142 H76         6.9687   48.3872   90.5109 H         1 VAL         0.0234
    143 H77         8.2668   47.8578   89.3877 H         1 VAL         0.0234
    144 H78         5.5230   44.9395   90.9246 H         1 VAL         0.0234
    145 H79         5.3815   46.6460   91.4672 H         1 VAL         0.0234
    146 H80         6.7749   45.6461   92.0015 H         1 VAL         0.0234
@<TRIPOS>BOND
     1    1    2 1  
     2    2    3 1  
     3    2    5 1  
     4    3    4 2  
     5    3   12 am 
     6    5    6 1  
     7    6    7 ar 
     8    6    8 ar 
     9    7    9 ar 
    10    8   10 ar 
    11    9   11 ar 
    12   10   11 ar 
    13   12   13 1  
    14   12   18 1  
    15   13   14 1  
    16   13   16 1  
    17   14   15 2  
    18   14   19 am 
    19   16   17 1  
    20   17   18 1  
    21   19   20 1  
    22   20   21 1  
    23   20   23 1  
    24   21   22 2  
    25   21   24 am 
    26   24   25 1  
    27   25   26 1  
    28   25   28 1  
    29   26   27 2  
    30   26   33 am 
    31   28   29 1  
    32   29   30 1  
    33   30   31 1  
    34   31   32 1  
    35   33   34 1  
    36   34   35 1  
    37   34   37 1  
    38   35   36 2  
    39   35   42 am 
    40   37   38 1  
    41   38   39 1  
    42   39   40 1  
    43   40   41 1  
    44   42   43 1  
    45   43   44 1  
    46   43   46 1  
    47   44   45 2  
    48   44   50 am 
    49   46   47 1  
    50   47   48 1  
    51   48   49 1  
    52   50   51 1  
    53   51   52 1  
    54   51   54 1  
    55   52   53 2  
    56   52   59 am 
    57   54   55 1  
    58   55   56 1  
    59   56   57 1  
    60   57   58 1  
    61   59   60 1  
    62   60   61 1  
    63   60   63 1  
    64   61   62 ar 
    65   61   66 ar 
    66   63   64 1  
    67   63   65 1  
    68    1   67 1  
    69    1   68 1  
    70    1   69 1  
    71    2   70 1  
    72    5   71 1  
    73    5   72 1  
    74    7   73 1  
    75    8   74 1  
    76    9   75 1  
    77   10   76 1  
    78   11   77 1  
    79   13   78 1  
    80   16   79 1  
    81   16   80 1  
    82   17   81 1  
    83   17   82 1  
    84   18   83 1  
    85   18   84 1  
    86   19   85 1  
    87   20   86 1  
    88   23   87 1  
    89   23   88 1  
    90   23   89 1  
    91   24   90 1  
    92   25   91 1  
    93   28   92 1  
    94   28   93 1  
    95   29   94 1  
    96   29   95 1  
    97   30   96 1  
    98   30   97 1  
    99   31   98 1  
   100   31   99 1  
   101   32  100 1  
   102   32  101 1  
   103   32  102 1  
   104   33  103 1  
   105   34  104 1  
   106   37  105 1  
   107   37  106 1  
   108   38  107 1  
   109   38  108 1  
   110   39  109 1  
   111   39  110 1  
   112   40  111 1  
   113   40  112 1  
   114   41  113 1  
   115   41  114 1  
   116   41  115 1  
   117   42  116 1  
   118   43  117 1  
   119   46  118 1  
   120   46  119 1  
   121   47  120 1  
   122   47  121 1  
   123   49  122 1  
   124   49  123 1  
   125   49  124 1  
   126   50  125 1  
   127   51  126 1  
   128   54  127 1  
   129   54  128 1  
   130   55  129 1  
   131   55  130 1  
   132   56  131 1  
   133   56  132 1  
   134   57  133 1  
   135   57  134 1  
   136   58  135 1  
   137   58  136 1  
   138   58  137 1  
   139   59  138 1  
   140   60  139 1  
   141   63  140 1  
   142   64  141 1  
   143   64  142 1  
   144   64  143 1  
   145   65  144 1  
   146   65  145 1  
   147   65  146 1  
@<TRIPOS>SUBSTRUCTURE
     1 PHE         1

