5q0r_ligand
  -I-interpret- 

 62 66  0  0  0  0  0  0  0  0999 V2000
   31.6950   31.1700   -0.4110 C   0  0  0  0  0
   31.7510   31.0670   -7.3360 C   0  0  0  0  0
   30.5080   31.7910   -2.2340 C   0  0  0  0  0
   30.6750   32.0130   -0.9260 C   0  0  0  0  0
   32.2380   31.0220    0.9480 C   0  0  0  0  0
   33.1860   29.3590   -1.5520 C   0  0  0  0  0
   30.1350   32.2590   -4.6180 C   0  0  0  0  0
   29.5710   32.4170   -3.2210 C   0  0  0  0  0
   32.6960   30.2000   -7.8760 C   0  0  0  0  0
   32.6310   28.0050   -1.1930 C   0  0  0  0  0
   33.0040   32.9620   -8.1740 C   0  0  0  0  0
   32.1860   27.1330   -2.1820 C   0  0  0  0  0
   33.2820   32.1110    5.1040 C   0  0  0  0  0
   31.0140   33.2870   -6.9820 F   0  0  0  0  0
   31.9270   32.4360   -7.5000 C   0  0  0  0  0
   33.9400   32.0880   -8.7060 C   0  0  0  0  0
   33.7870   30.7210   -8.5600 C   0  0  0  0  0
   30.3720   30.3540   -6.4730 S   0  0  0  0  0
   30.5650   28.9390   -6.4900 O   0  0  0  0  0
   29.1770   30.9110   -7.0260 O   0  0  0  0  0
   30.4260   30.8210   -4.9010 N   0  0  0  0  0
   33.3940   30.6620    1.1550 O   0  0  0  0  0
   31.3710   31.3050    1.9350 N   0  0  0  0  0
   31.7120   31.2080    3.3600 C   0  0  0  0  0
   32.4490   32.3550    4.0140 C   0  0  0  0  0
   32.3150   33.6650    3.5620 C   0  0  0  0  0
   33.0020   34.7050    4.1800 C   0  0  0  0  0
   33.8280   34.4510    5.2600 C   0  0  0  0  0
   33.9710   33.1540    5.7240 C   0  0  0  0  0
   32.1610   30.3980   -1.4820 N   0  0  0  0  0
   32.5450   27.6040    0.1390 C   0  0  0  0  0
   32.0290   26.3550    0.4720 C   0  0  0  0  0
   31.5920   25.4980   -0.5180 C   0  0  0  0  0
   31.6720   25.8880   -1.8470 C   0  0  0  0  0
   31.3940   30.7980   -2.6540 C   0  0  0  0  0
   31.5210   30.2660   -4.0540 C   0  0  0  0  0
   30.1094   32.7370   -0.3394 H   0  0  0  0  0
   33.5629   29.3162   -2.5739 H   0  0  0  0  0
   33.9753   29.6063   -0.8421 H   0  0  0  0  0
   31.0598   32.8308   -4.6949 H   0  0  0  0  0
   29.4037   32.6226   -5.3399 H   0  0  0  0  0
   29.4552   33.4764   -2.9923 H   0  0  0  0  0
   28.5992   31.9268   -3.1626 H   0  0  0  0  0
   32.5812   29.1219   -7.7633 H   0  0  0  0  0
   33.1192   34.0399   -8.2874 H   0  0  0  0  0
   32.2416   27.4304   -3.2292 H   0  0  0  0  0
   33.3968   31.0932    5.4768 H   0  0  0  0  0
   34.8030   32.4812   -9.2434 H   0  0  0  0  0
   34.5296   30.0462   -8.9857 H   0  0  0  0  0
   30.4287   31.6021    1.6816 H   0  0  0  0  0
   32.3924   30.3593    3.4299 H   0  0  0  0  0
   30.7534   31.1579    3.8764 H   0  0  0  0  0
   31.6642   33.8783    2.7140 H   0  0  0  0  0
   32.8888   35.7245    3.8115 H   0  0  0  0  0
   34.3638   35.2678    5.7436 H   0  0  0  0  0
   34.6219   32.9479    6.5737 H   0  0  0  0  0
   32.8852   28.2751    0.9277 H   0  0  0  0  0
   31.9698   26.0527    1.5176 H   0  0  0  0  0
   31.1864   24.5205   -0.2571 H   0  0  0  0  0
   31.3296   25.2135   -2.6318 H   0  0  0  0  0
   32.4848   30.5621   -4.4681 H   0  0  0  0  0
   31.4495   29.1785   -4.0362 H   0  0  0  0  0
  1  4  4  0  0  0
  5  1  1  0  0  0
  1 30  4  0  0  0
  2  9  4  0  0  0
  2 15  4  0  0  0
 18  2  1  0  0  0
  4  3  4  0  0  0
  3  8  1  0  0  0
  3 35  4  0  0  0
  5 22  2  0  0  0
 23  5  1  0  0  0
  6 10  1  0  0  0
 30  6  1  0  0  0
  8  7  1  0  0  0
  7 21  1  0  0  0
  9 17  4  0  0  0
 10 12  4  0  0  0
 10 31  4  0  0  0
 15 11  4  0  0  0
 11 16  4  0  0  0
 12 34  4  0  0  0
 25 13  4  0  0  0
 13 29  4  0  0  0
 15 14  1  0  0  0
 17 16  4  0  0  0
 18 19  2  0  0  0
 18 20  2  0  0  0
 21 18  1  0  0  0
 21 36  1  0  0  0
 24 23  1  0  0  0
 24 25  1  0  0  0
 25 26  4  0  0  0
 26 27  4  0  0  0
 27 28  4  0  0  0
 28 29  4  0  0  0
 30 35  4  0  0  0
 31 32  4  0  0  0
 32 33  4  0  0  0
 33 34  4  0  0  0
 35 36  1  0  0  0
  4 37  1  0  0  0
  6 38  1  0  0  0
  6 39  1  0  0  0
  7 40  1  0  0  0
  7 41  1  0  0  0
  8 42  1  0  0  0
  8 43  1  0  0  0
  9 44  1  0  0  0
 11 45  1  0  0  0
 12 46  1  0  0  0
 13 47  1  0  0  0
 16 48  1  0  0  0
 17 49  1  0  0  0
 23 50  1  0  0  0
 24 51  1  0  0  0
 24 52  1  0  0  0
 26 53  1  0  0  0
 27 54  1  0  0  0
 28 55  1  0  0  0
 29 56  1  0  0  0
 31 57  1  0  0  0
 32 58  1  0  0  0
 33 59  1  0  0  0
 34 60  1  0  0  0
 36 61  1  0  0  0
 36 62  1  0  0  0
M  END
$$$$
