5fdz_ligand
  -I-interpret- 

 52 54  0  0  0  0  0  0  0  0999 V2000
   -0.6570    9.5680   76.3450 C   0  0  0  0  0
   -1.7090    8.9910   77.2490 C   0  0  0  0  0
   -2.9130    8.7500   76.5010 O   0  0  0  0  0
   -2.7220    7.6810   75.5920 C   0  0  0  0  0
   -1.6080    8.0080   74.6200 C   0  0  0  0  0
   -1.0420    9.3930   74.8550 C   0  0  0  0  0
    0.1770    9.6760   74.0280 O   0  0  0  0  0
    0.3260    9.2700   72.7000 C   0  0  0  0  0
    0.3710   10.2680   71.6770 C   0  0  0  0  0
    0.5580    9.8210   70.3510 C   0  0  0  0  0
    0.2470   11.6760   71.8690 C   0  0  0  0  0
    0.6960   12.4550   71.0320 O   0  0  0  0  0
   -0.4060   12.1180   72.9580 N   0  0  0  0  0
   -0.5200   13.5660   73.1680 C   0  0  0  0  0
    0.4880    7.9110   72.3480 C   0  0  0  0  0
    0.6580    7.5100   71.0170 C   0  0  0  0  0
    0.7060    8.4760   70.0060 C   0  0  0  0  0
    0.8520    8.1890   68.6730 O   0  0  0  0  0
    1.4720    6.9680   68.2320 C   0  0  0  0  0
    1.7250    7.0510   66.7110 C   0  0  0  0  0
    2.1530    6.0730   66.0930 O   0  0  0  0  0
    1.4410    8.2580   66.1660 N   0  0  0  0  0
    1.6380    8.4810   64.8600 C   0  0  0  0  0
    0.7880    7.9180   63.9020 C   0  0  0  0  0
    1.0030    8.1910   62.5450 C   0  0  0  0  0
    2.0550    9.0290   62.1470 C   0  0  0  0  0
    2.8970    9.6030   63.1040 C   0  0  0  0  0
    2.6830    9.3310   64.4550 C   0  0  0  0  0
    0.2821    9.0449   76.5256 H   0  0  0  0  0
   -0.5618   10.6329   76.5571 H   0  0  0  0  0
   -1.9190    9.6953   78.0539 H   0  0  0  0  0
   -1.3495    8.0507   77.6670 H   0  0  0  0  0
   -3.6444    7.5201   75.0340 H   0  0  0  0  0
   -2.4545    6.7837   76.1500 H   0  0  0  0  0
   -2.0146    7.9719   73.6093 H   0  0  0  0  0
   -0.8068    7.2827   74.7618 H   0  0  0  0  0
   -1.8261   10.0919   74.5636 H   0  0  0  0  0
    0.5885   10.5648   69.5548 H   0  0  0  0  0
   -0.8133   11.4612   73.6237 H   0  0  0  0  0
    0.4768   14.0002   73.2457 H   0  0  0  0  0
   -1.0480   14.0135   72.3259 H   0  0  0  0  0
   -1.0731   13.7560   74.0878 H   0  0  0  0  0
    0.4804    7.1550   73.1331 H   0  0  0  0  0
    0.7523    6.4525   70.7703 H   0  0  0  0  0
    0.8167    6.1245   68.4494 H   0  0  0  0  0
    2.4185    6.8278   68.7542 H   0  0  0  0  0
    1.0735    9.0045   66.7559 H   0  0  0  0  0
   -0.0347    7.2723   64.2090 H   0  0  0  0  0
    0.3485    7.7494   61.7935 H   0  0  0  0  0
    2.2165    9.2332   61.0886 H   0  0  0  0  0
    3.7132   10.2571   62.7971 H   0  0  0  0  0
    3.3326    9.7820   65.2052 H   0  0  0  0  0
  1  2  1  0  0  0
  1  6  1  0  0  0
  2  3  1  0  0  0
  3  4  1  0  0  0
  4  5  1  0  0  0
  5  6  1  0  0  0
  6  7  1  0  0  0
  7  8  1  0  0  0
  8  9  4  0  0  0
  8 15  4  0  0  0
  9 10  4  0  0  0
  9 11  1  0  0  0
 10 17  4  0  0  0
 11 12  2  0  0  0
 11 13  1  0  0  0
 13 14  1  0  0  0
 15 16  4  0  0  0
 16 17  4  0  0  0
 17 18  1  0  0  0
 18 19  1  0  0  0
 19 20  1  0  0  0
 20 21  2  0  0  0
 20 22  1  0  0  0
 22 23  1  0  0  0
 23 24  4  0  0  0
 23 28  4  0  0  0
 24 25  4  0  0  0
 25 26  4  0  0  0
 26 27  4  0  0  0
 27 28  4  0  0  0
  1 29  1  0  0  0
  1 30  1  0  0  0
  2 31  1  0  0  0
  2 32  1  0  0  0
  4 33  1  0  0  0
  4 34  1  0  0  0
  5 35  1  0  0  0
  5 36  1  0  0  0
  6 37  1  0  0  0
 10 38  1  0  0  0
 13 39  1  0  0  0
 14 40  1  0  0  0
 14 41  1  0  0  0
 14 42  1  0  0  0
 15 43  1  0  0  0
 16 44  1  0  0  0
 19 45  1  0  0  0
 19 46  1  0  0  0
 22 47  1  0  0  0
 24 48  1  0  0  0
 25 49  1  0  0  0
 26 50  1  0  0  0
 27 51  1  0  0  0
 28 52  1  0  0  0
M  END
$$$$
