4eu3_ligand
  -I-interpret- 

 21 20  0  0  0  0  0  0  0  0999 V2000
  -19.2100  -27.2950  -30.9930 C   0  0  0  0  0
  -20.2970  -27.8200  -31.0560 O   0  0  0  0  0
  -18.2660  -27.6060  -31.8850 O   0  0  0  0  0
  -18.8910  -26.3170  -29.8920 C   0  0  0  0  0
  -20.1340  -25.5020  -29.5330 C   0  0  0  0  0
  -21.1290  -26.3860  -29.0070 O   0  0  0  0  0
  -19.7220  -24.4710  -28.4820 C   0  0  0  0  0
  -20.8670  -23.5990  -28.0420 C   0  0  0  0  0
  -21.9910  -23.7690  -28.4450 O   0  0  0  0  0
  -20.5950  -22.5570  -27.2620 O   0  0  0  0  0
  -20.6440  -24.7980  -30.7640 C   0  0  0  0  0
  -21.7590  -25.0060  -31.1790 O   0  0  0  0  0
  -19.8750  -23.8830  -31.3710 O   0  0  0  0  0
  -17.4698  -27.1046  -31.6946 H   0  0  0  0  0
  -18.1068  -25.6406  -30.2318 H   0  0  0  0  0
  -18.5584  -26.8669  -29.0116 H   0  0  0  0  0
  -21.3751  -27.0253  -29.6795 H   0  0  0  0  0
  -18.9625  -23.8270  -28.9253 H   0  0  0  0  0
  -19.3585  -25.0115  -27.6081 H   0  0  0  0  0
  -19.6634  -22.5665  -27.0305 H   0  0  0  0  0
  -19.0254  -23.8351  -30.9267 H   0  0  0  0  0
  1  2  2  0  0  0
  1  3  1  0  0  0
  1  4  1  0  0  0
  4  5  1  0  0  0
  5  6  1  0  0  0
  5  7  1  0  0  0
  5 11  1  0  0  0
  7  8  1  0  0  0
  8  9  2  0  0  0
  8 10  1  0  0  0
 11 12  2  0  0  0
 11 13  1  0  0  0
  3 14  1  0  0  0
  4 15  1  0  0  0
  4 16  1  0  0  0
  6 17  1  0  0  0
  7 18  1  0  0  0
  7 19  1  0  0  0
 10 20  1  0  0  0
 13 21  1  0  0  0
M  END
$$$$
