2wti_ligand
  -I-interpret- 

 44 47  0  0  0  0  0  0  0  0999 V2000
  -45.1480   14.3200  -13.6520 N   0  0  0  0  0
  -46.1060   13.4790  -12.9480 C   0  0  0  0  0
  -46.5170   12.4830  -13.4470 O   0  0  0  0  0
  -46.5490   13.8890  -11.5360 C   0  0  0  0  0
  -45.8800   15.0240  -10.8910 C   0  0  0  0  0
  -46.2700   15.4250   -9.5640 C   0  0  0  0  0
  -47.3370   14.7160   -8.8810 C   0  0  0  0  0
  -47.7380   15.1870   -7.6190 C   0  0  0  0  0
  -47.2440   16.4570   -7.1920 C   0  0  0  0  0
  -47.6290   16.9760   -5.9090 C   0  0  0  0  0
  -47.1200   18.2100   -5.4660 C   0  0  0  0  0
  -46.0260   19.1250   -6.2590 S   0  0  0  0  0
  -45.7230   20.3720   -5.3610 C   0  0  0  0  0
  -46.5680   20.2540   -4.0680 C   0  0  0  0  0
  -46.6780   21.0800   -2.9010 O   0  0  0  0  0
  -47.8170   20.7530   -2.0640 C   0  0  0  0  0
  -48.0260   19.2280   -1.8630 C   0  0  0  0  0
  -48.3240   18.5310   -3.0950 O   0  0  0  0  0
  -47.4420   18.8790   -4.1600 C   0  0  0  0  0
  -48.5370   16.2380   -5.0500 C   0  0  0  0  0
  -49.0420   14.9690   -5.4860 N   0  0  0  0  0
  -48.6630   14.4410   -6.7530 C   0  0  0  0  0
  -49.2330   13.1650   -7.1670 N   0  0  0  0  0
  -48.0060   13.5860   -9.5310 C   0  0  0  0  0
  -47.6100   13.1790  -10.8630 C   0  0  0  0  0
  -44.8241   14.0554  -14.5823 H   0  0  0  0  0
  -44.8009   15.1737  -13.2148 H   0  0  0  0  0
  -45.0900   15.5623  -11.4146 H   0  0  0  0  0
  -45.7658   16.2580   -9.0741 H   0  0  0  0  0
  -46.5777   17.0301   -7.8368 H   0  0  0  0  0
  -47.7116   17.4017   -5.8958 H   0  0  0  0  0
  -45.9785   21.2882   -5.8934 H   0  0  0  0  0
  -44.6620   20.4067   -5.1135 H   0  0  0  0  0
  -46.2309   21.2146   -3.6785 H   0  0  0  0  0
  -48.7072   21.1417   -2.5585 H   0  0  0  0  0
  -47.6358   21.1895   -1.0818 H   0  0  0  0  0
  -48.8750   19.0948   -1.1925 H   0  0  0  0  0
  -47.0992   18.8156   -1.4640 H   0  0  0  0  0
  -48.1163   18.0926   -3.8209 H   0  0  0  0  0
  -48.8321   16.6447   -4.0827 H   0  0  0  0  0
  -48.9924   12.7699   -8.0761 H   0  0  0  0  0
  -49.8725   12.6671   -6.5476 H   0  0  0  0  0
  -48.8017   13.0518   -9.0119 H   0  0  0  0  0
  -48.1092   12.3432  -11.3534 H   0  0  0  0  0
  1  2  1  0  0  0
  2  3  2  0  0  0
  2  4  1  0  0  0
  4  5  4  0  0  0
  4 25  4  0  0  0
  5  6  4  0  0  0
  6  7  4  0  0  0
  7  8  1  0  0  0
  7 24  4  0  0  0
  8  9  4  0  0  0
  8 22  4  0  0  0
  9 10  4  0  0  0
 10 11  1  0  0  0
 10 20  4  0  0  0
 11 12  1  0  0  0
 11 19  1  0  0  0
 12 13  1  0  0  0
 13 14  1  0  0  0
 14 15  1  0  0  0
 14 19  1  0  0  0
 15 16  1  0  0  0
 16 17  1  0  0  0
 17 18  1  0  0  0
 18 19  1  0  0  0
 20 21  4  0  0  0
 21 22  4  0  0  0
 22 23  1  0  0  0
 24 25  4  0  0  0
  1 26  1  0  0  0
  1 27  1  0  0  0
  5 28  1  0  0  0
  6 29  1  0  0  0
  9 30  1  0  0  0
 11 31  1  0  0  0
 13 32  1  0  0  0
 13 33  1  0  0  0
 14 34  1  0  0  0
 16 35  1  0  0  0
 16 36  1  0  0  0
 17 37  1  0  0  0
 17 38  1  0  0  0
 19 39  1  0  0  0
 20 40  1  0  0  0
 23 41  1  0  0  0
 23 42  1  0  0  0
 24 43  1  0  0  0
 25 44  1  0  0  0
M  END
$$$$
