6axj_ligand
  -I-interpret- 

 75 75  0  0  0  0  0  0  0  0999 V2000
   56.5230   -2.1230   22.5560 O   0  0  0  0  0
   55.2590   -2.5080   23.0520 C   0  0  0  0  0
   54.0960   -2.0700   22.1600 C   0  0  0  0  0
   54.9090   -3.2050   24.3300 N   0  0  0  0  0
   56.0720   -3.6270   25.1390 C   0  0  0  0  0
   55.6000   -4.2710   26.4380 C   0  0  0  0  0
   56.6350   -4.0940   27.5420 C   0  0  0  0  0
   56.1930   -4.7930   28.8220 C   0  0  0  0  0
   57.3930   -5.1600   29.6870 C   0  0  0  0  0
   56.9440   -5.9100   30.8440 N   0  3  0  0  0
   58.0840   -3.9080   30.1390 C   0  0  0  0  0
   57.4500   -3.0470   30.7870 O   0  0  0  0  0
   59.3610   -3.7840   29.8210 N   0  0  0  0  0
   60.1360   -2.6110   30.2070 C   0  0  0  0  0
   61.0620   -2.1660   29.0800 C   0  0  0  0  0
   61.6480   -2.9930   28.3810 O   0  0  0  0  0
   60.9480   -2.8990   31.4720 C   0  0  0  0  0
   60.0980   -3.1450   32.5790 O   0  0  0  0  0
   61.1900   -0.8540   28.9100 N   0  0  0  0  0
   62.0380   -0.3000   27.8770 C   0  0  0  0  0
   63.4730   -0.7890   28.0730 C   0  0  0  0  0
   63.9660   -0.8530   29.2050 O   0  0  0  0  0
   61.9840    1.2400   27.9030 C   0  0  0  0  0
   64.1680   -1.1320   27.0000 N   0  0  0  0  0
   65.4840   -1.7710   27.1320 C   0  0  0  0  0
   66.5390   -0.8210   27.6780 C   0  0  0  0  0
   66.3470    0.3940   27.7710 O   0  0  0  0  0
   65.8200   -2.1820   25.6940 C   0  0  0  0  0
   65.1220   -1.1600   24.8680 C   0  0  0  0  0
   63.8090   -0.9030   25.5970 C   0  0  0  0  0
   67.6770   -1.4200   28.0330 N   0  0  0  0  0
   68.8830   -0.7020   28.4130 C   0  0  0  0  0
   69.6160   -0.1630   27.1840 C   0  0  0  0  0
   69.5040   -0.7170   26.0870 O   0  0  0  0  0
   69.8040   -1.6150   29.2200 C   0  0  0  0  0
   70.3350    0.8370   27.2640 O   0  0  0  0  0
   54.0964   -0.9835   22.0721 H   0  0  0  0  0
   54.2098   -2.5158   21.1719 H   0  0  0  0  0
   53.1561   -2.3997   22.6027 H   0  0  0  0  0
   53.9457   -3.3750   24.6191 H   0  0  0  0  0
   56.6810   -2.7538   25.3731 H   0  0  0  0  0
   56.6580   -4.3510   24.5729 H   0  0  0  0  0
   55.4506   -5.3369   26.2660 H   0  0  0  0  0
   54.6715   -3.7921   26.7488 H   0  0  0  0  0
   56.7496   -3.0295   27.7465 H   0  0  0  0  0
   57.5770   -4.5319   27.2118 H   0  0  0  0  0
   55.6617   -5.7067   28.5556 H   0  0  0  0  0
   55.5499   -4.1168   29.3853 H   0  0  0  0  0
   58.0867   -5.7688   29.1072 H   0  0  0  0  0
   57.7480   -6.1549   31.4219 H   0  0  0  0  0
   56.2950   -5.3399   31.3863 H   0  0  0  0  0
   56.4743   -6.7609   30.5347 H   0  0  0  0  0
   59.8159   -4.5281   29.2920 H   0  0  0  0  0
   59.4357   -1.8012   30.4118 H   0  0  0  0  0
   61.5674   -2.0301   31.6942 H   0  0  0  0  0
   61.5606   -3.7838   31.2993 H   0  0  0  0  0
   60.6313   -3.3223   33.3573 H   0  0  0  0  0
   60.6770   -0.2212   29.5238 H   0  0  0  0  0
   61.6784   -0.6356   26.9043 H   0  0  0  0  0
   60.9586    1.5692   27.7347 H   0  0  0  0  0
   62.3272    1.5980   28.8736 H   0  0  0  0  0
   62.6281    1.6382   27.1190 H   0  0  0  0  0
   65.4663   -2.6033   27.8356 H   0  0  0  0  0
   65.4967   -3.1971   25.4635 H   0  0  0  0  0
   66.8935   -2.2078   25.5071 H   0  0  0  0  0
   65.7129   -0.2502   24.7624 H   0  0  0  0  0
   64.9590   -1.5050   23.8470 H   0  0  0  0  0
   63.4120    0.0962   25.4177 H   0  0  0  0  0
   62.9998   -1.5481   25.2548 H   0  0  0  0  0
   67.7025   -2.4397   28.0381 H   0  0  0  0  0
   68.5921    0.1480   29.0303 H   0  0  0  0  0
   69.2863   -1.9479   30.1196 H   0  0  0  0  0
   70.0770   -2.4798   28.6153 H   0  0  0  0  0
   70.7037   -1.0665   29.4990 H   0  0  0  0  0
   70.3300    1.1619   28.1673 H   0  0  0  0  0
  2  1  2  0  0  0
  2  3  1  0  0  0
  4  2  1  0  0  0
  5  4  1  0  0  0
  6  5  1  0  0  0
  7  6  1  0  0  0
  8  7  1  0  0  0
  9  8  1  0  0  0
  9 10  1  0  0  0
 11  9  1  0  0  0
 11 12  2  0  0  0
 14 13  1  0  0  0
 14 17  1  0  0  0
 15 14  1  0  0  0
 15 16  2  0  0  0
 17 18  1  0  0  0
 13 11  1  0  0  0
 20 19  1  0  0  0
 20 23  1  0  0  0
 21 20  1  0  0  0
 21 22  2  0  0  0
 19 15  1  0  0  0
 26 25  1  0  0  0
 25 28  1  0  0  0
 25 24  1  0  0  0
 24 30  1  0  0  0
 30 29  1  0  0  0
 28 29  1  0  0  0
 26 27  2  0  0  0
 24 21  1  0  0  0
 31 32  1  0  0  0
 32 35  1  0  0  0
 32 33  1  0  0  0
 33 34  2  0  0  0
 33 36  1  0  0  0
 26 31  1  0  0  0
  3 37  1  0  0  0
  3 38  1  0  0  0
  3 39  1  0  0  0
  4 40  1  0  0  0
  5 41  1  0  0  0
  5 42  1  0  0  0
  6 43  1  0  0  0
  6 44  1  0  0  0
  7 45  1  0  0  0
  7 46  1  0  0  0
  8 47  1  0  0  0
  8 48  1  0  0  0
  9 49  1  0  0  0
 10 50  1  0  0  0
 10 51  1  0  0  0
 10 52  1  0  0  0
 13 53  1  0  0  0
 14 54  1  0  0  0
 17 55  1  0  0  0
 17 56  1  0  0  0
 18 57  1  0  0  0
 19 58  1  0  0  0
 20 59  1  0  0  0
 23 60  1  0  0  0
 23 61  1  0  0  0
 23 62  1  0  0  0
 25 63  1  0  0  0
 28 64  1  0  0  0
 28 65  1  0  0  0
 29 66  1  0  0  0
 29 67  1  0  0  0
 30 68  1  0  0  0
 30 69  1  0  0  0
 31 70  1  0  0  0
 32 71  1  0  0  0
 35 72  1  0  0  0
 35 73  1  0  0  0
 35 74  1  0  0  0
 36 75  1  0  0  0
M  END
$$$$
