4rfd_ligand
  -I-interpret- 

 33 33  0  0  0  0  0  0  0  0999 V2000
   -2.2080    7.0680   84.9310 C   0  0  0  0  0
   -2.7140    5.9770   85.6250 C   0  0  0  0  0
   -1.8930    4.8830   85.9020 C   0  0  0  0  0
   -2.5670    3.5110   86.7950 S   0  0  0  0  0
   -2.0650    3.6000   88.1900 O   0  0  0  0  0
   -4.0370    3.6190   86.6660 O   0  0  0  0  0
   -2.0190    2.1210   86.1210 N   0  0  0  0  0
   -0.5650    4.8850   85.4900 C   0  0  0  0  0
   -0.0660    5.9850   84.7950 C   0  0  0  0  0
   -0.8840    7.0770   84.5210 C   0  0  0  0  0
   -0.4030    8.1750   83.8410 O   0  0  0  0  0
    0.9260    8.2570   83.5070 C   0  0  0  0  0
    1.4610    9.5870   83.0930 C   0  0  0  0  0
    1.6980   10.6130   84.1430 C   0  0  0  0  0
    2.3720   11.8940   83.7670 C   0  0  0  0  0
    2.7710   12.8090   84.7970 N   0  3  0  0  0
   -2.8527    7.9183   84.7084 H   0  0  0  0  0
   -3.7533    5.9750   85.9537 H   0  0  0  0  0
   -1.4317    1.4879   86.6639 H   0  0  0  0  0
   -2.2652    1.8891   85.1587 H   0  0  0  0  0
    0.0799    4.0339   85.7086 H   0  0  0  0  0
    0.9724    5.9901   84.4636 H   0  0  0  0  0
    1.0466    7.6122   82.6365 H   0  0  0  0  0
    1.4698    7.9954   84.4147 H   0  0  0  0  0
    0.6954   10.0135   82.4448 H   0  0  0  0  0
    2.4437    9.3800   82.6691 H   0  0  0  0  0
    2.3753   10.1373   84.8522 H   0  0  0  0  0
    0.7031   10.9071   84.4774 H   0  0  0  0  0
    1.6281   12.4384   83.1854 H   0  0  0  0  0
    3.3040   11.5879   83.2918 H   0  0  0  0  0
    3.2121   13.6251   84.3730 H   0  0  0  0  0
    1.9500   13.1016   85.3269 H   0  0  0  0  0
    3.4336   12.3487   85.4211 H   0  0  0  0  0
  1  2  4  0  0  0
  1 10  4  0  0  0
  2  3  4  0  0  0
  3  4  1  0  0  0
  3  8  4  0  0  0
  4  5  2  0  0  0
  4  6  2  0  0  0
  4  7  1  0  0  0
  8  9  4  0  0  0
  9 10  4  0  0  0
 10 11  1  0  0  0
 11 12  1  0  0  0
 12 13  1  0  0  0
 13 14  1  0  0  0
 14 15  1  0  0  0
 15 16  1  0  0  0
  1 17  1  0  0  0
  2 18  1  0  0  0
  7 19  1  0  0  0
  7 20  1  0  0  0
  8 21  1  0  0  0
  9 22  1  0  0  0
 12 23  1  0  0  0
 12 24  1  0  0  0
 13 25  1  0  0  0
 13 26  1  0  0  0
 14 27  1  0  0  0
 14 28  1  0  0  0
 15 29  1  0  0  0
 15 30  1  0  0  0
 16 31  1  0  0  0
 16 32  1  0  0  0
 16 33  1  0  0  0
M  END
$$$$
