4y5h_ligand
  -I-interpret- 

 58 60  0  0  0  0  0  0  0  0999 V2000
   -4.7650  -33.9910  -28.9120 C   0  0  0  0  0
   -3.9530  -33.5430  -27.7150 C   0  0  0  0  0
   -3.0940  -34.6460  -27.1280 C   0  0  0  0  0
   -3.1930  -32.3700  -28.0080 N   0  0  0  0  0
   -2.1110  -32.3170  -28.9320 C   0  0  0  0  0
   -1.7840  -33.3210  -29.5330 O   0  0  0  0  0
   -1.4610  -31.0460  -29.0690 N   0  0  0  0  0
   -0.3610  -30.6820  -29.9430 C   0  0  0  0  0
    0.1180  -31.7860  -30.8740 C   0  0  0  0  0
    1.1840  -31.2140  -31.7790 C   0  0  0  0  0
    2.3900  -30.8310  -30.9440 C   0  0  0  0  0
    2.0310  -29.7270  -29.9590 C   0  0  0  0  0
    0.7910  -30.0730  -29.1390 C   0  0  0  0  0
    3.5140  -30.5990  -31.8180 N   0  0  0  0  0
    4.1940  -29.3910  -32.1320 C   0  0  0  0  0
    5.4150  -29.5620  -32.7350 N   0  0  0  0  0
    6.1630  -28.4980  -33.1150 C   0  0  0  0  0
    5.6960  -27.1970  -32.9070 C   0  0  0  0  0
    6.5280  -26.0200  -33.3350 C   0  0  0  0  0
    6.0350  -24.6740  -33.0960 C   0  0  0  0  0
    4.7210  -24.5090  -32.4600 C   0  0  0  0  0
    4.3540  -23.3780  -32.3130 O   0  0  0  0  0
    3.9070  -25.6450  -32.0420 N   0  0  0  0  0
    2.6370  -25.4580  -31.4030 C   0  0  0  0  0
    2.7000  -25.9440  -29.9590 C   0  0  0  0  0
    1.5110  -26.1520  -32.1280 C   0  0  0  0  0
    4.4300  -27.0280  -32.2820 C   0  0  0  0  0
    3.7120  -28.1410  -31.9170 N   0  0  0  0  0
   -5.4530  -33.1964  -29.2007 H   0  0  0  0  0
   -4.0943  -34.2120  -29.7423 H   0  0  0  0  0
   -5.3302  -34.8859  -28.6517 H   0  0  0  0  0
   -4.6718  -33.2850  -26.9373 H   0  0  0  0  0
   -2.3137  -34.9149  -27.8399 H   0  0  0  0  0
   -2.6378  -34.2957  -26.2021 H   0  0  0  0  0
   -3.7152  -35.5176  -26.9215 H   0  0  0  0  0
   -3.4429  -31.5094  -27.5209 H   0  0  0  0  0
   -1.8191  -30.2992  -28.4736 H   0  0  0  0  0
   -0.7650  -29.9260  -30.6163 H   0  0  0  0  0
   -0.7150  -32.1615  -31.4683 H   0  0  0  0  0
    0.5251  -32.6141  -30.2937 H   0  0  0  0  0
    0.7969  -30.3325  -32.2901 H   0  0  0  0  0
    1.4731  -31.9582  -32.5211 H   0  0  0  0  0
    2.7129  -31.6421  -30.2913 H   0  0  0  0  0
    1.8226  -28.8194  -30.5255 H   0  0  0  0  0
    2.8679  -29.5971  -29.2729 H   0  0  0  0  0
    1.0948  -30.8201  -28.4057 H   0  0  0  0  0
    0.4218  -29.1395  -28.7143 H   0  0  0  0  0
    3.8772  -31.4311  -32.2829 H   0  0  0  0  0
    7.1334  -28.6573  -33.5851 H   0  0  0  0  0
    7.4918  -26.1749  -33.8200 H   0  0  0  0  0
    6.6276  -23.8052  -33.3826 H   0  0  0  0  0
    2.4248  -24.3891  -31.4273 H   0  0  0  0  0
    2.9558  -27.0035  -29.9444 H   0  0  0  0  0
    3.4593  -25.3781  -29.4193 H   0  0  0  0  0
    1.7297  -25.7966  -29.4847 H   0  0  0  0  0
    1.4360  -25.7583  -33.1416 H   0  0  0  0  0
    1.7109  -27.2228  -32.1667 H   0  0  0  0  0
    0.5753  -25.9747  -31.5978 H   0  0  0  0  0
  1  2  1  0  0  0
  2  3  1  0  0  0
  2  4  1  0  0  0
  4  5  1  0  0  0
  5  6  2  0  0  0
  5  7  1  0  0  0
  7  8  1  0  0  0
  8  9  1  0  0  0
  8 13  1  0  0  0
  9 10  1  0  0  0
 10 11  1  0  0  0
 11 12  1  0  0  0
 11 14  1  0  0  0
 12 13  1  0  0  0
 14 15  1  0  0  0
 15 16  4  0  0  0
 15 28  4  0  0  0
 16 17  4  0  0  0
 17 18  4  0  0  0
 18 19  1  0  0  0
 18 27  4  0  0  0
 19 20  2  0  0  0
 20 21  1  0  0  0
 21 22  2  0  0  0
 21 23  1  0  0  0
 23 24  1  0  0  0
 23 27  1  0  0  0
 24 25  1  0  0  0
 24 26  1  0  0  0
 27 28  4  0  0  0
  1 29  1  0  0  0
  1 30  1  0  0  0
  1 31  1  0  0  0
  2 32  1  0  0  0
  3 33  1  0  0  0
  3 34  1  0  0  0
  3 35  1  0  0  0
  4 36  1  0  0  0
  7 37  1  0  0  0
  8 38  1  0  0  0
  9 39  1  0  0  0
  9 40  1  0  0  0
 10 41  1  0  0  0
 10 42  1  0  0  0
 11 43  1  0  0  0
 12 44  1  0  0  0
 12 45  1  0  0  0
 13 46  1  0  0  0
 13 47  1  0  0  0
 14 48  1  0  0  0
 17 49  1  0  0  0
 19 50  1  0  0  0
 20 51  1  0  0  0
 24 52  1  0  0  0
 25 53  1  0  0  0
 25 54  1  0  0  0
 25 55  1  0  0  0
 26 56  1  0  0  0
 26 57  1  0  0  0
 26 58  1  0  0  0
M  END
$$$$
