3mmr_ligand
  -I-interpret- 

 28 27  0  0  0  0  0  0  0  0999 V2000
   35.6530  -17.7830   22.5180 N   0  3  0  0  0
   35.7970  -17.4770   23.9380 C   0  0  0  0  0
   34.9550  -16.2660   24.3300 C   0  0  0  0  0
   34.8000  -15.9530   25.4660 O   0  0  0  0  0
   34.3740  -15.5140   23.3070 O   0  0  0  0  0
   37.2600  -17.3720   24.3800 C   0  0  0  0  0
   38.0050  -16.0840   24.0330 C   0  0  0  0  0
   39.5180  -16.0040   24.2370 C   0  0  0  0  0
   40.1690  -14.6400   23.9580 C   0  0  0  0  0
   41.7360  -14.5650   23.6100 B   0  0  0  0  0
   42.2400  -13.1670   23.5220 O   0  0  0  0  0
   41.9700  -15.2140   22.3280 O   0  0  0  0  0
   42.4650  -15.3180   24.6310 O   0  0  0  0  0
   34.6622  -17.8404   22.2826 H   0  0  0  0  0
   36.0927  -17.0462   21.9664 H   0  0  0  0  0
   36.1039  -18.6754   22.3163 H   0  0  0  0  0
   35.4004  -18.3263   24.4944 H   0  0  0  0  0
   34.5980  -15.9031   22.4585 H   0  0  0  0  0
   37.7857  -18.1684   23.8532 H   0  0  0  0  0
   37.2438  -17.4197   25.4688 H   0  0  0  0  0
   37.5963  -15.3383   24.7149 H   0  0  0  0  0
   37.8665  -15.9679   22.9581 H   0  0  0  0  0
   39.9584  -16.7027   23.5257 H   0  0  0  0  0
   39.6946  -16.2156   25.2916 H   0  0  0  0  0
   40.0674  -14.0894   24.8932 H   0  0  0  0  0
   39.6694  -14.2742   23.0610 H   0  0  0  0  0
   41.6507  -16.1186   22.3655 H   0  0  0  0  0
   42.1241  -16.2146   24.6702 H   0  0  0  0  0
  1  2  1  0  0  0
  2  3  1  0  0  0
  2  6  1  0  0  0
  3  4  2  0  0  0
  3  5  1  0  0  0
  6  7  1  0  0  0
  7  8  1  0  0  0
  8  9  1  0  0  0
  9 10  1  0  0  0
 10 12  1  0  0  0
 10 13  1  0  0  0
 10 11  2  0  0  0
  1 14  1  0  0  0
  1 15  1  0  0  0
  1 16  1  0  0  0
  2 17  1  0  0  0
  5 18  1  0  0  0
  6 19  1  0  0  0
  6 20  1  0  0  0
  7 21  1  0  0  0
  7 22  1  0  0  0
  8 23  1  0  0  0
  8 24  1  0  0  0
  9 25  1  0  0  0
  9 26  1  0  0  0
 12 27  1  0  0  0
 13 28  1  0  0  0
M  END
$$$$
