### 
### Created by X-TOOL on Mon Sep 10 21:13:02 2018
### 

@<TRIPOS>MOLECULE
3mmr_ligand
   27    26     1     0     0
SMALL
GAST_HUCK


@<TRIPOS>ATOM
      1 N          35.6530  -17.7830   22.5180 N.4       1 ABH         0.2327
      2 CA         35.7970  -17.4770   23.9380 C.3       1 ABH         0.0282
      3 C          34.9550  -16.2660   24.3300 C.2       1 ABH         0.0844
      4 O          34.8000  -15.9530   25.4660 O.co2     1 ABH        -0.5643
      5 OT         34.3740  -15.5140   23.3070 O.co2     1 ABH        -0.5643
      6 CB         37.2600  -17.3720   24.3800 C.3       1 ABH         0.0001
      7 CG         38.0050  -16.0840   24.0330 C.3       1 ABH        -0.0736
      8 CD         39.5180  -16.0040   24.2370 C.3       1 ABH        -0.1824
      9 CE         40.1690  -14.6400   23.9580 C.3       1 ABH        -0.3457
     10 B          41.7360  -14.5650   23.6100 B         1 ABH         4.0000
     11 O2         42.2400  -13.1670   23.5220 O.2       1 ABH        -1.0000
     12 O1         41.9700  -15.2140   22.3280 O.3       1 ABH        -0.8710
     13 O3         42.4650  -15.3180   24.6310 O.3       1 ABH        -0.8710
     14 H          34.6622  -17.8404   22.2826 H         1 ABH         0.2010
     15 H          36.0927  -17.0462   21.9664 H         1 ABH         0.2010
     16 H          36.1039  -18.6754   22.3163 H         1 ABH         0.2010
     17 H          35.4004  -18.3263   24.4944 H         1 ABH         0.1024
     18 H          37.7857  -18.1684   23.8532 H         1 ABH         0.0338
     19 H          37.2438  -17.4197   25.4688 H         1 ABH         0.0338
     20 H          37.5963  -15.3383   24.7149 H         1 ABH         0.0244
     21 H          37.8665  -15.9679   22.9581 H         1 ABH         0.0244
     22 H          39.9584  -16.7027   23.5257 H         1 ABH        -0.0084
     23 H          39.6946  -16.2156   25.2916 H         1 ABH        -0.0084
     24 H          40.0674  -14.0894   24.8932 H         1 ABH        -0.2101
     25 H          39.6694  -14.2742   23.0610 H         1 ABH        -0.2101
     26 H          41.5009  -14.7376   21.6391 H         1 ABH        -0.1290
     27 H          43.4019  -15.3150   24.4213 H         1 ABH        -0.1290
@<TRIPOS>BOND
     1    1    2 1  
     2    2    3 1  
     3    2    6 1  
     4    3    4 ar 
     5    3    5 ar 
     6    6    7 1  
     7    7    8 1  
     8    8    9 1  
     9    9   10 1  
    10   10   12 1  
    11   10   13 1  
    12    1   14 1  
    13    1   15 1  
    14    1   16 1  
    15    2   17 1  
    16    6   18 1  
    17    6   19 1  
    18    7   20 1  
    19    7   21 1  
    20    8   22 1  
    21    8   23 1  
    22    9   24 1  
    23    9   25 1  
    24   12   26 1  
    25   13   27 1  
    26   10   11 2  
@<TRIPOS>SUBSTRUCTURE
     1 ABH         1

