6arm_ligand
  -I-interpret- 

 36 37  0  0  0  0  0  0  0  0999 V2000
   72.4960   73.8790  242.0360 C   0  0  0  0  0
   72.2260   72.4170  241.7490 C   0  0  0  0  0
   73.1630   71.6120  242.4300 O   0  0  0  0  0
   72.3100   72.1320  240.2700 C   0  0  0  0  0
   71.9370   70.7780  240.0390 O   0  0  0  0  0
   71.4040   73.0910  239.5400 C   0  0  0  0  0
   70.0660   72.8490  239.9310 O   0  0  0  0  0
   71.7930   74.5110  239.8940 C   0  0  0  0  0
   70.9520   75.5170  239.1140 C   0  0  0  0  0
   69.7020   75.7440  239.7250 O   0  0  0  0  0
   71.6260   74.6960  241.2760 O   0  0  0  0  0
   72.2630   74.0110  243.4160 O   0  0  0  0  0
   72.5570   75.2510  244.0090 C   0  0  0  0  0
   71.8770   75.6530  245.1600 C   0  0  0  0  0
   72.1880   76.8760  245.7350 C   0  0  0  0  0
   73.1640   77.6840  245.1830 C   0  0  0  0  0
   73.8400   77.2830  244.0470 C   0  0  0  0  0
   73.5410   76.0640  243.4670 C   0  0  0  0  0
   70.8550   74.8660  245.7650 N   0  0  0  0  0
   70.5230   75.0780  246.9240 O   0  0  0  0  0
   70.2690   73.9850  245.1480 O   0  0  0  0  0
   73.5059   74.1889  241.7674 H   0  0  0  0  0
   71.2184   72.1860  242.0946 H   0  0  0  0  0
   73.1122   71.7909  243.3718 H   0  0  0  0  0
   73.3260   72.2717  239.9007 H   0  0  0  0  0
   72.5331   70.1970  240.5173 H   0  0  0  0  0
   71.4992   72.9495  238.4634 H   0  0  0  0  0
   69.8255   71.9477  239.7041 H   0  0  0  0  0
   72.8363   74.6760  239.6249 H   0  0  0  0  0
   70.7764   75.1146  238.1163 H   0  0  0  0  0
   71.4932   76.4626  239.0820 H   0  0  0  0  0
   69.2044   76.3803  239.2062 H   0  0  0  0  0
   71.6583   77.2028  246.6298 H   0  0  0  0  0
   73.4014   78.6418  245.6460 H   0  0  0  0  0
   74.6053   77.9244  243.6100 H   0  0  0  0  0
   74.0822   75.7400  242.5781 H   0  0  0  0  0
  1  2  1  0  0  0
  1 11  1  0  0  0
  1 12  1  0  0  0
  2  3  1  0  0  0
  2  4  1  0  0  0
  4  5  1  0  0  0
  4  6  1  0  0  0
  6  7  1  0  0  0
  6  8  1  0  0  0
  8  9  1  0  0  0
  8 11  1  0  0  0
  9 10  1  0  0  0
 12 13  1  0  0  0
 13 14  4  0  0  0
 13 18  4  0  0  0
 14 15  4  0  0  0
 14 19  1  0  0  0
 15 16  4  0  0  0
 16 17  4  0  0  0
 17 18  4  0  0  0
 19 20  2  0  0  0
 19 21  2  0  0  0
  1 22  1  0  0  0
  2 23  1  0  0  0
  3 24  1  0  0  0
  4 25  1  0  0  0
  5 26  1  0  0  0
  6 27  1  0  0  0
  7 28  1  0  0  0
  8 29  1  0  0  0
  9 30  1  0  0  0
  9 31  1  0  0  0
 10 32  1  0  0  0
 15 33  1  0  0  0
 16 34  1  0  0  0
 17 35  1  0  0  0
 18 36  1  0  0  0
M  END
$$$$
