6evm_ligand
  -I-interpret- 

130138  0  0  0  0  0  0  0  0999 V2000
   39.3690  -25.2740    9.4450 N   0  3  0  0  0
   38.0700  -25.6710   10.0110 C   0  0  0  0  0
   37.2510  -26.5630    9.0710 C   0  0  0  0  0
   37.4090  -26.4820    7.8520 O   0  0  0  0  0
   37.3570  -24.3290   10.2370 C   0  0  0  0  0
   38.4510  -23.2940   10.2330 C   0  0  0  0  0
   39.4880  -23.8140    9.2930 C   0  0  0  0  0
   36.3950  -27.4140    9.6300 N   0  0  0  0  0
   35.4830  -28.2090    8.7970 C   0  0  0  0  0
   34.2420  -27.4040    8.4540 C   0  0  0  0  0
   33.9460  -26.4050    9.1270 O   0  0  0  0  0
   35.1470  -29.4080    9.6970 C   0  0  0  0  0
   35.2440  -28.8570   11.0920 C   0  0  0  0  0
   36.2560  -27.7270   11.0660 C   0  0  0  0  0
   33.4940  -27.7920    7.4230 N   0  0  0  0  0
   32.2860  -27.0290    7.0580 C   0  0  0  0  0
   31.2730  -27.0520    8.1900 C   0  0  0  0  0
   31.3000  -27.9540    9.0430 O   0  0  0  0  0
   31.7560  -27.7630    5.8140 C   0  0  0  0  0
   32.3580  -29.1340    5.8790 C   0  0  0  0  0
   33.7000  -28.9610    6.5460 C   0  0  0  0  0
   30.3790  -26.0700    8.2510 N   0  0  0  0  0
   29.3270  -26.0870    9.2780 C   0  0  0  0  0
   28.4210  -27.2950    9.1210 C   0  0  0  0  0
   28.3700  -27.9160    8.0460 O   0  0  0  0  0
   28.5550  -24.7780    9.0280 C   0  0  0  0  0
   28.9650  -24.3260    7.6520 C   0  0  0  0  0
   30.3660  -24.8280    7.4560 C   0  0  0  0  0
   27.6910  -27.6580   10.1750 N   0  0  0  0  0
   26.6590  -28.6920   10.0540 C   0  0  0  0  0
   25.6330  -28.3180    8.9980 C   0  0  0  0  0
   25.5470  -27.1480    8.5890 O   0  0  0  0  0
   26.0370  -28.7240   11.4610 C   0  0  0  0  0
   27.1540  -28.2680   12.3700 C   0  0  0  0  0
   27.8800  -27.2180   11.5730 C   0  0  0  0  0
   24.8480  -29.2780    8.5170 N   0  0  0  0  0
   23.8130  -28.9720    7.5100 C   0  0  0  0  0
   22.6710  -28.1690    8.1080 C   0  0  0  0  0
   22.5540  -28.0570    9.3380 O   0  0  0  0  0
   23.3390  -30.3640    7.0590 C   0  0  0  0  0
   23.7030  -31.2760    8.1860 C   0  0  0  0  0
   24.9800  -30.7270    8.7540 C   0  0  0  0  0
   21.8130  -27.5790    7.2720 N   0  0  0  0  0
   20.6630  -26.8570    7.8050 C   0  0  0  0  0
   19.8290  -27.7580    8.6950 C   0  0  0  0  0
   19.7250  -28.9740    8.4570 O   0  0  0  0  0
   19.8930  -26.4430    6.5440 C   0  0  0  0  0
   20.9370  -26.3210    5.5040 C   0  0  0  0  0
   21.9490  -27.4010    5.8140 C   0  0  0  0  0
   19.2150  -27.2000    9.7360 N   0  0  0  0  0
   18.4860  -28.0210   10.7040 C   0  0  0  0  0
   17.1850  -28.5390   10.1190 C   0  0  0  0  0
   16.7480  -28.0880    9.0470 O   0  0  0  0  0
   18.2290  -27.0450   11.8640 C   0  0  0  0  0
   18.1860  -25.7010   11.2100 C   0  0  0  0  0
   19.1970  -25.7690   10.0900 C   0  0  0  0  0
   16.5370  -29.5130   10.7870 N   0  0  0  0  0
   15.2280  -29.9820   10.3170 C   0  0  0  0  0
   14.1930  -28.8500   10.2330 C   0  0  0  0  0
   14.2590  -27.8590   10.9670 O   0  0  0  0  0
   14.8270  -31.0220   11.3680 C   0  0  0  0  0
   16.1220  -31.5240   11.9100 C   0  0  0  0  0
   17.0570  -30.3370   11.8950 C   0  0  0  0  0
   13.2760  -28.8920    9.4070 O   0  0  0  0  0
   39.4546  -25.6969    8.5208 H   0  0  0  0  0
   40.1014  -25.5871   10.0822 H   0  0  0  0  0
   38.1928  -26.2675   10.9150 H   0  0  0  0  0
   36.8010  -24.3223   11.1745 H   0  0  0  0  0
   36.6153  -24.1327    9.4627 H   0  0  0  0  0
   38.8587  -23.1396   11.2320 H   0  0  0  0  0
   38.0781  -22.3196    9.9173 H   0  0  0  0  0
   39.3330  -23.4817    8.2665 H   0  0  0  0  0
   40.4881  -23.4453    9.5208 H   0  0  0  0  0
   35.9112  -28.5092    7.8406 H   0  0  0  0  0
   35.8248  -30.2465    9.5368 H   0  0  0  0  0
   34.1605  -29.8197    9.4840 H   0  0  0  0  0
   35.5583  -29.6346   11.7882 H   0  0  0  0  0
   34.2729  -28.4917   11.4262 H   0  0  0  0  0
   35.9320  -26.8654   11.6497 H   0  0  0  0  0
   37.2045  -28.0079   11.5239 H   0  0  0  0  0
   32.4865  -25.9750    6.8658 H   0  0  0  0  0
   32.0319  -27.2463    4.8948 H   0  0  0  0  0
   30.6668  -27.8026    5.8046 H   0  0  0  0  0
   32.4618  -29.5695    4.8852 H   0  0  0  0  0
   31.7223  -29.8206    6.4381 H   0  0  0  0  0
   34.0132  -29.8485    7.0958 H   0  0  0  0  0
   34.5086  -28.8119    5.8304 H   0  0  0  0  0
   29.7281  -26.1560   10.2892 H   0  0  0  0  0
   28.7890  -24.0261    9.7817 H   0  0  0  0  0
   27.4778  -24.9308    9.0938 H   0  0  0  0  0
   28.9166  -23.2409    7.5607 H   0  0  0  0  0
   28.2930  -24.7193    6.8892 H   0  0  0  0  0
   30.6166  -24.9912    6.4078 H   0  0  0  0  0
   31.1231  -24.1113    7.7742 H   0  0  0  0  0
   27.0496  -29.6600    9.7401 H   0  0  0  0  0
   25.6697  -29.7154   11.7260 H   0  0  0  0  0
   25.1577  -28.0843   11.5368 H   0  0  0  0  0
   27.8096  -29.0901   12.6573 H   0  0  0  0  0
   26.7786  -27.8774   13.3158 H   0  0  0  0  0
   27.4936  -26.2146   11.7521 H   0  0  0  0  0
   28.9316  -27.1363   11.8478 H   0  0  0  0  0
   24.1891  -28.3605    6.6898 H   0  0  0  0  0
   23.8079  -30.6685    6.1233 H   0  0  0  0  0
   22.2687  -30.3809    6.8532 H   0  0  0  0  0
   23.8288  -32.3028    7.8427 H   0  0  0  0  0
   22.9156  -31.3127    8.9388 H   0  0  0  0  0
   25.1159  -30.9735    9.8070 H   0  0  0  0  0
   25.8686  -31.1533    8.2885 H   0  0  0  0  0
   20.9367  -26.0059    8.4286 H   0  0  0  0  0
   19.3430  -25.5126    6.6853 H   0  0  0  0  0
   19.1265  -27.1692    6.2736 H   0  0  0  0  0
   21.3948  -25.3318    5.5134 H   0  0  0  0  0
   20.5193  -26.4418    4.5045 H   0  0  0  0  0
   21.7668  -28.3210    5.2585 H   0  0  0  0  0
   22.9612  -27.1280    5.5156 H   0  0  0  0  0
   19.0349  -28.9120   11.0089 H   0  0  0  0  0
   19.0015  -27.1048   12.6306 H   0  0  0  0  0
   17.3056  -27.2730   12.3964 H   0  0  0  0  0
   18.4223  -24.9043   11.9154 H   0  0  0  0  0
   17.1888  -25.4689   10.8362 H   0  0  0  0  0
   18.9324  -25.1313    9.2465 H   0  0  0  0  0
   20.1779  -25.3977   10.3869 H   0  0  0  0  0
   15.2745  -30.3837    9.3048 H   0  0  0  0  0
   15.0100  -27.9495   11.5582 H   0  0  0  0  0
   14.2250  -31.8237   10.9403 H   0  0  0  0  0
   14.1969  -30.5932   12.1472 H   0  0  0  0  0
   16.5126  -32.3462   11.3105 H   0  0  0  0  0
   16.0037  -31.9250   12.9166 H   0  0  0  0  0
   17.0737  -29.8026   12.8448 H   0  0  0  0  0
   18.0989  -30.6239   11.7529 H   0  0  0  0  0
  1  2  1  0  0  0
  1  7  1  0  0  0
  2  3  1  0  0  0
  2  5  1  0  0  0
  3  4  2  0  0  0
  3  8  1  0  0  0
  5  6  1  0  0  0
  6  7  1  0  0  0
  8  9  1  0  0  0
  8 14  1  0  0  0
  9 10  1  0  0  0
  9 12  1  0  0  0
 10 11  2  0  0  0
 10 15  1  0  0  0
 12 13  1  0  0  0
 13 14  1  0  0  0
 15 16  1  0  0  0
 15 21  1  0  0  0
 16 17  1  0  0  0
 16 19  1  0  0  0
 17 18  2  0  0  0
 17 22  1  0  0  0
 19 20  1  0  0  0
 20 21  1  0  0  0
 22 23  1  0  0  0
 22 28  1  0  0  0
 23 24  1  0  0  0
 23 26  1  0  0  0
 24 25  2  0  0  0
 24 29  1  0  0  0
 26 27  1  0  0  0
 27 28  1  0  0  0
 29 30  1  0  0  0
 29 35  1  0  0  0
 30 31  1  0  0  0
 30 33  1  0  0  0
 31 32  2  0  0  0
 31 36  1  0  0  0
 33 34  1  0  0  0
 34 35  1  0  0  0
 36 37  1  0  0  0
 36 42  1  0  0  0
 37 38  1  0  0  0
 37 40  1  0  0  0
 38 39  2  0  0  0
 38 43  1  0  0  0
 40 41  1  0  0  0
 41 42  1  0  0  0
 43 44  1  0  0  0
 43 49  1  0  0  0
 44 45  1  0  0  0
 44 47  1  0  0  0
 45 46  2  0  0  0
 45 50  1  0  0  0
 47 48  1  0  0  0
 48 49  1  0  0  0
 50 51  1  0  0  0
 50 56  1  0  0  0
 51 52  1  0  0  0
 51 54  1  0  0  0
 52 53  2  0  0  0
 52 57  1  0  0  0
 54 55  1  0  0  0
 55 56  1  0  0  0
 57 58  1  0  0  0
 57 63  1  0  0  0
 58 59  1  0  0  0
 58 61  1  0  0  0
 59 60  1  0  0  0
 59 64  2  0  0  0
 61 62  1  0  0  0
 62 63  1  0  0  0
  1 65  1  0  0  0
  1 66  1  0  0  0
  2 67  1  0  0  0
  5 68  1  0  0  0
  5 69  1  0  0  0
  6 70  1  0  0  0
  6 71  1  0  0  0
  7 72  1  0  0  0
  7 73  1  0  0  0
  9 74  1  0  0  0
 12 75  1  0  0  0
 12 76  1  0  0  0
 13 77  1  0  0  0
 13 78  1  0  0  0
 14 79  1  0  0  0
 14 80  1  0  0  0
 16 81  1  0  0  0
 19 82  1  0  0  0
 19 83  1  0  0  0
 20 84  1  0  0  0
 20 85  1  0  0  0
 21 86  1  0  0  0
 21 87  1  0  0  0
 23 88  1  0  0  0
 26 89  1  0  0  0
 26 90  1  0  0  0
 27 91  1  0  0  0
 27 92  1  0  0  0
 28 93  1  0  0  0
 28 94  1  0  0  0
 30 95  1  0  0  0
 33 96  1  0  0  0
 33 97  1  0  0  0
 34 98  1  0  0  0
 34 99  1  0  0  0
 35100  1  0  0  0
 35101  1  0  0  0
 37102  1  0  0  0
 40103  1  0  0  0
 40104  1  0  0  0
 41105  1  0  0  0
 41106  1  0  0  0
 42107  1  0  0  0
 42108  1  0  0  0
 44109  1  0  0  0
 47110  1  0  0  0
 47111  1  0  0  0
 48112  1  0  0  0
 48113  1  0  0  0
 49114  1  0  0  0
 49115  1  0  0  0
 51116  1  0  0  0
 54117  1  0  0  0
 54118  1  0  0  0
 55119  1  0  0  0
 55120  1  0  0  0
 56121  1  0  0  0
 56122  1  0  0  0
 58123  1  0  0  0
 60124  1  0  0  0
 61125  1  0  0  0
 61126  1  0  0  0
 62127  1  0  0  0
 62128  1  0  0  0
 63129  1  0  0  0
 63130  1  0  0  0
M  END
$$$$
