5xiw_ligand
  -I-interpret- 

 60 62  0  0  0  0  0  0  0  0999 V2000
  -15.5730   69.6110  -45.8450 O   0  0  0  0  0
  -16.5890   69.9790  -46.2650 C   0  0  0  0  0
  -16.6050   70.9010  -47.4610 C   0  0  0  0  0
  -17.8840   69.5870  -45.6590 N   0  0  0  0  0
  -17.9640   68.7460  -44.5630 C   0  0  0  0  0
  -17.4460   67.3110  -44.9080 C   0  0  0  0  0
  -18.0110   66.7640  -46.1730 C   0  0  0  0  0
  -19.3910   68.7740  -43.9860 C   0  0  0  0  0
  -19.5630   67.8580  -42.7290 C   0  0  0  0  0
  -18.2580   67.6390  -41.9160 C   0  0  0  0  0
  -18.2100   68.0250  -40.4870 C   0  0  0  0  0
  -17.0120   67.8470  -39.7450 C   0  0  0  0  0
  -15.9010   67.3010  -40.3600 C   0  0  0  0  0
  -15.9210   66.9130  -41.7690 C   0  0  0  0  0
  -14.7020   66.3520  -42.3360 O   0  0  0  0  0
  -13.7330   67.3220  -42.7430 C   0  0  0  0  0
  -14.7030   67.1210  -39.5890 O   0  0  0  0  0
  -14.6430   65.8430  -38.9270 C   0  0  0  0  0
  -16.9350   68.2100  -38.3520 O   0  0  0  0  0
  -17.7480   69.2500  -37.9520 C   0  0  0  0  0
  -17.1750   67.0880  -42.5150 C   0  0  0  0  0
  -16.9770   66.6750  -43.8830 C   0  0  0  0  0
  -16.9720   65.3030  -43.7290 C   0  0  0  0  0
  -16.7310   64.3470  -44.6990 C   0  0  0  0  0
  -17.0780   64.3790  -46.0860 C   0  0  0  0  0
  -17.7600   65.4600  -46.8150 C   0  0  0  0  0
  -18.1360   65.2850  -47.9860 O   0  0  0  0  0
  -16.3160   63.4860  -46.9200 O   0  0  0  0  0
  -16.9190   62.2930  -47.1910 C   0  0  0  0  0
  -16.0643   71.8162  -47.2199 H   0  0  0  0  0
  -16.1260   70.4063  -48.3059 H   0  0  0  0  0
  -17.6363   71.1436  -47.7174 H   0  0  0  0  0
  -18.7467   69.9501  -46.0643 H   0  0  0  0  0
  -17.3006   69.1055  -43.7764 H   0  0  0  0  0
  -16.4705   67.1462  -45.3655 H   0  0  0  0  0
  -17.5619   67.4379  -46.9026 H   0  0  0  0  0
  -19.0591   66.6535  -45.8947 H   0  0  0  0  0
  -20.0676   68.4075  -44.7580 H   0  0  0  0  0
  -19.6049   69.7984  -43.6811 H   0  0  0  0  0
  -19.8869   66.8804  -43.0859 H   0  0  0  0  0
  -20.2748   68.3513  -42.0671 H   0  0  0  0  0
  -19.0929   68.4452  -40.0053 H   0  0  0  0  0
  -14.1671   67.9701  -43.5043 H   0  0  0  0  0
  -13.4354   67.9200  -41.8816 H   0  0  0  0  0
  -12.8605   66.8126  -43.1521 H   0  0  0  0  0
  -15.4905   65.7467  -38.2483 H   0  0  0  0  0
  -14.6797   65.0476  -39.6714 H   0  0  0  0  0
  -13.7136   65.7711  -38.3621 H   0  0  0  0  0
  -17.4903   70.1477  -38.5139 H   0  0  0  0  0
  -18.7893   68.9885  -38.1400 H   0  0  0  0  0
  -17.6045   69.4327  -36.8870 H   0  0  0  0  0
  -16.0814   67.0651  -44.3666 H   0  0  0  0  0
  -18.0194   65.1110  -43.4964 H   0  0  0  0  0
  -16.1105   65.1652  -43.0756 H   0  0  0  0  0
  -17.3644   63.5327  -44.3472 H   0  0  0  0  0
  -15.6432   64.3835  -44.7581 H   0  0  0  0  0
  -18.0711   64.0822  -45.7486 H   0  0  0  0  0
  -17.1088   61.7630  -46.2576 H   0  0  0  0  0
  -17.8624   62.4730  -47.7064 H   0  0  0  0  0
  -16.2660   61.6930  -47.8247 H   0  0  0  0  0
  1  2  2  0  0  0
  2  3  1  0  0  0
  2  4  1  0  0  0
  4  5  1  0  0  0
  5  6  1  0  0  0
  5  8  1  0  0  0
  6  7  1  0  0  0
  6 22  1  0  0  0
  7 26  1  0  0  0
  8  9  1  0  0  0
  9 10  1  0  0  0
 10 11  4  0  0  0
 10 21  4  0  0  0
 11 12  4  0  0  0
 12 13  4  0  0  0
 12 19  1  0  0  0
 13 14  4  0  0  0
 13 17  1  0  0  0
 14 15  1  0  0  0
 14 21  4  0  0  0
 15 16  1  0  0  0
 17 18  1  0  0  0
 19 20  1  0  0  0
 21 22  1  0  0  0
 22 23  1  0  0  0
 23 24  1  0  0  0
 24 25  1  0  0  0
 25 26  1  0  0  0
 25 28  1  0  0  0
 26 27  2  0  0  0
 28 29  1  0  0  0
  3 30  1  0  0  0
  3 31  1  0  0  0
  3 32  1  0  0  0
  4 33  1  0  0  0
  5 34  1  0  0  0
  6 35  1  0  0  0
  7 36  1  0  0  0
  7 37  1  0  0  0
  8 38  1  0  0  0
  8 39  1  0  0  0
  9 40  1  0  0  0
  9 41  1  0  0  0
 11 42  1  0  0  0
 16 43  1  0  0  0
 16 44  1  0  0  0
 16 45  1  0  0  0
 18 46  1  0  0  0
 18 47  1  0  0  0
 18 48  1  0  0  0
 20 49  1  0  0  0
 20 50  1  0  0  0
 20 51  1  0  0  0
 22 52  1  0  0  0
 23 53  1  0  0  0
 23 54  1  0  0  0
 24 55  1  0  0  0
 24 56  1  0  0  0
 25 57  1  0  0  0
 29 58  1  0  0  0
 29 59  1  0  0  0
 29 60  1  0  0  0
M  END
$$$$
