2xyn_ligand
  -I-interpret- 

 61 65  0  0  0  0  0  0  0  0999 V2000
  -51.2240   42.1360   -4.8280 N   0  3  0  0  0
  -51.7580   42.2110   -6.1940 C   0  0  0  0  0
  -51.6330   43.5970   -6.8230 C   0  0  0  0  0
  -51.9760   44.6770   -5.8840 N   0  0  0  0  0
  -51.6150   44.5170   -4.4570 C   0  0  0  0  0
  -51.9470   43.1060   -3.9830 C   0  0  0  0  0
  -51.4290   40.7620   -4.2950 C   0  0  0  0  0
  -52.4560   45.9270   -6.3590 C   0  0  0  0  0
  -52.2030   47.0700   -5.5970 C   0  0  0  0  0
  -52.6510   48.3060   -6.0360 C   0  0  0  0  0
  -53.3170   48.3800   -7.1790 N   0  0  0  0  0
  -53.5520   47.2930   -7.9260 C   0  0  0  0  0
  -53.1220   46.0640   -7.5300 N   0  0  0  0  0
  -52.4080   49.3950   -5.3280 N   0  0  0  0  0
  -52.7520   50.6360   -5.6910 C   0  0  0  0  0
  -53.4740   51.0730   -6.7330 C   0  0  0  0  0
  -53.4960   52.3960   -6.5730 C   0  0  0  0  0
  -52.8220   52.7000   -5.4710 N   0  0  0  0  0
  -52.3810   51.6710   -4.9480 N   0  0  0  0  0
  -54.1680   53.4520   -7.4550 C   0  0  0  0  0
  -54.4410   47.4720   -9.4250 S   0  0  0  0  0
  -54.8990   49.1220   -9.7610 C   0  0  0  0  0
  -54.0210   49.9980  -10.3630 C   0  0  0  0  0
  -54.3830   51.3100  -10.6610 C   0  0  0  0  0
  -55.6530   51.7860  -10.3680 C   0  0  0  0  0
  -56.5320   50.8670   -9.7920 C   0  0  0  0  0
  -56.1700   49.5560   -9.5000 C   0  0  0  0  0
  -56.0640   53.0670  -10.6490 N   0  0  0  0  0
  -55.2220   54.0660  -10.9320 C   0  0  0  0  0
  -54.0190   53.9320  -11.0030 O   0  0  0  0  0
  -55.8010   55.4020  -11.3480 C   0  0  0  0  0
  -56.8270   56.0930  -10.4400 C   0  0  0  0  0
  -55.3700   56.5740  -10.4880 C   0  0  0  0  0
  -50.2272   42.3522   -4.8287 H   0  0  0  0  0
  -52.8196   41.9689   -6.1440 H   0  0  0  0  0
  -51.1820   41.5195   -6.8089 H   0  0  0  0  0
  -52.3270   43.6487   -7.6620 H   0  0  0  0  0
  -50.5958   43.7347   -7.1285 H   0  0  0  0  0
  -52.1816   45.2346   -3.8636 H   0  0  0  0  0
  -50.5454   44.6901   -4.3386 H   0  0  0  0  0
  -51.6447   42.9859   -2.9427 H   0  0  0  0  0
  -53.0206   42.9341   -4.0604 H   0  0  0  0  0
  -51.0492   40.7091   -3.2747 H   0  0  0  0  0
  -52.4932   40.5265   -4.3006 H   0  0  0  0  0
  -50.8942   40.0474   -4.9206 H   0  0  0  0  0
  -51.6542   46.9901   -4.6587 H   0  0  0  0  0
  -51.9220   49.2810   -4.4385 H   0  0  0  0  0
  -53.9352   50.4839   -7.5257 H   0  0  0  0  0
  -53.7508   53.4025   -8.4608 H   0  0  0  0  0
  -55.2404   53.2609   -7.4953 H   0  0  0  0  0
  -53.9895   54.4417   -7.0346 H   0  0  0  0  0
  -53.0169   49.6550  -10.6125 H   0  0  0  0  0
  -53.6571   51.9730  -11.1317 H   0  0  0  0  0
  -57.5467   51.1910   -9.5609 H   0  0  0  0  0
  -56.8994   48.8740   -9.0630 H   0  0  0  0  0
  -57.0644   53.2660  -10.6412 H   0  0  0  0  0
  -55.7995   55.1497  -12.4084 H   0  0  0  0  0
  -57.5836   55.8287   -9.7012 H   0  0  0  0  0
  -57.8337   56.5066  -10.4997 H   0  0  0  0  0
  -54.8251   57.5111  -10.6023 H   0  0  0  0  0
  -54.5705   56.8210   -9.7895 H   0  0  0  0  0
  1  2  1  0  0  0
  1  6  1  0  0  0
  1  7  1  0  0  0
  2  3  1  0  0  0
  3  4  1  0  0  0
  4  5  1  0  0  0
  4  8  1  0  0  0
  5  6  1  0  0  0
  8  9  4  0  0  0
  8 13  4  0  0  0
  9 10  4  0  0  0
 10 11  4  0  0  0
 10 14  1  0  0  0
 11 12  4  0  0  0
 12 13  4  0  0  0
 12 21  1  0  0  0
 14 15  1  0  0  0
 15 16  4  0  0  0
 15 19  4  0  0  0
 16 17  4  0  0  0
 17 18  4  0  0  0
 17 20  1  0  0  0
 18 19  4  0  0  0
 21 22  1  0  0  0
 22 23  4  0  0  0
 22 27  4  0  0  0
 23 24  4  0  0  0
 24 25  4  0  0  0
 25 26  4  0  0  0
 25 28  1  0  0  0
 26 27  4  0  0  0
 28 29  1  0  0  0
 29 30  2  0  0  0
 29 31  1  0  0  0
 31 32  1  0  0  0
 31 33  1  0  0  0
 32 33  1  0  0  0
  1 34  1  0  0  0
  2 35  1  0  0  0
  2 36  1  0  0  0
  3 37  1  0  0  0
  3 38  1  0  0  0
  5 39  1  0  0  0
  5 40  1  0  0  0
  6 41  1  0  0  0
  6 42  1  0  0  0
  7 43  1  0  0  0
  7 44  1  0  0  0
  7 45  1  0  0  0
  9 46  1  0  0  0
 14 47  1  0  0  0
 16 48  1  0  0  0
 20 49  1  0  0  0
 20 50  1  0  0  0
 20 51  1  0  0  0
 23 52  1  0  0  0
 24 53  1  0  0  0
 26 54  1  0  0  0
 27 55  1  0  0  0
 28 56  1  0  0  0
 31 57  1  0  0  0
 32 58  1  0  0  0
 32 59  1  0  0  0
 33 60  1  0  0  0
 33 61  1  0  0  0
M  END
$$$$
