2cct_ligand
  -I-interpret- 

 45 47  0  0  0  0  0  0  0  0999 V2000
   35.0300    7.1580   25.3610 C   0  0  0  0  0
   34.0940    8.2190   25.9230 C   0  0  0  0  0
   32.3020    7.4210   24.3390 C   0  0  0  0  0
   33.2950    6.3580   23.8720 C   0  0  0  0  0
   32.6980    8.0350   25.5880 N   0  0  0  0  0
   31.7870    8.6090   26.3990 C   0  0  0  0  0
   31.3770    8.3360   27.6760 C   0  0  0  0  0
   31.8480    7.2240   28.4370 C   0  0  0  0  0
   34.6920    6.9190   23.9210 N   0  3  0  0  0
   32.3810    6.2910   27.8430 O   0  0  0  0  0
   31.7170    7.2950   29.7650 N   0  0  0  0  0
   31.9740    6.1740   30.5170 C   0  0  0  0  0
   33.4540    5.8480   30.7900 C   0  0  0  0  0
   30.5410    9.2700   28.1140 N   0  0  0  0  0
   30.3490   10.1640   27.1350 N   0  0  0  0  0
   31.0920    9.8120   26.0680 C   0  0  0  0  0
   31.1260   10.6170   24.8360 C   0  0  0  0  0
   32.3410   11.1030   24.3700 C   0  0  0  0  0
   32.3740   11.8650   23.2070 C   0  0  0  0  0
   33.8730   12.5000   22.6400 Cl  0  0  0  0  0
   31.2390   12.1950   22.4900 C   0  0  0  0  0
   31.3410   12.9440   21.3480 O   0  0  0  0  0
   30.0080   11.7000   22.9670 C   0  0  0  0  0
   29.9780   10.9260   24.1380 C   0  0  0  0  0
   28.8370   10.5160   24.5970 O   0  0  0  0  0
   34.9139    6.2316   25.9235 H   0  0  0  0  0
   36.0621    7.4986   25.4437 H   0  0  0  0  0
   34.4002    9.1720   25.4916 H   0  0  0  0  0
   34.1689    8.1642   27.0090 H   0  0  0  0  0
   31.3373    6.9373   24.4920 H   0  0  0  0  0
   32.2600    8.2006   23.5784 H   0  0  0  0  0
   33.0576    6.0635   22.8497 H   0  0  0  0  0
   33.2299    5.4881   24.5256 H   0  0  0  0  0
   35.3541    6.2656   23.5025 H   0  0  0  0  0
   34.7459    7.7896   23.3923 H   0  0  0  0  0
   31.4313    8.1659   30.2125 H   0  0  0  0  0
   31.5820    5.3328   29.9453 H   0  0  0  0  0
   31.5222    6.3567   31.4920 H   0  0  0  0  0
   33.9716    5.6948   29.8431 H   0  0  0  0  0
   33.9143    6.6773   31.3272 H   0  0  0  0  0
   33.5200    4.9419   31.3923 H   0  0  0  0  0
   33.2621   10.8887   24.9120 H   0  0  0  0  0
   30.4661   13.0809   20.9773 H   0  0  0  0  0
   29.6590   11.0276   22.1832 H   0  0  0  0  0
   29.4286   12.5906   23.2104 H   0  0  0  0  0
  2  1  1  0  0  0
  1  9  1  0  0  0
  5  2  1  0  0  0
  3  4  1  0  0  0
  3  5  1  0  0  0
  4  9  1  0  0  0
  5  6  1  0  0  0
  6  7  4  0  0  0
  6 16  4  0  0  0
  7  8  1  0  0  0
  7 14  4  0  0  0
  8 10  2  0  0  0
  8 11  1  0  0  0
 11 12  1  0  0  0
 12 13  1  0  0  0
 14 15  4  0  0  0
 15 16  4  0  0  0
 16 17  1  0  0  0
 17 18  2  0  0  0
 17 24  1  0  0  0
 18 19  1  0  0  0
 19 20  1  0  0  0
 19 21  2  0  0  0
 21 22  1  0  0  0
 21 23  1  0  0  0
 23 24  1  0  0  0
 24 25  2  0  0  0
  1 26  1  0  0  0
  1 27  1  0  0  0
  2 28  1  0  0  0
  2 29  1  0  0  0
  3 30  1  0  0  0
  3 31  1  0  0  0
  4 32  1  0  0  0
  4 33  1  0  0  0
  9 34  1  0  0  0
  9 35  1  0  0  0
 11 36  1  0  0  0
 12 37  1  0  0  0
 12 38  1  0  0  0
 13 39  1  0  0  0
 13 40  1  0  0  0
 13 41  1  0  0  0
 18 42  1  0  0  0
 22 43  1  0  0  0
 23 44  1  0  0  0
 23 45  1  0  0  0
M  END
$$$$
