2w1h_ligand
  -I-interpret- 

 34 37  0  0  0  0  0  0  0  0999 V2000
   25.0260    4.8190   61.2940 O   0  0  0  0  0
   25.9070    5.6680   61.3390 C   0  0  0  0  0
   27.0100    5.5190   62.1420 N   0  0  0  0  0
   27.2970    4.4190   63.0120 C   0  0  0  0  0
   26.6310    3.2320   63.1380 C   0  0  0  0  0
   27.2690    2.4930   64.0800 N   0  0  0  0  0
   28.3610    3.2320   64.5520 N   0  0  0  0  0
   28.3880    4.3870   63.9150 C   0  0  0  0  0
   29.3760    5.4740   64.1070 C   0  0  0  0  0
   29.3500    6.6260   63.4740 N   0  0  0  0  0
   30.3780    7.3990   63.8830 C   0  0  0  0  0
   30.8370    8.7020   63.5170 C   0  0  0  0  0
   31.9710    9.2350   64.1270 C   0  0  0  0  0
   32.7020    8.4790   65.0700 C   0  0  0  0  0
   32.2740    7.1910   65.4390 C   0  0  0  0  0
   31.1290    6.6250   64.8220 C   0  0  0  0  0
   30.4510    5.4290   64.9570 N   0  0  0  0  0
   25.7930    6.9020   60.5020 C   0  0  0  0  0
   24.9050    6.9450   59.3860 C   0  0  0  0  0
   24.8040    8.1130   58.6030 C   0  0  0  0  0
   25.5790    9.2480   58.9200 C   0  0  0  0  0
   26.4620    9.2210   60.0220 C   0  0  0  0  0
   26.5720    8.0580   60.8140 C   0  0  0  0  0
   27.6980    6.2716   62.1162 H   0  0  0  0  0
   25.7439    2.9321   62.5801 H   0  0  0  0  0
   30.3012    9.2777   62.7623 H   0  0  0  0  0
   32.2967   10.2440   63.8742 H   0  0  0  0  0
   33.6048    8.8970   65.5152 H   0  0  0  0  0
   32.8205    6.6295   66.1967 H   0  0  0  0  0
   24.3023    6.0713   59.1379 H   0  0  0  0  0
   24.1253    8.1390   57.7505 H   0  0  0  0  0
   25.4962   10.1491   58.3124 H   0  0  0  0  0
   27.0599   10.1004   60.2614 H   0  0  0  0  0
   27.2526    8.0419   61.6653 H   0  0  0  0  0
  1  2  2  0  0  0
  2  3  1  0  0  0
  2 18  1  0  0  0
  3  4  1  0  0  0
  4  5  4  0  0  0
  4  8  4  0  0  0
  5  6  4  0  0  0
  6  7  4  0  0  0
  7  8  4  0  0  0
  8  9  1  0  0  0
  9 10  4  0  0  0
  9 17  4  0  0  0
 10 11  4  0  0  0
 11 12  4  0  0  0
 11 16  4  0  0  0
 12 13  4  0  0  0
 13 14  4  0  0  0
 14 15  4  0  0  0
 15 16  4  0  0  0
 16 17  4  0  0  0
 18 19  4  0  0  0
 18 23  4  0  0  0
 19 20  4  0  0  0
 20 21  4  0  0  0
 21 22  4  0  0  0
 22 23  4  0  0  0
  3 24  1  0  0  0
  5 25  1  0  0  0
 12 26  1  0  0  0
 13 27  1  0  0  0
 14 28  1  0  0  0
 15 29  1  0  0  0
 19 30  1  0  0  0
 20 31  1  0  0  0
 21 32  1  0  0  0
 22 33  1  0  0  0
 23 34  1  0  0  0
M  END
$$$$
