4zpg_ligand
  -I-interpret- 

 67 71  0  0  0  0  0  0  0  0999 V2000
   29.2290   39.6190    1.5660 C   0  0  0  0  0
   30.5060   40.2140    2.1450 C   0  0  0  0  0
   31.8630   38.2230    1.3030 C   0  0  0  0  0
   30.5700   37.5900    0.8120 C   0  0  0  0  0
   29.4990   38.6220    0.4450 C   0  0  0  0  0
   28.2100   37.8830    0.1150 C   0  0  0  0  0
   28.6520   38.8630   -1.7530 C   0  0  0  0  0
   30.6880   40.1050   -1.3000 C   0  0  0  0  0
   30.6030   41.4730   -1.1000 C   0  0  0  0  0
   31.6100   42.3040   -1.5480 C   0  0  0  0  0
   32.6970   41.7880   -2.2360 C   0  0  0  0  0
   32.7630   40.4290   -2.4520 C   0  0  0  0  0
   31.7650   39.5910   -1.9990 C   0  0  0  0  0
   26.3330   36.4040    0.8130 C   0  0  0  0  0
   25.4020   36.4510    2.0200 C   0  0  0  0  0
   24.1000   35.6870    1.7430 C   0  0  0  0  0
   31.5970   39.2010    2.4100 N   0  3  0  0  0
   27.7800   38.0510   -1.1010 N   0  0  0  0  0
   29.6520   39.2390   -0.8700 N   0  0  0  0  0
   28.5370   39.1760   -2.9320 O   0  0  0  0  0
   33.7960   39.9040   -3.1380 F   0  0  0  0  0
   27.5740   37.1230    1.0860 N   0  0  0  0  0
   24.3810   34.2480    1.3240 C   0  0  0  0  0
   25.3280   34.2070    0.1310 C   0  0  0  0  0
   26.6310   34.9630    0.4220 C   0  0  0  0  0
   32.8280   39.8400    3.0120 C   0  0  0  0  0
   33.5130   40.8770    2.1580 C   0  0  0  0  0
   34.4640   40.5010    1.2250 C   0  0  0  0  0
   35.0920   41.4450    0.4280 C   0  0  0  0  0
   34.7430   42.7750    0.5560 C   0  0  0  0  0
   33.7980   43.1710    1.4910 C   0  0  0  0  0
   33.1950   42.2210    2.2960 C   0  0  0  0  0
   32.8450   37.1520    1.7360 C   0  0  0  0  0
   28.6375   40.4356    1.1519 H   0  0  0  0  0
   28.7136   39.0896    2.3673 H   0  0  0  0  0
   30.2456   40.6642    3.1029 H   0  0  0  0  0
   30.8939   40.9197    1.4104 H   0  0  0  0  0
   32.3101   38.7777    0.4781 H   0  0  0  0  0
   30.1744   36.9743    1.6198 H   0  0  0  0  0
   30.8011   37.0178   -0.0865 H   0  0  0  0  0
   29.7384   41.8945   -0.5873 H   0  0  0  0  0
   31.5498   43.3758   -1.3590 H   0  0  0  0  0
   33.4860   42.4461   -2.5999 H   0  0  0  0  0
   31.8256   38.5201   -2.1927 H   0  0  0  0  0
   25.8299   36.8931   -0.0211 H   0  0  0  0  0
   25.1575   37.4919    2.2318 H   0  0  0  0  0
   25.9057   35.9863    2.8676 H   0  0  0  0  0
   23.5696   36.1872    0.9327 H   0  0  0  0  0
   23.5049   35.6728    2.6561 H   0  0  0  0  0
   31.2196   38.5845    3.1296 H   0  0  0  0  0
   27.9853   37.0649    2.0176 H   0  0  0  0  0
   23.4407   33.7738    1.0428 H   0  0  0  0  0
   24.8447   33.7229    2.1591 H   0  0  0  0  0
   24.8354   34.6816   -0.7176 H   0  0  0  0  0
   25.5724   33.1660   -0.0805 H   0  0  0  0  0
   27.1499   34.4720    1.2452 H   0  0  0  0  0
   27.2511   34.9595   -0.4744 H   0  0  0  0  0
   33.5503   39.0373    3.1604 H   0  0  0  0  0
   32.4980   40.3538    3.9149 H   0  0  0  0  0
   34.7225   39.4478    1.1157 H   0  0  0  0  0
   35.8524   41.1412   -0.2914 H   0  0  0  0  0
   35.2147   43.5208   -0.0839 H   0  0  0  0  0
   33.5323   44.2234    1.5908 H   0  0  0  0  0
   32.4649   42.5302    3.0440 H   0  0  0  0  0
   33.7880   37.6190    2.0202 H   0  0  0  0  0
   32.4359   36.6087    2.5878 H   0  0  0  0  0
   33.0146   36.4611    0.9102 H   0  0  0  0  0
  1  2  1  0  0  0
  5  1  1  0  0  0
  2 17  1  0  0  0
  4  3  1  0  0  0
  3 17  1  0  0  0
  3 33  1  0  0  0
  5  4  1  0  0  0
  6  5  1  0  0  0
  5 19  1  0  0  0
  6 18  2  0  0  0
 22  6  1  0  0  0
 18  7  1  0  0  0
  7 19  1  0  0  0
  7 20  2  0  0  0
  8  9  4  0  0  0
  8 13  4  0  0  0
 19  8  1  0  0  0
  9 10  4  0  0  0
 10 11  4  0  0  0
 12 11  4  0  0  0
 13 12  4  0  0  0
 12 21  1  0  0  0
 14 15  1  0  0  0
 14 22  1  0  0  0
 14 25  1  0  0  0
 15 16  1  0  0  0
 16 23  1  0  0  0
 17 26  1  0  0  0
 23 24  1  0  0  0
 24 25  1  0  0  0
 26 27  1  0  0  0
 27 28  4  0  0  0
 27 32  4  0  0  0
 28 29  4  0  0  0
 29 30  4  0  0  0
 30 31  4  0  0  0
 31 32  4  0  0  0
  1 34  1  0  0  0
  1 35  1  0  0  0
  2 36  1  0  0  0
  2 37  1  0  0  0
  3 38  1  0  0  0
  4 39  1  0  0  0
  4 40  1  0  0  0
  9 41  1  0  0  0
 10 42  1  0  0  0
 11 43  1  0  0  0
 13 44  1  0  0  0
 14 45  1  0  0  0
 15 46  1  0  0  0
 15 47  1  0  0  0
 16 48  1  0  0  0
 16 49  1  0  0  0
 17 50  1  0  0  0
 22 51  1  0  0  0
 23 52  1  0  0  0
 23 53  1  0  0  0
 24 54  1  0  0  0
 24 55  1  0  0  0
 25 56  1  0  0  0
 25 57  1  0  0  0
 26 58  1  0  0  0
 26 59  1  0  0  0
 28 60  1  0  0  0
 29 61  1  0  0  0
 30 62  1  0  0  0
 31 63  1  0  0  0
 32 64  1  0  0  0
 33 65  1  0  0  0
 33 66  1  0  0  0
 33 67  1  0  0  0
M  END
$$$$
