4bi7_ligand
  -I-interpret- 

 14 13  0  0  0  0  0  0  0  0999 V2000
    1.4030  -19.7380  -23.6400 P   0  0  0  0  0
    2.0190  -18.2680  -23.9140 O   0  0  0  0  0
    2.3620  -20.4670  -22.7310 O   0  0  0  0  0
    0.0450  -19.6360  -22.9750 O   0  0  0  0  0
    1.2470  -20.4900  -24.9360 O   0  0  0  0  0
    3.3870  -17.9870  -23.6650 C   0  0  0  0  0
    3.7190  -16.5960  -24.1640 C   0  0  0  0  0
    4.2570  -15.7280  -23.4100 O   0  0  0  0  0
    3.4570  -16.3210  -25.3640 O   0  0  0  0  0
    2.4544  -19.9802  -21.9087 H   0  0  0  0  0
    0.1306  -19.1582  -22.1468 H   0  0  0  0  0
    4.0072  -18.7163  -24.1861 H   0  0  0  0  0
    3.5790  -18.0428  -22.5935 H   0  0  0  0  0
    4.3859  -16.1016  -22.5351 H   0  0  0  0  0
  1  2  1  0  0  0
  1  3  1  0  0  0
  1  4  1  0  0  0
  1  5  2  0  0  0
  2  6  1  0  0  0
  6  7  1  0  0  0
  7  8  1  0  0  0
  7  9  2  0  0  0
  3 10  1  0  0  0
  4 11  1  0  0  0
  6 12  1  0  0  0
  6 13  1  0  0  0
  8 14  1  0  0  0
M  END
$$$$
