1h9z_ligand
  -I-interpret- 

 39 41  0  0  0  0  0  0  0  0999 V2000
   34.8210   14.6190    9.6270 C   0  0  0  0  0
   30.8510   14.2270    9.5720 C   0  0  0  0  0
   30.5470   14.0430   11.0820 C   0  0  0  0  0
   29.0770   14.0520   11.4070 C   0  0  0  0  0
   28.5420   13.2490   12.5600 C   0  0  0  0  0
   30.5360   12.9520    8.7410 C   0  0  0  0  0
   30.0190   13.0550    7.4230 C   0  0  0  0  0
   29.7310   11.8960    6.6510 C   0  0  0  0  0
   29.9510   10.6210    7.1770 C   0  0  0  0  0
   30.4510   10.4960    8.4530 C   0  0  0  0  0
   32.4790   15.9140    8.5600 C   0  0  0  0  0
   30.7460   11.6410    9.2420 C   0  0  0  0  0
   32.3060   14.7100    9.3690 C   0  0  0  0  0
   33.4480   14.0920    9.8910 C   0  0  0  0  0
   36.0370   14.0390   10.1110 C   0  0  0  0  0
   37.2800   14.6180    9.7850 C   0  0  0  0  0
   37.3390   15.7790    8.9730 C   0  0  0  0  0
   36.1650   16.3700    8.4900 C   0  0  0  0  0
   34.9180   15.7850    8.8180 C   0  0  0  0  0
   33.7730   16.4000    8.3140 O   0  0  0  0  0
   31.5700   16.5570    8.0530 O   0  0  0  0  0
   28.2330   14.8170   10.5850 O   0  0  0  0  0
   33.4490   12.9750   10.6620 O   0  0  0  0  0
   30.1823   14.9998    9.1929 H   0  0  0  0  0
   31.0036   14.8793   11.6113 H   0  0  0  0  0
   30.9410   13.0709   11.3784 H   0  0  0  0  0
   28.0470   13.9153   13.2665 H   0  0  0  0  0
   27.8270   12.5147   12.1890 H   0  0  0  0  0
   29.3655   12.7368   13.0575 H   0  0  0  0  0
   29.8394   14.0411    6.9946 H   0  0  0  0  0
   29.3355   12.0035    5.6410 H   0  0  0  0  0
   29.7290    9.7344    6.5831 H   0  0  0  0  0
   30.6238    9.5020    8.8657 H   0  0  0  0  0
   31.1405   11.5097   10.2496 H   0  0  0  0  0
   36.0015   13.1456   10.7344 H   0  0  0  0  0
   38.2010   14.1709   10.1591 H   0  0  0  0  0
   38.3062   16.2150    8.7227 H   0  0  0  0  0
   36.2104   17.2662    7.8713 H   0  0  0  0  0
   34.3526   12.7484   10.8939 H   0  0  0  0  0
  1 14  1  0  0  0
  1 15  4  0  0  0
 19  1  4  0  0  0
  2  3  1  0  0  0
  2  6  1  0  0  0
 13  2  1  0  0  0
  3  4  1  0  0  0
  4  5  1  0  0  0
  6  7  4  0  0  0
  6 12  4  0  0  0
  7  8  4  0  0  0
  8  9  4  0  0  0
 10  9  4  0  0  0
 12 10  4  0  0  0
 14 13  2  0  0  0
 14 23  1  0  0  0
 15 16  4  0  0  0
 17 16  4  0  0  0
 18 17  4  0  0  0
 19 18  4  0  0  0
 20 19  1  0  0  0
  4 22  2  0  0  0
 11 21  2  0  0  0
 20 11  1  0  0  0
 13 11  1  0  0  0
  2 24  1  0  0  0
  3 25  1  0  0  0
  3 26  1  0  0  0
  5 27  1  0  0  0
  5 28  1  0  0  0
  5 29  1  0  0  0
  7 30  1  0  0  0
  8 31  1  0  0  0
  9 32  1  0  0  0
 10 33  1  0  0  0
 12 34  1  0  0  0
 15 35  1  0  0  0
 16 36  1  0  0  0
 17 37  1  0  0  0
 18 38  1  0  0  0
 23 39  1  0  0  0
M  END
$$$$
