2pax_ligand
  -I-interpret- 

 24 26  0  0  0  0  0  0  0  0999 V2000
   41.4240   23.8800   19.3220 C   0  0  0  0  0
   41.0650   24.2260   18.2080 O   0  0  0  0  0
   40.4280   23.1820   20.2560 C   0  0  0  0  0
   39.0960   22.9300   19.8540 C   0  0  0  0  0
   38.2050   22.2880   20.7320 C   0  0  0  0  0
   38.6180   21.8880   22.0130 C   0  0  0  0  0
   37.6600   21.2420   22.8470 N   0  0  0  0  0
   40.4240   21.7850   23.7120 C   0  0  0  0  0
   41.7510   22.0510   24.0930 C   0  0  0  0  0
   42.6340   22.6750   23.2100 C   0  0  0  0  0
   42.1910   23.0510   21.9350 C   0  0  0  0  0
   43.1410   23.7250   20.9560 C   0  0  0  0  0
   44.3100   23.9230   21.2860 O   0  0  0  0  0
   42.6940   24.0920   19.7380 N   0  0  0  0  0
   40.8520   22.7910   21.5500 C   0  0  0  0  0
   39.9540   22.1470   22.4400 C   0  0  0  0  0
   38.7597   23.2337   18.8627 H   0  0  0  0  0
   37.1798   22.0983   20.4139 H   0  0  0  0  0
   36.7114   21.0846   22.5068 H   0  0  0  0  0
   37.9229   20.9370   23.7842 H   0  0  0  0  0
   39.7516   21.2913   24.4135 H   0  0  0  0  0
   42.0938   21.7671   25.0880 H   0  0  0  0  0
   43.6635   22.8689   23.5111 H   0  0  0  0  0
   43.3440   24.5512   19.1000 H   0  0  0  0  0
  1  2  2  0  0  0
  3  1  1  0  0  0
  1 14  1  0  0  0
  4  3  4  0  0  0
  3 15  4  0  0  0
  5  4  4  0  0  0
  6  5  4  0  0  0
  6  7  1  0  0  0
 16  6  4  0  0  0
  8  9  4  0  0  0
 16  8  4  0  0  0
  9 10  4  0  0  0
 10 11  4  0  0  0
 11 12  1  0  0  0
 11 15  4  0  0  0
 12 13  2  0  0  0
 12 14  1  0  0  0
 15 16  4  0  0  0
  4 17  1  0  0  0
  5 18  1  0  0  0
  7 19  1  0  0  0
  7 20  1  0  0  0
  8 21  1  0  0  0
  9 22  1  0  0  0
 10 23  1  0  0  0
 14 24  1  0  0  0
M  END
$$$$
