4g2j_ligand
  -I-interpret- 

 54 58  0  0  0  0  0  0  0  0999 V2000
   74.6260   55.6070   41.8780 C   0  0  0  0  0
   74.1550   54.1890   41.5330 C   0  0  0  0  0
   75.1000   53.2060   42.2230 C   0  0  0  0  0
   74.9610   53.1180   43.6090 N   0  0  0  0  0
   75.8190   52.3070   44.4230 C   0  0  0  0  0
   75.6320   52.3080   45.6320 O   0  0  0  0  0
   76.8030   51.5990   43.6680 C   0  0  0  0  0
   77.8690   50.7190   44.0040 C   0  0  0  0  0
   78.5380   50.3560   42.8810 N   0  0  0  0  0
   77.9130   50.9810   41.8220 N   0  0  0  0  0
   76.8460   51.7440   42.2650 C   0  0  0  0  0
   75.9870   52.5360   41.4960 N   0  0  0  0  0
   78.4180   50.9100   40.4380 C   0  0  0  0  0
   79.9130   51.2610   40.3490 C   0  0  0  0  0
   80.3530   50.5810   39.0560 C   0  0  0  0  0
   79.5460   49.2830   38.9910 C   0  0  0  0  0
   78.2890   49.4960   39.8400 C   0  0  0  0  0
   74.2300   54.0510   40.0550 N   0  3  0  0  0
   73.8490   52.6860   39.5300 C   0  0  0  0  0
   72.7270   53.3340   38.6670 C   0  0  0  0  0
   73.0680   54.6990   39.3310 C   0  0  0  0  0
   71.4370   52.9810   39.0790 O   0  0  0  0  0
   70.9500   51.7820   38.6380 C   0  0  0  0  0
   69.5830   51.6120   38.8950 C   0  0  0  0  0
   68.9790   50.4220   38.5240 C   0  0  0  0  0
   69.7190   49.4190   37.9030 C   0  0  0  0  0
   71.0700   49.6050   37.6540 C   0  0  0  0  0
   71.7050   50.7890   38.0220 C   0  0  0  0  0
   75.6500   55.7430   41.5302 H   0  0  0  0  0
   73.9758   56.3332   41.3902 H   0  0  0  0  0
   74.5858   55.7492   42.9579 H   0  0  0  0  0
   73.1357   53.9920   41.8650 H   0  0  0  0  0
   74.2190   53.6522   44.0613 H   0  0  0  0  0
   78.1120   50.3861   45.0131 H   0  0  0  0  0
   77.8082   51.6267   39.8879 H   0  0  0  0  0
   80.4777   50.9206   41.2169 H   0  0  0  0  0
   80.0933   52.3360   40.3417 H   0  0  0  0  0
   81.4258   50.3884   39.0478 H   0  0  0  0  0
   80.1695   51.2126   38.1868 H   0  0  0  0  0
   80.1309   48.4452   39.3704 H   0  0  0  0  0
   79.2806   49.0444   37.9611 H   0  0  0  0  0
   77.3848   49.4017   39.2387 H   0  0  0  0  0
   78.2075   48.7415   40.6224 H   0  0  0  0  0
   75.1800   54.3907   39.9049 H   0  0  0  0  0
   73.6075   51.8817   40.2249 H   0  0  0  0  0
   74.6013   52.0521   39.0607 H   0  0  0  0  0
   72.7117   53.1579   37.5914 H   0  0  0  0  0
   73.2326   55.5817   38.7130 H   0  0  0  0  0
   72.3061   55.2390   39.8932 H   0  0  0  0  0
   69.0061   52.4010   39.3775 H   0  0  0  0  0
   67.9175   50.2696   38.7194 H   0  0  0  0  0
   69.2353   48.4864   37.6123 H   0  0  0  0  0
   71.6416   48.8162   37.1649 H   0  0  0  0  0
   72.7684   50.9340   37.8318 H   0  0  0  0  0
  1  2  1  0  0  0
  2  3  1  0  0  0
  2 18  1  0  0  0
  3  4  1  0  0  0
  3 12  2  0  0  0
  4  5  1  0  0  0
  5  6  2  0  0  0
  5  7  1  0  0  0
  7  8  4  0  0  0
  7 11  4  0  0  0
  8  9  4  0  0  0
  9 10  4  0  0  0
 10 11  4  0  0  0
 10 13  1  0  0  0
 11 12  1  0  0  0
 13 14  1  0  0  0
 13 17  1  0  0  0
 14 15  1  0  0  0
 15 16  1  0  0  0
 16 17  1  0  0  0
 18 19  1  0  0  0
 18 21  1  0  0  0
 19 20  1  0  0  0
 20 21  1  0  0  0
 20 22  1  0  0  0
 22 23  1  0  0  0
 23 24  4  0  0  0
 23 28  4  0  0  0
 24 25  4  0  0  0
 25 26  4  0  0  0
 26 27  4  0  0  0
 27 28  4  0  0  0
  1 29  1  0  0  0
  1 30  1  0  0  0
  1 31  1  0  0  0
  2 32  1  0  0  0
  4 33  1  0  0  0
  8 34  1  0  0  0
 13 35  1  0  0  0
 14 36  1  0  0  0
 14 37  1  0  0  0
 15 38  1  0  0  0
 15 39  1  0  0  0
 16 40  1  0  0  0
 16 41  1  0  0  0
 17 42  1  0  0  0
 17 43  1  0  0  0
 18 44  1  0  0  0
 19 45  1  0  0  0
 19 46  1  0  0  0
 20 47  1  0  0  0
 21 48  1  0  0  0
 21 49  1  0  0  0
 24 50  1  0  0  0
 25 51  1  0  0  0
 26 52  1  0  0  0
 27 53  1  0  0  0
 28 54  1  0  0  0
M  END
$$$$
