5iha_ligand
  -I-interpret- 

 59 62  0  0  0  0  0  0  0  0999 V2000
   -6.8900   -7.6560    5.1300 C   0  0  0  0  0
   -6.0550   -9.8120    5.3410 C   0  0  0  0  0
   -5.3280   -9.7230    4.1170 C   0  0  0  0  0
   -4.5140  -10.7320    3.6350 O   0  0  0  0  0
   -1.7880   -8.8950   -3.0410 C   0  0  0  0  0
   -0.8900   -9.9810   -2.8330 C   0  0  0  0  0
   -0.8630  -10.5740   -1.5350 C   0  0  0  0  0
   -1.6700  -10.0550   -0.4870 C   0  0  0  0  0
    1.3850  -10.5260   -3.6050 C   0  0  0  0  0
    2.2710  -10.9710   -4.8050 C   0  0  0  0  0
    0.4780  -10.7420   -6.3600 C   0  0  0  0  0
   -0.4890  -10.2020   -5.2820 C   0  0  0  0  0
    2.7430  -10.4980   -7.1380 C   0  0  0  0  0
   -4.0960  -11.8270    4.4690 C   0  0  0  0  0
   -3.0080  -12.6520    3.7630 C   0  0  0  0  0
   -3.6110  -13.5010    2.6340 C   0  0  0  0  0
   -1.8050  -11.8230    3.2670 C   0  0  0  0  0
   -6.8030   -8.8070    5.8360 N   0  0  0  0  0
   -5.4350   -8.5070    3.3690 C   0  0  0  0  0
   -6.2090   -7.4500    3.9200 C   0  0  0  0  0
   -4.6970   -8.2720    2.1050 C   0  0  0  0  0
   -3.9930   -9.1620    1.3440 C   0  0  0  0  0
   -3.4270   -8.4780    0.2980 N   0  0  0  0  0
   -3.7810   -7.1660    0.3570 N   0  0  0  0  0
   -4.5260   -7.0310    1.4350 C   0  0  0  0  0
   -2.5680   -8.9790   -0.7200 C   0  0  0  0  0
   -2.6030   -8.4000   -2.0070 C   0  0  0  0  0
   -0.0740  -10.4870   -3.8860 N   0  0  0  0  0
    1.8280  -10.2780   -6.0260 N   0  3  0  0  0
   -7.5167   -6.8531    5.5181 H   0  0  0  0  0
   -6.0025  -10.7427    5.9058 H   0  0  0  0  0
   -1.8451   -8.4354   -4.0277 H   0  0  0  0  0
   -0.2180  -11.4321   -1.3461 H   0  0  0  0  0
   -1.5991  -10.4888    0.5104 H   0  0  0  0  0
    1.6850   -9.5094   -3.3508 H   0  0  0  0  0
    1.5346  -11.2596   -2.8128 H   0  0  0  0  0
    2.1788  -12.0480   -4.9449 H   0  0  0  0  0
    3.3117  -10.7187   -4.6014 H   0  0  0  0  0
    0.1865  -10.3785   -7.3454 H   0  0  0  0  0
    0.4478  -11.8313   -6.3832 H   0  0  0  0  0
   -1.4482  -10.6959   -5.4372 H   0  0  0  0  0
   -0.5166   -9.1179   -5.3919 H   0  0  0  0  0
    3.7319  -10.1244   -6.8725 H   0  0  0  0  0
    2.8019  -11.5650   -7.3527 H   0  0  0  0  0
    2.3774   -9.9687   -8.0179 H   0  0  0  0  0
   -4.9541  -12.4684    4.6699 H   0  0  0  0  0
   -3.6927  -11.4303    5.4007 H   0  0  0  0  0
   -2.5992  -13.3164    4.5243 H   0  0  0  0  0
   -4.3536  -14.1819    3.0501 H   0  0  0  0  0
   -4.0855  -12.8466    1.9028 H   0  0  0  0  0
   -2.8203  -14.0749    2.1507 H   0  0  0  0  0
   -2.1506  -11.0737    2.5549 H   0  0  0  0  0
   -1.3315  -11.3288    4.1153 H   0  0  0  0  0
   -1.0860  -12.4830    2.7817 H   0  0  0  0  0
   -6.2731   -6.4896    3.4084 H   0  0  0  0  0
   -3.8975  -10.2309    1.5350 H   0  0  0  0  0
   -4.9564   -6.0873    1.7702 H   0  0  0  0  0
   -3.2693   -7.5596   -2.2017 H   0  0  0  0  0
    1.8192   -9.2729   -5.8527 H   0  0  0  0  0
  1 18  4  0  0  0
 20  1  4  0  0  0
  3  2  4  0  0  0
  2 18  4  0  0  0
  3  4  1  0  0  0
 19  3  4  0  0  0
  4 14  1  0  0  0
  6  5  4  0  0  0
  5 27  4  0  0  0
  7  6  4  0  0  0
  6 28  1  0  0  0
  8  7  4  0  0  0
 26  8  4  0  0  0
  9 10  1  0  0  0
 28  9  1  0  0  0
 10 29  1  0  0  0
 12 11  1  0  0  0
 11 29  1  0  0  0
 28 12  1  0  0  0
 29 13  1  0  0  0
 14 15  1  0  0  0
 15 16  1  0  0  0
 15 17  1  0  0  0
 19 20  4  0  0  0
 21 19  1  0  0  0
 22 21  4  0  0  0
 21 25  4  0  0  0
 23 22  4  0  0  0
 23 24  4  0  0  0
 23 26  1  0  0  0
 24 25  4  0  0  0
 26 27  4  0  0  0
  1 30  1  0  0  0
  2 31  1  0  0  0
  5 32  1  0  0  0
  7 33  1  0  0  0
  8 34  1  0  0  0
  9 35  1  0  0  0
  9 36  1  0  0  0
 10 37  1  0  0  0
 10 38  1  0  0  0
 11 39  1  0  0  0
 11 40  1  0  0  0
 12 41  1  0  0  0
 12 42  1  0  0  0
 13 43  1  0  0  0
 13 44  1  0  0  0
 13 45  1  0  0  0
 14 46  1  0  0  0
 14 47  1  0  0  0
 15 48  1  0  0  0
 16 49  1  0  0  0
 16 50  1  0  0  0
 16 51  1  0  0  0
 17 52  1  0  0  0
 17 53  1  0  0  0
 17 54  1  0  0  0
 20 55  1  0  0  0
 22 56  1  0  0  0
 25 57  1  0  0  0
 27 58  1  0  0  0
 29 59  1  0  0  0
M  END
$$$$
