2exc_ligand
  -I-interpret- 

 56 59  0  0  0  0  0  0  0  0999 V2000
   20.3590    9.8190   31.7810 C   0  0  0  0  0
   19.9760    8.3760   31.8640 C   0  0  0  0  0
   19.6360   10.8230   32.4470 C   0  0  0  0  0
   21.4360   10.2130   30.9710 C   0  0  0  0  0
   20.9030    7.3940   31.5310 C   0  0  0  0  0
   18.6770    7.9660   32.2180 C   0  0  0  0  0
   20.0230   12.1580   32.2980 C   0  0  0  0  0
   21.7610   11.5420   30.8620 C   0  0  0  0  0
   20.5520    6.0600   31.5350 C   0  0  0  0  0
   18.4010    6.6150   32.2430 C   0  0  0  0  0
   19.3450   13.2130   32.9410 N   0  0  0  0  0
   21.0650   12.4520   31.5150 N   0  0  0  0  0
   21.5330    5.0810   31.2990 N   0  0  0  0  0
   19.3330    5.7290   31.9260 N   0  0  0  0  0
   18.3470   13.0670   33.9230 C   0  0  0  0  0
   22.8080    5.3190   30.8290 C   0  0  0  0  0
   17.1540   13.8090   33.8170 C   0  0  0  0  0
   18.5400   12.2010   35.0140 C   0  0  0  0  0
   23.8450    4.2210   30.7520 C   0  0  0  0  0
   23.1790    6.4350   30.4870 O   0  0  0  0  0
   16.1770   13.6510   34.8040 C   0  0  0  0  0
   17.5520   12.0490   35.9870 C   0  0  0  0  0
   23.4200    2.9630   31.5270 C   0  0  0  0  0
   24.3940    3.8740   29.3590 C   0  0  0  0  0
   16.3570   12.7720   35.8920 C   0  0  0  0  0
   24.6630    2.0830   31.7920 C   0  0  0  0  0
   25.5890    2.8940   29.6000 C   0  0  0  0  0
   25.9260    2.4670   30.9630 C   0  0  0  0  0
   26.7150    3.4670   31.6600 O   0  0  0  0  0
   28.1340    3.1990   31.6770 C   0  0  0  0  0
   15.3970   12.6240   36.8520 F   0  0  0  0  0
   18.7824   10.5636   33.0732 H   0  0  0  0  0
   22.0135    9.4640   30.4292 H   0  0  0  0  0
   21.9196    7.6822   31.2635 H   0  0  0  0  0
   17.9084    8.6979   32.4662 H   0  0  0  0  0
   22.5977   11.8465   30.2332 H   0  0  0  0  0
   17.4057    6.2729   32.5265 H   0  0  0  0  0
   19.5991   14.1635   32.6719 H   0  0  0  0  0
   21.2804    4.1118   31.4918 H   0  0  0  0  0
   16.9962   14.4922   32.9825 H   0  0  0  0  0
   19.4719   11.6423   35.1003 H   0  0  0  0  0
   24.7031    4.6720   31.2504 H   0  0  0  0  0
   15.2516   14.2222   34.7308 H   0  0  0  0  0
   17.7106   11.3666   36.8221 H   0  0  0  0  0
   22.6930    2.4011   30.9407 H   0  0  0  0  0
   22.9692    3.2536   32.4759 H   0  0  0  0  0
   24.7177    4.7689   28.8275 H   0  0  0  0  0
   23.6269    3.4159   28.7346 H   0  0  0  0  0
   24.3960    1.0651   31.5080 H   0  0  0  0  0
   24.9233    2.2119   32.8426 H   0  0  0  0  0
   26.4661    3.4466   29.2633 H   0  0  0  0  0
   25.2943    1.9756   29.0922 H   0  0  0  0  0
   26.5344    1.5684   30.8612 H   0  0  0  0  0
   28.3165    2.2456   32.1729 H   0  0  0  0  0
   28.5064    3.1548   30.6535 H   0  0  0  0  0
   28.6463    3.9950   32.2174 H   0  0  0  0  0
  1  2  1  0  0  0
  1  3  4  0  0  0
  1  4  4  0  0  0
  2  5  4  0  0  0
  2  6  4  0  0  0
  3  7  4  0  0  0
  4  8  4  0  0  0
  5  9  4  0  0  0
  6 10  4  0  0  0
  7 11  1  0  0  0
  7 12  4  0  0  0
  8 12  4  0  0  0
  9 13  1  0  0  0
  9 14  4  0  0  0
 10 14  4  0  0  0
 11 15  1  0  0  0
 13 16  1  0  0  0
 15 17  4  0  0  0
 15 18  4  0  0  0
 16 19  1  0  0  0
 16 20  2  0  0  0
 17 21  4  0  0  0
 18 22  4  0  0  0
 19 23  1  0  0  0
 19 24  1  0  0  0
 21 25  4  0  0  0
 22 25  4  0  0  0
 23 26  1  0  0  0
 24 27  1  0  0  0
 25 31  1  0  0  0
 26 28  1  0  0  0
 27 28  1  0  0  0
 28 29  1  0  0  0
 29 30  1  0  0  0
  3 32  1  0  0  0
  4 33  1  0  0  0
  5 34  1  0  0  0
  6 35  1  0  0  0
  8 36  1  0  0  0
 10 37  1  0  0  0
 11 38  1  0  0  0
 13 39  1  0  0  0
 17 40  1  0  0  0
 18 41  1  0  0  0
 19 42  1  0  0  0
 21 43  1  0  0  0
 22 44  1  0  0  0
 23 45  1  0  0  0
 23 46  1  0  0  0
 24 47  1  0  0  0
 24 48  1  0  0  0
 26 49  1  0  0  0
 26 50  1  0  0  0
 27 51  1  0  0  0
 27 52  1  0  0  0
 28 53  1  0  0  0
 30 54  1  0  0  0
 30 55  1  0  0  0
 30 56  1  0  0  0
M  END
$$$$
