1j5i_ligand
  -I-interpret- 

 42 44  0  0  0  0  0  0  0  0999 V2000
    0.6830    7.1240    1.2830 C   0  0  0  0  0
    0.2690    6.7680   -0.0040 C   0  0  0  0  0
   -0.5130    5.6060   -0.1660 C   0  0  0  0  0
   -0.9360    5.1910   -1.4240 C   0  0  0  0  0
   -0.5480    5.9130   -2.5360 C   0  0  0  0  0
    0.2380    7.0730   -2.4050 C   0  0  0  0  0
    0.6290    7.5510   -1.1220 C   0  0  0  0  0
    1.0210    8.9340   -0.9690 C   0  0  0  0  0
    1.4950    9.5480   -1.9250 O   0  0  0  0  0
    0.9320    9.6840    0.2910 O   0  0  0  0  0
    0.8290   11.1440    0.2320 C   0  0  0  0  0
    0.3890   11.7390    1.5740 C   0  0  0  0  0
   -0.9370   11.9400    1.5490 C   0  0  0  0  0
   -1.5270   11.7790    0.1960 C   0  0  0  0  0
   -0.3080   11.5460   -0.7200 C   0  0  0  0  0
   -0.0260   12.7910   -1.4190 O   0  0  0  0  0
    1.0480   12.9880    1.7900 O   0  0  0  0  0
    0.5790    7.7470   -3.5890 O   0  0  0  0  0
   -0.8700    4.8870    0.9520 C   0  0  0  0  0
   -0.4510    5.2860    2.2130 C   0  0  0  0  0
    0.3320    6.4010    2.3900 C   0  0  0  0  0
    0.7360    6.7450    3.6700 O   0  0  0  0  0
    1.1760    8.0560    4.0800 C   0  0  0  0  0
   -1.7310    3.6670    0.8740 C   0  0  0  0  0
    1.3073    8.0086    1.4088 H   0  0  0  0  0
   -1.5655    4.3076   -1.5313 H   0  0  0  0  0
   -0.8546    5.5800   -3.5276 H   0  0  0  0  0
    1.8129   11.5006   -0.0727 H   0  0  0  0  0
    0.6489   11.0508    2.3783 H   0  0  0  0  0
   -1.5221   12.1956    2.4324 H   0  0  0  0  0
   -2.5794   11.8168   -0.0853 H   0  0  0  0  0
   -0.4563   10.7764   -1.4775 H   0  0  0  0  0
   -0.7596   13.0034   -2.0006 H   0  0  0  0  0
    0.7680   13.3549    2.6318 H   0  0  0  0  0
    1.1120    8.5165   -3.3757 H   0  0  0  0  0
   -0.7498    4.7015    3.0832 H   0  0  0  0  0
    2.0523    8.3422    3.4983 H   0  0  0  0  0
    0.3752    8.7759    3.9111 H   0  0  0  0  0
    1.4319    8.0372    5.1394 H   0  0  0  0  0
   -2.6947    3.9312    0.4385 H   0  0  0  0  0
   -1.2422    2.9181    0.2508 H   0  0  0  0  0
   -1.8816    3.2654    1.8761 H   0  0  0  0  0
  1  2  4  0  0  0
  1 21  4  0  0  0
  2  3  4  0  0  0
  2  7  4  0  0  0
  3  4  4  0  0  0
  3 19  4  0  0  0
  4  5  4  0  0  0
  5  6  4  0  0  0
  6  7  4  0  0  0
  6 18  1  0  0  0
  7  8  1  0  0  0
  8  9  2  0  0  0
  8 10  1  0  0  0
 10 11  1  0  0  0
 11 12  1  0  0  0
 11 15  1  0  0  0
 12 13  1  0  0  0
 12 17  1  0  0  0
 13 14  2  0  0  0
 14 15  1  0  0  0
 15 16  1  0  0  0
 19 20  4  0  0  0
 19 24  1  0  0  0
 20 21  4  0  0  0
 21 22  1  0  0  0
 22 23  1  0  0  0
  1 25  1  0  0  0
  4 26  1  0  0  0
  5 27  1  0  0  0
 11 28  1  0  0  0
 12 29  1  0  0  0
 13 30  1  0  0  0
 14 31  1  0  0  0
 15 32  1  0  0  0
 16 33  1  0  0  0
 17 34  1  0  0  0
 18 35  1  0  0  0
 20 36  1  0  0  0
 23 37  1  0  0  0
 23 38  1  0  0  0
 23 39  1  0  0  0
 24 40  1  0  0  0
 24 41  1  0  0  0
 24 42  1  0  0  0
M  END
$$$$
