3rxi_ligand
  -I-interpret- 

 24 25  0  0  0  0  0  0  0  0999 V2000
   -1.8700  -12.6160   18.0770 N   0  3  0  0  0
   -2.0810  -13.3560   16.8440 C   0  0  0  0  0
   -0.9290  -14.3270   16.6480 C   0  0  0  0  0
   -1.2040  -15.3060   15.5340 C   0  0  0  0  0
   -0.6300  -15.3160   14.2650 C   0  0  0  0  0
   -1.1060  -16.3600   13.5250 N   0  0  0  0  0
   -1.9930  -17.0870   14.2300 C   0  0  0  0  0
   -2.1140  -16.4670   15.5580 C   0  0  0  0  0
   -2.7550  -18.2190   13.9610 C   0  0  0  0  0
   -3.6010  -18.7290   14.9480 C   0  0  0  0  0
   -3.7030  -18.1280   16.2110 C   0  0  0  0  0
   -2.9550  -16.9920   16.5260 C   0  0  0  0  0
   -2.6401  -11.9616   18.2154 H   0  0  0  0  0
   -1.8310  -13.2676   18.8608 H   0  0  0  0  0
   -0.9914  -12.1013   18.0171 H   0  0  0  0  0
   -2.1264  -12.6643   16.0028 H   0  0  0  0  0
   -3.0203  -13.9061   16.9011 H   0  0  0  0  0
   -0.7940  -14.8890   17.5721 H   0  0  0  0  0
   -0.0388  -13.7541   16.3883 H   0  0  0  0  0
    0.1004  -14.5887   13.9106 H   0  0  0  0  0
   -2.6923  -18.7044   12.9871 H   0  0  0  0  0
   -4.1966  -19.6158   14.7315 H   0  0  0  0  0
   -4.3750  -18.5533   16.9564 H   0  0  0  0  0
   -3.0308  -16.5291   17.5099 H   0  0  0  0  0
  1  2  1  0  0  0
  2  3  1  0  0  0
  3  4  1  0  0  0
  4  5  4  0  0  0
  4  8  4  0  0  0
  5  6  4  0  0  0
  6  7  4  0  0  0
  7  8  4  0  0  0
  7  9  4  0  0  0
  8 12  4  0  0  0
  9 10  4  0  0  0
 10 11  4  0  0  0
 11 12  4  0  0  0
  1 13  1  0  0  0
  1 14  1  0  0  0
  1 15  1  0  0  0
  2 16  1  0  0  0
  2 17  1  0  0  0
  3 18  1  0  0  0
  3 19  1  0  0  0
  5 20  1  0  0  0
  9 21  1  0  0  0
 10 22  1  0  0  0
 11 23  1  0  0  0
 12 24  1  0  0  0
M  END
$$$$
