5jgb_ligand
  -I-interpret- 

 64 67  0  0  0  0  0  0  0  0999 V2000
  -11.9030  -48.7930  -15.3580 C   0  0  0  0  0
  -10.6050  -48.7670  -14.8680 C   0  0  0  0  0
   -9.6490  -49.7550  -15.2340 C   0  0  0  0  0
  -11.4210  -50.7380  -16.5870 C   0  0  0  0  0
  -12.3500  -49.8620  -16.2920 N   0  0  0  0  0
  -11.9800  -46.8930  -14.0180 C   0  0  0  0  0
  -12.6930  -47.7010  -14.8550 C   0  0  0  0  0
  -17.0030  -47.3870  -16.4070 C   0  0  0  0  0
  -18.2540  -47.4970  -17.0040 C   0  0  0  0  0
  -18.5550  -48.5710  -17.8490 C   0  0  0  0  0
  -17.5780  -49.5430  -18.0980 C   0  0  0  0  0
  -16.3140  -49.4380  -17.5070 C   0  0  0  0  0
   -8.4860  -49.7780  -14.8270 O   0  0  0  0  0
  -10.1460  -50.7200  -16.1070 N   0  0  0  0  0
  -10.3730  -47.4160  -13.8150 S   0  0  0  0  0
  -14.1360  -47.4310  -15.1860 C   0  0  0  0  0
  -14.7230  -46.4750  -14.6700 O   0  0  0  0  0
  -14.7120  -48.3040  -16.0690 N   0  0  0  0  0
  -16.0150  -48.3490  -16.6460 C   0  0  0  0  0
  -15.2950  -50.3440  -17.6750 O   0  0  0  0  0
  -14.7550  -50.5260  -18.9920 C   0  0  0  0  0
  -19.9090  -48.6810  -18.5050 C   0  0  0  0  0
  -19.9960  -48.9800  -19.6950 O   0  0  0  0  0
  -20.9950  -48.4230  -17.7560 N   0  0  0  0  0
  -22.0520  -49.4090  -17.4980 C   0  0  0  0  0
  -23.1450  -49.4500  -18.5890 C   0  0  0  0  0
  -24.6140  -49.3750  -18.0950 C   0  0  0  0  0
  -25.6260  -49.7350  -19.1140 N   0  3  0  0  0
  -26.7000  -50.5900  -18.5430 C   0  0  0  0  0
  -27.7310  -50.9860  -19.6420 C   0  0  0  0  0
  -28.3140  -49.7880  -20.2750 N   0  3  0  0  0
  -29.2930  -50.1660  -21.2930 C   0  0  0  0  0
  -27.2490  -48.9530  -20.8590 C   0  0  0  0  0
  -26.2190  -48.5340  -19.7740 C   0  0  0  0  0
  -11.6893  -51.5441  -17.2698 H   0  0  0  0  0
  -12.3942  -46.0093  -13.5325 H   0  0  0  0  0
  -16.7903  -46.5453  -15.7480 H   0  0  0  0  0
  -19.0105  -46.7363  -16.8111 H   0  0  0  0  0
  -17.8029  -50.3838  -18.7541 H   0  0  0  0  0
   -9.5137  -51.4621  -16.4067 H   0  0  0  0  0
  -14.0968  -49.0603  -16.3689 H   0  0  0  0  0
  -15.5443  -50.8641  -19.6634 H   0  0  0  0  0
  -14.3509  -49.5797  -19.3516 H   0  0  0  0  0
  -13.9610  -51.2720  -18.9578 H   0  0  0  0  0
  -21.0897  -47.4940  -17.3456 H   0  0  0  0  0
  -22.5365  -49.1294  -16.5625 H   0  0  0  0  0
  -21.5810  -50.3917  -17.4722 H   0  0  0  0  0
  -23.0412  -50.4145  -19.0861 H   0  0  0  0  0
  -22.9881  -48.5671  -19.2087 H   0  0  0  0  0
  -24.8020  -48.3393  -17.8119 H   0  0  0  0  0
  -24.7129  -50.0930  -17.2808 H   0  0  0  0  0
  -25.1320  -50.2702  -19.8281 H   0  0  0  0  0
  -27.2154  -50.0330  -17.7605 H   0  0  0  0  0
  -26.2507  -51.4968  -18.1380 H   0  0  0  0  0
  -28.5321  -51.5622  -19.1790 H   0  0  0  0  0
  -27.2203  -51.5721  -20.4061 H   0  0  0  0  0
  -28.7972  -49.2444  -19.5598 H   0  0  0  0  0
  -28.8045  -50.7677  -22.0594 H   0  0  0  0  0
  -30.0921  -50.7446  -20.8296 H   0  0  0  0  0
  -29.7097  -49.2665  -21.7462 H   0  0  0  0  0
  -27.6988  -48.0548  -21.2821 H   0  0  0  0  0
  -26.7343  -49.5277  -21.6290 H   0  0  0  0  0
  -25.4206  -47.9637  -20.2488 H   0  0  0  0  0
  -26.7276  -47.9336  -19.0197 H   0  0  0  0  0
  1  2  4  0  0  0
  1  5  1  0  0  0
  7  1  4  0  0  0
  2  3  1  0  0  0
 15  2  4  0  0  0
  3 13  2  0  0  0
  3 14  1  0  0  0
  5  4  2  0  0  0
  4 14  1  0  0  0
  7  6  4  0  0  0
  6 15  4  0  0  0
 16  7  1  0  0  0
  8  9  4  0  0  0
 19  8  4  0  0  0
  9 10  4  0  0  0
 11 10  4  0  0  0
 10 22  1  0  0  0
 12 11  4  0  0  0
 19 12  4  0  0  0
 12 20  1  0  0  0
 16 17  2  0  0  0
 18 16  1  0  0  0
 18 19  1  0  0  0
 20 21  1  0  0  0
 22 23  2  0  0  0
 22 24  1  0  0  0
 24 25  1  0  0  0
 25 26  1  0  0  0
 26 27  1  0  0  0
 27 28  1  0  0  0
 28 29  1  0  0  0
 28 34  1  0  0  0
 29 30  1  0  0  0
 30 31  1  0  0  0
 31 32  1  0  0  0
 31 33  1  0  0  0
 33 34  1  0  0  0
  4 35  1  0  0  0
  6 36  1  0  0  0
  8 37  1  0  0  0
  9 38  1  0  0  0
 11 39  1  0  0  0
 14 40  1  0  0  0
 18 41  1  0  0  0
 21 42  1  0  0  0
 21 43  1  0  0  0
 21 44  1  0  0  0
 24 45  1  0  0  0
 25 46  1  0  0  0
 25 47  1  0  0  0
 26 48  1  0  0  0
 26 49  1  0  0  0
 27 50  1  0  0  0
 27 51  1  0  0  0
 28 52  1  0  0  0
 29 53  1  0  0  0
 29 54  1  0  0  0
 30 55  1  0  0  0
 30 56  1  0  0  0
 31 57  1  0  0  0
 32 58  1  0  0  0
 32 59  1  0  0  0
 32 60  1  0  0  0
 33 61  1  0  0  0
 33 62  1  0  0  0
 34 63  1  0  0  0
 34 64  1  0  0  0
M  END
$$$$
