6as8_ligand
  -I-interpret- 

 53 55  0  0  0  0  0  0  0  0999 V2000
   23.5040  128.7760  132.3480 C   0  0  0  0  0
   22.3560  127.8700  134.2540 C   0  0  0  0  0
   21.0040  125.7470  134.0530 C   0  0  0  0  0
   19.4030  123.7430  135.1050 C   0  0  0  0  0
   20.7570  123.5210  134.9160 C   0  0  0  0  0
   21.3670  122.1850  135.2840 C   0  0  0  0  0
   21.8590  124.0870  129.6920 C   0  0  0  0  0
   22.4070  122.4750  131.4930 C   0  0  0  0  0
   21.6660  122.5560  127.8800 O   0  0  0  0  0
   22.0020  123.8860  128.2030 C   0  0  0  0  0
   21.0630  124.8320  127.4990 C   0  0  0  0  0
   19.7440  124.5780  127.9260 O   0  0  0  0  0
   21.4590  126.2420  127.8610 C   0  0  0  0  0
   20.5490  127.2210  127.1560 C   0  0  0  0  0
   19.4620  127.5420  127.9950 O   0  0  0  0  0
   21.3510  126.3990  129.2580 O   0  0  0  0  0
   22.1080  125.5280  130.0690 C   0  0  0  0  0
   21.7050  125.6540  131.4110 O   0  0  0  0  0
   22.2230  126.7530  132.1290 C   0  0  0  0  0
   23.0350  127.7320  131.5650 C   0  0  0  0  0
   23.1640  128.8460  133.6910 C   0  0  0  0  0
   21.8870  126.8300  133.4700 C   0  0  0  0  0
   19.6480  125.9690  134.2350 C   0  0  0  0  0
   18.8480  124.9670  134.7640 C   0  0  0  0  0
   20.8420  121.1190  134.8700 O   0  0  0  0  0
   22.4020  122.1420  136.0010 O   0  0  0  0  0
   21.5550  124.5230  134.3880 C   0  0  0  0  0
   22.8010  123.2660  130.3780 N   0  0  0  0  0
   23.4250  121.6140  132.2060 C   0  0  0  0  0
   21.2580  122.4810  131.8850 O   0  0  0  0  0
   24.1409  129.5430  131.9074 H   0  0  0  0  0
   22.0911  127.9214  135.3101 H   0  0  0  0  0
   18.7742  122.9561  135.5215 H   0  0  0  0  0
   20.8417  123.8161  129.9746 H   0  0  0  0  0
   21.7561  122.4253  126.9332 H   0  0  0  0  0
   23.0279  124.0823  127.8915 H   0  0  0  0  0
   21.1169  124.6963  126.4188 H   0  0  0  0  0
   19.1430  125.1789  127.4795 H   0  0  0  0  0
   22.4862  126.4334  127.5507 H   0  0  0  0  0
   20.1765  126.7720  126.2353 H   0  0  0  0  0
   21.1053  128.1281  126.9197 H   0  0  0  0  0
   18.8851  128.1639  127.5456 H   0  0  0  0  0
   23.1570  125.7904  129.9318 H   0  0  0  0  0
   23.3020  127.6784  130.5096 H   0  0  0  0  0
   23.5322  129.6687  134.3040 H   0  0  0  0  0
   19.2109  126.9297  133.9628 H   0  0  0  0  0
   17.7823  125.1419  134.9117 H   0  0  0  0  0
   22.6698  123.0354  136.2283 H   0  0  0  0  0
   22.6198  124.3465  134.2361 H   0  0  0  0  0
   23.7716  123.2453  130.0650 H   0  0  0  0  0
   23.4948  121.9241  133.2486 H   0  0  0  0  0
   23.1149  120.5702  132.1560 H   0  0  0  0  0
   24.3966  121.7291  131.7256 H   0  0  0  0  0
 20  1  4  0  0  0
  1 21  4  0  0  0
 21  2  4  0  0  0
  2 22  4  0  0  0
 22  3  1  0  0  0
  3 23  4  0  0  0
  3 27  4  0  0  0
  5  4  4  0  0  0
  4 24  4  0  0  0
  5  6  1  0  0  0
 27  5  4  0  0  0
  6 25  2  0  0  0
  6 26  1  0  0  0
  7 10  1  0  0  0
 17  7  1  0  0  0
  7 28  1  0  0  0
 28  8  1  0  0  0
  8 29  1  0  0  0
  8 30  2  0  0  0
 10  9  1  0  0  0
 10 11  1  0  0  0
 11 12  1  0  0  0
 13 11  1  0  0  0
 13 14  1  0  0  0
 16 13  1  0  0  0
 14 15  1  0  0  0
 17 16  1  0  0  0
 18 17  1  0  0  0
 19 18  1  0  0  0
 19 20  4  0  0  0
 19 22  4  0  0  0
 23 24  4  0  0  0
  1 31  1  0  0  0
  2 32  1  0  0  0
  4 33  1  0  0  0
  7 34  1  0  0  0
  9 35  1  0  0  0
 10 36  1  0  0  0
 11 37  1  0  0  0
 12 38  1  0  0  0
 13 39  1  0  0  0
 14 40  1  0  0  0
 14 41  1  0  0  0
 15 42  1  0  0  0
 17 43  1  0  0  0
 20 44  1  0  0  0
 21 45  1  0  0  0
 23 46  1  0  0  0
 24 47  1  0  0  0
 26 48  1  0  0  0
 27 49  1  0  0  0
 28 50  1  0  0  0
 29 51  1  0  0  0
 29 52  1  0  0  0
 29 53  1  0  0  0
M  END
$$$$
