5q0h_ligand
  -I-interpret- 

 64 67  0  0  0  0  0  0  0  0999 V2000
   41.8810  -20.7550   29.7330 N   0  0  0  0  0
   43.2140  -20.7030   29.3620 C   0  0  0  0  0
   41.7630  -24.9090   30.0040 C   0  0  0  0  0
   40.8440  -24.8980   28.7630 C   0  0  0  0  0
   39.9730  -22.8620   27.5780 C   0  0  0  0  0
   42.9090  -23.9300   29.8900 C   0  0  0  0  0
   48.5960  -21.7020   33.1850 C   0  0  0  0  0
   50.5800  -22.0190   34.4490 C   0  0  0  0  0
   43.3070  -20.3320   28.0520 C   0  0  0  0  0
   40.0880  -23.6080   28.6610 C   0  0  0  0  0
   37.0450  -16.6830   29.1260 C   0  0  0  0  0
   44.6740  -20.1100   27.0460 Cl  0  0  0  0  0
   39.7020  -20.5180   28.5350 C   0  0  0  0  0
   41.2020  -20.4440   28.6450 C   0  0  0  0  0
   39.2310  -21.5560   27.5060 C   0  0  0  0  0
   44.2800  -21.0910   30.3190 C   0  0  0  0  0
   45.4100  -20.2770   30.4430 C   0  0  0  0  0
   46.4120  -20.5750   31.3540 C   0  0  0  0  0
   46.3090  -21.7020   32.1690 C   0  0  0  0  0
   45.1880  -22.5230   32.0540 C   0  0  0  0  0
   44.1800  -22.2430   31.1340 C   0  0  0  0  0
   42.0050  -20.1580   27.5910 N   0  0  0  0  0
   43.0920  -23.1400   30.9680 N   0  0  0  0  0
   47.3190  -22.1540   33.0680 N   0  0  0  0  0
   49.1520  -22.2110   34.3010 O   0  0  0  0  0
   49.1670  -20.9630   32.4140 O   0  0  0  0  0
   43.6120  -23.8770   28.8780 O   0  0  0  0  0
   39.9030  -26.0980   28.7950 C   0  0  0  0  0
   36.3430  -15.5660   28.7400 C   0  0  0  0  0
   36.9140  -14.6730   27.8350 C   0  0  0  0  0
   38.1880  -14.9480   27.3490 C   0  0  0  0  0
   38.8460  -16.0780   27.7720 C   0  0  0  0  0
   38.3230  -16.9830   28.6830 C   0  0  0  0  0
   36.4470  -17.5640   29.9530 F   0  0  0  0  0
   39.0640  -18.2160   29.1330 C   0  0  0  0  0
   40.0540  -16.3540   27.2340 F   0  0  0  0  0
   39.1460  -19.2090   28.2290 N   0  0  0  0  0
   39.5260  -18.2980   30.2670 O   0  0  0  0  0
   36.1550  -13.4600   27.3640 C   0  0  0  0  0
   42.1856  -25.9093   30.0986 H   0  0  0  0  0
   41.1627  -24.6224   30.8675 H   0  0  0  0  0
   41.4648  -24.9769   27.8706 H   0  0  0  0  0
   40.4523  -23.2198   26.6668 H   0  0  0  0  0
   51.0972  -22.4898   33.6130 H   0  0  0  0  0
   50.8025  -20.9520   34.4611 H   0  0  0  0  0
   50.9111  -22.4712   35.3839 H   0  0  0  0  0
   39.5880  -23.2538   29.5624 H   0  0  0  0  0
   39.3324  -20.8465   29.5064 H   0  0  0  0  0
   38.1818  -21.7664   27.7134 H   0  0  0  0  0
   39.4080  -21.1357   26.5160 H   0  0  0  0  0
   45.5049  -19.3928   29.8126 H   0  0  0  0  0
   47.2839  -19.9257   31.4335 H   0  0  0  0  0
   45.0987  -23.3997   32.6955 H   0  0  0  0  0
   42.4005  -23.1906   31.7161 H   0  0  0  0  0
   47.0510  -22.9082   33.7003 H   0  0  0  0  0
   39.2416  -26.0165   29.6575 H   0  0  0  0  0
   39.3095  -26.1172   27.8809 H   0  0  0  0  0
   40.4878  -27.0148   28.8693 H   0  0  0  0  0
   35.3460  -15.3798   29.1392 H   0  0  0  0  0
   38.6614  -14.2716   26.6373 H   0  0  0  0  0
   38.8021  -19.0359   27.2845 H   0  0  0  0  0
   35.2383  -13.7770   26.8668 H   0  0  0  0  0
   35.9072  -12.8329   28.2204 H   0  0  0  0  0
   36.7723  -12.8954   26.6652 H   0  0  0  0  0
  1  2  4  0  0  0
 14  1  4  0  0  0
  9  2  4  0  0  0
  2 16  1  0  0  0
  4  3  1  0  0  0
  3  6  1  0  0  0
 10  4  1  0  0  0
  4 28  1  0  0  0
  5 10  2  0  0  0
 15  5  1  0  0  0
  6 23  1  0  0  0
  6 27  2  0  0  0
 24  7  1  0  0  0
  7 25  1  0  0  0
  7 26  2  0  0  0
 25  8  1  0  0  0
  9 12  1  0  0  0
 22  9  4  0  0  0
 11 29  4  0  0  0
 33 11  4  0  0  0
 11 34  1  0  0  0
 13 14  1  0  0  0
 13 15  1  0  0  0
 37 13  1  0  0  0
 14 22  4  0  0  0
 16 17  4  0  0  0
 16 21  4  0  0  0
 17 18  4  0  0  0
 18 19  4  0  0  0
 20 19  4  0  0  0
 19 24  1  0  0  0
 21 20  4  0  0  0
 21 23  1  0  0  0
 29 30  4  0  0  0
 31 30  4  0  0  0
 30 39  1  0  0  0
 32 31  4  0  0  0
 33 32  4  0  0  0
 32 36  1  0  0  0
 35 33  1  0  0  0
 35 37  1  0  0  0
 35 38  2  0  0  0
  3 40  1  0  0  0
  3 41  1  0  0  0
  4 42  1  0  0  0
  5 43  1  0  0  0
  8 44  1  0  0  0
  8 45  1  0  0  0
  8 46  1  0  0  0
 10 47  1  0  0  0
 13 48  1  0  0  0
 15 49  1  0  0  0
 15 50  1  0  0  0
 17 51  1  0  0  0
 18 52  1  0  0  0
 20 53  1  0  0  0
 23 54  1  0  0  0
 24 55  1  0  0  0
 28 56  1  0  0  0
 28 57  1  0  0  0
 28 58  1  0  0  0
 29 59  1  0  0  0
 31 60  1  0  0  0
 37 61  1  0  0  0
 39 62  1  0  0  0
 39 63  1  0  0  0
 39 64  1  0  0  0
M  END
$$$$
