5w7u_ligand
  -I-interpret- 

 56 60  0  0  0  0  0  0  0  0999 V2000
  126.3490  105.3210  285.5820 C   0  0  0  0  0
  132.9890  105.2190  282.5730 C   0  0  0  0  0
  133.0110  103.8530  282.8160 C   0  0  0  0  0
  132.2650  102.9870  282.0300 C   0  0  0  0  0
  131.5010  103.5090  281.0000 C   0  0  0  0  0
  131.4760  104.8700  280.7600 C   0  0  0  0  0
  132.2210  105.7380  281.5400 C   0  0  0  0  0
  133.9210  103.5620  283.9810 C   0  0  0  0  0
  131.0670  106.4500  288.4460 C   0  0  0  0  0
  129.8240  106.3480  289.0800 C   0  0  0  0  0
  128.7110  102.0140  287.7230 C   0  0  0  0  0
  127.6490  105.2480  285.0740 C   0  0  0  0  0
  129.8210  101.4680  286.8380 C   0  0  0  0  0
  129.3250  101.8220  285.4510 C   0  0  0  0  0
  128.3670  106.4440  285.0110 C   0  0  0  0  0
  127.7630  107.6250  285.4220 C   0  0  0  0  0
  125.8250  106.5440  285.9780 C   0  0  0  0  0
  128.2530  103.9320  284.6760 C   0  0  0  0  0
  128.4600  103.4010  287.1070 C   0  0  0  0  0
  129.3600  104.5070  287.6150 C   0  0  0  0  0
  131.3990  105.5840  287.4420 C   0  0  0  0  0
  132.7110  105.6560  286.7090 C   0  0  0  0  0
  133.9360  104.9110  284.7270 C   0  0  0  0  0
  133.8800  105.9210  283.5630 C   0  0  0  0  0
  128.6490  103.1150  285.6640 N   0  0  0  0  0
  130.5480  104.6380  287.0200 N   0  0  0  0  0
  132.7390  105.0110  285.5380 N   0  0  0  0  0
  128.9840  105.3510  288.6320 N   0  0  0  0  0
  126.5210  107.6730  285.8980 N   0  0  0  0  0
  128.4020  103.6270  283.4930 O   0  0  0  0  0
  133.6780  106.2920  287.1300 O   0  0  0  0  0
  131.8800  107.4170  288.8900 O   0  0  0  0  0
  129.4500  107.0930  290.0040 O   0  0  0  0  0
  125.3790  103.9020  285.7100 Cl  0  0  0  0  0
  129.9840  106.4780  284.4110 Cl  0  0  0  0  0
  132.2800  101.9138  282.2200 H   0  0  0  0  0
  130.9131  102.8397  280.3719 H   0  0  0  0  0
  130.8638  105.2638  279.9487 H   0  0  0  0  0
  132.2047  106.8105  281.3461 H   0  0  0  0  0
  134.9131  103.2269  283.6784 H   0  0  0  0  0
  133.5766  102.7327  284.5989 H   0  0  0  0  0
  128.9817  102.0539  288.7781 H   0  0  0  0  0
  127.8227  101.3825  287.7386 H   0  0  0  0  0
  129.9943  100.4005  286.9739 H   0  0  0  0  0
  130.8000  101.8895  287.0658 H   0  0  0  0  0
  128.6650  101.0631  285.0306 H   0  0  0  0  0
  130.1278  101.8797  284.7160 H   0  0  0  0  0
  128.3307  108.5529  285.3517 H   0  0  0  0  0
  124.8077  106.5793  286.3679 H   0  0  0  0  0
  127.4814  103.8033  287.3689 H   0  0  0  0  0
  134.7880  105.0587  285.3906 H   0  0  0  0  0
  133.5031  106.8993  283.8613 H   0  0  0  0  0
  134.8624  106.1648  283.1587 H   0  0  0  0  0
  131.8824  104.5711  285.2016 H   0  0  0  0  0
  128.0666  105.2378  289.0633 H   0  0  0  0  0
  131.4440  107.9015  289.5948 H   0  0  0  0  0
 12  1  4  0  0  0
  1 17  4  0  0  0
  1 34  1  0  0  0
  2  3  4  0  0  0
  2  7  4  0  0  0
 24  2  1  0  0  0
  3  4  4  0  0  0
  8  3  1  0  0  0
  4  5  4  0  0  0
  6  5  4  0  0  0
  7  6  4  0  0  0
 23  8  1  0  0  0
  9 10  1  0  0  0
 21  9  2  0  0  0
  9 32  1  0  0  0
 10 28  1  0  0  0
 10 33  2  0  0  0
 11 13  1  0  0  0
 19 11  1  0  0  0
 12 15  4  0  0  0
 18 12  1  0  0  0
 14 13  1  0  0  0
 25 14  1  0  0  0
 15 16  4  0  0  0
 15 35  1  0  0  0
 16 29  4  0  0  0
 17 29  4  0  0  0
 25 18  1  0  0  0
 18 30  2  0  0  0
 20 19  1  0  0  0
 19 25  1  0  0  0
 26 20  2  0  0  0
 20 28  1  0  0  0
 22 21  1  0  0  0
 21 26  1  0  0  0
 27 22  1  0  0  0
 22 31  2  0  0  0
 23 24  1  0  0  0
 23 27  1  0  0  0
  4 36  1  0  0  0
  5 37  1  0  0  0
  6 38  1  0  0  0
  7 39  1  0  0  0
  8 40  1  0  0  0
  8 41  1  0  0  0
 11 42  1  0  0  0
 11 43  1  0  0  0
 13 44  1  0  0  0
 13 45  1  0  0  0
 14 46  1  0  0  0
 14 47  1  0  0  0
 16 48  1  0  0  0
 17 49  1  0  0  0
 19 50  1  0  0  0
 23 51  1  0  0  0
 24 52  1  0  0  0
 24 53  1  0  0  0
 27 54  1  0  0  0
 28 55  1  0  0  0
 32 56  1  0  0  0
M  END
$$$$
