6fer_ligand
  -I-interpret- 

 55 59  0  0  0  0  0  0  0  0999 V2000
   51.0670  -26.8710   49.7940 N   0  0  0  0  0
   52.0270  -26.6790   48.8290 C   0  0  0  0  0
   53.5820  -25.7140   47.4570 C   0  0  0  0  0
   52.6360  -25.4120   48.5020 C   0  0  0  0  0
   50.6610  -23.3220   50.9650 C   0  0  0  0  0
   51.2440  -22.9280   52.1860 N   0  0  0  0  0
   50.7120  -21.6940   52.7720 C   0  0  0  0  0
   52.9570  -20.5600   52.1370 C   0  0  0  0  0
   52.7440  -23.0400   52.3520 C   0  0  0  0  0
   53.3840  -20.2350   53.5730 C   0  0  0  0  0
   55.8150  -18.5600   54.9180 C   0  0  0  0  0
   57.9380  -19.1420   57.4560 C   0  0  0  0  0
   51.2340  -24.4390   50.1790 C   0  0  0  0  0
   51.3970  -20.5080   52.0430 C   0  0  0  0  0
   53.5210  -21.8780   51.6760 C   0  0  0  0  0
   53.5330  -19.4000   51.4060 C   0  0  0  0  0
   53.8960  -18.3890   52.3100 C   0  0  0  0  0
   50.7070  -25.7400   50.4340 C   0  0  0  0  0
   54.3170  -18.2780   54.8160 C   0  0  0  0  0
   57.8710  -18.2290   56.2210 C   0  0  0  0  0
   54.2730  -17.1480   51.9060 C   0  0  0  0  0
   54.3190  -16.8800   50.5330 C   0  0  0  0  0
   54.0130  -17.8620   49.6220 C   0  0  0  0  0
   53.6230  -19.1550   50.0700 C   0  0  0  0  0
   52.2180  -24.2540   49.2060 C   0  0  0  0  0
   57.6560  -18.5030   58.5840 F   0  0  0  0  0
   57.0260  -20.1130   57.3320 F   0  0  0  0  0
   59.1190  -19.7290   57.6570 F   0  0  0  0  0
   53.4030  -20.1030   49.1980 F   0  0  0  0  0
   54.0860  -17.5960   48.3070 F   0  0  0  0  0
   53.8600  -18.9100   53.6040 N   0  0  0  0  0
   56.4620  -18.0320   56.0230 N   0  0  0  0  0
   52.6090  -27.6140   47.9960 N   0  0  0  0  0
   53.5460  -27.0210   47.1750 N   0  0  0  0  0
   49.6850  -22.7380   50.5600 O   0  0  0  0  0
   53.3730  -20.9090   54.5880 O   0  0  0  0  0
   56.4050  -19.2100   54.0540 O   0  0  0  0  0
   54.2301  -24.9858   46.9693 H   0  0  0  0  0
   50.9173  -21.6573   53.8419 H   0  0  0  0  0
   49.6299  -21.6464   52.6500 H   0  0  0  0  0
   53.0608  -23.9694   51.8787 H   0  0  0  0  0
   52.9622  -23.0070   53.4194 H   0  0  0  0  0
   51.0641  -19.5858   52.5192 H   0  0  0  0  0
   51.1238  -20.5608   50.9891 H   0  0  0  0  0
   54.5742  -21.9378   51.9504 H   0  0  0  0  0
   53.4215  -21.9565   50.5934 H   0  0  0  0  0
   49.9489  -25.8272   51.2123 H   0  0  0  0  0
   54.1237  -17.2055   54.7923 H   0  0  0  0  0
   53.7871  -18.6713   55.6835 H   0  0  0  0  0
   58.3569  -18.6692   55.3502 H   0  0  0  0  0
   58.4068  -17.2910   56.3664 H   0  0  0  0  0
   54.5334  -16.3794   52.6336 H   0  0  0  0  0
   54.5993  -15.8861   50.1843 H   0  0  0  0  0
   52.6424  -23.2717   48.9985 H   0  0  0  0  0
   55.9294  -17.4947   56.7071 H   0  0  0  0  0
  1  2  4  0  0  0
 18  1  4  0  0  0
  4  2  4  0  0  0
  2 33  4  0  0  0
  4  3  4  0  0  0
  3 34  4  0  0  0
 25  4  4  0  0  0
  6  5  1  0  0  0
  5 13  1  0  0  0
  5 35  2  0  0  0
  7  6  1  0  0  0
  9  6  1  0  0  0
 14  7  1  0  0  0
 10  8  1  0  0  0
  8 14  1  0  0  0
  8 15  1  0  0  0
 16  8  1  0  0  0
 15  9  1  0  0  0
 31 10  1  0  0  0
 10 36  2  0  0  0
 11 19  1  0  0  0
 32 11  1  0  0  0
 11 37  2  0  0  0
 20 12  1  0  0  0
 12 26  1  0  0  0
 12 27  1  0  0  0
 12 28  1  0  0  0
 13 18  4  0  0  0
 13 25  4  0  0  0
 17 16  4  0  0  0
 16 24  4  0  0  0
 17 21  4  0  0  0
 31 17  1  0  0  0
 19 31  1  0  0  0
 20 32  1  0  0  0
 21 22  4  0  0  0
 22 23  4  0  0  0
 23 24  4  0  0  0
 23 30  1  0  0  0
 24 29  1  0  0  0
 33 34  4  0  0  0
  3 38  1  0  0  0
  7 39  1  0  0  0
  7 40  1  0  0  0
  9 41  1  0  0  0
  9 42  1  0  0  0
 14 43  1  0  0  0
 14 44  1  0  0  0
 15 45  1  0  0  0
 15 46  1  0  0  0
 18 47  1  0  0  0
 19 48  1  0  0  0
 19 49  1  0  0  0
 20 50  1  0  0  0
 20 51  1  0  0  0
 21 52  1  0  0  0
 22 53  1  0  0  0
 25 54  1  0  0  0
 32 55  1  0  0  0
M  END
$$$$
