5o1b_ligand
  -I-interpret- 

 25 26  0  0  0  0  0  0  0  0999 V2000
   90.6670   95.4700  -44.7470 C   0  0  0  0  0
   90.7600   94.2980  -45.5100 C   0  0  0  0  0
   91.2460   93.1040  -44.9630 C   0  0  0  0  0
   91.6510   93.0700  -43.6140 C   0  0  0  0  0
   91.5710   94.2440  -42.8370 C   0  0  0  0  0
   91.0820   95.4350  -43.4150 C   0  0  0  0  0
   92.1760   91.9100  -42.9940 N   0  0  0  0  0
   91.4970   90.8150  -42.5090 C   0  0  0  0  0
   92.4110   89.9350  -41.9670 C   0  0  0  0  0
   93.6930   90.5090  -42.1190 C   0  0  0  0  0
   93.5220   91.7180  -42.7530 C   0  0  0  0  0
   92.1680   94.2390  -40.7900 I   0  0  0  0  0
   91.2750   91.4760  -46.3130 I   0  0  0  0  0
   90.1410   96.7380  -45.3660 C   0  0  0  0  0
   89.7450   96.5160  -46.7150 O   0  0  0  0  0
   90.9670   96.6080  -42.7130 O   0  0  0  0  0
   90.4466   94.3163  -46.5538 H   0  0  0  0  0
   90.4176   90.6678  -42.5469 H   0  0  0  0  0
   92.1854   88.9733  -41.5061 H   0  0  0  0  0
   94.6392   90.0757  -41.7950 H   0  0  0  0  0
   94.3191   92.4113  -43.0213 H   0  0  0  0  0
   90.9300   97.4899  -45.3507 H   0  0  0  0  0
   89.2746   97.0739  -44.7963 H   0  0  0  0  0
   89.4137   97.3357  -47.0891 H   0  0  0  0  0
   91.2779   96.4738  -41.8147 H   0  0  0  0  0
  1  2  4  0  0  0
  1  6  4  0  0  0
  1 14  1  0  0  0
  2  3  4  0  0  0
  3  4  4  0  0  0
  3 13  1  0  0  0
  4  5  4  0  0  0
  4  7  1  0  0  0
  5  6  4  0  0  0
  5 12  1  0  0  0
  6 16  1  0  0  0
  7  8  4  0  0  0
  7 11  4  0  0  0
  8  9  4  0  0  0
  9 10  4  0  0  0
 10 11  4  0  0  0
 14 15  1  0  0  0
  2 17  1  0  0  0
  8 18  1  0  0  0
  9 19  1  0  0  0
 10 20  1  0  0  0
 11 21  1  0  0  0
 14 22  1  0  0  0
 14 23  1  0  0  0
 15 24  1  0  0  0
 16 25  1  0  0  0
M  END
$$$$
