1f90_ligand
  -I-interpret- 

159159  0  0  0  0  0  0  0  0999 V2000
   59.1680   59.6480  -25.6250 N   0  3  0  0  0
   59.8460   58.8870  -24.5230 C   0  0  0  0  0
   60.0390   57.3980  -24.8540 C   0  0  0  0  0
   59.0900   56.7050  -25.2310 O   0  0  0  0  0
   59.0430   59.0330  -23.2280 C   0  0  0  0  0
   59.8180   58.7110  -21.9550 C   0  0  0  0  0
   59.2340   59.4630  -20.7580 C   0  0  0  0  0
   60.0240   59.1950  -19.4840 C   0  0  0  0  0
   59.6730   60.1220  -18.3630 N   0  3  0  0  0
   61.2760   56.8860  -24.7020 N   0  0  0  0  0
   61.6340   55.4890  -24.9770 C   0  0  0  0  0
   60.6190   54.4560  -24.4940 C   0  0  0  0  0
   59.9080   54.6790  -23.5230 O   0  0  0  0  0
   62.9840   55.3410  -24.2820 C   0  0  0  0  0
   63.5810   56.6790  -24.4690 C   0  0  0  0  0
   62.4330   57.6140  -24.1550 C   0  0  0  0  0
   60.5670   53.3190  -25.1820 N   0  0  0  0  0
   59.6480   52.2410  -24.8350 C   0  0  0  0  0
   59.9630   51.6420  -23.4740 C   0  0  0  0  0
   59.0540   51.3230  -22.7110 O   0  0  0  0  0
   59.6840   51.1510  -25.9100 C   0  0  0  0  0
   58.9640   51.5240  -27.2040 C   0  0  0  0  0
   59.1380   50.4450  -28.2520 C   0  0  0  0  0
   57.4960   51.7320  -26.8860 C   0  0  0  0  0
   61.2460   51.4900  -23.1690 N   0  0  0  0  0
   61.6530   50.9380  -21.8820 C   0  0  0  0  0
   60.9620   51.6400  -20.7070 C   0  0  0  0  0
   60.6510   51.0150  -19.6940 O   0  0  0  0  0
   63.1590   51.0350  -21.7220 C   0  0  0  0  0
   63.6050   50.7400  -20.3300 C   0  0  0  0  0
   64.8700   49.9340  -20.2910 C   0  0  0  0  0
   65.8630   50.3580  -20.9150 O   0  0  0  0  0
   64.8650   48.8740  -19.6320 O   0  0  0  0  0
   60.7240   52.9410  -20.8420 N   0  0  0  0  0
   60.0420   53.6860  -19.7940 C   0  0  0  0  0
   58.5450   53.5690  -19.9890 C   0  0  0  0  0
   57.8240   53.1850  -19.0720 O   0  0  0  0  0
   60.4420   55.1570  -19.8150 C   0  0  0  0  0
   61.8170   55.4120  -19.2470 C   0  0  0  0  0
   62.1320   56.8800  -19.1580 C   0  0  0  0  0
   62.1050   57.5570  -20.2050 O   0  0  0  0  0
   62.4080   57.3590  -18.0410 O   0  0  0  0  0
   58.0840   53.8940  -21.1910 N   0  0  0  0  0
   56.6650   53.8200  -21.5140 C   0  0  0  0  0
   56.0520   52.5040  -21.0630 C   0  0  0  0  0
   54.9830   52.4910  -20.4620 O   0  0  0  0  0
   56.4250   53.9640  -23.0340 C   0  0  0  0  0
   54.9580   53.7590  -23.3500 C   0  0  0  0  0
   56.8720   55.3350  -23.5040 C   0  0  0  0  0
   56.7360   51.3990  -21.3370 N   0  0  0  0  0
   56.2230   50.0790  -20.9810 C   0  0  0  0  0
   56.3120   49.7130  -19.5020 C   0  0  0  0  0
   55.7260   48.7200  -19.0660 O   0  0  0  0  0
   56.9210   49.0050  -21.8240 C   0  0  0  0  0
   56.6300   49.0220  -23.3350 C   0  0  0  0  0
   57.5280   48.0090  -24.0200 C   0  0  0  0  0
   55.1550   48.7200  -23.6130 C   0  0  0  0  0
   57.0350   50.5150  -18.7290 N   0  0  0  0  0
   57.1870   50.2530  -17.3010 C   0  0  0  0  0
   56.8250   51.4740  -16.4600 C   0  0  0  0  0
   57.5840   51.8880  -15.5820 O   0  0  0  0  0
   58.6250   49.8220  -17.0020 C   0  0  0  0  0
   58.9990   48.5240  -17.6910 C   0  0  0  0  0
   58.3800   47.4820  -17.4610 O   0  0  0  0  0
   60.0170   48.5800  -18.5420 N   0  0  0  0  0
   55.6520   52.0380  -16.7300 N   0  0  0  0  0
   55.1850   53.2220  -16.0170 C   0  0  0  0  0
   53.6590   53.2830  -16.0350 C   0  0  0  0  0
   53.1060   54.2950  -16.5240 O   0  0  0  0  0
   55.7690   54.4780  -16.6730 C   0  0  0  0  0
   55.5420   55.8460  -16.0280 C   0  0  0  0  0
   56.1580   55.8750  -14.6340 C   0  0  0  0  0
   56.1600   56.9220  -16.9150 C   0  0  0  0  0
   53.0360   52.3100  -15.5570 O   0  0  0  0  0
   59.7057   59.5485  -26.4860 H   0  0  0  0  0
   58.2283   59.2767  -25.7647 H   0  0  0  0  0
   59.1109   60.6341  -25.3704 H   0  0  0  0  0
   60.8410   59.3152  -24.4020 H   0  0  0  0  0
   58.2188   58.3220  -23.2850 H   0  0  0  0  0
   58.7414   60.0782  -23.1589 H   0  0  0  0  0
   60.8559   59.0159  -22.0890 H   0  0  0  0  0
   59.7503   57.6400  -21.7640 H   0  0  0  0  0
   58.2100   59.1224  -20.6050 H   0  0  0  0  0
   59.2764   60.5314  -20.9699 H   0  0  0  0  0
   61.0793   59.3415  -19.7141 H   0  0  0  0  0
   59.7898   58.1814  -19.1585 H   0  0  0  0  0
   60.2344   59.8904  -17.5435 H   0  0  0  0  0
   59.8630   61.0833  -18.6462 H   0  0  0  0  0
   58.6832   60.0219  -18.1379 H   0  0  0  0  0
   61.6606   55.2903  -26.0484 H   0  0  0  0  0
   63.5937   54.5373  -24.6948 H   0  0  0  0  0
   62.8983   55.0516  -23.2346 H   0  0  0  0  0
   63.9814   56.8253  -25.4722 H   0  0  0  0  0
   64.4479   56.8467  -23.8300 H   0  0  0  0  0
   62.3376   57.8336  -23.0916 H   0  0  0  0  0
   62.5582   58.6067  -24.5873 H   0  0  0  0  0
   61.1911   53.1968  -25.9795 H   0  0  0  0  0
   58.6463   52.6677  -24.7832 H   0  0  0  0  0
   59.1766   50.2779  -25.4998 H   0  0  0  0  0
   60.7310   50.9820  -26.1617 H   0  0  0  0  0
   59.3907   52.4403  -27.6120 H   0  0  0  0  0
   60.1989   50.3160  -28.4662 H   0  0  0  0  0
   58.7248   49.5079  -27.8789 H   0  0  0  0  0
   58.6151   50.7371  -29.1627 H   0  0  0  0  0
   57.0801   50.8112  -26.4771 H   0  0  0  0  0
   57.3940   52.5342  -26.1551 H   0  0  0  0  0
   56.9624   51.9997  -27.7980 H   0  0  0  0  0
   61.9585   51.7637  -23.8456 H   0  0  0  0  0
   61.3478   49.8917  -21.8695 H   0  0  0  0  0
   63.4579   52.0554  -21.9620 H   0  0  0  0  0
   63.6158   50.2999  -22.3846 H   0  0  0  0  0
   62.8217   50.1605  -19.8414 H   0  0  0  0  0
   63.7954   51.6893  -19.8294 H   0  0  0  0  0
   63.9986   48.7473  -19.2384 H   0  0  0  0  0
   61.0228   53.4227  -21.6900 H   0  0  0  0  0
   60.3300   53.2662  -18.8302 H   0  0  0  0  0
   59.7259   55.7012  -19.1993 H   0  0  0  0  0
   60.4512   55.4803  -20.8559 H   0  0  0  0  0
   62.5485   54.9478  -19.9085 H   0  0  0  0  0
   61.8502   54.9965  -18.2399 H   0  0  0  0  0
   61.8711   56.9913  -20.9445 H   0  0  0  0  0
   58.7407   54.2037  -21.9074 H   0  0  0  0  0
   56.1904   54.6448  -20.9824 H   0  0  0  0  0
   57.0076   53.2052  -23.5564 H   0  0  0  0  0
   54.6551   52.7614  -23.0320 H   0  0  0  0  0
   54.3659   54.5058  -22.8210 H   0  0  0  0  0
   54.8010   53.8628  -24.4236 H   0  0  0  0  0
   56.3037   56.1015  -22.9771 H   0  0  0  0  0
   57.9344   55.4607  -23.2952 H   0  0  0  0  0
   56.6980   55.4247  -24.5763 H   0  0  0  0  0
   57.6387   51.4740  -21.8060 H   0  0  0  0  0
   55.1557   50.1237  -21.1976 H   0  0  0  0  0
   56.5537   48.0468  -21.4565 H   0  0  0  0  0
   57.9906   49.1877  -21.7204 H   0  0  0  0  0
   56.8370   50.0162  -23.7309 H   0  0  0  0  0
   58.5710   48.2710  -23.8421 H   0  0  0  0  0
   57.3275   47.0164  -23.6168 H   0  0  0  0  0
   57.3284   48.0144  -25.0916 H   0  0  0  0  0
   54.9069   47.7342  -23.2196 H   0  0  0  0  0
   54.5336   49.4730  -23.1282 H   0  0  0  0  0
   54.9781   48.7386  -24.6884 H   0  0  0  0  0
   57.4923   51.3286  -19.1404 H   0  0  0  0  0
   56.4993   49.4505  -17.0344 H   0  0  0  0  0
   58.7127   49.6686  -15.9264 H   0  0  0  0  0
   59.2924   50.6015  -17.3694 H   0  0  0  0  0
   60.3156   47.7391  -19.0361 H   0  0  0  0  0
   60.5003   49.4639  -18.7015 H   0  0  0  0  0
   55.0619   51.6316  -17.4560 H   0  0  0  0  0
   55.5177   53.1686  -14.9804 H   0  0  0  0  0
   53.7777   54.9099  -16.8279 H   0  0  0  0  0
   55.2667   54.5426  -17.6382 H   0  0  0  0  0
   56.8484   54.3316  -16.6340 H   0  0  0  0  0
   54.4732   56.0357  -15.9289 H   0  0  0  0  0
   55.6936   55.1058  -14.0169 H   0  0  0  0  0
   57.2290   55.6862  -14.7074 H   0  0  0  0  0
   55.9903   56.8537  -14.1844 H   0  0  0  0  0
   57.2291   56.7363  -17.0179 H   0  0  0  0  0
   55.6891   56.8956  -17.8977 H   0  0  0  0  0
   56.0018   57.9003  -16.4611 H   0  0  0  0  0
  1  2  1  0  0  0
  2  3  1  0  0  0
  2  5  1  0  0  0
  3  4  2  0  0  0
  3 10  1  0  0  0
  5  6  1  0  0  0
  6  7  1  0  0  0
  7  8  1  0  0  0
  8  9  1  0  0  0
 10 11  1  0  0  0
 10 16  1  0  0  0
 11 12  1  0  0  0
 11 14  1  0  0  0
 12 13  2  0  0  0
 12 17  1  0  0  0
 14 15  1  0  0  0
 15 16  1  0  0  0
 17 18  1  0  0  0
 18 19  1  0  0  0
 18 21  1  0  0  0
 19 20  2  0  0  0
 19 25  1  0  0  0
 21 22  1  0  0  0
 22 23  1  0  0  0
 22 24  1  0  0  0
 25 26  1  0  0  0
 26 27  1  0  0  0
 26 29  1  0  0  0
 27 28  2  0  0  0
 27 34  1  0  0  0
 29 30  1  0  0  0
 30 31  1  0  0  0
 31 32  2  0  0  0
 31 33  1  0  0  0
 34 35  1  0  0  0
 35 36  1  0  0  0
 35 38  1  0  0  0
 36 37  2  0  0  0
 36 43  1  0  0  0
 38 39  1  0  0  0
 39 40  1  0  0  0
 40 41  1  0  0  0
 40 42  2  0  0  0
 43 44  1  0  0  0
 44 45  1  0  0  0
 44 47  1  0  0  0
 45 46  2  0  0  0
 45 50  1  0  0  0
 47 48  1  0  0  0
 47 49  1  0  0  0
 50 51  1  0  0  0
 51 52  1  0  0  0
 51 54  1  0  0  0
 52 53  2  0  0  0
 52 58  1  0  0  0
 54 55  1  0  0  0
 55 56  1  0  0  0
 55 57  1  0  0  0
 58 59  1  0  0  0
 59 60  1  0  0  0
 59 62  1  0  0  0
 60 61  2  0  0  0
 60 66  1  0  0  0
 62 63  1  0  0  0
 63 64  2  0  0  0
 63 65  1  0  0  0
 66 67  1  0  0  0
 67 68  1  0  0  0
 67 70  1  0  0  0
 68 69  1  0  0  0
 68 74  2  0  0  0
 70 71  1  0  0  0
 71 72  1  0  0  0
 71 73  1  0  0  0
  1 75  1  0  0  0
  1 76  1  0  0  0
  1 77  1  0  0  0
  2 78  1  0  0  0
  5 79  1  0  0  0
  5 80  1  0  0  0
  6 81  1  0  0  0
  6 82  1  0  0  0
  7 83  1  0  0  0
  7 84  1  0  0  0
  8 85  1  0  0  0
  8 86  1  0  0  0
  9 87  1  0  0  0
  9 88  1  0  0  0
  9 89  1  0  0  0
 11 90  1  0  0  0
 14 91  1  0  0  0
 14 92  1  0  0  0
 15 93  1  0  0  0
 15 94  1  0  0  0
 16 95  1  0  0  0
 16 96  1  0  0  0
 17 97  1  0  0  0
 18 98  1  0  0  0
 21 99  1  0  0  0
 21100  1  0  0  0
 22101  1  0  0  0
 23102  1  0  0  0
 23103  1  0  0  0
 23104  1  0  0  0
 24105  1  0  0  0
 24106  1  0  0  0
 24107  1  0  0  0
 25108  1  0  0  0
 26109  1  0  0  0
 29110  1  0  0  0
 29111  1  0  0  0
 30112  1  0  0  0
 30113  1  0  0  0
 33114  1  0  0  0
 34115  1  0  0  0
 35116  1  0  0  0
 38117  1  0  0  0
 38118  1  0  0  0
 39119  1  0  0  0
 39120  1  0  0  0
 41121  1  0  0  0
 43122  1  0  0  0
 44123  1  0  0  0
 47124  1  0  0  0
 48125  1  0  0  0
 48126  1  0  0  0
 48127  1  0  0  0
 49128  1  0  0  0
 49129  1  0  0  0
 49130  1  0  0  0
 50131  1  0  0  0
 51132  1  0  0  0
 54133  1  0  0  0
 54134  1  0  0  0
 55135  1  0  0  0
 56136  1  0  0  0
 56137  1  0  0  0
 56138  1  0  0  0
 57139  1  0  0  0
 57140  1  0  0  0
 57141  1  0  0  0
 58142  1  0  0  0
 59143  1  0  0  0
 62144  1  0  0  0
 62145  1  0  0  0
 65146  1  0  0  0
 65147  1  0  0  0
 66148  1  0  0  0
 67149  1  0  0  0
 69150  1  0  0  0
 70151  1  0  0  0
 70152  1  0  0  0
 71153  1  0  0  0
 72154  1  0  0  0
 72155  1  0  0  0
 72156  1  0  0  0
 73157  1  0  0  0
 73158  1  0  0  0
 73159  1  0  0  0
M  END
$$$$
