### 
### Created by X-TOOL on Mon Sep 10 21:12:48 2018
### 

@<TRIPOS>MOLECULE
1f90_ligand
  156   156     1     0     0
SMALL
GAST_HUCK


@<TRIPOS>ATOM
      1 N          59.1680   59.6480  -25.6250 N.4       1 LYS         0.2379
      2 CA         59.8460   58.8870  -24.5230 C.3       1 LYS         0.0652
      3 C          60.0390   57.3980  -24.8540 C.2       1 LYS         0.2292
      4 O          59.0900   56.7050  -25.2310 O.2       1 LYS        -0.3905
      5 CB         59.0430   59.0330  -23.2280 C.3       1 LYS         0.0080
      6 CG         59.8180   58.7110  -21.9550 C.3       1 LYS        -0.0410
      7 CD         59.2340   59.4630  -20.7580 C.3       1 LYS        -0.0123
      8 CE         60.0240   59.1950  -19.4840 C.3       1 LYS        -0.0354
      9 NZ         59.6730   60.1220  -18.3630 N.4       1 LYS         0.2185
     10 N          61.2760   56.8860  -24.7020 N.am      1 PRO        -0.2471
     11 CA         61.6340   55.4890  -24.9770 C.3       1 PRO         0.1339
     12 C          60.6190   54.4560  -24.4940 C.2       1 PRO         0.2041
     13 O          59.9080   54.6790  -23.5230 O.2       1 PRO        -0.3944
     14 CB         62.9840   55.3410  -24.2820 C.3       1 PRO        -0.0104
     15 CG         63.5810   56.6790  -24.4690 C.3       1 PRO        -0.0281
     16 CD         62.4330   57.6140  -24.1550 C.3       1 PRO         0.0371
     17 N          60.5670   53.3190  -25.1820 N.am      1 LEU        -0.2637
     18 CA         59.6480   52.2410  -24.8350 C.3       1 LEU         0.1312
     19 C          59.9630   51.6420  -23.4740 C.2       1 LEU         0.2039
     20 O          59.0540   51.3230  -22.7110 O.2       1 LEU        -0.3944
     21 CB         59.6840   51.1510  -25.9100 C.3       1 LEU        -0.0101
     22 CG         58.9640   51.5240  -27.2040 C.3       1 LEU        -0.0425
     23 CD1        59.1380   50.4450  -28.2520 C.3       1 LEU        -0.0625
     24 CD2        57.4960   51.7320  -26.8860 C.3       1 LEU        -0.0625
     25 N          61.2460   51.4900  -23.1690 N.am      1 GLU        -0.2636
     26 CA         61.6530   50.9380  -21.8820 C.3       1 GLU         0.1325
     27 C          60.9620   51.6400  -20.7070 C.2       1 GLU         0.2040
     28 O          60.6510   51.0150  -19.6940 O.2       1 GLU        -0.3944
     29 CB         63.1590   51.0350  -21.7220 C.3       1 GLU        -0.0008
     30 CG         63.6050   50.7400  -20.3300 C.3       1 GLU         0.0044
     31 CD         64.8700   49.9340  -20.2910 C.2       1 GLU         0.0350
     32 OE1        65.8630   50.3580  -20.9150 O.co2     1 GLU        -0.5690
     33 OE2        64.8650   48.8740  -19.6320 O.co2     1 GLU        -0.5690
     34 N          60.7240   52.9410  -20.8420 N.am      1 GLU        -0.2636
     35 CA         60.0420   53.6860  -19.7940 C.3       1 GLU         0.1325
     36 C          58.5450   53.5690  -19.9890 C.2       1 GLU         0.2040
     37 O          57.8240   53.1850  -19.0720 O.2       1 GLU        -0.3944
     38 CB         60.4420   55.1570  -19.8150 C.3       1 GLU        -0.0008
     39 CG         61.8170   55.4120  -19.2470 C.3       1 GLU         0.0044
     40 CD         62.1320   56.8800  -19.1580 C.2       1 GLU         0.0350
     41 OE1        62.1050   57.5570  -20.2050 O.co2     1 GLU        -0.5690
     42 OE2        62.4080   57.3590  -18.0410 O.co2     1 GLU        -0.5690
     43 N          58.0840   53.8940  -21.1910 N.am      1 VAL        -0.2635
     44 CA         56.6650   53.8200  -21.5140 C.3       1 VAL         0.1332
     45 C          56.0520   52.5040  -21.0630 C.2       1 VAL         0.2041
     46 O          54.9830   52.4910  -20.4620 O.2       1 VAL        -0.3944
     47 CB         56.4250   53.9640  -23.0340 C.3       1 VAL        -0.0063
     48 CG1        54.9580   53.7590  -23.3500 C.3       1 VAL        -0.0584
     49 CG2        56.8720   55.3350  -23.5040 C.3       1 VAL        -0.0584
     50 N          56.7360   51.3990  -21.3370 N.am      1 LEU        -0.2637
     51 CA         56.2230   50.0790  -20.9810 C.3       1 LEU         0.1312
     52 C          56.3120   49.7130  -19.5020 C.2       1 LEU         0.2040
     53 O          55.7260   48.7200  -19.0660 O.2       1 LEU        -0.3944
     54 CB         56.9210   49.0050  -21.8240 C.3       1 LEU        -0.0101
     55 CG         56.6300   49.0220  -23.3350 C.3       1 LEU        -0.0425
     56 CD1        57.5280   48.0090  -24.0200 C.3       1 LEU        -0.0625
     57 CD2        55.1550   48.7200  -23.6130 C.3       1 LEU        -0.0625
     58 N          57.0350   50.5150  -18.7290 N.am      1 ASN        -0.2616
     59 CA         57.1870   50.2530  -17.3010 C.3       1 ASN         0.1475
     60 C          56.8250   51.4740  -16.4600 C.2       1 ASN         0.2057
     61 O          57.5840   51.8880  -15.5820 O.2       1 ASN        -0.3942
     62 CB         58.6250   49.8220  -17.0020 C.3       1 ASN         0.0773
     63 CG         58.9990   48.5240  -17.6910 C.2       1 ASN         0.1780
     64 OD1        58.3800   47.4820  -17.4610 O.2       1 ASN        -0.3970
     65 ND2        60.0170   48.5800  -18.5420 N.am      1 ASN        -0.3007
     66 N          55.6520   52.0380  -16.7300 N.am      1 LEU        -0.2693
     67 CA         55.1850   53.2220  -16.0170 C.3       1 LEU         0.0946
     68 C          53.6590   53.2830  -16.0350 C.2       1 LEU         0.0601
     69 O          53.1060   54.2950  -16.5240 O.co2     1 LEU        -0.5666
     70 CB         55.7690   54.4780  -16.6730 C.3       1 LEU        -0.0156
     71 CG         55.5420   55.8460  -16.0280 C.3       1 LEU        -0.0431
     72 CD1        56.1580   55.8750  -14.6340 C.3       1 LEU        -0.0625
     73 CD2        56.1600   56.9220  -16.9150 C.3       1 LEU        -0.0625
     74 OXT        53.0360   52.3100  -15.5570 O.co2     1 LEU        -0.5666
     75 H1         59.0683   60.6138  -25.3543 H         1 LYS         0.2015
     76 H2         58.2573   59.2514  -25.7963 H         1 LYS         0.2015
     77 H3         59.7231   59.5899  -26.4644 H         1 LYS         0.2015
     78 H4         60.8410   59.3298  -24.3687 H         1 LYS         0.1098
     79 H5         58.1787   58.3549  -23.2831 H         1 LYS         0.0346
     80 H6         58.6898   60.0725  -23.1598 H         1 LYS         0.0346
     81 H7         60.8691   59.0064  -22.0884 H         1 LYS         0.0270
     82 H8         59.7626   57.6293  -21.7631 H         1 LYS         0.0270
     83 H9         58.1936   59.1394  -20.6069 H         1 LYS         0.0317
     84 H10        59.2553   60.5421  -20.9701 H         1 LYS         0.0317
     85 H11        61.0952   59.3074  -19.7074 H         1 LYS         0.0813
     86 H12        59.8234   58.1633  -19.1595 H         1 LYS         0.0813
     87 H13        60.2273   59.8941  -17.5525 H         1 LYS         0.1994
     88 H14        58.6950   60.0239  -18.1396 H         1 LYS         0.1994
     89 H15        59.8604   61.0724  -18.6417 H         1 LYS         0.1994
     90 H16        61.7550   55.3516  -26.0616 H         1 PRO         0.0802
     91 H17        63.5952   54.5615  -24.7602 H         1 PRO         0.0313
     92 H18        62.8592   55.1059  -23.2147 H         1 PRO         0.0313
     93 H19        63.9293   56.8149  -25.5035 H         1 PRO         0.0287
     94 H20        64.4202   56.8374  -23.7757 H         1 PRO         0.0287
     95 H21        62.3302   57.7682  -23.0707 H         1 PRO         0.0524
     96 H22        62.5636   58.5861  -24.6529 H         1 PRO         0.0524
     97 H23        61.1789   53.1992  -25.9638 H         1 LEU         0.1883
     98 H24        58.6311   52.6586  -24.7970 H         1 LEU         0.0800
     99 H25        59.2106   50.2466  -25.5003 H         1 LEU         0.0315
    100 H26        60.7361   50.9376  -26.1499 H         1 LEU         0.0315
    101 H27        59.3856   52.4625  -27.5931 H         1 LEU         0.0298
    102 H28        58.6107   50.7386  -29.1716 H         1 LEU         0.0232
    103 H29        58.7213   49.4987  -27.8767 H         1 LEU         0.0232
    104 H30        60.2083   50.3139  -28.4691 H         1 LEU         0.0232
    105 H31        57.3938   52.5187  -26.1239 H         1 LEU         0.0232
    106 H32        57.0670   50.7938  -26.5043 H         1 LEU         0.0232
    107 H33        56.9623   52.0345  -27.7990 H         1 LEU         0.0232
    108 H34        61.9446   51.7583  -23.8324 H         1 GLU         0.1883
    109 H35        61.3675   49.8759  -21.8617 H         1 GLU         0.0801
    110 H36        63.4770   52.0545  -21.9858 H         1 GLU         0.0330
    111 H37        63.6335   50.3147  -22.4046 H         1 GLU         0.0330
    112 H38        62.8116   50.1764  -19.8173 H         1 GLU         0.0433
    113 H39        63.7766   51.6915  -19.8053 H         1 GLU         0.0433
    114 H40        61.0170   53.4133  -21.6733 H         1 GLU         0.1883
    115 H41        60.3145   53.2576  -18.8182 H         1 GLU         0.0801
    116 H42        59.7095   55.7261  -19.2239 H         1 GLU         0.0330
    117 H43        60.4246   55.5084  -20.8572 H         1 GLU         0.0330
    118 H44        62.5631   54.9283  -19.8946 H         1 GLU         0.0433
    119 H45        61.8698   54.9767  -18.2382 H         1 GLU         0.0433
    120 H46        58.7278   54.1977  -21.8934 H         1 VAL         0.1883
    121 H47        56.1536   54.6439  -20.9948 H         1 VAL         0.0802
    122 H48        57.0129   53.1982  -23.5611 H         1 VAL         0.0343
    123 H49        54.7982   53.8635  -24.4333 H         1 VAL         0.0234
    124 H50        54.3593   54.5121  -22.8168 H         1 VAL         0.0234
    125 H51        54.6510   52.7525  -23.0295 H         1 VAL         0.0234
    126 H52        57.9378   55.4734  -23.2698 H         1 VAL         0.0234
    127 H53        56.2808   56.1088  -22.9924 H         1 VAL         0.0234
    128 H54        56.7217   55.4172  -24.5906 H         1 VAL         0.0234
    129 H55        57.6210   51.4725  -21.7968 H         1 LEU         0.1883
    130 H56        55.1550   50.0734  -21.2444 H         1 LEU         0.0800
    131 H57        56.6135   48.0229  -21.4355 H         1 LEU         0.0315
    132 H58        58.0059   49.1286  -21.6912 H         1 LEU         0.0315
    133 H59        56.8596   50.0231  -23.7288 H         1 LEU         0.0298
    134 H60        57.3275   48.0135  -25.1016 H         1 LEU         0.0232
    135 H61        57.3266   47.0067  -23.6139 H         1 LEU         0.0232
    136 H62        58.5809   48.2723  -23.8413 H         1 LEU         0.0232
    137 H63        54.5260   49.4669  -23.1065 H         1 LEU         0.0232
    138 H64        54.9086   47.7166  -23.2355 H         1 LEU         0.0232
    139 H65        54.9705   48.7596  -24.6967 H         1 LEU         0.0232
    140 H66        57.4833   51.3127  -19.1324 H         1 ASN         0.1885
    141 H67        56.5090   49.4315  -17.0265 H         1 ASN         0.0826
    142 H68        58.7343   49.6885  -15.9156 H         1 ASN         0.0551
    143 H69        59.3085   50.6127  -17.3449 H         1 ASN         0.0551
    144 H70        60.3096   47.7556  -19.0265 H         1 ASN         0.1814
    145 H71        60.4909   49.4466  -18.6983 H         1 ASN         0.1814
    146 H72        55.0735   51.6396  -17.4418 H         1 LEU         0.1875
    147 H73        55.5273   53.1699  -14.9729 H         1 LEU         0.0726
    148 H74        55.3504   54.5311  -17.6888 H         1 LEU         0.0308
    149 H75        56.8574   54.3301  -16.7321 H         1 LEU         0.0308
    150 H76        54.4609   56.0298  -15.9420 H         1 LEU         0.0297
    151 H77        55.9894   56.8623  -14.1791 H         1 LEU         0.0232
    152 H78        57.2389   55.6846  -14.7067 H         1 LEU         0.0232
    153 H79        55.6902   55.0992  -14.0101 H         1 LEU         0.0232
    154 H80        55.7009   56.8820  -17.9138 H         1 LEU         0.0232
    155 H81        57.2427   56.7483  -17.0019 H         1 LEU         0.0232
    156 H82        55.9820   57.9117  -16.4690 H         1 LEU         0.0232
@<TRIPOS>BOND
     1    1    2 1  
     2    2    3 1  
     3    2    5 1  
     4    3    4 2  
     5    3   10 am 
     6    5    6 1  
     7    6    7 1  
     8    7    8 1  
     9    8    9 1  
    10   10   11 1  
    11   10   16 1  
    12   11   12 1  
    13   11   14 1  
    14   12   13 2  
    15   12   17 am 
    16   14   15 1  
    17   15   16 1  
    18   17   18 1  
    19   18   19 1  
    20   18   21 1  
    21   19   20 2  
    22   19   25 am 
    23   21   22 1  
    24   22   23 1  
    25   22   24 1  
    26   25   26 1  
    27   26   27 1  
    28   26   29 1  
    29   27   28 2  
    30   27   34 am 
    31   29   30 1  
    32   30   31 1  
    33   31   32 ar 
    34   31   33 ar 
    35   34   35 1  
    36   35   36 1  
    37   35   38 1  
    38   36   37 2  
    39   36   43 am 
    40   38   39 1  
    41   39   40 1  
    42   40   41 ar 
    43   40   42 ar 
    44   43   44 1  
    45   44   45 1  
    46   44   47 1  
    47   45   46 2  
    48   45   50 am 
    49   47   48 1  
    50   47   49 1  
    51   50   51 1  
    52   51   52 1  
    53   51   54 1  
    54   52   53 2  
    55   52   58 am 
    56   54   55 1  
    57   55   56 1  
    58   55   57 1  
    59   58   59 1  
    60   59   60 1  
    61   59   62 1  
    62   60   61 2  
    63   60   66 am 
    64   62   63 1  
    65   63   64 2  
    66   63   65 am 
    67   66   67 1  
    68   67   68 1  
    69   67   70 1  
    70   68   69 ar 
    71   68   74 ar 
    72   70   71 1  
    73   71   72 1  
    74   71   73 1  
    75    1   75 1  
    76    1   76 1  
    77    1   77 1  
    78    2   78 1  
    79    5   79 1  
    80    5   80 1  
    81    6   81 1  
    82    6   82 1  
    83    7   83 1  
    84    7   84 1  
    85    8   85 1  
    86    8   86 1  
    87    9   87 1  
    88    9   88 1  
    89    9   89 1  
    90   11   90 1  
    91   14   91 1  
    92   14   92 1  
    93   15   93 1  
    94   15   94 1  
    95   16   95 1  
    96   16   96 1  
    97   17   97 1  
    98   18   98 1  
    99   21   99 1  
   100   21  100 1  
   101   22  101 1  
   102   23  102 1  
   103   23  103 1  
   104   23  104 1  
   105   24  105 1  
   106   24  106 1  
   107   24  107 1  
   108   25  108 1  
   109   26  109 1  
   110   29  110 1  
   111   29  111 1  
   112   30  112 1  
   113   30  113 1  
   114   34  114 1  
   115   35  115 1  
   116   38  116 1  
   117   38  117 1  
   118   39  118 1  
   119   39  119 1  
   120   43  120 1  
   121   44  121 1  
   122   47  122 1  
   123   48  123 1  
   124   48  124 1  
   125   48  125 1  
   126   49  126 1  
   127   49  127 1  
   128   49  128 1  
   129   50  129 1  
   130   51  130 1  
   131   54  131 1  
   132   54  132 1  
   133   55  133 1  
   134   56  134 1  
   135   56  135 1  
   136   56  136 1  
   137   57  137 1  
   138   57  138 1  
   139   57  139 1  
   140   58  140 1  
   141   59  141 1  
   142   62  142 1  
   143   62  143 1  
   144   65  144 1  
   145   65  145 1  
   146   66  146 1  
   147   67  147 1  
   148   70  148 1  
   149   70  149 1  
   150   71  150 1  
   151   72  151 1  
   152   72  152 1  
   153   72  153 1  
   154   73  154 1  
   155   73  155 1  
   156   73  156 1  
@<TRIPOS>SUBSTRUCTURE
     1 LYS         1

