### 
### Created by X-TOOL on Mon Sep 10 21:12:51 2018
### 

@<TRIPOS>MOLECULE
1wdy_ligand
  101   109     1     0     0
SMALL
GAST_HUCK


@<TRIPOS>ATOM
      1 O1P        27.7480   -2.7590   16.3710 O.co2     1 25A        -0.5537
      2 P          27.2050   -1.7830   15.3850 P.3       1 25A         0.2008
      3 O2P        27.9110   -0.4270   15.5720 O.co2     1 25A        -0.5537
      4 O3P        27.3470   -2.3470   13.9550 O.co2     1 25A        -0.5537
      5 O5'        25.6430   -1.6660   15.6990 O.3       1 25A        -0.2734
      6 C5'        25.1960   -1.0900   16.8920 C.3       1 25A         0.1072
      7 C4'        23.7320   -1.4260   17.1130 C.3       1 25A         0.1186
      8 O4'        22.8350   -0.6710   16.2960 O.3       1 25A        -0.3361
      9 C1'        21.7470   -1.4800   15.8720 C.3       1 25A         0.2064
     10 C2'        21.9430   -2.7840   16.6090 C.3       1 25A         0.1774
     11 O2'        21.3360   -2.6780   17.8680 O.3       1 25A        -0.2425
     12 C3'        23.4200   -2.8850   16.8410 C.3       1 25A         0.1203
     13 O3'        23.7300   -3.7410   17.9250 O.3       1 25A        -0.3860
     14 N9         21.9050   -1.5970   14.4140 N.pl3     1 25A        -0.1915
     15 C8         22.4850   -2.5990   13.6790 C.2       1 25A         0.1123
     16 N7         22.4480   -2.2410   12.3770 N.2       1 25A        -0.2958
     17 C5         21.8750   -1.0180   12.2680 C.ar      1 25A         0.1045
     18 C6         21.6140   -0.1810   11.1850 C.ar      1 25A         0.1298
     19 N6         21.9080   -0.5160    9.9310 N.pl3     1 25A        -0.3152
     20 C4         21.5390   -0.6050   13.5510 C.ar      1 25A         0.1613
     21 N3         20.9370    0.5800   13.7930 N.ar      1 25A        -0.2714
     22 C2         20.6780    1.4120   12.7180 C.ar      1 25A         0.0533
     23 N1         20.9930    1.0270   11.4350 N.ar      1 25A        -0.2698
     24 P1         19.9510   -3.3500   18.3660 P.3       1 25A         0.2558
     25 OBP        19.7390   -4.6330   17.6700 O.co2     1 25A        -0.6177
     26 OCP        19.9260   -3.1500   19.8350 O.co2     1 25A        -0.6177
     27 OF'        18.8590   -2.3490   17.7350 O.3       1 25A        -0.2514
     28 CF'        18.5990   -1.0450   18.2450 C.3       1 25A         0.1124
     29 CE'        17.6010   -0.4060   17.2980 C.3       1 25A         0.1194
     30 OE'        18.2410   -0.1390   16.0200 O.3       1 25A        -0.3360
     31 CB'        17.3090   -0.3360   14.9790 C.3       1 25A         0.2079
     32 N19        17.8920   -1.2990   14.0610 N.pl3     1 25A        -0.1914
     33 C18        18.3720   -2.5530   14.3310 C.2       1 25A         0.1123
     34 N17        18.8470   -3.1690   13.2700 N.2       1 25A        -0.2958
     35 C15        18.6570   -2.2590   12.2420 C.ar      1 25A         0.1045
     36 C14        18.0630   -1.1090   12.7130 C.ar      1 25A         0.1613
     37 N13        17.7430   -0.0160   12.0130 N.ar      1 25A        -0.2714
     38 C12        18.0610   -0.1650   10.7210 C.ar      1 25A         0.0533
     39 N11        18.6310   -1.2150   10.1240 N.ar      1 25A        -0.2698
     40 C16        18.9470   -2.3000   10.8650 C.ar      1 25A         0.1298
     41 N16        19.5200   -3.3530   10.2740 N.pl3     1 25A        -0.3152
     42 CC'        16.0030   -0.7720   15.6210 C.3       1 25A         0.1855
     43 OC'        15.1860    0.3710   15.8020 O.3       1 25A        -0.2238
     44 CD'        16.4110   -1.3050   16.9680 C.3       1 25A         0.1217
     45 OD'        15.3720   -1.1410   17.9340 O.3       1 25A        -0.3859
     46 P2         13.8440    0.5350   14.7870 P.3       1 25A         0.2609
     47 OMP        14.2400    0.1040   13.4350 O.2       1 25A        -0.5370
     48 OP'        12.8500   -0.6070   15.3240 O.3       1 25A        -0.2325
     49 CP'        12.4250   -0.6240   16.6810 C.3       1 25A         0.1207
     50 CO'        11.0120   -1.1560   16.8260 C.3       1 25A         0.1203
     51 OO'        10.0690   -0.2550   16.2010 O.3       1 25A        -0.3363
     52 CL'         8.8820   -0.9830   15.9230 C.3       1 25A         0.2010
     53 N29         8.3080   -0.4140   14.7120 N.pl3     1 25A        -0.1919
     54 C28         7.2140    0.4010   14.6650 C.2       1 25A         0.1123
     55 N27         6.9160    0.7930   13.4550 N.2       1 25A        -0.2958
     56 C25         7.8610    0.2000   12.6620 C.ar      1 25A         0.1045
     57 C24         8.7380   -0.5530   13.4140 C.ar      1 25A         0.1613
     58 N23         9.7820   -1.2610   12.9520 N.ar      1 25A        -0.2714
     59 C22         9.8900   -1.1470   11.6310 C.ar      1 25A         0.0533
     60 N21         9.1150   -0.4630   10.7860 N.ar      1 25A        -0.2698
     61 C26         8.0730    0.2360   11.2720 C.ar      1 25A         0.1298
     62 N26         7.2970    0.9340   10.4340 N.pl3     1 25A        -0.3152
     63 CM'         9.2470   -2.4700   15.8350 C.3       1 25A         0.1385
     64 OM'         8.4670   -3.1980   16.7570 O.3       1 25A        -0.3836
     65 CN'        10.7440   -2.4940   16.1460 C.3       1 25A         0.1150
     66 ON'        11.0990   -3.5460   17.0150 O.3       1 25A        -0.3864
     67 H1         25.3149    0.0021   16.8364 H         1 25A         0.0639
     68 H2         25.7903   -1.4813   17.7308 H         1 25A         0.0639
     69 H3         23.5062   -1.2092   18.1675 H         1 25A         0.0650
     70 H4         20.7714   -1.0365   16.1200 H         1 25A         0.1000
     71 H5         21.5508   -3.6406   16.0413 H         1 25A         0.0741
     72 H6         23.9461   -3.2441   15.9442 H         1 25A         0.0652
     73 H7         24.6724   -3.7777   18.0386 H         1 25A         0.2100
     74 H8         22.9029   -3.5229   14.0761 H         1 25A         0.1349
     75 H9         21.6969    0.1348    9.1611 H         1 25A         0.1820
     76 H10        22.3466   -1.4261    9.7304 H         1 25A         0.1820
     77 H11        20.2209    2.3799   12.8889 H         1 25A         0.0996
     78 H12        19.5273   -0.4556   18.2737 H         1 25A         0.0647
     79 H13        18.1745   -1.1102   19.2577 H         1 25A         0.0647
     80 H14        17.2401    0.5309   17.7475 H         1 25A         0.0651
     81 H15        17.1375    0.6065   14.4384 H         1 25A         0.1001
     82 H16        18.3615   -2.9964   15.3256 H         1 25A         0.1349
     83 H17        17.8256    0.6744   10.0767 H         1 25A         0.0996
     84 H18        19.7120   -3.3344    9.2622 H         1 25A         0.1820
     85 H19        19.7696   -4.1831   10.8303 H         1 25A         0.1820
     86 H20        15.4849   -1.5341   15.0204 H         1 25A         0.0758
     87 H21        16.7028   -2.3641   16.9126 H         1 25A         0.0653
     88 H22        15.1686   -0.2174   18.0250 H         1 25A         0.2100
     89 H23        13.4455    1.4608   14.8000 H         1 25A         0.2320
     90 H24        12.4610    0.4014   17.0776 H         1 25A         0.0665
     91 H25        13.1070   -1.2649   17.2590 H         1 25A         0.0665
     92 H26        10.7942   -1.2478   17.9003 H         1 25A         0.0652
     93 H27         8.1618   -0.8530   16.7442 H         1 25A         0.0996
     94 H28         6.6469    0.6948   15.5471 H         1 25A         0.1349
     95 H29        10.7185   -1.6812   11.1801 H         1 25A         0.0996
     96 H30         7.4946    0.9277    9.4232 H         1 25A         0.1820
     97 H31         6.5023    1.4774   10.8000 H         1 25A         0.1820
     98 H32         9.0646   -2.8615   14.8234 H         1 25A         0.0676
     99 H33         8.6926   -4.1193   16.7030 H         1 25A         0.2101
    100 H34        11.3239   -2.5826   15.2155 H         1 25A         0.0648
    101 H35        10.6310   -3.4487   17.8359 H         1 25A         0.2100
@<TRIPOS>BOND
     1    1    2 ar 
     2    2    3 ar 
     3    2    4 ar 
     4    2    5 1  
     5    5    6 1  
     6    6    7 1  
     7    7    8 1  
     8    7   12 1  
     9    8    9 1  
    10    9   10 1  
    11    9   14 1  
    12   10   11 1  
    13   10   12 1  
    14   11   24 1  
    15   12   13 1  
    16   14   15 1  
    17   14   20 1  
    18   15   16 2  
    19   16   17 1  
    20   17   18 ar 
    21   17   20 ar 
    22   18   19 1  
    23   18   23 ar 
    24   20   21 ar 
    25   21   22 ar 
    26   22   23 ar 
    27   24   25 ar 
    28   24   26 ar 
    29   24   27 1  
    30   27   28 1  
    31   28   29 1  
    32   29   30 1  
    33   29   44 1  
    34   30   31 1  
    35   31   32 1  
    36   31   42 1  
    37   32   33 1  
    38   32   36 1  
    39   33   34 2  
    40   34   35 1  
    41   35   36 ar 
    42   35   40 ar 
    43   36   37 ar 
    44   37   38 ar 
    45   38   39 ar 
    46   39   40 ar 
    47   40   41 1  
    48   42   43 1  
    49   42   44 1  
    50   43   46 1  
    51   44   45 1  
    52   46   47 2  
    53   46   48 1  
    54   48   49 1  
    55   49   50 1  
    56   50   51 1  
    57   50   65 1  
    58   51   52 1  
    59   52   53 1  
    60   52   63 1  
    61   53   54 1  
    62   53   57 1  
    63   54   55 2  
    64   55   56 1  
    65   56   57 ar 
    66   56   61 ar 
    67   57   58 ar 
    68   58   59 ar 
    69   59   60 ar 
    70   60   61 ar 
    71   61   62 1  
    72   63   64 1  
    73   63   65 1  
    74   65   66 1  
    75    6   67 1  
    76    6   68 1  
    77    7   69 1  
    78    9   70 1  
    79   10   71 1  
    80   12   72 1  
    81   13   73 1  
    82   15   74 1  
    83   19   75 1  
    84   19   76 1  
    85   22   77 1  
    86   28   78 1  
    87   28   79 1  
    88   29   80 1  
    89   31   81 1  
    90   33   82 1  
    91   38   83 1  
    92   41   84 1  
    93   41   85 1  
    94   42   86 1  
    95   44   87 1  
    96   45   88 1  
    97   46   89 1  
    98   49   90 1  
    99   49   91 1  
   100   50   92 1  
   101   52   93 1  
   102   54   94 1  
   103   59   95 1  
   104   62   96 1  
   105   62   97 1  
   106   63   98 1  
   107   64   99 1  
   108   65  100 1  
   109   66  101 1  
@<TRIPOS>SUBSTRUCTURE
     1 25A         1

