1wdy_ligand
  -I-interpret- 

103111  0  0  0  0  0  0  0  0999 V2000
   27.7480   -2.7590   16.3710 O   0  0  0  0  0
   27.2050   -1.7830   15.3850 P   0  0  0  0  0
   27.9110   -0.4270   15.5720 O   0  0  0  0  0
   27.3470   -2.3470   13.9550 O   0  0  0  0  0
   25.6430   -1.6660   15.6990 O   0  0  0  0  0
   25.1960   -1.0900   16.8920 C   0  0  0  0  0
   23.7320   -1.4260   17.1130 C   0  0  0  0  0
   22.8350   -0.6710   16.2960 O   0  0  0  0  0
   21.7470   -1.4800   15.8720 C   0  0  0  0  0
   21.9430   -2.7840   16.6090 C   0  0  0  0  0
   21.3360   -2.6780   17.8680 O   0  0  0  0  0
   23.4200   -2.8850   16.8410 C   0  0  0  0  0
   23.7300   -3.7410   17.9250 O   0  0  0  0  0
   21.9050   -1.5970   14.4140 N   0  0  0  0  0
   22.4850   -2.5990   13.6790 C   0  0  0  0  0
   22.4480   -2.2410   12.3770 N   0  0  0  0  0
   21.8750   -1.0180   12.2680 C   0  0  0  0  0
   21.6140   -0.1810   11.1850 C   0  0  0  0  0
   21.9080   -0.5160    9.9310 N   0  0  0  0  0
   21.5390   -0.6050   13.5510 C   0  0  0  0  0
   20.9370    0.5800   13.7930 N   0  0  0  0  0
   20.6780    1.4120   12.7180 C   0  0  0  0  0
   20.9930    1.0270   11.4350 N   0  0  0  0  0
   19.9510   -3.3500   18.3660 P   0  0  0  0  0
   19.7390   -4.6330   17.6700 O   0  0  0  0  0
   19.9260   -3.1500   19.8350 O   0  0  0  0  0
   18.8590   -2.3490   17.7350 O   0  0  0  0  0
   18.5990   -1.0450   18.2450 C   0  0  0  0  0
   17.6010   -0.4060   17.2980 C   0  0  0  0  0
   18.2410   -0.1390   16.0200 O   0  0  0  0  0
   17.3090   -0.3360   14.9790 C   0  0  0  0  0
   17.8920   -1.2990   14.0610 N   0  0  0  0  0
   18.3720   -2.5530   14.3310 C   0  0  0  0  0
   18.8470   -3.1690   13.2700 N   0  0  0  0  0
   18.6570   -2.2590   12.2420 C   0  0  0  0  0
   18.0630   -1.1090   12.7130 C   0  0  0  0  0
   17.7430   -0.0160   12.0130 N   0  0  0  0  0
   18.0610   -0.1650   10.7210 C   0  0  0  0  0
   18.6310   -1.2150   10.1240 N   0  0  0  0  0
   18.9470   -2.3000   10.8650 C   0  0  0  0  0
   19.5200   -3.3530   10.2740 N   0  0  0  0  0
   16.0030   -0.7720   15.6210 C   0  0  0  0  0
   15.1860    0.3710   15.8020 O   0  0  0  0  0
   16.4110   -1.3050   16.9680 C   0  0  0  0  0
   15.3720   -1.1410   17.9340 O   0  0  0  0  0
   13.8440    0.5350   14.7870 P   0  0  0  0  0
   14.2400    0.1040   13.4350 O   0  0  0  0  0
   12.8500   -0.6070   15.3240 O   0  0  0  0  0
   12.4250   -0.6240   16.6810 C   0  0  0  0  0
   11.0120   -1.1560   16.8260 C   0  0  0  0  0
   10.0690   -0.2550   16.2010 O   0  0  0  0  0
    8.8820   -0.9830   15.9230 C   0  0  0  0  0
    8.3080   -0.4140   14.7120 N   0  0  0  0  0
    7.2140    0.4010   14.6650 C   0  0  0  0  0
    6.9160    0.7930   13.4550 N   0  0  0  0  0
    7.8610    0.2000   12.6620 C   0  0  0  0  0
    8.7380   -0.5530   13.4140 C   0  0  0  0  0
    9.7820   -1.2610   12.9520 N   0  0  0  0  0
    9.8900   -1.1470   11.6310 C   0  0  0  0  0
    9.1150   -0.4630   10.7860 N   0  0  0  0  0
    8.0730    0.2360   11.2720 C   0  0  0  0  0
    7.2970    0.9340   10.4340 N   0  0  0  0  0
    9.2470   -2.4700   15.8350 C   0  0  0  0  0
    8.4670   -3.1980   16.7570 O   0  0  0  0  0
   10.7440   -2.4940   16.1460 C   0  0  0  0  0
   11.0990   -3.5460   17.0150 O   0  0  0  0  0
   27.5629    0.2039   14.9377 H   0  0  0  0  0
   26.9952   -1.7130   13.3258 H   0  0  0  0  0
   25.3110   -0.0077   16.8332 H   0  0  0  0  0
   25.7836   -1.4820   17.7222 H   0  0  0  0  0
   23.5787   -1.1773   18.1631 H   0  0  0  0  0
   20.7436   -1.1066   16.0768 H   0  0  0  0  0
   21.5320   -3.6310   16.0597 H   0  0  0  0  0
   23.9978   -3.3225   16.0269 H   0  0  0  0  0
   23.5103   -4.6455   17.6900 H   0  0  0  0  0
   22.9033   -3.5238   14.0764 H   0  0  0  0  0
   22.3423   -1.4173    9.7323 H   0  0  0  0  0
   21.6990    0.1285    9.1686 H   0  0  0  0  0
   20.2183    2.3853   12.8898 H   0  0  0  0  0
   20.0917   -2.2255   20.0338 H   0  0  0  0  0
   19.5153   -0.4575   18.3023 H   0  0  0  0  0
   18.2008   -1.0936   19.2585 H   0  0  0  0  0
   17.2543    0.4919   17.8096 H   0  0  0  0  0
   17.0860    0.5578   14.3963 H   0  0  0  0  0
   18.3615   -2.9968   15.3265 H   0  0  0  0  0
   17.8243    0.6790   10.0732 H   0  0  0  0  0
   19.7672   -4.1750   10.8249 H   0  0  0  0  0
   19.7101   -3.3345    9.2720 H   0  0  0  0  0
   15.4550   -1.5037   15.0273 H   0  0  0  0  0
   16.6326   -2.3722   16.9706 H   0  0  0  0  0
   14.6346   -1.7132   17.7095 H   0  0  0  0  0
   12.4450    0.3986   17.0577 H   0  0  0  0  0
   13.0947   -1.2774   17.2402 H   0  0  0  0  0
   10.8970   -1.2625   17.9047 H   0  0  0  0  0
    8.1207   -0.9090   16.6996 H   0  0  0  0  0
    6.6464    0.6950   15.5479 H   0  0  0  0  0
   10.7231   -1.6841   11.1776 H   0  0  0  0  0
    6.5100    1.4722   10.7964 H   0  0  0  0  0
    7.4927    0.9277    9.4330 H   0  0  0  0  0
    9.0484   -2.9326   14.8682 H   0  0  0  0  0
    8.6949   -4.1289   16.7025 H   0  0  0  0  0
   11.3268   -2.6495   15.2381 H   0  0  0  0  0
   10.9291   -4.3868   16.5839 H   0  0  0  0  0
  1  2  2  0  0  0
  2  3  1  0  0  0
  2  4  1  0  0  0
  2  5  1  0  0  0
  5  6  1  0  0  0
  6  7  1  0  0  0
  7  8  1  0  0  0
  7 12  1  0  0  0
  8  9  1  0  0  0
  9 10  1  0  0  0
  9 14  1  0  0  0
 10 11  1  0  0  0
 10 12  1  0  0  0
 11 24  1  0  0  0
 12 13  1  0  0  0
 14 15  4  0  0  0
 14 20  4  0  0  0
 15 16  4  0  0  0
 16 17  4  0  0  0
 17 18  4  0  0  0
 17 20  4  0  0  0
 18 19  1  0  0  0
 18 23  4  0  0  0
 20 21  4  0  0  0
 21 22  4  0  0  0
 22 23  4  0  0  0
 24 25  2  0  0  0
 24 26  1  0  0  0
 24 27  1  0  0  0
 27 28  1  0  0  0
 28 29  1  0  0  0
 29 30  1  0  0  0
 29 44  1  0  0  0
 30 31  1  0  0  0
 31 32  1  0  0  0
 31 42  1  0  0  0
 32 33  4  0  0  0
 32 36  4  0  0  0
 33 34  4  0  0  0
 34 35  4  0  0  0
 35 36  4  0  0  0
 35 40  4  0  0  0
 36 37  4  0  0  0
 37 38  4  0  0  0
 38 39  4  0  0  0
 39 40  4  0  0  0
 40 41  1  0  0  0
 42 43  1  0  0  0
 42 44  1  0  0  0
 43 46  1  0  0  0
 44 45  1  0  0  0
 46 47  2  0  0  0
 46 48  1  0  0  0
 48 49  1  0  0  0
 49 50  1  0  0  0
 50 51  1  0  0  0
 50 65  1  0  0  0
 51 52  1  0  0  0
 52 53  1  0  0  0
 52 63  1  0  0  0
 53 54  4  0  0  0
 53 57  4  0  0  0
 54 55  4  0  0  0
 55 56  4  0  0  0
 56 57  4  0  0  0
 56 61  4  0  0  0
 57 58  4  0  0  0
 58 59  4  0  0  0
 59 60  4  0  0  0
 60 61  4  0  0  0
 61 62  1  0  0  0
 63 64  1  0  0  0
 63 65  1  0  0  0
 65 66  1  0  0  0
  3 67  1  0  0  0
  4 68  1  0  0  0
  6 69  1  0  0  0
  6 70  1  0  0  0
  7 71  1  0  0  0
  9 72  1  0  0  0
 10 73  1  0  0  0
 12 74  1  0  0  0
 13 75  1  0  0  0
 15 76  1  0  0  0
 19 77  1  0  0  0
 19 78  1  0  0  0
 22 79  1  0  0  0
 26 80  1  0  0  0
 28 81  1  0  0  0
 28 82  1  0  0  0
 29 83  1  0  0  0
 31 84  1  0  0  0
 33 85  1  0  0  0
 38 86  1  0  0  0
 41 87  1  0  0  0
 41 88  1  0  0  0
 42 89  1  0  0  0
 44 90  1  0  0  0
 45 91  1  0  0  0
 49 92  1  0  0  0
 49 93  1  0  0  0
 50 94  1  0  0  0
 52 95  1  0  0  0
 54 96  1  0  0  0
 59 97  1  0  0  0
 62 98  1  0  0  0
 62 99  1  0  0  0
 63100  1  0  0  0
 64101  1  0  0  0
 65102  1  0  0  0
 66103  1  0  0  0
M  END
$$$$
