3uil_ligand
  -I-interpret- 

 38 37  0  0  0  0  0  0  0  0999 V2000
  -33.8270  -19.5430  -40.1730 O   0  0  0  0  0
  -34.1350  -17.5080  -40.9480 O   0  0  0  0  0
  -34.5280  -18.6870  -40.7760 C   0  0  0  0  0
  -35.9040  -19.0320  -41.3410 C   0  0  0  0  0
  -36.4340  -20.3920  -41.0010 C   0  0  0  0  0
  -36.3980  -21.2200  -42.2800 C   0  0  0  0  0
  -35.2000  -22.1680  -42.2610 C   0  0  0  0  0
  -35.5330  -23.5690  -42.7590 C   0  0  0  0  0
  -35.9690  -24.4390  -41.5880 C   0  0  0  0  0
  -37.3870  -24.9620  -41.7970 C   0  0  0  0  0
  -38.4550  -24.0550  -41.1900 C   0  0  0  0  0
  -39.8490  -24.3920  -41.7380 C   0  0  0  0  0
  -40.9670  -23.3740  -41.4660 C   0  0  0  0  0
  -40.7550  -22.4570  -40.2690 C   0  0  0  0  0
  -34.2986  -20.3787  -40.1447 H   0  0  0  0  0
  -35.8038  -19.0058  -42.4261 H   0  0  0  0  0
  -36.6009  -18.3153  -40.9065 H   0  0  0  0  0
  -37.4514  -20.3231  -40.6159 H   0  0  0  0  0
  -35.8278  -20.8578  -40.2240 H   0  0  0  0  0
  -36.3101  -20.5509  -43.1359 H   0  0  0  0  0
  -37.3149  -21.8050  -42.3524 H   0  0  0  0  0
  -34.8658  -22.2563  -41.2272 H   0  0  0  0  0
  -34.4413  -21.7538  -42.9249 H   0  0  0  0  0
  -34.6501  -24.0063  -43.2253 H   0  0  0  0  0
  -36.3419  -23.5111  -43.4873 H   0  0  0  0  0
  -35.9471  -23.8391  -40.6782 H   0  0  0  0  0
  -35.2900  -25.2881  -41.5102 H   0  0  0  0  0
  -37.4581  -25.9324  -41.3057 H   0  0  0  0  0
  -37.5666  -25.0127  -42.8709 H   0  0  0  0  0
  -38.2209  -23.0221  -41.4478 H   0  0  0  0  0
  -38.4618  -24.2012  -40.1099 H   0  0  0  0  0
  -40.1530  -25.3106  -41.2362 H   0  0  0  0  0
  -39.7414  -24.4349  -42.8218 H   0  0  0  0  0
  -41.8650  -23.9540  -41.2530 H   0  0  0  0  0
  -41.0140  -22.7282  -42.3428 H   0  0  0  0  0
  -40.6640  -23.0579  -39.3642 H   0  0  0  0  0
  -39.8439  -21.8766  -40.4144 H   0  0  0  0  0
  -41.6059  -21.7823  -40.1746 H   0  0  0  0  0
  1  3  1  0  0  0
  3  2  2  0  0  0
  3  4  1  0  0  0
  4  5  1  0  0  0
  5  6  1  0  0  0
  6  7  1  0  0  0
  7  8  1  0  0  0
  8  9  1  0  0  0
  9 10  1  0  0  0
 10 11  1  0  0  0
 11 12  1  0  0  0
 12 13  1  0  0  0
 13 14  1  0  0  0
  1 15  1  0  0  0
  4 16  1  0  0  0
  4 17  1  0  0  0
  5 18  1  0  0  0
  5 19  1  0  0  0
  6 20  1  0  0  0
  6 21  1  0  0  0
  7 22  1  0  0  0
  7 23  1  0  0  0
  8 24  1  0  0  0
  8 25  1  0  0  0
  9 26  1  0  0  0
  9 27  1  0  0  0
 10 28  1  0  0  0
 10 29  1  0  0  0
 11 30  1  0  0  0
 11 31  1  0  0  0
 12 32  1  0  0  0
 12 33  1  0  0  0
 13 34  1  0  0  0
 13 35  1  0  0  0
 14 36  1  0  0  0
 14 37  1  0  0  0
 14 38  1  0  0  0
M  END
$$$$
