3owl_ligand
  -I-interpret- 

 30 33  0  0  0  0  0  0  0  0999 V2000
   23.4930    7.4440   10.8380 C   0  0  0  0  0
   23.7050    7.7690    9.5310 O   0  0  0  0  0
   23.3250    8.4660   11.7630 C   0  0  0  0  0
   23.1020    8.1710   13.1000 C   0  0  0  0  0
   23.0580    6.8340   13.5280 C   0  0  0  0  0
   23.2310    5.8110   12.5910 C   0  0  0  0  0
   23.4480    6.1100   11.2480 C   0  0  0  0  0
   22.9360    9.2320   13.9950 C   0  0  0  0  0
   22.7200    8.9730   15.3410 C   0  0  0  0  0
   22.6750    7.6500   15.7760 C   0  0  0  0  0
   22.8420    6.5950   14.8920 C   0  0  0  0  0
   22.4790    7.0970   17.0120 N   0  0  0  0  0
   22.5100    5.7360   16.9940 C   0  0  0  0  0
   22.7290    5.3460   15.6830 C   0  0  0  0  0
   22.3650    4.7780   17.9910 C   0  0  0  0  0
   22.1200    5.1740   19.4280 C   0  0  0  0  0
   22.4410    3.4390   17.6360 C   0  0  0  0  0
   22.6570    3.0840   16.3610 N   0  0  0  0  0
   22.8070    3.9750   15.3640 C   0  0  0  0  0
   23.0730    3.2850   13.7560 Cl  0  0  0  0  0
   23.8022    6.9657    9.0144 H   0  0  0  0  0
   23.3686    9.5052   11.4369 H   0  0  0  0  0
   23.1958    4.7706   12.9141 H   0  0  0  0  0
   23.5818    5.3080   10.5220 H   0  0  0  0  0
   22.9762   10.2605   13.6363 H   0  0  0  0  0
   22.5875    9.7923   16.0476 H   0  0  0  0  0
   22.9518    5.7827   19.7827 H   0  0  0  0  0
   21.1951    5.7471   19.4930 H   0  0  0  0  0
   22.0370    4.2770   20.0416 H   0  0  0  0  0
   22.3242    2.6697   18.3993 H   0  0  0  0  0
  1  2  1  0  0  0
  1  3  4  0  0  0
  1  7  4  0  0  0
  3  4  4  0  0  0
  4  5  4  0  0  0
  4  8  4  0  0  0
  5  6  4  0  0  0
  5 11  4  0  0  0
  6  7  4  0  0  0
  8  9  4  0  0  0
  9 10  4  0  0  0
 10 11  4  0  0  0
 10 12  4  0  0  0
 11 14  4  0  0  0
 12 13  4  0  0  0
 13 14  4  0  0  0
 13 15  4  0  0  0
 14 19  4  0  0  0
 15 16  1  0  0  0
 15 17  4  0  0  0
 17 18  4  0  0  0
 18 19  4  0  0  0
 19 20  1  0  0  0
  2 21  1  0  0  0
  3 22  1  0  0  0
  6 23  1  0  0  0
  7 24  1  0  0  0
  8 25  1  0  0  0
  9 26  1  0  0  0
 16 27  1  0  0  0
 16 28  1  0  0  0
 16 29  1  0  0  0
 17 30  1  0  0  0
M  END
$$$$
