5iub_ligand
  -I-interpret- 

 54 58  0  0  0  0  0  0  0  0999 V2000
  -19.7100   14.2410   13.2000 C   0  0  0  0  0
  -19.5450   12.4790   15.4160 C   0  0  0  0  0
  -17.4670   16.3480   14.9660 C   0  0  0  0  0
  -15.8630   17.5220   13.5890 C   0  0  0  0  0
  -16.9500   15.5280   12.7480 C   0  0  0  0  0
  -19.9270    4.9120   18.3960 C   0  0  0  0  0
  -20.9900    6.4740   17.4570 C   0  0  0  0  0
  -16.0530   16.5840   12.5710 C   0  0  0  0  0
  -16.5700   17.4020   14.7850 C   0  0  0  0  0
  -19.0460   13.9340   15.4580 C   0  0  0  0  0
  -17.6700   15.3980   13.9520 C   0  0  0  0  0
  -18.1760    8.7420   18.0520 N   0  0  0  0  0
  -19.4000    8.2400   17.6490 C   0  0  0  0  0
  -20.2580    9.0790   17.0200 N   0  0  0  0  0
  -21.4560    8.5570   16.6330 C   0  0  0  0  0
  -22.3800    9.3810   15.9780 N   0  0  0  0  0
  -22.1140   10.7940   15.7620 C   0  0  0  0  0
  -21.2840   11.0440   14.4940 C   0  0  0  0  0
  -20.3440   12.8300   13.1840 C   0  0  0  0  0
  -14.9940   18.5460   13.4230 F   0  0  0  0  0
  -17.1090   14.6370   11.7400 F   0  0  0  0  0
  -21.8660    7.2720   16.8270 N   0  0  0  0  0
  -21.0820    5.1670   17.8000 N   0  0  0  0  0
  -19.0700    5.9230   18.4810 N   0  0  0  0  0
  -19.7530    6.9360   17.8760 N   0  0  0  0  0
  -19.6390    3.5520   18.9220 C   0  0  0  0  0
  -20.4420    2.4350   19.1610 C   0  0  0  0  0
  -19.6200    1.4190   19.6590 C   0  0  0  0  0
  -18.3480    1.9600   19.6990 C   0  0  0  0  0
  -18.3550    3.2430   19.2550 O   0  0  0  0  0
  -18.5740   14.3290   14.1260 N   0  0  0  0  0
  -20.7050   12.3780   14.5240 N   0  3  0  0  0
  -20.4700   14.9503   13.5277 H   0  0  0  0  0
  -19.3466   14.4606   12.1961 H   0  0  0  0  0
  -19.8337   12.1676   16.4199 H   0  0  0  0  0
  -18.7477   11.8348   15.0452 H   0  0  0  0  0
  -18.0155   16.2614   15.9040 H   0  0  0  0  0
  -15.4998   16.6765   11.6364 H   0  0  0  0  0
  -16.4218   18.1327   15.5801 H   0  0  0  0  0
  -18.2269   14.0163   16.1724 H   0  0  0  0  0
  -19.8622   14.5890   15.7628 H   0  0  0  0  0
  -17.9413    9.7184   17.8732 H   0  0  0  0  0
  -17.5079    8.1359   18.5281 H   0  0  0  0  0
  -23.2577    8.9815   15.6456 H   0  0  0  0  0
  -21.5473   11.1657   16.6157 H   0  0  0  0  0
  -23.0702   11.3042   15.6462 H   0  0  0  0  0
  -21.9320   10.9570   13.6218 H   0  0  0  0  0
  -20.4809   10.3087   14.4438 H   0  0  0  0  0
  -19.6135   12.1326   12.7742 H   0  0  0  0  0
  -21.2517   12.8708   12.5818 H   0  0  0  0  0
  -21.5164    2.3671   18.9902 H   0  0  0  0  0
  -19.9189    0.4130   19.9535 H   0  0  0  0  0
  -17.4599    1.4283   20.0407 H   0  0  0  0  0
  -21.4309   12.9887   14.8989 H   0  0  0  0  0
  1 19  1  0  0  0
 31  1  1  0  0  0
  2 10  1  0  0  0
 32  2  1  0  0  0
  3  9  4  0  0  0
 11  3  4  0  0  0
  8  4  4  0  0  0
  9  4  4  0  0  0
  4 20  1  0  0  0
  5  8  4  0  0  0
 11  5  4  0  0  0
  5 21  1  0  0  0
 23  6  4  0  0  0
  6 24  4  0  0  0
  6 26  1  0  0  0
 22  7  4  0  0  0
  7 23  4  0  0  0
  7 25  4  0  0  0
 10 31  1  0  0  0
 31 11  1  0  0  0
 13 12  1  0  0  0
 14 13  4  0  0  0
 13 25  4  0  0  0
 15 14  4  0  0  0
 16 15  1  0  0  0
 15 22  4  0  0  0
 17 16  1  0  0  0
 18 17  1  0  0  0
 18 32  1  0  0  0
 19 32  1  0  0  0
 24 25  4  0  0  0
 26 27  4  0  0  0
 26 30  4  0  0  0
 27 28  4  0  0  0
 28 29  4  0  0  0
 29 30  4  0  0  0
  1 33  1  0  0  0
  1 34  1  0  0  0
  2 35  1  0  0  0
  2 36  1  0  0  0
  3 37  1  0  0  0
  8 38  1  0  0  0
  9 39  1  0  0  0
 10 40  1  0  0  0
 10 41  1  0  0  0
 12 42  1  0  0  0
 12 43  1  0  0  0
 16 44  1  0  0  0
 17 45  1  0  0  0
 17 46  1  0  0  0
 18 47  1  0  0  0
 18 48  1  0  0  0
 19 49  1  0  0  0
 19 50  1  0  0  0
 27 51  1  0  0  0
 28 52  1  0  0  0
 29 53  1  0  0  0
 32 54  1  0  0  0
M  END
$$$$
