2hkf_ligand
  -I-interpret- 

117118  0  0  0  0  0  0  0  0999 V2000
    4.3020   30.9080  -12.0530 N   0  3  0  0  0
    2.8850   31.1490  -12.4730 C   0  0  0  0  0
    1.9690   31.3410  -11.2730 C   0  0  0  0  0
    1.9880   32.4100  -10.6550 O   0  0  0  0  0
    1.1550   30.3130  -10.9290 N   0  0  0  0  0
    1.0210   29.0170  -11.6210 C   0  0  0  0  0
    0.3310   29.0110  -12.9990 C   0  0  0  0  0
    0.3710   27.9900  -13.6880 O   0  0  0  0  0
    0.2270   28.1690  -10.6230 C   0  0  0  0  0
   -0.5050   29.1030   -9.7980 C   0  0  0  0  0
    0.3110   30.3730   -9.7200 C   0  0  0  0  0
   -0.2960   30.1230  -13.3890 N   0  0  0  0  0
   -1.0570   30.2060  -14.6460 C   0  0  0  0  0
   -2.4780   29.6780  -14.5420 C   0  0  0  0  0
   -2.9080   29.1850  -13.4770 O   0  0  0  0  0
   -3.2030   29.7620  -15.6550 N   0  0  0  0  0
   -4.5790   29.2660  -15.7590 C   0  0  0  0  0
   -4.6670   27.7540  -15.5850 C   0  0  0  0  0
   -3.8460   27.0210  -16.1250 O   0  0  0  0  0
   -5.2080   29.6870  -17.0990 C   0  0  0  0  0
   -5.4880   31.1830  -17.1480 C   0  0  0  0  0
   -5.7990   31.7290  -18.5400 C   0  0  0  0  0
   -6.6890   31.1830  -19.2400 O   0  0  0  0  0
   -5.1590   32.7490  -18.9050 O   0  0  0  0  0
   -5.6630   27.3000  -14.8250 N   0  0  0  0  0
   -5.9300   25.8620  -14.6830 C   0  0  0  0  0
   -6.0760   25.1470  -16.0380 C   0  0  0  0  0
   -6.9810   25.4420  -16.8320 O   0  0  0  0  0
   -7.1660   25.6090  -13.8070 C   0  0  0  0  0
   -7.3930   24.1270  -13.4760 C   0  0  0  0  0
   -8.7670   23.8700  -12.8450 C   0  0  0  0  0
   -9.6430   24.7630  -12.9280 O   0  0  0  0  0
   -8.9580   22.7820  -12.2490 O   0  0  0  0  0
   -5.1830   24.2010  -16.2950 N   0  0  0  0  0
   -5.1810   23.5410  -17.5880 C   0  0  0  0  0
   -6.1240   22.3350  -17.5790 C   0  0  0  0  0
   -5.7090   21.1930  -17.7250 O   0  0  0  0  0
   -3.7560   23.1980  -18.0350 C   0  0  0  0  0
   -3.7170   22.5640  -19.4150 C   0  0  0  0  0
   -2.8400   21.6980  -19.6290 O   0  0  0  0  0
   -4.5740   22.9090  -20.2690 O   0  0  0  0  0
   -7.4030   22.6370  -17.4010 N   0  0  0  0  0
   -8.4720   21.6570  -17.4380 C   0  0  0  0  0
   -9.6800   22.3400  -18.0690 C   0  0  0  0  0
   -9.8420   23.5670  -17.9410 O   0  0  0  0  0
   -8.8090   21.1100  -16.0290 C   0  0  0  0  0
   -7.8940   20.0310  -15.4230 C   0  0  0  0  0
   -8.3720   19.6760  -14.0060 C   0  0  0  0  0
   -7.8590   18.7520  -16.2950 C   0  0  0  0  0
  -10.5310   21.5500  -18.7480 N   0  0  0  0  0
  -11.6600   22.0980  -19.4830 C   0  0  0  0  0
  -12.6940   22.8210  -18.6070 C   0  0  0  0  0
  -12.8140   22.5370  -17.4070 O   0  0  0  0  0
  -12.2810   20.8610  -20.1500 C   0  0  0  0  0
  -11.7920   19.7050  -19.3750 C   0  0  0  0  0
  -10.4610   20.0810  -18.8540 C   0  0  0  0  0
  -13.4260   23.7520  -19.2250 N   0  0  0  0  0
  -14.6130   24.3800  -18.6170 C   0  0  0  0  0
  -15.6090   23.3560  -18.0960 C   0  0  0  0  0
  -16.2140   23.5170  -17.0230 O   0  0  0  0  0
  -15.8270   22.3110  -18.7200 O   0  0  0  0  0
    4.8845   30.7843  -12.8811 H   0  0  0  0  0
    4.6371   31.7082  -11.5166 H   0  0  0  0  0
    4.3462   30.0679  -11.4762 H   0  0  0  0  0
    2.5399   30.2804  -13.0338 H   0  0  0  0  0
    2.8548   32.0555  -13.0775 H   0  0  0  0  0
    2.0155   28.6524  -11.8784 H   0  0  0  0  0
    0.8886   27.5459  -10.0212 H   0  0  0  0  0
   -0.4476   27.4841  -11.1367 H   0  0  0  0  0
   -0.6644   28.6896   -8.8021 H   0  0  0  0  0
   -1.4860   29.3050  -10.2279 H   0  0  0  0  0
   -0.3102   31.2681   -9.6874 H   0  0  0  0  0
    0.8972   30.4380   -8.8033 H   0  0  0  0  0
   -0.2457   30.9484  -12.7918 H   0  0  0  0  0
   -0.5363   29.5923  -15.3811 H   0  0  0  0  0
   -1.1219   31.2599  -14.9165 H   0  0  0  0  0
   -2.7802   30.1931  -16.4770 H   0  0  0  0  0
   -5.1412   29.7187  -14.9422 H   0  0  0  0  0
   -6.1539   29.1578  -17.2144 H   0  0  0  0  0
   -4.5072   29.4436  -17.8976 H   0  0  0  0  0
   -4.5842   31.6863  -16.8045 H   0  0  0  0  0
   -6.3702   31.3609  -16.5331 H   0  0  0  0  0
   -4.5326   32.9944  -18.2201 H   0  0  0  0  0
   -6.2546   27.9671  -14.3296 H   0  0  0  0  0
   -5.0567   25.4371  -14.1882 H   0  0  0  0  0
   -8.0368   25.9565  -14.3629 H   0  0  0  0  0
   -7.0112   26.1341  -12.8644 H   0  0  0  0  0
   -6.6311   23.8221  -12.7586 H   0  0  0  0  0
   -7.3395   23.5625  -14.4069 H   0  0  0  0  0
   -8.1643   22.2447  -12.3039 H   0  0  0  0  0
   -4.4990   23.9376  -15.5857 H   0  0  0  0  0
   -5.5684   24.2312  -18.3375 H   0  0  0  0  0
   -3.3432   22.4824  -17.3240 H   0  0  0  0  0
   -3.1832   24.1245  -18.0739 H   0  0  0  0  0
   -5.1445   23.5837  -19.8937 H   0  0  0  0  0
   -7.6486   23.6119  -17.2286 H   0  0  0  0  0
   -8.1649   20.7909  -18.0243 H   0  0  0  0  0
   -9.7830   20.6320  -16.1339 H   0  0  0  0  0
   -8.7202   21.9671  -15.3615 H   0  0  0  0  0
   -6.8837   20.4383  -15.3830 H   0  0  0  0  0
   -8.3415   20.5675  -13.3796 H   0  0  0  0  0
   -9.3932   19.2978  -14.0525 H   0  0  0  0  0
   -7.7190   18.9118  -13.5845 H   0  0  0  0  0
   -8.8656   18.3419  -16.3768 H   0  0  0  0  0
   -7.4849   19.0010  -17.2881 H   0  0  0  0  0
   -7.2019   18.0159  -15.8318 H   0  0  0  0  0
  -11.3331   22.8701  -20.1795 H   0  0  0  0  0
  -11.9940   20.7876  -21.1990 H   0  0  0  0  0
  -13.3698   20.9110  -20.1469 H   0  0  0  0  0
  -11.7287   18.8147  -20.0006 H   0  0  0  0  0
  -12.4756   19.4639  -18.5610 H   0  0  0  0  0
  -10.2379   19.6048  -17.8992 H   0  0  0  0  0
   -9.6508   19.7485  -19.5029 H   0  0  0  0  0
  -13.1502   24.0424  -20.1631 H   0  0  0  0  0
  -15.1103   24.9736  -19.3841 H   0  0  0  0  0
  -14.2795   24.9848  -17.7738 H   0  0  0  0  0
  -15.9614   24.3592  -16.6378 H   0  0  0  0  0
  1  2  1  0  0  0
  2  3  1  0  0  0
  3  4  2  0  0  0
  3  5  1  0  0  0
  5  6  1  0  0  0
  5 11  1  0  0  0
  6  7  1  0  0  0
  6  9  1  0  0  0
  7  8  2  0  0  0
  7 12  1  0  0  0
  9 10  1  0  0  0
 10 11  1  0  0  0
 12 13  1  0  0  0
 13 14  1  0  0  0
 14 15  2  0  0  0
 14 16  1  0  0  0
 16 17  1  0  0  0
 17 18  1  0  0  0
 17 20  1  0  0  0
 18 19  2  0  0  0
 18 25  1  0  0  0
 20 21  1  0  0  0
 21 22  1  0  0  0
 22 23  2  0  0  0
 22 24  1  0  0  0
 25 26  1  0  0  0
 26 27  1  0  0  0
 26 29  1  0  0  0
 27 28  2  0  0  0
 27 34  1  0  0  0
 29 30  1  0  0  0
 30 31  1  0  0  0
 31 32  2  0  0  0
 31 33  1  0  0  0
 34 35  1  0  0  0
 35 36  1  0  0  0
 35 38  1  0  0  0
 36 37  2  0  0  0
 36 42  1  0  0  0
 38 39  1  0  0  0
 39 40  2  0  0  0
 39 41  1  0  0  0
 42 43  1  0  0  0
 43 44  1  0  0  0
 43 46  1  0  0  0
 44 45  2  0  0  0
 44 50  1  0  0  0
 46 47  1  0  0  0
 47 48  1  0  0  0
 47 49  1  0  0  0
 50 51  1  0  0  0
 50 56  1  0  0  0
 51 52  1  0  0  0
 51 54  1  0  0  0
 52 53  2  0  0  0
 52 57  1  0  0  0
 54 55  1  0  0  0
 55 56  1  0  0  0
 57 58  1  0  0  0
 58 59  1  0  0  0
 59 60  1  0  0  0
 59 61  2  0  0  0
  1 62  1  0  0  0
  1 63  1  0  0  0
  1 64  1  0  0  0
  2 65  1  0  0  0
  2 66  1  0  0  0
  6 67  1  0  0  0
  9 68  1  0  0  0
  9 69  1  0  0  0
 10 70  1  0  0  0
 10 71  1  0  0  0
 11 72  1  0  0  0
 11 73  1  0  0  0
 12 74  1  0  0  0
 13 75  1  0  0  0
 13 76  1  0  0  0
 16 77  1  0  0  0
 17 78  1  0  0  0
 20 79  1  0  0  0
 20 80  1  0  0  0
 21 81  1  0  0  0
 21 82  1  0  0  0
 24 83  1  0  0  0
 25 84  1  0  0  0
 26 85  1  0  0  0
 29 86  1  0  0  0
 29 87  1  0  0  0
 30 88  1  0  0  0
 30 89  1  0  0  0
 33 90  1  0  0  0
 34 91  1  0  0  0
 35 92  1  0  0  0
 38 93  1  0  0  0
 38 94  1  0  0  0
 41 95  1  0  0  0
 42 96  1  0  0  0
 43 97  1  0  0  0
 46 98  1  0  0  0
 46 99  1  0  0  0
 47100  1  0  0  0
 48101  1  0  0  0
 48102  1  0  0  0
 48103  1  0  0  0
 49104  1  0  0  0
 49105  1  0  0  0
 49106  1  0  0  0
 51107  1  0  0  0
 54108  1  0  0  0
 54109  1  0  0  0
 55110  1  0  0  0
 55111  1  0  0  0
 56112  1  0  0  0
 56113  1  0  0  0
 57114  1  0  0  0
 58115  1  0  0  0
 58116  1  0  0  0
 60117  1  0  0  0
M  END
$$$$
