2xu3_ligand
  -I-interpret- 

 57 61  0  0  0  0  0  0  0  0999 V2000
   20.5010    6.4700    7.6120 N   0  0  0  0  0
   20.7220    5.4100    8.5960 C   0  0  0  0  0
   19.3190    1.4370    9.7480 Cl  0  0  0  0  0
   19.5600    4.4490    8.3280 C   0  0  0  0  0
   22.0730    8.8040   13.2060 Cl  0  0  0  0  0
   18.4340    5.3250    7.7230 C   0  0  0  0  0
   19.2100    6.3720    6.9420 C   0  0  0  0  0
   20.0270    3.2520    7.0790 S   0  0  0  0  0
   18.4300    7.6690    6.8540 C   0  0  0  0  0
   21.1960    2.2020    7.9170 C   0  0  0  0  0
   18.8320    2.4880    6.8520 O   0  0  0  0  0
   20.6620    3.8940    5.9880 O   0  0  0  0  0
   20.8650    1.4350    9.0350 C   0  0  0  0  0
   21.7820    0.6190    9.6400 C   0  0  0  0  0
   23.0600    0.5430    9.1280 C   0  0  0  0  0
   23.4110    1.2910    8.0240 C   0  0  0  0  0
   22.4790    2.1130    7.4160 C   0  0  0  0  0
   18.1090    8.3120    7.8580 O   0  0  0  0  0
   18.0170    7.9960    5.6050 N   0  0  0  0  0
   17.1780    9.1180    5.2710 C   0  0  0  0  0
   15.7040    8.8830    5.3390 C   0  0  0  0  0
   14.8280    9.6650    5.0100 N   0  0  0  0  0
   17.7050   10.4990    5.6570 C   0  0  0  0  0
   17.7050   10.0470    4.2060 C   0  0  0  0  0
   21.4030    7.3790    7.2280 C   0  0  0  0  0
   22.7480    7.2870    7.8800 C   0  0  0  0  0
   21.1460    8.1970    6.3540 O   0  0  0  0  0
   22.8220    7.3510    9.3710 C   0  0  0  0  0
   23.4680    6.5670   10.2490 C   0  0  0  0  0
   23.3150    6.9560   11.5780 C   0  0  0  0  0
   22.5260    8.0260   11.7410 C   0  0  0  0  0
   21.9540    8.5830   10.1920 S   0  0  0  0  0
   23.7500    6.3870    7.1720 C   0  0  0  0  0
   23.8960    7.9020    7.0830 C   0  0  0  0  0
   20.7382    5.7800    9.6212 H   0  0  0  0  0
   21.6975    4.9343    8.4947 H   0  0  0  0  0
   19.2680    3.9254    9.2383 H   0  0  0  0  0
   17.7784    5.7572    8.4790 H   0  0  0  0  0
   17.7408    4.7578    7.1018 H   0  0  0  0  0
   19.3694    6.1054    5.8972 H   0  0  0  0  0
   21.5049    0.0351   10.5177 H   0  0  0  0  0
   23.7953   -0.1105    9.5975 H   0  0  0  0  0
   24.4255    1.2345    7.6293 H   0  0  0  0  0
   22.7593    2.6933    6.5369 H   0  0  0  0  0
   18.3259    7.3981    4.8385 H   0  0  0  0  0
   15.3790    7.9153    5.7211 H   0  0  0  0  0
   15.0760   10.5849    4.6457 H   0  0  0  0  0
   18.3872   10.9472    6.3794 H   0  0  0  0  0
   17.3988   11.3603    6.2507 H   0  0  0  0  0
   17.3917   10.4312    3.2353 H   0  0  0  0  0
   18.3992   10.0100    3.3664 H   0  0  0  0  0
   24.0599    5.7025    9.9485 H   0  0  0  0  0
   23.7934    6.4373   12.4088 H   0  0  0  0  0
   23.7437    5.5269    6.5024 H   0  0  0  0  0
   24.3697    5.5192    7.3980 H   0  0  0  0  0
   24.6693    8.6592    7.2122 H   0  0  0  0  0
   24.0466    8.6669    6.3212 H   0  0  0  0  0
  1  2  1  0  0  0
  1  7  1  0  0  0
 25  1  1  0  0  0
  2  4  1  0  0  0
 13  3  1  0  0  0
  6  4  1  0  0  0
  4  8  1  0  0  0
 31  5  1  0  0  0
  7  6  1  0  0  0
  7  9  1  0  0  0
  8 10  1  0  0  0
  8 11  2  0  0  0
  8 12  2  0  0  0
  9 18  2  0  0  0
  9 19  1  0  0  0
 10 13  4  0  0  0
 10 17  4  0  0  0
 13 14  4  0  0  0
 14 15  4  0  0  0
 16 15  4  0  0  0
 17 16  4  0  0  0
 19 20  1  0  0  0
 20 21  1  0  0  0
 20 23  1  0  0  0
 20 24  1  0  0  0
 21 22  2  0  0  0
 24 23  1  0  0  0
 26 25  1  0  0  0
 25 27  2  0  0  0
 28 26  1  0  0  0
 26 33  1  0  0  0
 26 34  1  0  0  0
 29 28  4  0  0  0
 28 32  4  0  0  0
 30 29  4  0  0  0
 30 31  4  0  0  0
 31 32  4  0  0  0
 33 34  1  0  0  0
  2 35  1  0  0  0
  2 36  1  0  0  0
  4 37  1  0  0  0
  6 38  1  0  0  0
  6 39  1  0  0  0
  7 40  1  0  0  0
 14 41  1  0  0  0
 15 42  1  0  0  0
 16 43  1  0  0  0
 17 44  1  0  0  0
 19 45  1  0  0  0
 21 46  1  0  0  0
 22 47  1  0  0  0
 23 48  1  0  0  0
 23 49  1  0  0  0
 24 50  1  0  0  0
 24 51  1  0  0  0
 29 52  1  0  0  0
 30 53  1  0  0  0
 33 54  1  0  0  0
 33 55  1  0  0  0
 34 56  1  0  0  0
 34 57  1  0  0  0
M  END
$$$$
