### 
### Created by X-TOOL on Mon Sep 10 21:13:05 2018
### 

@<TRIPOS>MOLECULE
2xu3_ligand
   57    61     1     0     0
SMALL
GAST_HUCK


@<TRIPOS>ATOM
      1 N1         20.5010    6.4700    7.6120 N.am      1 XU3        -0.2632
      2 C2         20.7220    5.4100    8.5960 C.3       1 XU3         0.0580
      3 CL2        19.3190    1.4370    9.7480 Cl        1 XU3        -0.0687
      4 C3         19.5600    4.4490    8.3280 C.3       1 XU3         0.1066
      5 CL3        22.0730    8.8040   13.2060 Cl        1 XU3         0.0134
      6 C4         18.4340    5.3250    7.7230 C.3       1 XU3         0.0124
      7 C5         19.2100    6.3720    6.9420 C.3       1 XU3         0.1335
      8 S6         20.0270    3.2520    7.0790 S.o2      1 XU3         0.0023
      9 C7         18.4300    7.6690    6.8540 C.2       1 XU3         0.1970
     10 C8         21.1960    2.2020    7.9170 C.ar      1 XU3         0.1025
     11 O9         18.8320    2.4880    6.8520 O.2       1 XU3        -0.1690
     12 O10        20.6620    3.8940    5.9880 O.2       1 XU3        -0.1690
     13 C11        20.8650    1.4350    9.0350 C.ar      1 XU3         0.0651
     14 C12        21.7820    0.6190    9.6400 C.ar      1 XU3        -0.0460
     15 C13        23.0600    0.5430    9.1280 C.ar      1 XU3        -0.0612
     16 C14        23.4110    1.2910    8.0240 C.ar      1 XU3        -0.0598
     17 C15        22.4790    2.1130    7.4160 C.ar      1 XU3        -0.0364
     18 O16        18.1090    8.3120    7.8580 O.2       1 XU3        -0.3951
     19 N17        18.0170    7.9960    5.6050 N.am      1 XU3        -0.2955
     20 C18        17.1780    9.1180    5.2710 C.3       1 XU3         0.0783
     21 C19        15.7040    8.8830    5.3390 C.2       1 XU3         0.0437
     22 N20        14.8280    9.6650    5.0100 N.2       1 XU3        -0.2686
     23 C21        17.7050   10.4990    5.6570 C.3       1 XU3        -0.0407
     24 C22        17.7050   10.0470    4.2060 C.3       1 XU3        -0.0407
     25 C24        21.4030    7.3790    7.2280 C.2       1 XU3         0.1361
     26 C25        22.7480    7.2870    7.8800 C.3       1 XU3         0.0149
     27 O26        21.1460    8.1970    6.3540 O.2       1 XU3        -0.3844
     28 C27        22.8220    7.3510    9.3710 C.2       1 XU3         0.0076
     29 C28        23.4680    6.5670   10.2490 C.2       1 XU3        -0.0219
     30 C29        23.3150    6.9560   11.5780 C.2       1 XU3         0.0150
     31 C30        22.5260    8.0260   11.7410 C.2       1 XU3         0.1653
     32 S31        21.9540    8.5830   10.1920 S.3       1 XU3         0.0159
     33 C33        23.7500    6.3870    7.1720 C.3       1 XU3        -0.0985
     34 C34        23.8960    7.9020    7.0830 C.3       1 XU3        -0.0985
     35 H          20.7382    5.7800    9.6212 H         1 XU3         0.0544
     36 H          21.6975    4.9343    8.4947 H         1 XU3         0.0544
     37 H          19.2680    3.9254    9.2383 H         1 XU3         0.0563
     38 H          17.7784    5.7572    8.4790 H         1 XU3         0.0332
     39 H          17.7408    4.7578    7.1018 H         1 XU3         0.0332
     40 H          19.3694    6.1054    5.8972 H         1 XU3         0.0803
     41 H          21.5049    0.0351   10.5177 H         1 XU3         0.0624
     42 H          23.7953   -0.1105    9.5975 H         1 XU3         0.0618
     43 H          24.4255    1.2345    7.6293 H         1 XU3         0.0620
     44 H          22.7593    2.6933    6.5369 H         1 XU3         0.0636
     45 H          18.3259    7.3981    4.8385 H         1 XU3         0.1774
     46 H          15.3790    7.9153    5.7211 H         1 XU3         0.1090
     47 H          15.0760   10.5849    4.6457 H         1 XU3         0.2165
     48 H          18.3872   10.9472    6.3794 H         1 XU3         0.0220
     49 H          17.3988   11.3603    6.2507 H         1 XU3         0.0220
     50 H          17.3917   10.4312    3.2353 H         1 XU3         0.0220
     51 H          18.3992   10.0100    3.3664 H         1 XU3         0.0220
     52 H          24.0599    5.7025    9.9485 H         1 XU3         0.0980
     53 H          23.7934    6.4373   12.4088 H         1 XU3         0.0677
     54 H          23.7437    5.5269    6.5024 H         1 XU3         0.0079
     55 H          24.3697    5.5192    7.3980 H         1 XU3         0.0079
     56 H          24.6693    8.6592    7.2122 H         1 XU3         0.0079
     57 H          24.0466    8.6669    6.3212 H         1 XU3         0.0079
@<TRIPOS>BOND
     1    1    2 1  
     2    1    7 1  
     3   25    1 am 
     4    2    4 1  
     5   13    3 1  
     6    6    4 1  
     7    4    8 1  
     8   31    5 1  
     9    7    6 1  
    10    7    9 1  
    11    8   10 1  
    12    8   11 2  
    13    8   12 2  
    14    9   18 2  
    15    9   19 am 
    16   10   13 ar 
    17   10   17 ar 
    18   13   14 ar 
    19   14   15 ar 
    20   16   15 ar 
    21   17   16 ar 
    22   19   20 1  
    23   20   21 1  
    24   20   23 1  
    25   20   24 1  
    26   21   22 2  
    27   24   23 1  
    28   26   25 1  
    29   25   27 2  
    30   28   26 1  
    31   26   33 1  
    32   26   34 1  
    33   29   28 2  
    34   28   32 1  
    35   30   29 1  
    36   30   31 2  
    37   31   32 1  
    38   33   34 1  
    39    2   35 1  
    40    2   36 1  
    41    4   37 1  
    42    6   38 1  
    43    6   39 1  
    44    7   40 1  
    45   14   41 1  
    46   15   42 1  
    47   16   43 1  
    48   17   44 1  
    49   19   45 1  
    50   21   46 1  
    51   22   47 1  
    52   23   48 1  
    53   23   49 1  
    54   24   50 1  
    55   24   51 1  
    56   29   52 1  
    57   30   53 1  
    58   33   54 1  
    59   33   55 1  
    60   34   56 1  
    61   34   57 1  
@<TRIPOS>SUBSTRUCTURE
     1 XU3         1

