1uyh_ligand
  -I-interpret- 

 48 50  0  0  0  0  0  0  0  0999 V2000
    7.6600   10.1370   22.8270 C   0  0  0  0  0
    6.5610   12.6060   23.9570 C   0  0  0  0  0
    6.2680   10.4730   22.8830 O   0  0  0  0  0
    5.7460   11.5810   23.4960 C   0  0  0  0  0
    6.0280   13.7640   24.5690 C   0  0  0  0  0
    4.6400   13.8430   24.7210 C   0  0  0  0  0
    4.0570   14.9380   25.2980 O   0  0  0  0  0
    4.7890   16.0680   25.7960 C   0  0  0  0  0
    3.8030   12.8220   24.2300 C   0  0  0  0  0
    4.3340   11.6820   23.6210 C   0  0  0  0  0
    3.4310   10.5670   23.0940 C   0  0  0  0  0
    2.1840   10.4650   23.9250 C   0  0  0  0  0
    0.9310   10.9810   23.6270 N   0  0  0  0  0
    0.1520   10.6510   24.6980 C   0  0  0  0  0
   -1.2090   10.8330   24.9700 C   0  0  0  0  0
   -2.0560   11.4690   24.0840 N   0  0  0  0  0
    0.9420    9.9900   25.6220 C   0  0  0  0  0
    0.4270    9.5620   26.7940 N   0  0  0  0  0
   -0.8970    9.7890   27.0310 C   0  0  0  0  0
   -1.6890   10.3960   26.1580 N   0  0  0  0  0
    2.1790    9.8520   25.1220 N   0  0  0  0  0
    3.3630    9.2450   25.7890 C   0  0  0  0  0
    3.3520    7.7240   25.8130 C   0  0  0  0  0
    3.8830    7.0990   24.5370 C   0  0  0  0  0
    5.2980    7.5180   24.1720 C   0  0  0  0  0
   -1.4630    9.4060   28.1750 F   0  0  0  0  0
    8.2048   10.9340   22.3210 H   0  0  0  0  0
    8.0449   10.0184   23.8399 H   0  0  0  0  0
    7.7854    9.2039   22.2777 H   0  0  0  0  0
    7.6414   12.5157   23.8441 H   0  0  0  0  0
    6.6781   14.5692   24.9113 H   0  0  0  0  0
    5.4729   15.7399   26.5788 H   0  0  0  0  0
    5.3562   16.5193   24.9819 H   0  0  0  0  0
    4.0918   16.7998   26.2041 H   0  0  0  0  0
    2.7220   12.9230   24.3268 H   0  0  0  0  0
    3.9695    9.6207   23.1449 H   0  0  0  0  0
    3.1535   10.7922   22.0643 H   0  0  0  0  0
   -1.6949   11.8236   23.1984 H   0  0  0  0  0
   -3.0428   11.5842   24.3151 H   0  0  0  0  0
    3.3577    9.5835   26.8251 H   0  0  0  0  0
    4.2433    9.5518   25.2242 H   0  0  0  0  0
    2.3166    7.4042   25.9299 H   0  0  0  0  0
    3.9980    7.4031   26.6302 H   0  0  0  0  0
    3.2334    7.4281   23.7260 H   0  0  0  0  0
    3.8996    6.0203   24.6928 H   0  0  0  0  0
    5.3315    8.5988   24.0344 H   0  0  0  0  0
    5.9787    7.2312   24.9736 H   0  0  0  0  0
    5.5949    7.0234   23.2472 H   0  0  0  0  0
  3  1  1  0  0  0
  4  2  4  0  0  0
  2  5  4  0  0  0
  3  4  1  0  0  0
  4 10  4  0  0  0
  5  6  4  0  0  0
  6  7  1  0  0  0
  6  9  4  0  0  0
  7  8  1  0  0  0
  9 10  4  0  0  0
 10 11  1  0  0  0
 11 12  1  0  0  0
 12 13  4  0  0  0
 12 21  4  0  0  0
 13 14  4  0  0  0
 14 15  4  0  0  0
 14 17  4  0  0  0
 15 16  1  0  0  0
 15 20  4  0  0  0
 17 18  4  0  0  0
 17 21  4  0  0  0
 18 19  4  0  0  0
 19 20  4  0  0  0
 19 26  1  0  0  0
 21 22  1  0  0  0
 22 23  1  0  0  0
 23 24  1  0  0  0
 24 25  1  0  0  0
  1 27  1  0  0  0
  1 28  1  0  0  0
  1 29  1  0  0  0
  2 30  1  0  0  0
  5 31  1  0  0  0
  8 32  1  0  0  0
  8 33  1  0  0  0
  8 34  1  0  0  0
  9 35  1  0  0  0
 11 36  1  0  0  0
 11 37  1  0  0  0
 16 38  1  0  0  0
 16 39  1  0  0  0
 22 40  1  0  0  0
 22 41  1  0  0  0
 23 42  1  0  0  0
 23 43  1  0  0  0
 24 44  1  0  0  0
 24 45  1  0  0  0
 25 46  1  0  0  0
 25 47  1  0  0  0
 25 48  1  0  0  0
M  END
$$$$
