5trg_ligand
  -I-interpret- 

 87 90  0  0  0  0  0  0  0  0999 V2000
   -8.4230  -26.9150   31.8420 C   0  0  0  0  0
   -8.1370  -27.9760   32.3810 O   0  0  0  0  0
   -7.4740  -25.7380   31.8920 C   0  0  0  0  0
   -6.2190  -25.8650   31.0460 C   0  0  0  0  0
   -5.2420  -24.7560   31.1990 C   0  0  0  0  0
   -5.3750  -23.6090   30.4380 C   0  0  0  0  0
   -4.4950  -22.5560   30.5830 C   0  0  0  0  0
   -3.4540  -22.6020   31.5050 C   0  0  0  0  0
   -3.3120  -23.7280   32.2920 C   0  0  0  0  0
   -4.1990  -24.7850   32.1390 C   0  0  0  0  0
  -10.0520  -28.0810   28.7260 O   0  0  0  0  0
  -10.3480  -28.6880   29.7260 C   0  0  0  0  0
  -10.6720  -27.8510   31.0120 C   0  0  0  0  0
  -12.0810  -27.2580   30.7000 C   0  0  0  0  0
  -12.9630  -26.7810   31.8350 C   0  0  0  0  0
  -13.8160  -25.6310   31.5980 N   0  0  0  0  0
  -14.6710  -25.1370   32.6630 C   0  0  0  0  0
  -13.9710  -24.4780   33.8500 C   0  0  0  0  0
  -13.8650  -24.8810   30.3310 C   0  0  0  0  0
  -14.8820  -25.4470   29.3690 C   0  0  0  0  0
  -12.9620  -27.3430   32.9100 O   0  0  0  0  0
   -9.6610  -26.7880   31.1680 N   0  0  0  0  0
  -10.3880  -30.0580   29.7010 N   0  0  0  0  0
  -10.1230  -30.8270   28.5500 C   0  0  0  0  0
  -11.3620  -31.4480   28.0880 C   0  0  0  0  0
  -12.1500  -31.8330   28.9160 O   0  0  0  0  0
   -9.0750  -31.9010   28.8950 C   0  0  0  0  0
   -7.7220  -31.2680   29.0840 C   0  0  0  0  0
   -7.2850  -30.7890   30.3330 C   0  0  0  0  0
   -6.8920  -31.0420   27.9890 C   0  0  0  0  0
   -6.0550  -30.1660   30.4740 C   0  0  0  0  0
   -5.6640  -30.4270   28.0920 C   0  0  0  0  0
   -5.2550  -29.9990   29.3350 C   0  0  0  0  0
   -4.0630  -29.4090   29.4310 F   0  0  0  0  0
  -15.0620  -29.2500   23.5950 C   0  0  0  0  0
  -14.3550  -30.2460   23.0190 C   0  0  0  0  0
  -15.0780  -29.1060   25.0010 C   0  0  0  0  0
  -14.4570  -29.8160   27.1910 C   0  0  0  0  0
  -14.3810  -29.9990   25.7830 C   0  0  0  0  0
  -15.1800  -28.8250   27.7770 C   0  0  0  0  0
  -11.6280  -31.4980   26.7280 N   0  0  0  0  0
  -12.8530  -32.0430   26.0770 C   0  0  0  0  0
  -13.6410  -31.0520   25.2060 C   0  0  0  0  0
  -13.6390  -31.1390   23.8280 C   0  0  0  0  0
  -15.8910  -27.9270   26.9690 C   0  0  0  0  0
  -15.8320  -28.0780   25.6040 C   0  0  0  0  0
   -7.1409  -25.6547   32.9265 H   0  0  0  0  0
   -8.0239  -24.8821   31.5006 H   0  0  0  0  0
   -6.5403  -25.8592   30.0044 H   0  0  0  0  0
   -5.7137  -26.7755   31.3682 H   0  0  0  0  0
   -6.1862  -23.5357   29.7136 H   0  0  0  0  0
   -4.6181  -21.6689   29.9617 H   0  0  0  0  0
   -2.7632  -21.7647   31.6044 H   0  0  0  0  0
   -2.5097  -23.7863   33.0276 H   0  0  0  0  0
   -4.0820  -25.6666   32.7693 H   0  0  0  0  0
  -10.6607  -28.4254   31.9383 H   0  0  0  0  0
  -12.6333  -28.0835   30.2511 H   0  0  0  0  0
  -11.8783  -26.3615   30.1141 H   0  0  0  0  0
  -15.1877  -26.0090   33.0639 H   0  0  0  0  0
  -15.2955  -24.3645   32.2144 H   0  0  0  0  0
  -13.2974  -25.1962   34.3174 H   0  0  0  0  0
  -13.4010  -23.6167   33.5016 H   0  0  0  0  0
  -14.7169  -24.1524   34.5751 H   0  0  0  0  0
  -12.8833  -24.9453   29.8618 H   0  0  0  0  0
  -14.1489  -23.8532   30.5572 H   0  0  0  0  0
  -14.6270  -26.4817   29.1399 H   0  0  0  0  0
  -15.8718  -25.4076   29.8239 H   0  0  0  0  0
  -14.8788  -24.8589   28.4513 H   0  0  0  0  0
   -9.8731  -25.8806   30.7531 H   0  0  0  0  0
  -10.6228  -30.5485   30.5640 H   0  0  0  0  0
   -9.7324  -30.1931   27.7540 H   0  0  0  0  0
   -9.0205  -32.6208   28.0783 H   0  0  0  0  0
   -9.3671  -32.3998   29.8191 H   0  0  0  0  0
   -7.9261  -30.9103   31.2062 H   0  0  0  0  0
   -7.2298  -31.3668   27.0049 H   0  0  0  0  0
   -5.7173  -29.8138   31.4487 H   0  0  0  0  0
   -5.0338  -30.2832   27.2143 H   0  0  0  0  0
  -15.6233  -28.5534   22.9723 H   0  0  0  0  0
  -14.3413  -30.3545   21.9345 H   0  0  0  0  0
  -13.9079  -30.5050   27.8328 H   0  0  0  0  0
  -15.2065  -28.7299   28.8625 H   0  0  0  0  0
  -10.9102  -31.1225   26.1082 H   0  0  0  0  0
  -13.5220  -32.3461   26.8824 H   0  0  0  0  0
  -12.5210  -32.8413   25.4133 H   0  0  0  0  0
  -13.0599  -31.9305   23.3523 H   0  0  0  0  0
  -16.4792  -27.1246   27.4144 H   0  0  0  0  0
  -16.3834  -27.3838   24.9699 H   0  0  0  0  0
  1  2  2  0  0  0
  1  3  1  0  0  0
 22  1  1  0  0  0
  3  4  1  0  0  0
  4  5  1  0  0  0
  5  6  4  0  0  0
  5 10  4  0  0  0
  6  7  4  0  0  0
  7  8  4  0  0  0
  9  8  4  0  0  0
 10  9  4  0  0  0
 12 11  2  0  0  0
 12 13  1  0  0  0
 23 12  1  0  0  0
 13 14  1  0  0  0
 13 22  1  0  0  0
 14 15  1  0  0  0
 15 16  1  0  0  0
 15 21  2  0  0  0
 16 17  1  0  0  0
 16 19  1  0  0  0
 17 18  1  0  0  0
 19 20  1  0  0  0
 24 23  1  0  0  0
 25 24  1  0  0  0
 24 27  1  0  0  0
 25 26  2  0  0  0
 41 25  1  0  0  0
 27 28  1  0  0  0
 28 29  4  0  0  0
 28 30  4  0  0  0
 29 31  4  0  0  0
 30 32  4  0  0  0
 31 33  4  0  0  0
 32 33  4  0  0  0
 33 34  1  0  0  0
 35 36  4  0  0  0
 37 35  4  0  0  0
 36 44  4  0  0  0
 39 37  4  0  0  0
 37 46  4  0  0  0
 39 38  4  0  0  0
 38 40  4  0  0  0
 43 39  4  0  0  0
 40 45  4  0  0  0
 42 41  1  0  0  0
 42 43  1  0  0  0
 43 44  4  0  0  0
 45 46  4  0  0  0
  3 47  1  0  0  0
  3 48  1  0  0  0
  4 49  1  0  0  0
  4 50  1  0  0  0
  6 51  1  0  0  0
  7 52  1  0  0  0
  8 53  1  0  0  0
  9 54  1  0  0  0
 10 55  1  0  0  0
 13 56  1  0  0  0
 14 57  1  0  0  0
 14 58  1  0  0  0
 17 59  1  0  0  0
 17 60  1  0  0  0
 18 61  1  0  0  0
 18 62  1  0  0  0
 18 63  1  0  0  0
 19 64  1  0  0  0
 19 65  1  0  0  0
 20 66  1  0  0  0
 20 67  1  0  0  0
 20 68  1  0  0  0
 22 69  1  0  0  0
 23 70  1  0  0  0
 24 71  1  0  0  0
 27 72  1  0  0  0
 27 73  1  0  0  0
 29 74  1  0  0  0
 30 75  1  0  0  0
 31 76  1  0  0  0
 32 77  1  0  0  0
 35 78  1  0  0  0
 36 79  1  0  0  0
 38 80  1  0  0  0
 40 81  1  0  0  0
 41 82  1  0  0  0
 42 83  1  0  0  0
 42 84  1  0  0  0
 44 85  1  0  0  0
 45 86  1  0  0  0
 46 87  1  0  0  0
M  END
$$$$
