2cn8_ligand
  -I-interpret- 

 27 29  0  0  0  0  0  0  0  0999 V2000
  -13.7570   47.1530   10.5760 O   0  0  0  0  0
  -13.7220   46.6870    9.4630 C   0  0  0  0  0
  -14.8750   46.3520    8.8530 N   0  0  0  0  0
  -15.1450   45.7880    7.5560 C   0  0  0  0  0
  -14.2640   46.3260    6.4500 C   0  0  0  0  0
  -12.3650   46.5790    8.9350 C   0  0  0  0  0
  -11.3060   46.8500    9.6900 N   0  0  0  0  0
  -10.1040   46.9130    8.8400 C   0  0  0  0  0
  -10.5270   46.4480    7.4510 C   0  0  0  0  0
  -11.9940   46.2590    7.6900 C   0  0  0  0  0
  -12.8700   45.7750    6.6520 C   0  0  0  0  0
  -12.3450   44.7100    5.7660 C   0  0  0  0  0
  -11.1510   44.0540    5.6930 N   0  0  0  0  0
  -11.3070   43.2100    4.6450 C   0  0  0  0  0
  -10.3070   42.3740    4.2860 N   0  0  0  0  0
  -12.4590   43.2380    3.9790 N   0  0  0  0  0
  -13.1260   44.1760    4.6640 C   0  0  0  0  0
  -14.3130   44.5980    4.4590 O   0  0  0  0  0
  -15.7094   46.5304    9.4119 H   0  0  0  0  0
  -16.1733   46.0446    7.3015 H   0  0  0  0  0
  -14.9558   44.7168    7.6255 H   0  0  0  0  0
  -14.2460   47.4154    6.4796 H   0  0  0  0  0
  -14.6519   46.0213    5.4780 H   0  0  0  0  0
   -9.1067   47.2302    9.1449 H   0  0  0  0  0
   -9.9352   46.2972    6.5481 H   0  0  0  0  0
  -10.3316   44.1717    6.2889 H   0  0  0  0  0
  -10.4270   41.7476    3.4900 H   0  0  0  0  0
  1  2  2  0  0  0
  2  3  1  0  0  0
  2  6  1  0  0  0
  3  4  1  0  0  0
  4  5  1  0  0  0
  5 11  1  0  0  0
  6  7  4  0  0  0
  6 10  4  0  0  0
  7  8  4  0  0  0
  8  9  4  0  0  0
  9 10  4  0  0  0
 10 11  1  0  0  0
 11 12  2  0  0  0
 12 13  1  0  0  0
 12 17  1  0  0  0
 13 14  1  0  0  0
 14 15  2  0  0  0
 14 16  4  0  0  0
 16 17  1  0  0  0
 17 18  2  0  0  0
  3 19  1  0  0  0
  4 20  1  0  0  0
  4 21  1  0  0  0
  5 22  1  0  0  0
  5 23  1  0  0  0
  8 24  1  0  0  0
  9 25  1  0  0  0
 13 26  1  0  0  0
 15 27  1  0  0  0
M  END
$$$$
