6g02_ligand
  -I-interpret- 

 67 67  0  0  0  0  0  0  0  0999 V2000
   19.8580   21.5670    8.3900 C   0  0  0  0  0
   21.3260   21.8910    8.4230 C   0  0  0  0  0
   21.4620   23.3540    8.2190 C   0  0  0  0  0
   23.3990   19.6380    6.2310 C   0  0  0  0  0
   20.6640   24.1030    9.1180 C   0  0  0  0  0
   23.5660   24.0410    7.2540 C   0  0  0  0  0
   23.0540   25.2450    6.4100 C   0  0  0  0  0
   22.8320   20.2180    7.5050 C   0  0  0  0  0
   19.1020   22.2890    9.5350 C   0  0  0  0  0
   20.7220   20.4970   21.0940 N   0  0  0  0  0
   20.1610   21.7670   20.8910 N   0  0  0  0  0
   19.5800   23.0280   20.7180 N   0  0  0  0  0
   20.1290   23.9180   19.6330 C   0  0  0  0  0
   19.0690   23.9400   18.4990 C   0  0  0  0  0
   19.6740   24.1230   17.1230 C   0  0  0  0  0
   18.5570   24.1370   16.0360 C   0  0  0  0  0
   19.2760   24.2320   14.7080 C   0  0  0  0  0
   18.3140   24.3540   13.5230 C   0  0  0  0  0
   19.0760   24.1470   12.3410 O   0  0  0  0  0
   18.6080   24.6320   10.9000 P   0  0  0  0  0
   18.8740   26.1440   10.8140 O   0  0  0  0  0
   17.0980   24.3880   10.7360 O   0  0  0  0  0
   19.5350   23.6200    9.6930 C   0  0  0  0  0
   19.5900   20.1160    8.4060 N   0  3  0  0  0
   22.0200   21.2080    7.3010 N   0  0  0  0  0
   23.1410   19.7980    8.6190 O   0  0  0  0  0
   22.8480   23.7820    8.4410 O   0  0  0  0  0
   25.0210   24.2440    7.6300 C   0  0  0  0  0
   25.5900   22.8970    8.0760 C   0  0  0  0  0
   23.1480   26.5500    7.1530 C   0  0  0  0  0
   19.4792   21.9398    7.4384 H   0  0  0  0  0
   21.7583   21.5689    9.3703 H   0  0  0  0  0
   21.1408   23.5380    7.1938 H   0  0  0  0  0
   24.4835   19.7477    6.2345 H   0  0  0  0  0
   23.1396   18.5812    6.1675 H   0  0  0  0  0
   22.9817   20.1680    5.3748 H   0  0  0  0  0
   20.9733   25.1198    9.3600 H   0  0  0  0  0
   23.4209   23.1792    6.6026 H   0  0  0  0  0
   22.0051   25.0677    6.1726 H   0  0  0  0  0
   23.6764   25.3198    5.5183 H   0  0  0  0  0
   19.2971   21.7536   10.4642 H   0  0  0  0  0
   18.0403   22.3020    9.2885 H   0  0  0  0  0
   21.0838   23.5412   19.2663 H   0  0  0  0  0
   20.3156   24.9231   20.0111 H   0  0  0  0  0
   18.4045   24.7842   18.6834 H   0  0  0  0  0
   18.5537   22.9796   18.5089 H   0  0  0  0  0
   20.3550   23.2961   16.9217 H   0  0  0  0  0
   20.2096   25.0719   17.0940 H   0  0  0  0  0
   17.8750   24.9752   16.1787 H   0  0  0  0  0
   17.9399   23.2401   16.0897 H   0  0  0  0  0
   19.8564   23.3189   14.5754 H   0  0  0  0  0
   19.8984   25.1266   14.7275 H   0  0  0  0  0
   17.8437   25.3372   13.5096 H   0  0  0  0  0
   17.5152   23.6163   13.5992 H   0  0  0  0  0
   16.9197   23.4461   10.7880 H   0  0  0  0  0
   20.0993   19.6690    7.6436 H   0  0  0  0  0
   19.8965   19.7247    9.2967 H   0  0  0  0  0
   18.5897   19.9549    8.2887 H   0  0  0  0  0
   21.8535   21.5259    6.3462 H   0  0  0  0  0
   25.1019   24.9715    8.4377 H   0  0  0  0  0
   25.5803   24.6229    6.7746 H   0  0  0  0  0
   25.0271   22.5329    8.9355 H   0  0  0  0  0
   25.5097   22.1813    7.2578 H   0  0  0  0  0
   26.6374   23.0198    8.3516 H   0  0  0  0  0
   22.5458   26.4945    8.0599 H   0  0  0  0  0
   24.1879   26.7422    7.4171 H   0  0  0  0  0
   22.7781   27.3554    6.5184 H   0  0  0  0  0
  1  2  1  0  0  0
  9  1  1  0  0  0
  1 24  1  0  0  0
  3  2  1  0  0  0
  2 25  1  0  0  0
  5  3  1  0  0  0
  3 27  1  0  0  0
  8  4  1  0  0  0
 23  5  2  0  0  0
  6  7  1  0  0  0
 27  6  1  0  0  0
  6 28  1  0  0  0
  7 30  1  0  0  0
 25  8  1  0  0  0
  8 26  2  0  0  0
 23  9  1  0  0  0
 11 10  3  0  0  0
 12 11  2  0  0  0
 13 12  1  0  0  0
 14 13  1  0  0  0
 15 14  1  0  0  0
 16 15  1  0  0  0
 17 16  1  0  0  0
 18 17  1  0  0  0
 19 18  1  0  0  0
 20 19  1  0  0  0
 20 21  2  0  0  0
 20 22  1  0  0  0
 20 23  1  0  0  0
 28 29  1  0  0  0
  1 31  1  0  0  0
  2 32  1  0  0  0
  3 33  1  0  0  0
  4 34  1  0  0  0
  4 35  1  0  0  0
  4 36  1  0  0  0
  5 37  1  0  0  0
  6 38  1  0  0  0
  7 39  1  0  0  0
  7 40  1  0  0  0
  9 41  1  0  0  0
  9 42  1  0  0  0
 13 43  1  0  0  0
 13 44  1  0  0  0
 14 45  1  0  0  0
 14 46  1  0  0  0
 15 47  1  0  0  0
 15 48  1  0  0  0
 16 49  1  0  0  0
 16 50  1  0  0  0
 17 51  1  0  0  0
 17 52  1  0  0  0
 18 53  1  0  0  0
 18 54  1  0  0  0
 22 55  1  0  0  0
 24 56  1  0  0  0
 24 57  1  0  0  0
 24 58  1  0  0  0
 25 59  1  0  0  0
 28 60  1  0  0  0
 28 61  1  0  0  0
 29 62  1  0  0  0
 29 63  1  0  0  0
 29 64  1  0  0  0
 30 65  1  0  0  0
 30 66  1  0  0  0
 30 67  1  0  0  0
M  END
$$$$
