### 
### Created by X-TOOL on Mon Aug  2 16:13:27 2021
### 

@<TRIPOS>MOLECULE
6g02_ligand
   66    66     1     0     0
SMALL
GAST_HUCK


@<TRIPOS>ATOM
      1 C4         19.8580   21.5670    8.3900 C.3       1 EF8         0.0105
      2 C5         21.3260   21.8910    8.4230 C.3       1 EF8         0.1208
      3 C6         21.4620   23.3540    8.2190 C.3       1 EF8         0.1134
      4 C11        23.3990   19.6380    6.2310 C.3       1 EF8         0.0257
      5 C7         20.6640   24.1030    9.1180 C.2       1 EF8        -0.0360
      6 C8         23.5660   24.0410    7.2540 C.3       1 EF8         0.0615
      7 C9         23.0540   25.2450    6.4100 C.3       1 EF8        -0.0292
      8 C10        22.8320   20.2180    7.5050 C.2       1 EF8         0.1735
      9 C3         19.1020   22.2890    9.5350 C.3       1 EF8         0.0281
     10 N8         20.7220   20.4970   21.0940 N.1       1 EF8         0.2334
     11 N7         20.1610   21.7670   20.8910 N.1       1 EF8         0.1292
     12 N6         19.5800   23.0280   20.7180 N.2       1 EF8         0.1658
     13 C25        20.1290   23.9180   19.6330 C.3       1 EF8         0.2089
     14 C24        19.0690   23.9400   18.4990 C.3       1 EF8         0.0029
     15 C23        19.6740   24.1230   17.1230 C.3       1 EF8        -0.0482
     16 C22        18.5570   24.1370   16.0360 C.3       1 EF8        -0.0505
     17 C21        19.2760   24.2320   14.7080 C.3       1 EF8        -0.0244
     18 C20        18.3140   24.3540   13.5230 C.3       1 EF8         0.0803
     19 OP3        19.0760   24.1470   12.3410 O.3       1 EF8        -0.2833
     20 P1         18.6080   24.6320   10.9000 P.3       1 EF8         0.1303
     21 OP2        18.8740   26.1440   10.8140 O.co2     1 EF8        -0.6236
     22 OP1        17.0980   24.3880   10.7360 O.co2     1 EF8        -0.6236
     23 C2         19.5350   23.6200    9.6930 C.2       1 EF8         0.0277
     24 N4         19.5900   20.1160    8.4060 N.4       1 EF8         0.2237
     25 N5         22.0200   21.2080    7.3010 N.am      1 EF8        -0.2739
     26 O10        23.1410   19.7980    8.6190 O.2       1 EF8        -0.3974
     27 O7         22.8480   23.7820    8.4410 O.3       1 EF8        -0.3589
     28 C81        25.0210   24.2440    7.6300 C.3       1 EF8        -0.0292
     29 C82        25.5900   22.8970    8.0760 C.3       1 EF8        -0.0629
     30 C91        23.1480   26.5500    7.1530 C.3       1 EF8        -0.0629
     31 H1         19.4636   21.9563    7.4398 H         1 EF8         0.0895
     32 H2         21.7646   21.5876    9.3850 H         1 EF8         0.0665
     33 H3         21.1638   23.5898    7.1868 H         1 EF8         0.0785
     34 H4         24.0761   18.8065    6.4763 H         1 EF8         0.0467
     35 H5         23.9559   20.4169    5.6896 H         1 EF8         0.0467
     36 H6         22.5780   19.2681    5.5993 H         1 EF8         0.0467
     37 H7         20.9730   25.1189    9.3598 H         1 EF8         0.0630
     38 H8         23.4896   23.1463    6.6187 H         1 EF8         0.0598
     39 H9         22.0022   25.0664    6.1423 H         1 EF8         0.0288
     40 H10        23.6586   25.3163    5.4938 H         1 EF8         0.0288
     41 H11        19.2761   21.7445   10.4748 H         1 EF8         0.0444
     42 H12        18.0262   22.2899    9.3056 H         1 EF8         0.0444
     43 H13        21.0801   23.5141   19.2557 H         1 EF8         0.0957
     44 H14        20.2905   24.9344   20.0213 H         1 EF8         0.0957
     45 H15        18.3717   24.7695   18.6878 H         1 EF8         0.0316
     46 H16        18.5190   22.9876   18.5155 H         1 EF8         0.0316
     47 H17        20.3679   23.2942   16.9190 H         1 EF8         0.0267
     48 H18        20.2220   25.0762   17.0918 H         1 EF8         0.0267
     49 H19        17.8962   25.0050   16.1768 H         1 EF8         0.0266
     50 H20        17.9632   23.2123   16.0849 H         1 EF8         0.0266
     51 H21        19.8874   23.3276   14.5733 H         1 EF8         0.0291
     52 H22        19.9290   25.1171   14.7238 H         1 EF8         0.0291
     53 H23        17.8595   25.3556   13.5079 H         1 EF8         0.0620
     54 H24        17.5230   23.5934   13.5996 H         1 EF8         0.0620
     55 H25        20.0928   19.6731    7.6529 H         1 EF8         0.1999
     56 H26        18.6016   19.9555    8.2901 H         1 EF8         0.1999
     57 H27        19.8925   19.7281    9.2858 H         1 EF8         0.1999
     58 H28        21.8568   21.5196    6.3649 H         1 EF8         0.1859
     59 H29        25.0955   24.9706    8.4525 H         1 EF8         0.0288
     60 H30        25.5823   24.6159    6.7602 H         1 EF8         0.0288
     61 H31        26.6471   23.0196    8.3544 H         1 EF8         0.0231
     62 H32        25.5096   22.1737    7.2511 H         1 EF8         0.0231
     63 H33        25.0228   22.5284    8.9434 H         1 EF8         0.0231
     64 H34        22.7750   27.3636    6.5136 H         1 EF8         0.0231
     65 H35        24.1971   26.7452    7.4201 H         1 EF8         0.0231
     66 H36        22.5406   26.4953    8.0685 H         1 EF8         0.0231
@<TRIPOS>BOND
     1    1    2 1  
     2    9    1 1  
     3    1   24 1  
     4    3    2 1  
     5    2   25 1  
     6    5    3 1  
     7    3   27 1  
     8    8    4 1  
     9   23    5 2  
    10    6    7 1  
    11   27    6 1  
    12    6   28 1  
    13    7   30 1  
    14   25    8 am 
    15    8   26 2  
    16   23    9 1  
    17   11   10 3  
    18   12   11 2  
    19   13   12 1  
    20   14   13 1  
    21   15   14 1  
    22   16   15 1  
    23   17   16 1  
    24   18   17 1  
    25   19   18 1  
    26   20   19 1  
    27   20   21 ar 
    28   20   22 ar 
    29   20   23 1  
    30   28   29 1  
    31    1   31 1  
    32    2   32 1  
    33    3   33 1  
    34    4   34 1  
    35    4   35 1  
    36    4   36 1  
    37    5   37 1  
    38    6   38 1  
    39    7   39 1  
    40    7   40 1  
    41    9   41 1  
    42    9   42 1  
    43   13   43 1  
    44   13   44 1  
    45   14   45 1  
    46   14   46 1  
    47   15   47 1  
    48   15   48 1  
    49   16   49 1  
    50   16   50 1  
    51   17   51 1  
    52   17   52 1  
    53   18   53 1  
    54   18   54 1  
    55   24   55 1  
    56   24   56 1  
    57   24   57 1  
    58   25   58 1  
    59   28   59 1  
    60   28   60 1  
    61   29   61 1  
    62   29   62 1  
    63   29   63 1  
    64   30   64 1  
    65   30   65 1  
    66   30   66 1  
@<TRIPOS>SUBSTRUCTURE
     1 EF8         1

