3buh_ligand
  -I-interpret- 

 38 39  0  0  0  0  0  0  0  0999 V2000
  -22.2320   40.0130   93.2330 C   0  0  0  0  0
  -21.8980   43.1020   91.8040 C   0  0  0  0  0
  -21.9500   41.4290   89.8230 C   0  0  0  0  0
  -19.5630   39.3770   92.7550 C   0  0  0  0  0
  -21.6010   39.0620   94.0430 C   0  0  0  0  0
  -22.4100   44.1760   90.8400 C   0  0  0  0  0
  -18.1160   39.0400   92.4780 C   0  0  0  0  0
  -17.2610   38.9800   93.7530 C   0  0  0  0  0
  -23.5460   40.3090   93.4930 O   0  0  0  0  0
  -20.2640   38.7460   93.7930 C   0  0  0  0  0
  -15.8360   38.7100   93.4430 N   0  3  0  0  0
  -20.2120   40.3290   91.9570 C   0  0  0  0  0
  -21.5540   40.6580   92.1840 C   0  0  0  0  0
  -22.2550   41.6830   91.3190 C   0  0  0  0  0
  -21.7170   43.9680   89.4910 C   0  0  0  0  0
  -22.1550   42.6290   88.8820 C   0  0  0  0  0
  -22.3666   43.2609   92.7752 H   0  0  0  0  0
  -20.8125   43.1820   91.8619 H   0  0  0  0  0
  -22.6473   40.6585   89.4941 H   0  0  0  0  0
  -20.8927   41.1706   89.7649 H   0  0  0  0  0
  -22.1434   38.5767   94.8544 H   0  0  0  0  0
  -22.1870   45.1694   91.2293 H   0  0  0  0  0
  -23.4909   44.0952   90.7251 H   0  0  0  0  0
  -17.7079   39.8241   91.8403 H   0  0  0  0  0
  -18.0871   38.0554   92.0113 H   0  0  0  0  0
  -17.6358   38.1718   94.3811 H   0  0  0  0  0
  -17.3269   39.9440   94.2574 H   0  0  0  0  0
  -23.8533   40.9707   92.8690 H   0  0  0  0  0
  -19.7605   38.0020   94.4103 H   0  0  0  0  0
  -15.3008   38.6773   94.3107 H   0  0  0  0  0
  -15.7580   37.8149   92.9601 H   0  0  0  0  0
  -15.4726   39.4527   92.8458 H   0  0  0  0  0
  -19.6660   40.8187   91.1507 H   0  0  0  0  0
  -23.3364   41.5871   91.4164 H   0  0  0  0  0
  -20.6370   43.9607   89.6382 H   0  0  0  0  0
  -21.9925   44.7781   88.8158 H   0  0  0  0  0
  -23.2217   42.6996   88.6695 H   0  0  0  0  0
  -21.5445   42.4575   87.9954 H   0  0  0  0  0
  1  5  4  0  0  0
  1  9  1  0  0  0
 13  1  4  0  0  0
  2  6  1  0  0  0
 14  2  1  0  0  0
 14  3  1  0  0  0
  3 16  1  0  0  0
  4  7  1  0  0  0
  4 10  4  0  0  0
 12  4  4  0  0  0
  5 10  4  0  0  0
  6 15  1  0  0  0
  7  8  1  0  0  0
  8 11  1  0  0  0
 13 12  4  0  0  0
 13 14  1  0  0  0
 15 16  1  0  0  0
  2 17  1  0  0  0
  2 18  1  0  0  0
  3 19  1  0  0  0
  3 20  1  0  0  0
  5 21  1  0  0  0
  6 22  1  0  0  0
  6 23  1  0  0  0
  7 24  1  0  0  0
  7 25  1  0  0  0
  8 26  1  0  0  0
  8 27  1  0  0  0
  9 28  1  0  0  0
 10 29  1  0  0  0
 11 30  1  0  0  0
 11 31  1  0  0  0
 11 32  1  0  0  0
 12 33  1  0  0  0
 14 34  1  0  0  0
 15 35  1  0  0  0
 15 36  1  0  0  0
 16 37  1  0  0  0
 16 38  1  0  0  0
M  END
$$$$
