4b13_ligand
  -I-interpret- 

 53 57  0  0  0  0  0  0  0  0999 V2000
   25.1840   42.2010   63.7330 C   0  0  0  0  0
   23.8700   42.0010   63.2080 C   0  0  0  0  0
   23.1110   42.6930   62.3590 C   0  0  0  0  0
   22.0540   42.2040   62.2530 O   0  0  0  0  0
   23.4970   43.9000   61.8150 C   0  0  0  0  0
   24.6590   44.5010   62.0050 N   0  0  0  0  0
   24.5710   45.5140   61.2130 C   0  0  0  0  0
   25.5690   46.5570   61.0650 C   0  0  0  0  0
   25.3360   47.2400   62.3930 C   0  0  0  0  0
   24.0770   47.6310   62.7440 C   0  0  0  0  0
   23.9160   48.2750   63.9530 C   0  0  0  0  0
   24.9720   48.5080   64.8100 C   0  0  0  0  0
   26.2270   48.1080   64.4440 C   0  0  0  0  0
   26.3720   47.4640   63.2500 C   0  0  0  0  0
   23.4030   45.5250   60.6410 N   0  0  0  0  0
   22.7900   44.4550   61.0580 O   0  0  0  0  0
   22.0370   41.0880   62.9200 C   0  0  0  0  0
   23.2100   40.8930   63.6260 C   0  0  0  0  0
   20.9770   40.2090   63.0190 C   0  0  0  0  0
   21.1480   39.1120   63.8190 C   0  0  0  0  0
   22.3530   38.9490   64.5260 C   0  0  0  0  0
   23.4180   39.8400   64.4490 C   0  0  0  0  0
   24.5560   39.6750   65.1770 O   0  0  0  0  0
   24.4780   39.4040   66.6330 C   0  0  0  0  0
   25.1670   38.1330   67.1160 C   0  0  0  0  0
   26.6560   38.3440   67.1540 C   0  0  0  0  0
   27.0460   39.5620   67.8680 N   0  3  0  0  0
   26.2010   40.7300   67.8620 C   0  0  0  0  0
   24.7150   40.5360   67.6160 C   0  0  0  0  0
   25.9017   42.2255   62.9130 H   0  0  0  0  0
   25.2173   43.1461   64.2751 H   0  0  0  0  0
   25.4317   41.3834   64.4100 H   0  0  0  0  0
   25.4682   47.1885   60.1823 H   0  0  0  0  0
   26.5875   46.2163   60.8788 H   0  0  0  0  0
   23.2259   47.4406   62.0902 H   0  0  0  0  0
   22.9202   48.6115   64.2414 H   0  0  0  0  0
   24.8077   49.0045   65.7663 H   0  0  0  0  0
   27.0863   48.2980   65.0871 H   0  0  0  0  0
   27.3641   47.1116   62.9678 H   0  0  0  0  0
   20.0438   40.3814   62.4828 H   0  0  0  0  0
   20.3553   38.3691   63.9078 H   0  0  0  0  0
   22.4579   38.0759   65.1700 H   0  0  0  0  0
   23.3994   39.2494   66.6612 H   0  0  0  0  0
   24.9360   37.3157   66.4328 H   0  0  0  0  0
   24.8118   37.8885   68.1171 H   0  0  0  0  0
   27.0035   38.4377   66.1251 H   0  0  0  0  0
   27.0972   37.4968   67.6791 H   0  0  0  0  0
   27.8936   39.8678   67.3901 H   0  0  0  0  0
   27.0679   39.2779   68.8474 H   0  0  0  0  0
   26.5544   41.3375   67.0288 H   0  0  0  0  0
   26.2752   41.1449   68.8672 H   0  0  0  0  0
   24.2303   40.2899   68.5608 H   0  0  0  0  0
   24.3033   41.4558   67.2006 H   0  0  0  0  0
  1  2  1  0  0  0
  2  3  4  0  0  0
  2 18  4  0  0  0
  3  4  4  0  0  0
  3  5  1  0  0  0
  4 17  4  0  0  0
  5  6  4  0  0  0
  5 16  4  0  0  0
  6  7  4  0  0  0
  7  8  1  0  0  0
  7 15  4  0  0  0
  8  9  1  0  0  0
  9 10  4  0  0  0
  9 14  4  0  0  0
 10 11  4  0  0  0
 11 12  4  0  0  0
 12 13  4  0  0  0
 13 14  4  0  0  0
 15 16  4  0  0  0
 17 18  4  0  0  0
 17 19  4  0  0  0
 18 22  4  0  0  0
 19 20  4  0  0  0
 20 21  4  0  0  0
 21 22  4  0  0  0
 22 23  1  0  0  0
 23 24  1  0  0  0
 24 25  1  0  0  0
 24 29  1  0  0  0
 25 26  1  0  0  0
 26 27  1  0  0  0
 27 28  1  0  0  0
 28 29  1  0  0  0
  1 30  1  0  0  0
  1 31  1  0  0  0
  1 32  1  0  0  0
  8 33  1  0  0  0
  8 34  1  0  0  0
 10 35  1  0  0  0
 11 36  1  0  0  0
 12 37  1  0  0  0
 13 38  1  0  0  0
 14 39  1  0  0  0
 19 40  1  0  0  0
 20 41  1  0  0  0
 21 42  1  0  0  0
 24 43  1  0  0  0
 25 44  1  0  0  0
 25 45  1  0  0  0
 26 46  1  0  0  0
 26 47  1  0  0  0
 27 48  1  0  0  0
 27 49  1  0  0  0
 28 50  1  0  0  0
 28 51  1  0  0  0
 29 52  1  0  0  0
 29 53  1  0  0  0
M  END
$$$$
