2hvx_ligand
  -I-interpret- 

 43 46  0  0  0  0  0  0  0  0999 V2000
   62.4610   59.6600   -3.2970 C   0  0  0  0  0
   61.9720   58.6500   -2.3800 C   0  0  0  0  0
   61.4340   59.0510   -1.0920 C   0  0  0  0  0
   60.8300   57.8280    0.0330 Cl  0  0  0  0  0
   61.3790   60.4260   -0.7110 C   0  0  0  0  0
   61.8440   61.4720   -1.5770 C   0  0  0  0  0
   62.3770   61.1060   -2.8480 C   0  0  0  0  0
   63.0730   62.1670   -4.2380 S   0  0  0  0  0
   63.4690   60.7310   -5.3680 C   0  0  0  0  0
   63.0750   59.5020   -4.7000 C   0  0  0  0  0
   63.2410   58.1120   -5.3370 C   0  0  0  0  0
   64.9120   57.4350   -5.1230 P   0  0  0  0  0
   65.9820   58.5950   -5.5420 O   0  0  0  0  0
   65.1070   56.2140   -6.1420 O   0  0  0  0  0
   65.1380   56.9910   -3.7230 O   0  0  0  0  0
   62.9350   58.1210   -6.8730 C   0  0  0  0  0
   63.6250   58.7970   -7.6420 O   0  0  0  0  0
   61.8850   57.3310   -7.2210 N   0  0  0  0  0
   61.3820   57.0570   -8.4700 C   0  0  0  0  0
   60.2160   56.2120   -8.4750 C   0  0  0  0  0
   59.6100   55.8560   -9.7240 C   0  0  0  0  0
   58.4510   55.0250   -9.7460 C   0  0  0  0  0
   57.8520   54.6790  -11.0070 C   0  0  0  0  0
   58.4070   55.1660  -12.2340 C   0  0  0  0  0
   59.5710   56.0020  -12.2250 C   0  0  0  0  0
   60.1760   56.3530  -10.9700 C   0  0  0  0  0
   61.3330   57.1850  -10.9740 C   0  0  0  0  0
   61.9250   57.5360   -9.7180 C   0  0  0  0  0
   62.0078   57.5959   -2.6552 H   0  0  0  0  0
   60.9722   60.6889    0.2655 H   0  0  0  0  0
   61.7912   62.5170   -1.2716 H   0  0  0  0  0
   63.9185   60.8033   -6.3584 H   0  0  0  0  0
   62.5199   57.4849   -4.8127 H   0  0  0  0  0
   65.8188   58.8671   -6.4481 H   0  0  0  0  0
   64.9570   56.5205   -7.0393 H   0  0  0  0  0
   61.4022   56.8775   -6.4453 H   0  0  0  0  0
   59.7980   55.8464   -7.5371 H   0  0  0  0  0
   58.0226   54.6551   -8.8145 H   0  0  0  0  0
   56.9685   54.0410  -11.0289 H   0  0  0  0  0
   57.9405   54.8988  -13.1822 H   0  0  0  0  0
   59.9931   56.3679  -13.1610 H   0  0  0  0  0
   61.7574   57.5457  -11.9109 H   0  0  0  0  0
   62.8050   58.1791   -9.7046 H   0  0  0  0  0
  1  2  4  0  0  0
  1  7  4  0  0  0
  1 10  4  0  0  0
  2  3  4  0  0  0
  3  4  1  0  0  0
  3  5  4  0  0  0
  5  6  4  0  0  0
  6  7  4  0  0  0
  7  8  4  0  0  0
  8  9  4  0  0  0
  9 10  4  0  0  0
 10 11  1  0  0  0
 11 12  1  0  0  0
 11 16  1  0  0  0
 12 13  1  0  0  0
 12 14  1  0  0  0
 12 15  2  0  0  0
 16 17  2  0  0  0
 16 18  1  0  0  0
 18 19  1  0  0  0
 19 20  4  0  0  0
 19 28  4  0  0  0
 20 21  4  0  0  0
 21 22  4  0  0  0
 21 26  4  0  0  0
 22 23  4  0  0  0
 23 24  4  0  0  0
 24 25  4  0  0  0
 25 26  4  0  0  0
 26 27  4  0  0  0
 27 28  4  0  0  0
  2 29  1  0  0  0
  5 30  1  0  0  0
  6 31  1  0  0  0
  9 32  1  0  0  0
 11 33  1  0  0  0
 13 34  1  0  0  0
 14 35  1  0  0  0
 18 36  1  0  0  0
 20 37  1  0  0  0
 22 38  1  0  0  0
 23 39  1  0  0  0
 24 40  1  0  0  0
 25 41  1  0  0  0
 27 42  1  0  0  0
 28 43  1  0  0  0
M  END
$$$$
