### 
### Created by X-TOOL on Mon Sep 10 21:12:56 2018
### 

@<TRIPOS>MOLECULE
2hvx_ligand
   41    44     1     0     0
SMALL
GAST_HUCK


@<TRIPOS>ATOM
      1 CAO        62.4610   59.6600   -3.2970 C.ar      1 DRX        -0.0140
      2 CAP        61.9720   58.6500   -2.3800 C.ar      1 DRX        -0.0513
      3 CAQ        61.4340   59.0510   -1.0920 C.ar      1 DRX         0.0304
      4 CLR        60.8300   57.8280    0.0330 Cl        1 DRX        -0.0776
      5 CBB        61.3790   60.4260   -0.7110 C.ar      1 DRX        -0.0564
      6 CBA        61.8440   61.4720   -1.5770 C.ar      1 DRX        -0.0495
      7 CAZ        62.3770   61.1060   -2.8480 C.ar      1 DRX         0.0353
      8 SBC        63.0730   62.1670   -4.2380 S.3       1 DRX        -0.0517
      9 CAY        63.4690   60.7310   -5.3680 C.2       1 DRX        -0.0061
     10 CAN        63.0750   59.5020   -4.7000 C.2       1 DRX        -0.0054
     11 CAM        63.2410   58.1120   -5.3370 C.3       1 DRX         0.1484
     12 PAD        64.9120   57.4350   -5.1230 P.3       1 DRX         0.0897
     13 OAB        65.9820   58.5950   -5.5420 O.co2     1 DRX        -0.5593
     14 OAE        65.1070   56.2140   -6.1420 O.co2     1 DRX        -0.5593
     15 OAC        65.1380   56.9910   -3.7230 O.co2     1 DRX        -0.5593
     16 CAL        62.9350   58.1210   -6.8730 C.2       1 DRX         0.2319
     17 OAX        63.6250   58.7970   -7.6420 O.2       1 DRX        -0.3804
     18 NAK        61.8850   57.3310   -7.2210 N.am      1 DRX        -0.2304
     19 CAW        61.3820   57.0570   -8.4700 C.ar      1 DRX         0.0677
     20 CAV        60.2160   56.2120   -8.4750 C.ar      1 DRX        -0.0389
     21 CAU        59.6100   55.8560   -9.7240 C.ar      1 DRX        -0.0345
     22 CAT        58.4510   55.0250   -9.7460 C.ar      1 DRX        -0.0625
     23 CAS        57.8520   54.6790  -11.0070 C.ar      1 DRX        -0.0671
     24 CAF        58.4070   55.1660  -12.2340 C.ar      1 DRX        -0.0664
     25 CAG        59.5710   56.0020  -12.2250 C.ar      1 DRX        -0.0603
     26 CAH        60.1760   56.3530  -10.9700 C.ar      1 DRX        -0.0275
     27 CAI        61.3330   57.1850  -10.9740 C.ar      1 DRX        -0.0586
     28 CAJ        61.9250   57.5360   -9.7180 C.ar      1 DRX        -0.0336
     29 H1         62.0076   57.6017   -2.6537 H         1 DRX         0.0583
     30 H2         60.9745   60.6874    0.2601 H         1 DRX         0.0575
     31 H3         61.7915   62.5113   -1.2733 H         1 DRX         0.0570
     32 H4         63.9181   60.8032   -6.3575 H         1 DRX         0.0640
     33 H5         62.5271   57.4364   -4.8432 H         1 DRX         0.0847
     34 H6         61.4117   56.8864   -6.4605 H         1 DRX         0.2269
     35 H7         59.8003   55.8484   -7.5423 H         1 DRX         0.0435
     36 H8         58.0250   54.6571   -8.8196 H         1 DRX         0.0576
     37 H9         56.9734   54.0445  -11.0288 H         1 DRX         0.0603
     38 H10        57.9431   54.9002  -13.1770 H         1 DRX         0.0573
     39 H11        59.9908   56.3659  -13.1558 H         1 DRX         0.0612
     40 H12        61.7551   57.5438  -11.9058 H         1 DRX         0.0614
     41 H13        62.8002   58.1755   -9.7047 H         1 DRX         0.0569
@<TRIPOS>BOND
     1    1    2 ar 
     2    1    7 ar 
     3    1   10 1  
     4    2    3 ar 
     5    3    4 1  
     6    3    5 ar 
     7    5    6 ar 
     8    6    7 ar 
     9    7    8 1  
    10    8    9 1  
    11    9   10 2  
    12   10   11 1  
    13   11   12 1  
    14   11   16 1  
    15   12   13 ar 
    16   12   14 ar 
    17   12   15 ar 
    18   16   17 2  
    19   16   18 am 
    20   18   19 1  
    21   19   20 ar 
    22   19   28 ar 
    23   20   21 ar 
    24   21   22 ar 
    25   21   26 ar 
    26   22   23 ar 
    27   23   24 ar 
    28   24   25 ar 
    29   25   26 ar 
    30   26   27 ar 
    31   27   28 ar 
    32    2   29 1  
    33    5   30 1  
    34    6   31 1  
    35    9   32 1  
    36   11   33 1  
    37   18   34 1  
    38   20   35 1  
    39   22   36 1  
    40   23   37 1  
    41   24   38 1  
    42   25   39 1  
    43   27   40 1  
    44   28   41 1  
@<TRIPOS>SUBSTRUCTURE
     1 DRX         1

