1mnc_ligand
  -I-interpret- 

 52 52  0  0  0  0  0  0  0  0999 V2000
   -1.3850   30.5520   22.4640 C   0  0  0  0  0
   -2.4560   29.6990   22.9610 C   0  0  0  0  0
   -2.8150   28.6040   21.9250 C   0  0  0  0  0
   -1.6460   27.6780   21.5070 C   0  0  0  0  0
   -1.7950   26.6720   20.3490 C   0  0  0  0  0
   -1.8480   27.4200   18.9930 C   0  0  0  0  0
   -0.5380   25.8050   20.2770 C   0  0  0  0  0
   -3.9840   27.8500   22.3950 C   0  0  0  0  0
   -6.3010   27.1380   22.0590 C   0  0  0  0  0
   -6.4320   25.7800   21.5310 C   0  0  0  0  0
   -6.9760   23.5280   22.0790 C   0  0  0  0  0
   -7.5580   27.8650   21.5540 C   0  0  0  0  0
   -7.7780   29.1720   22.1900 C   0  0  0  0  0
   -7.4810   30.3530   21.5530 C   0  0  0  0  0
   -7.6900   31.5700   22.1720 C   0  0  0  0  0
   -8.1990   31.5970   23.4700 C   0  0  0  0  0
   -8.4790   30.4520   24.1450 C   0  0  0  0  0
   -8.2810   29.2580   23.4830 C   0  0  0  0  0
   -0.1510   30.5060   22.9860 N   0  0  0  0  0
   -5.1290   27.8230   21.6570 N   0  0  0  0  0
   -6.7760   24.8860   22.4380 N   0  0  0  0  0
    0.8610   31.1850   22.5810 O   0  0  0  0  0
   -1.6560   31.3070   21.5320 O   0  0  0  0  0
   -3.9210   27.2370   23.4660 O   0  0  0  0  0
   -6.2180   25.5760   20.3170 O   0  0  0  0  0
   -3.3381   30.3130   23.1426 H   0  0  0  0  0
   -2.1228   29.2169   23.8801 H   0  0  0  0  0
   -3.0600   29.1251   20.9995 H   0  0  0  0  0
   -1.4858   27.0479   22.3819 H   0  0  0  0  0
   -0.8781   28.3679   21.1570 H   0  0  0  0  0
   -2.7002   26.0905   20.5238 H   0  0  0  0  0
   -0.9486   28.0249   18.8778 H   0  0  0  0  0
   -1.9060   26.6947   18.1814 H   0  0  0  0  0
   -2.7265   28.0647   18.9693 H   0  0  0  0  0
   -0.6231   25.1129   19.4393 H   0  0  0  0  0
    0.3343   26.4431   20.1356 H   0  0  0  0  0
   -0.4321   25.2430   21.2050 H   0  0  0  0  0
   -6.2125   27.1063   23.1449 H   0  0  0  0  0
   -7.7737   23.4628   21.3390 H   0  0  0  0  0
   -6.0546   23.1253   21.6583 H   0  0  0  0  0
   -7.2528   22.9563   22.9648 H   0  0  0  0  0
   -8.4165   27.2371   21.7924 H   0  0  0  0  0
   -7.4276   28.0393   20.4860 H   0  0  0  0  0
   -7.0736   30.3289   20.5423 H   0  0  0  0  0
   -7.4595   32.4995   21.6514 H   0  0  0  0  0
   -8.3760   32.5578   23.9534 H   0  0  0  0  0
   -8.8463   30.4757   25.1710 H   0  0  0  0  0
   -8.5324   28.3327   24.0014 H   0  0  0  0  0
   -0.0029   29.8761   23.7744 H   0  0  0  0  0
   -5.1425   28.3227   20.7679 H   0  0  0  0  0
   -6.8996   25.1743   23.4086 H   0  0  0  0  0
    1.6255   30.9705   23.1206 H   0  0  0  0  0
  2  1  1  0  0  0
  1 19  1  0  0  0
  1 23  2  0  0  0
  3  2  1  0  0  0
  3  4  1  0  0  0
  8  3  1  0  0  0
  4  5  1  0  0  0
  5  6  1  0  0  0
  5  7  1  0  0  0
 20  8  1  0  0  0
  8 24  2  0  0  0
  9 10  1  0  0  0
  9 12  1  0  0  0
  9 20  1  0  0  0
 10 21  1  0  0  0
 10 25  2  0  0  0
 21 11  1  0  0  0
 12 13  1  0  0  0
 13 14  4  0  0  0
 13 18  4  0  0  0
 14 15  4  0  0  0
 15 16  4  0  0  0
 16 17  4  0  0  0
 17 18  4  0  0  0
 19 22  1  0  0  0
  2 26  1  0  0  0
  2 27  1  0  0  0
  3 28  1  0  0  0
  4 29  1  0  0  0
  4 30  1  0  0  0
  5 31  1  0  0  0
  6 32  1  0  0  0
  6 33  1  0  0  0
  6 34  1  0  0  0
  7 35  1  0  0  0
  7 36  1  0  0  0
  7 37  1  0  0  0
  9 38  1  0  0  0
 11 39  1  0  0  0
 11 40  1  0  0  0
 11 41  1  0  0  0
 12 42  1  0  0  0
 12 43  1  0  0  0
 14 44  1  0  0  0
 15 45  1  0  0  0
 16 46  1  0  0  0
 17 47  1  0  0  0
 18 48  1  0  0  0
 19 49  1  0  0  0
 20 50  1  0  0  0
 21 51  1  0  0  0
 22 52  1  0  0  0
M  END
$$$$
