2b4m_ligand
  -I-interpret- 

 24 24  0  0  0  0  0  0  0  0999 V2000
   27.3760    2.2320   11.2260 N   0  3  0  0  0
   27.0400    1.9110    9.8180 C   0  0  0  0  0
   26.0840    2.7050   11.7840 C   0  0  0  0  0
   25.0810    1.6940   11.2330 C   0  0  0  0  0
   25.5410    1.5640    9.7800 C   0  0  0  0  0
   27.9780    1.0350   11.8400 C   0  0  0  0  0
   28.3500    3.3390   11.2790 C   0  0  0  0  0
   26.0200    2.8290   13.3270 C   0  0  0  0  0
   27.0030    2.6260   14.0330 O   0  0  0  0  0
   24.9760    3.1630   13.8860 O   0  0  0  0  0
   27.6386    1.0733    9.4604 H   0  0  0  0  0
   27.2559    2.7585    9.1675 H   0  0  0  0  0
   25.8872    3.7352   11.4874 H   0  0  0  0  0
   24.0431    2.0113   11.3342 H   0  0  0  0  0
   25.0751    0.7477   11.7739 H   0  0  0  0  0
   25.3629    0.5647    9.3829 H   0  0  0  0  0
   24.9853    2.2249    9.1148 H   0  0  0  0  0
   28.8785    0.7603   11.2907 H   0  0  0  0  0
   28.2351    1.2505   12.8771 H   0  0  0  0  0
   27.2641    0.2121   11.8047 H   0  0  0  0  0
   28.6058    3.5467   12.3180 H   0  0  0  0  0
   29.2492    3.0566   10.7316 H   0  0  0  0  0
   27.9120    4.2286   10.8265 H   0  0  0  0  0
   24.2886    3.2901   13.2281 H   0  0  0  0  0
  1  2  1  0  0  0
  1  3  1  0  0  0
  1  6  1  0  0  0
  1  7  1  0  0  0
  2  5  1  0  0  0
  3  4  1  0  0  0
  3  8  1  0  0  0
  4  5  1  0  0  0
  8  9  2  0  0  0
  8 10  1  0  0  0
  2 11  1  0  0  0
  2 12  1  0  0  0
  3 13  1  0  0  0
  4 14  1  0  0  0
  4 15  1  0  0  0
  5 16  1  0  0  0
  5 17  1  0  0  0
  6 18  1  0  0  0
  6 19  1  0  0  0
  6 20  1  0  0  0
  7 21  1  0  0  0
  7 22  1  0  0  0
  7 23  1  0  0  0
 10 24  1  0  0  0
M  END
$$$$
