3av9_ligand
  -I-interpret- 

121121  0  0  0  0  0  0  0  0999 V2000
    9.5650  -53.7090    3.0710 N   0  0  0  0  0
    9.7930  -53.7090    4.5530 C   0  0  0  0  0
    9.1220  -52.6000    5.4090 C   0  0  0  0  0
    9.6690  -52.1650    6.4650 O   0  0  0  0  0
   11.2790  -53.9650    4.9430 C   0  0  0  0  0
   12.1740  -52.9910    4.4130 O   0  0  0  0  0
    7.9370  -52.1670    4.9460 N   0  0  0  0  0
    7.1150  -51.0870    5.5520 C   0  0  0  0  0
    7.8490  -49.7430    5.6490 C   0  0  0  0  0
    7.6850  -48.9760    6.6470 O   0  0  0  0  0
    6.4830  -51.5030    6.9380 C   0  0  0  0  0
    8.6220  -49.4270    4.6040 N   0  0  0  0  0
    9.2720  -48.0980    4.5310 C   0  0  0  0  0
    8.8130  -47.4580    3.2600 C   0  0  0  0  0
    8.4840  -48.1760    2.2960 O   0  0  0  0  0
   10.7870  -48.2360    4.4620 C   0  0  0  0  0
   11.4790  -49.0650    5.5290 C   0  0  0  0  0
   11.2790  -48.4400    6.8900 C   0  0  0  0  0
   12.2190  -49.0970    7.8860 C   0  0  0  0  0
   11.7180  -48.9480    9.2770 N   0  3  0  0  0
    8.7570  -46.1240    3.2320 N   0  0  0  0  0
    8.2780  -45.3960    2.0360 C   0  0  0  0  0
    9.1150  -45.8370    0.8280 C   0  0  0  0  0
    8.5960  -46.0030   -0.3250 O   0  0  0  0  0
    8.3250  -43.8380    2.2780 C   0  0  0  0  0
    7.1290  -43.1200    1.6260 C   0  0  0  0  0
    9.6260  -43.2270    1.7990 C   0  0  0  0  0
    5.8420  -43.1600    2.4960 C   0  0  0  0  0
   10.4230  -46.0170    1.0880 N   0  0  0  0  0
   11.3840  -46.2120    0.0180 C   0  0  0  0  0
   11.5950  -47.6740   -0.2550 C   0  0  0  0  0
   12.3860  -48.0040   -1.1290 O   0  0  0  0  0
   12.7890  -45.5260    0.2110 C   0  0  0  0  0
   13.4150  -45.7830    1.5680 C   0  0  0  0  0
   14.6020  -45.3440    1.8140 O   0  0  0  0  0
   12.7370  -46.4010    2.4300 O   0  0  0  0  0
   10.9280  -48.5210    0.5360 N   0  0  0  0  0
   11.0150  -49.9690    0.4070 C   0  0  0  0  0
    9.7030  -50.5160    1.0100 C   0  0  0  0  0
    9.5910  -50.9060    2.2310 O   0  0  0  0  0
   12.2540  -50.4970    1.0990 C   0  0  0  0  0
   12.4750  -51.9950    0.8350 C   0  0  0  0  0
   11.9230  -52.5590   -0.1190 O   0  0  0  0  0
   13.2870  -52.6430    1.6950 N   0  0  0  0  0
    8.6730  -50.4650    0.1770 N   0  0  0  0  0
    7.3290  -50.7980    0.6800 C   0  0  0  0  0
    7.3190  -52.2630    1.1810 C   0  0  0  0  0
    6.6630  -52.5840    2.1910 O   0  0  0  0  0
    6.2540  -50.4910   -0.3830 C   0  0  0  0  0
    5.8690  -49.0000   -0.5000 C   0  0  0  0  0
    4.8070  -48.9910   -1.5480 C   0  0  0  0  0
    5.3020  -48.3420    0.8130 C   0  0  0  0  0
    8.1370  -53.0980    0.5350 N   0  0  0  0  0
    8.4100  -54.4860    0.9940 C   0  0  0  0  0
    8.7930  -54.6530    2.4900 C   0  0  0  0  0
    8.3570  -55.6460    3.1200 O   0  0  0  0  0
    9.4380  -55.1690    0.0700 C   0  0  0  0  0
    8.7820  -55.8650   -1.1550 C   0  0  0  0  0
    7.5220  -55.9190   -1.2470 O   0  0  0  0  0
    9.5500  -56.3530   -2.0270 O   0  0  0  0  0
    9.9981  -52.9875    2.4946 H   0  0  0  0  0
    9.2071  -54.5792    4.8489 H   0  0  0  0  0
   11.5656  -54.9340    4.5344 H   0  0  0  0  0
   11.3478  -53.9201    6.0299 H   0  0  0  0  0
   13.0705  -53.2001    4.6853 H   0  0  0  0  0
    7.5706  -52.6178    4.1076 H   0  0  0  0  0
    6.2902  -50.9378    4.8552 H   0  0  0  0  0
    5.8402  -52.3718    6.7966 H   0  0  0  0  0
    7.2797  -51.7493    7.6399 H   0  0  0  0  0
    5.8944  -50.6740    7.3309 H   0  0  0  0  0
    8.7644  -50.1039    3.8544 H   0  0  0  0  0
    9.0121  -47.5139    5.4138 H   0  0  0  0  0
   11.1745  -47.2248    4.5862 H   0  0  0  0  0
   10.9870  -48.7507    3.5223 H   0  0  0  0  0
   12.5460  -49.1077    5.3103 H   0  0  0  0  0
   11.0532  -50.0684    5.5320 H   0  0  0  0  0
   10.2474  -48.5854    7.2107 H   0  0  0  0  0
   11.4918  -47.3723    6.8365 H   0  0  0  0  0
   13.1941  -48.6152    7.8140 H   0  0  0  0  0
   12.2860  -50.1596    7.6524 H   0  0  0  0  0
   12.3683  -49.3978    9.9213 H   0  0  0  0  0
   11.6421  -47.9568    9.5054 H   0  0  0  0  0
   10.8009  -49.3874    9.3557 H   0  0  0  0  0
    9.0509  -45.5952    4.0532 H   0  0  0  0  0
    7.2346  -45.6378    1.8337 H   0  0  0  0  0
    8.2619  -43.6953    3.3568 H   0  0  0  0  0
    6.9093  -43.6297    0.6879 H   0  0  0  0  0
    7.4048  -42.0740    1.4923 H   0  0  0  0  0
   10.4586  -43.6804    2.3368 H   0  0  0  0  0
    9.7398  -43.4092    0.7304 H   0  0  0  0  0
    9.6124  -42.1533    1.9864 H   0  0  0  0  0
    5.5516  -44.1969    2.6655 H   0  0  0  0  0
    6.0363  -42.6748    3.4525 H   0  0  0  0  0
    5.0385  -42.6363    1.9781 H   0  0  0  0  0
   10.7453  -46.0164    2.0557 H   0  0  0  0  0
   10.9210  -45.7074   -0.8300 H   0  0  0  0  0
   12.6403  -44.4500    0.1204 H   0  0  0  0  0
   13.4598  -45.9426   -0.5403 H   0  0  0  0  0
   14.9474  -44.9042    1.0337 H   0  0  0  0  0
   10.3290  -48.1341    1.2653 H   0  0  0  0  0
   11.1159  -50.2915   -0.6293 H   0  0  0  0  0
   12.1274  -50.3576    2.1726 H   0  0  0  0  0
   13.1158  -49.9542    0.7107 H   0  0  0  0  0
   13.4679  -53.6394    1.5732 H   0  0  0  0  0
   13.7203  -52.1367    2.4672 H   0  0  0  0  0
    8.8091  -50.1990   -0.7983 H   0  0  0  0  0
    7.0766  -50.1688    1.5335 H   0  0  0  0  0
    5.3532  -51.0289   -0.0876 H   0  0  0  0  0
    6.6670  -50.7885   -1.3469 H   0  0  0  0  0
    6.7599  -48.4136   -0.7246 H   0  0  0  0  0
    5.2131  -49.3878   -2.4784 H   0  0  0  0  0
    3.9712  -49.6099   -1.2218 H   0  0  0  0  0
    4.4636  -47.9687   -1.7067 H   0  0  0  0  0
    4.4000  -48.8700    1.1222 H   0  0  0  0  0
    6.0507  -48.4061    1.6026 H   0  0  0  0  0
    5.0641  -47.2959    0.6201 H   0  0  0  0  0
    8.5965  -52.7680   -0.3138 H   0  0  0  0  0
    7.4469  -54.9912    0.9212 H   0  0  0  0  0
    9.9518  -55.9342    0.6519 H   0  0  0  0  0
   10.1111  -54.3985   -0.3060 H   0  0  0  0  0
    7.1279  -55.4911   -0.4833 H   0  0  0  0  0
  1  2  1  0  0  0
  1 55  1  0  0  0
  2  3  1  0  0  0
  2  5  1  0  0  0
  3  4  2  0  0  0
  3  7  1  0  0  0
  5  6  1  0  0  0
  7  8  1  0  0  0
  8  9  1  0  0  0
  8 11  1  0  0  0
  9 10  2  0  0  0
  9 12  1  0  0  0
 12 13  1  0  0  0
 13 14  1  0  0  0
 13 16  1  0  0  0
 14 15  2  0  0  0
 14 21  1  0  0  0
 16 17  1  0  0  0
 17 18  1  0  0  0
 18 19  1  0  0  0
 19 20  1  0  0  0
 21 22  1  0  0  0
 22 23  1  0  0  0
 22 25  1  0  0  0
 23 24  2  0  0  0
 23 29  1  0  0  0
 25 26  1  0  0  0
 25 27  1  0  0  0
 26 28  1  0  0  0
 29 30  1  0  0  0
 30 31  1  0  0  0
 30 33  1  0  0  0
 31 32  2  0  0  0
 31 37  1  0  0  0
 33 34  1  0  0  0
 34 35  1  0  0  0
 34 36  2  0  0  0
 37 38  1  0  0  0
 38 39  1  0  0  0
 38 41  1  0  0  0
 39 40  2  0  0  0
 39 45  1  0  0  0
 41 42  1  0  0  0
 42 43  2  0  0  0
 42 44  1  0  0  0
 45 46  1  0  0  0
 46 47  1  0  0  0
 46 49  1  0  0  0
 47 48  2  0  0  0
 47 53  1  0  0  0
 49 50  1  0  0  0
 50 51  1  0  0  0
 50 52  1  0  0  0
 53 54  1  0  0  0
 54 55  1  0  0  0
 54 57  1  0  0  0
 55 56  2  0  0  0
 57 58  1  0  0  0
 58 59  1  0  0  0
 58 60  2  0  0  0
  1 61  1  0  0  0
  2 62  1  0  0  0
  5 63  1  0  0  0
  5 64  1  0  0  0
  6 65  1  0  0  0
  7 66  1  0  0  0
  8 67  1  0  0  0
 11 68  1  0  0  0
 11 69  1  0  0  0
 11 70  1  0  0  0
 12 71  1  0  0  0
 13 72  1  0  0  0
 16 73  1  0  0  0
 16 74  1  0  0  0
 17 75  1  0  0  0
 17 76  1  0  0  0
 18 77  1  0  0  0
 18 78  1  0  0  0
 19 79  1  0  0  0
 19 80  1  0  0  0
 20 81  1  0  0  0
 20 82  1  0  0  0
 20 83  1  0  0  0
 21 84  1  0  0  0
 22 85  1  0  0  0
 25 86  1  0  0  0
 26 87  1  0  0  0
 26 88  1  0  0  0
 27 89  1  0  0  0
 27 90  1  0  0  0
 27 91  1  0  0  0
 28 92  1  0  0  0
 28 93  1  0  0  0
 28 94  1  0  0  0
 29 95  1  0  0  0
 30 96  1  0  0  0
 33 97  1  0  0  0
 33 98  1  0  0  0
 35 99  1  0  0  0
 37100  1  0  0  0
 38101  1  0  0  0
 41102  1  0  0  0
 41103  1  0  0  0
 44104  1  0  0  0
 44105  1  0  0  0
 45106  1  0  0  0
 46107  1  0  0  0
 49108  1  0  0  0
 49109  1  0  0  0
 50110  1  0  0  0
 51111  1  0  0  0
 51112  1  0  0  0
 51113  1  0  0  0
 52114  1  0  0  0
 52115  1  0  0  0
 52116  1  0  0  0
 53117  1  0  0  0
 54118  1  0  0  0
 57119  1  0  0  0
 57120  1  0  0  0
 59121  1  0  0  0
M  END
$$$$
