6bu1_ligand
  -I-interpret- 

 25 25  0  0  0  0  0  0  0  0999 V2000
   34.8740   77.1120   63.7040 C   0  0  0  0  0
   32.4040   76.6960   62.4080 C   0  0  0  0  0
   33.1770   77.8610   62.1960 C   0  0  0  0  0
   37.9880   80.9550   64.4540 C   0  0  0  0  0
   36.7620   81.0700   63.4900 C   0  0  0  0  0
   35.6910   80.1990   63.6470 C   0  0  0  0  0
   35.1750   79.3980   62.5270 C   0  0  0  0  0
   34.3920   78.1030   62.8260 C   0  0  0  0  0
   34.1270   75.9470   63.9160 C   0  0  0  0  0
   32.9000   75.7270   63.2750 C   0  0  0  0  0
   37.7560   80.7810   65.6470 O   0  0  0  0  0
   39.0980   81.0420   63.9140 O   0  0  0  0  0
   36.9330   81.7410   62.3250 O   0  0  0  0  0
   35.3540   79.6870   61.4030 O   0  0  0  0  0
   31.2010   76.5170   61.7560 O   0  0  0  0  0
   32.4440   79.1870   61.0180 Br  0  0  0  0  0
   35.8257   77.2520   64.2167 H   0  0  0  0  0
   36.2202   81.8688   63.9964 H   0  0  0  0  0
   34.8587   80.8558   63.8999 H   0  0  0  0  0
   36.0655   79.4526   64.3475 H   0  0  0  0  0
   34.5106   75.1892   64.5992 H   0  0  0  0  0
   32.3412   74.8083   63.4534 H   0  0  0  0  0
   38.9839   81.1772   62.9704 H   0  0  0  0  0
   37.7150   82.2943   62.3875 H   0  0  0  0  0
   30.8178   75.6770   62.0188 H   0  0  0  0  0
  8  1  4  0  0  0
  1  9  4  0  0  0
  3  2  4  0  0  0
  2 10  4  0  0  0
  2 15  1  0  0  0
  8  3  4  0  0  0
  3 16  1  0  0  0
  5  4  1  0  0  0
  4 11  2  0  0  0
  4 12  1  0  0  0
  6  5  1  0  0  0
  5 13  1  0  0  0
  7  6  1  0  0  0
  7  8  1  0  0  0
  7 14  2  0  0  0
  9 10  4  0  0  0
  1 17  1  0  0  0
  5 18  1  0  0  0
  6 19  1  0  0  0
  6 20  1  0  0  0
  9 21  1  0  0  0
 10 22  1  0  0  0
 12 23  1  0  0  0
 13 24  1  0  0  0
 15 25  1  0  0  0
M  END
$$$$
