3oay_ligand
  -I-interpret- 

 24 24  0  0  0  0  0  0  0  0999 V2000
   50.9540  -16.5470  -29.4010 C   0  0  0  0  0
   50.2900  -17.7480  -30.0670 C   0  0  0  0  0
   49.3290  -17.3950  -31.2670 C   0  0  0  0  0
   48.6260  -18.6480  -31.7460 C   0  0  0  0  0
   47.8710  -19.2830  -30.5870 C   0  0  0  0  0
   48.8160  -19.5520  -29.4130 C   0  0  0  0  0
   49.8960  -15.7050  -28.8690 O   0  0  0  0  0
   51.3470  -18.5870  -30.5510 O   0  0  0  0  0
   50.0120  -16.8770  -32.4360 O   0  0  0  0  0
   47.6730  -18.3020  -32.7600 O   0  0  0  0  0
   46.8480  -18.3660  -30.1930 O   0  0  0  0  0
   49.5430  -18.4080  -29.0360 O   0  0  0  0  0
   51.5556  -15.9943  -30.1226 H   0  0  0  0  0
   51.6205  -16.8731  -28.6026 H   0  0  0  0  0
   48.6547  -16.6357  -30.8709 H   0  0  0  0  0
   49.3680  -19.3420  -32.1408 H   0  0  0  0  0
   47.4413  -20.2375  -30.8908 H   0  0  0  0  0
   49.5281  -20.3172  -29.7220 H   0  0  0  0  0
   48.2135  -19.8647  -28.5602 H   0  0  0  0  0
   50.2836  -14.9376  -28.4419 H   0  0  0  0  0
   51.8316  -18.1246  -31.2387 H   0  0  0  0  0
   50.4829  -16.0742  -32.2006 H   0  0  0  0  0
   48.1293  -17.8989  -33.5022 H   0  0  0  0  0
   46.2615  -18.2043  -30.9356 H   0  0  0  0  0
  1  2  1  0  0  0
  1  7  1  0  0  0
  2  3  1  0  0  0
  2  8  1  0  0  0
  2 12  1  0  0  0
  3  4  1  0  0  0
  3  9  1  0  0  0
  4  5  1  0  0  0
  4 10  1  0  0  0
  5  6  1  0  0  0
  5 11  1  0  0  0
  6 12  1  0  0  0
  1 13  1  0  0  0
  1 14  1  0  0  0
  3 15  1  0  0  0
  4 16  1  0  0  0
  5 17  1  0  0  0
  6 18  1  0  0  0
  6 19  1  0  0  0
  7 20  1  0  0  0
  8 21  1  0  0  0
  9 22  1  0  0  0
 10 23  1  0  0  0
 11 24  1  0  0  0
M  END
$$$$
