6h2t_ligand
  -I-interpret- 

 20 19  0  0  0  0  0  0  0  0999 V2000
  -13.0910  -13.7440   14.7760 N   0  3  0  0  0
  -11.7840  -14.0720   14.1880 C   0  0  0  0  0
  -11.5030  -13.1820   12.9790 C   0  0  0  0  0
  -10.7040  -13.5050   12.0910 O   0  0  0  0  0
  -11.7120  -15.5620   13.7900 C   0  0  0  0  0
  -13.0230  -16.1840   13.3120 C   0  0  0  0  0
  -13.5190  -15.6030   11.9990 C   0  0  0  0  0
  -13.5830  -16.3410   10.9800 O   0  0  0  0  0
  -13.8850  -14.4130   11.9940 O   0  0  0  0  0
  -12.0960  -12.1020   12.8930 O   0  0  0  0  0
  -13.1104  -12.7560   15.0289 H   0  0  0  0  0
  -13.8264  -13.9366   14.0959 H   0  0  0  0  0
  -13.2398  -14.3126   15.6096 H   0  0  0  0  0
  -11.0193  -13.8870   14.9424 H   0  0  0  0  0
  -10.3271  -14.3633   12.2980 H   0  0  0  0  0
  -11.4206  -16.1076   14.6875 H   0  0  0  0  0
  -11.0172  -15.6246   12.9525 H   0  0  0  0  0
  -13.7800  -15.9806   14.0695 H   0  0  0  0  0
  -12.8455  -17.2480   13.1556 H   0  0  0  0  0
  -13.2529  -17.2156   11.1984 H   0  0  0  0  0
  1  2  1  0  0  0
  2  3  1  0  0  0
  2  5  1  0  0  0
  3  4  1  0  0  0
  3 10  2  0  0  0
  5  6  1  0  0  0
  6  7  1  0  0  0
  7  8  1  0  0  0
  7  9  2  0  0  0
  1 11  1  0  0  0
  1 12  1  0  0  0
  1 13  1  0  0  0
  2 14  1  0  0  0
  4 15  1  0  0  0
  5 16  1  0  0  0
  5 17  1  0  0  0
  6 18  1  0  0  0
  6 19  1  0  0  0
  8 20  1  0  0  0
M  END
$$$$
