2eg7_ligand
  -I-interpret- 

 19 19  0  0  0  0  0  0  0  0999 V2000
   26.3330   38.8610   73.3320 N   0  0  0  0  0
   24.7630   40.3600   72.2640 N   0  0  0  0  0
   25.5910   41.4710   72.5010 C   0  0  0  0  0
   26.7890   41.3490   73.1630 C   0  0  0  0  0
   27.1900   39.9630   73.7130 C   0  0  0  0  0
   28.9890   38.6480   72.8760 O   0  0  0  0  0
   28.6510   39.6490   73.5420 C   0  0  0  0  0
   29.3680   40.4210   74.1490 O   0  0  0  0  0
   25.1280   42.8190   72.0260 C   0  0  0  0  0
   25.8460   43.8340   72.2450 O   0  0  0  0  0
   24.0210   42.7850   71.4300 O   0  0  0  0  0
   25.1320   39.0690   72.6790 C   0  0  0  0  0
   24.4370   38.0750   72.4690 O   0  0  0  0  0
   26.6219   37.9075   73.5505 H   0  0  0  0  0
   23.8750   40.4938   71.7803 H   0  0  0  0  0
   27.4418   42.2116   73.2969 H   0  0  0  0  0
   27.0156   40.0692   74.7837 H   0  0  0  0  0
   28.2065   38.2298   72.5095 H   0  0  0  0  0
   26.6370   43.5686   72.7198 H   0  0  0  0  0
  1  5  1  0  0  0
 12  1  1  0  0  0
  2  3  1  0  0  0
  2 12  1  0  0  0
  3  4  2  0  0  0
  3  9  1  0  0  0
  4  5  1  0  0  0
  5  7  1  0  0  0
  7  6  1  0  0  0
  7  8  2  0  0  0
  9 10  1  0  0  0
  9 11  2  0  0  0
 12 13  2  0  0  0
  1 14  1  0  0  0
  2 15  1  0  0  0
  4 16  1  0  0  0
  5 17  1  0  0  0
  6 18  1  0  0  0
 10 19  1  0  0  0
M  END
$$$$
