4tk5_ligand
  -I-interpret- 

 67 72  0  0  0  0  0  0  0  0999 V2000
   24.1030   49.8970   -0.8020 C   0  0  0  0  0
   25.2000   50.2550    0.0040 C   0  0  0  0  0
   26.0780   49.2980    0.5130 C   0  0  0  0  0
   25.8640   47.9070    0.3200 C   0  0  0  0  0
   24.7580   47.5480   -0.5100 C   0  0  0  0  0
   23.9550   48.5600   -1.0580 C   0  0  0  0  0
   22.9250   47.9860   -1.9460 C   0  0  0  0  0
   24.1640   46.2270   -1.0120 C   0  0  0  0  0
   23.0890   46.6030   -1.8800 N   0  0  0  0  0
   22.0750   48.5510   -2.6050 O   0  0  0  0  0
   26.7510   46.9890    0.9190 N   0  0  0  0  0
   26.4420   45.7540    1.5170 C   0  0  0  0  0
   25.2580   45.3550    1.6020 O   0  0  0  0  0
   27.5140   44.8360    2.0840 C   0  0  0  0  0
   27.2060   43.4700    2.5440 N   0  3  0  0  0
   26.8060   42.5470    1.3630 C   0  0  0  0  0
   26.3860   41.0950    1.8250 C   0  0  0  0  0
   25.4240   41.1680    2.8910 N   0  0  0  0  0
   25.9090   41.8590    4.0410 C   0  0  0  0  0
   26.2810   43.3160    3.7410 C   0  0  0  0  0
   24.0820   40.7530    2.7480 C   0  0  0  0  0
   23.5500   40.0350    1.4920 C   0  0  0  0  0
   23.0990   41.0140    0.2980 C   0  0  0  0  0
   21.7290   40.4680   -0.0930 C   0  0  0  0  0
   21.5120   39.2160    0.8220 C   0  0  0  0  0
   22.3870   39.3460    1.8800 O   0  0  0  0  0
   23.2970   40.9480    3.7090 O   0  0  0  0  0
   23.9340   40.8020   -0.7680 O   0  0  0  0  0
   20.7810   41.4350   -0.0550 O   0  0  0  0  0
   20.2140   38.8120    1.2760 N   0  0  0  0  0
   18.3020   37.6740    1.5030 C   0  0  0  0  0
   19.6160   37.6260    0.9490 C   0  0  0  0  0
   19.2310   39.6050    1.9520 C   0  0  0  0  0
   18.0670   38.9440    2.0860 N   0  0  0  0  0
   18.0060   35.4210    0.6740 N   0  0  0  0  0
   19.2950   35.4920    0.2390 C   0  0  0  0  0
   20.1530   36.5330    0.2910 N   0  0  0  0  0
   17.4850   36.5300    1.3310 C   0  0  0  0  0
   16.1840   36.4320    1.7310 N   0  0  0  0  0
   23.4118   50.6404   -1.1991 H   0  0  0  0  0
   25.3677   51.3067    0.2363 H   0  0  0  0  0
   26.9526   49.6267    1.0744 H   0  0  0  0  0
   23.8157   45.6044   -0.1879 H   0  0  0  0  0
   24.9082   45.6241   -1.5323 H   0  0  0  0  0
   22.5103   45.9363   -2.3908 H   0  0  0  0  0
   27.7364   47.2526    0.9186 H   0  0  0  0  0
   27.8357   45.3465    2.9918 H   0  0  0  0  0
   28.1884   44.6778    1.2424 H   0  0  0  0  0
   28.0963   43.1577    2.9317 H   0  0  0  0  0
   27.6739   42.4488    0.7109 H   0  0  0  0  0
   25.9467   42.9980    0.8667 H   0  0  0  0  0
   27.2701   40.5653    2.1798 H   0  0  0  0  0
   25.9416   40.5680    0.9807 H   0  0  0  0  0
   26.8080   41.3475    4.3850 H   0  0  0  0  0
   25.1161   41.8627    4.7890 H   0  0  0  0  0
   25.3584   43.8501    3.5137 H   0  0  0  0  0
   26.8049   43.7072    4.6131 H   0  0  0  0  0
   24.3631   39.4115    1.1203 H   0  0  0  0  0
   23.1068   42.0688    0.5725 H   0  0  0  0  0
   21.6578   40.1429   -1.1310 H   0  0  0  0  0
   21.6924   38.3833    0.1422 H   0  0  0  0  0
   23.6796   41.3789   -1.4920 H   0  0  0  0  0
   19.9333   41.0605   -0.3054 H   0  0  0  0  0
   19.4047   40.6187    2.3132 H   0  0  0  0  0
   19.6882   34.5819   -0.2140 H   0  0  0  0  0
   15.7314   37.2213    2.1921 H   0  0  0  0  0
   15.6642   35.5695    1.5689 H   0  0  0  0  0
  2  1  4  0  0  0
  6  1  4  0  0  0
  3  2  4  0  0  0
  4  3  4  0  0  0
  4  5  4  0  0  0
 11  4  1  0  0  0
  5  6  4  0  0  0
  5  8  1  0  0  0
  6  7  1  0  0  0
  9  7  1  0  0  0
  7 10  2  0  0  0
  8  9  1  0  0  0
 12 11  1  0  0  0
 12 13  2  0  0  0
 14 12  1  0  0  0
 15 14  1  0  0  0
 16 15  1  0  0  0
 20 15  1  0  0  0
 17 16  1  0  0  0
 18 17  1  0  0  0
 18 19  1  0  0  0
 21 18  1  0  0  0
 19 20  1  0  0  0
 22 21  1  0  0  0
 21 27  2  0  0  0
 22 23  1  0  0  0
 26 22  1  0  0  0
 24 23  1  0  0  0
 23 28  1  0  0  0
 25 24  1  0  0  0
 24 29  1  0  0  0
 25 26  1  0  0  0
 30 25  1  0  0  0
 32 30  4  0  0  0
 33 30  4  0  0  0
 31 32  4  0  0  0
 31 34  4  0  0  0
 38 31  4  0  0  0
 32 37  4  0  0  0
 34 33  4  0  0  0
 35 36  4  0  0  0
 35 38  4  0  0  0
 36 37  4  0  0  0
 38 39  1  0  0  0
  1 40  1  0  0  0
  2 41  1  0  0  0
  3 42  1  0  0  0
  8 43  1  0  0  0
  8 44  1  0  0  0
  9 45  1  0  0  0
 11 46  1  0  0  0
 14 47  1  0  0  0
 14 48  1  0  0  0
 15 49  1  0  0  0
 16 50  1  0  0  0
 16 51  1  0  0  0
 17 52  1  0  0  0
 17 53  1  0  0  0
 19 54  1  0  0  0
 19 55  1  0  0  0
 20 56  1  0  0  0
 20 57  1  0  0  0
 22 58  1  0  0  0
 23 59  1  0  0  0
 24 60  1  0  0  0
 25 61  1  0  0  0
 28 62  1  0  0  0
 29 63  1  0  0  0
 33 64  1  0  0  0
 36 65  1  0  0  0
 39 66  1  0  0  0
 39 67  1  0  0  0
M  END
$$$$
