6mo1_ligand
  -I-interpret- 

 64 68  0  0  0  0  0  0  0  0999 V2000
  -55.8260   25.2700    9.0020 N   0  3  0  0  0
  -57.0580   24.4180    8.7160 C   0  0  0  0  0
  -57.2690   24.5810    7.1980 C   0  0  0  0  0
  -58.3680   23.8710    6.5590 C   0  0  0  0  0
  -58.5660   23.9610    5.1460 C   0  0  0  0  0
  -57.6590   24.8280    4.4370 C   0  0  0  0  0
  -56.6210   25.6040    5.0450 C   0  0  0  0  0
  -56.3830   25.4940    6.4880 C   0  0  0  0  0
  -57.9130   24.9960    2.9940 C   0  0  0  0  0
  -58.0610   26.3590    2.6240 N   0  0  0  0  0
  -58.3930   26.7580    1.2880 C   0  0  0  0  0
  -58.5320   25.7320    0.3070 C   0  0  0  0  0
  -58.7800   26.1380   -1.0050 N   0  0  0  0  0
  -58.8670   25.0170   -2.0060 C   0  0  0  0  0
  -57.5840   25.1010   -2.8940 C   0  0  0  0  0
  -57.0510   23.6360   -3.2650 C   0  0  0  0  0
  -55.8130   23.8050   -4.2400 C   0  0  0  0  0
  -56.3030   24.6270   -5.4830 N   0  3  0  0  0
  -56.8630   26.0190   -5.1320 C   0  0  0  0  0
  -58.0570   25.8830   -4.1310 C   0  0  0  0  0
  -58.3700   24.3640    0.6420 N   0  0  0  0  0
  -58.1270   23.9370    2.0360 C   0  0  0  0  0
  -57.8460   22.4340    2.3910 C   0  0  0  0  0
  -57.1600   22.0500    3.6090 C   0  0  0  0  0
  -56.8090   20.6170    3.8470 C   0  0  0  0  0
  -57.1620   19.5670    2.8830 C   0  0  0  0  0
  -57.7630   19.9390    1.6240 C   0  0  0  0  0
  -58.0590   21.3480    1.3970 C   0  0  0  0  0
  -56.7430   18.1720    3.2880 C   0  0  0  0  0
  -56.6430   17.6860    4.6720 C   0  0  0  0  0
  -56.1700   16.3130    4.5590 C   0  0  0  0  0
  -55.9480   15.8970    3.1370 O   0  0  0  0  0
  -56.2910   17.1070    2.3470 C   0  0  0  0  0
  -55.6057   25.2239    9.9969 H   0  0  0  0  0
  -55.0367   24.9167    8.4610 H   0  0  0  0  0
  -56.0144   26.2373    8.7387 H   0  0  0  0  0
  -57.9265   24.7350    9.2934 H   0  0  0  0  0
  -56.9209   23.3768    9.0078 H   0  0  0  0  0
  -59.0449   23.2663    7.1626 H   0  0  0  0  0
  -59.3547   23.4077    4.6361 H   0  0  0  0  0
  -56.0106   26.2732    4.4386 H   0  0  0  0  0
  -55.5980   26.0561    6.9940 H   0  0  0  0  0
  -58.5342   27.8078    1.0309 H   0  0  0  0  0
  -58.8934   27.1177   -1.2653 H   0  0  0  0  0
  -59.7659   25.1115   -2.6153 H   0  0  0  0  0
  -58.9261   24.0523   -1.5021 H   0  0  0  0  0
  -56.7426   25.5867   -2.3998 H   0  0  0  0  0
  -57.8381   23.0577   -3.7488 H   0  0  0  0  0
  -56.7528   23.1016   -2.3630 H   0  0  0  0  0
  -55.4361   22.8307   -4.5510 H   0  0  0  0  0
  -54.9980   24.3244   -3.7359 H   0  0  0  0  0
  -57.0588   24.0974   -5.9174 H   0  0  0  0  0
  -55.4952   24.7697   -6.0892 H   0  0  0  0  0
  -57.2143   26.5028   -6.0434 H   0  0  0  0  0
  -56.0757   26.6146   -4.6700 H   0  0  0  0  0
  -58.4011   26.8729   -3.8315 H   0  0  0  0  0
  -58.8802   25.3525   -4.6095 H   0  0  0  0  0
  -56.9005   22.8057    4.3504 H   0  0  0  0  0
  -56.2777   20.3444    4.7589 H   0  0  0  0  0
  -57.9886   19.1887    0.8661 H   0  0  0  0  0
  -58.4672   21.6270    0.4256 H   0  0  0  0  0
  -56.8731   18.2346    5.5853 H   0  0  0  0  0
  -55.9967   15.6603    5.4146 H   0  0  0  0  0
  -56.2238   17.2007    1.2631 H   0  0  0  0  0
  1  2  1  0  0  0
  2  3  1  0  0  0
  3  4  4  0  0  0
  3  8  4  0  0  0
  4  5  4  0  0  0
  5  6  4  0  0  0
  6  7  4  0  0  0
  6  9  1  0  0  0
  7  8  4  0  0  0
  9 10  4  0  0  0
  9 22  4  0  0  0
 10 11  4  0  0  0
 11 12  4  0  0  0
 12 13  1  0  0  0
 12 21  4  0  0  0
 13 14  1  0  0  0
 14 15  1  0  0  0
 15 16  1  0  0  0
 15 20  1  0  0  0
 16 17  1  0  0  0
 17 18  1  0  0  0
 18 19  1  0  0  0
 19 20  1  0  0  0
 21 22  4  0  0  0
 22 23  1  0  0  0
 23 24  4  0  0  0
 23 28  4  0  0  0
 24 25  4  0  0  0
 25 26  4  0  0  0
 26 27  4  0  0  0
 26 29  1  0  0  0
 27 28  4  0  0  0
 29 30  4  0  0  0
 29 33  4  0  0  0
 30 31  4  0  0  0
 31 32  4  0  0  0
 32 33  4  0  0  0
  1 34  1  0  0  0
  1 35  1  0  0  0
  1 36  1  0  0  0
  2 37  1  0  0  0
  2 38  1  0  0  0
  4 39  1  0  0  0
  5 40  1  0  0  0
  7 41  1  0  0  0
  8 42  1  0  0  0
 11 43  1  0  0  0
 13 44  1  0  0  0
 14 45  1  0  0  0
 14 46  1  0  0  0
 15 47  1  0  0  0
 16 48  1  0  0  0
 16 49  1  0  0  0
 17 50  1  0  0  0
 17 51  1  0  0  0
 18 52  1  0  0  0
 18 53  1  0  0  0
 19 54  1  0  0  0
 19 55  1  0  0  0
 20 56  1  0  0  0
 20 57  1  0  0  0
 24 58  1  0  0  0
 25 59  1  0  0  0
 27 60  1  0  0  0
 28 61  1  0  0  0
 30 62  1  0  0  0
 31 63  1  0  0  0
 33 64  1  0  0  0
M  END
$$$$
