2ks9_ligand
  -I-interpret- 

194197  0  0  0  0  0  0  0  0999 V2000
  -10.6570  -21.4070  -25.1150 N   0  3  0  0  0
  -11.4320  -21.0000  -26.3220 C   0  0  0  0  0
  -12.5610  -20.0670  -25.8930 C   0  0  0  0  0
  -13.7310  -20.3090  -26.1780 O   0  0  0  0  0
  -11.9790  -22.2690  -27.0120 C   0  0  0  0  0
  -12.2510  -22.0580  -28.5240 C   0  0  0  0  0
  -13.4970  -22.8210  -28.9980 C   0  0  0  0  0
  -14.6830  -21.9890  -28.8240 N   0  0  0  0  0
  -15.8480  -22.3310  -29.3630 C   0  0  0  0  0
  -15.9470  -23.4300  -30.0600 N   0  0  0  0  0
  -16.8940  -21.5670  -29.1960 N   0  0  0  0  0
  -12.2330  -18.9970  -25.2220 N   0  0  0  0  0
  -13.2480  -18.0040  -24.7700 C   0  0  0  0  0
  -13.8650  -17.3000  -25.9710 C   0  0  0  0  0
  -13.1730  -17.0070  -26.9460 O   0  0  0  0  0
  -12.4430  -17.0360  -23.8890 C   0  0  0  0  0
  -11.0410  -17.1460  -24.3920 C   0  0  0  0  0
  -10.8700  -18.6030  -24.8270 C   0  0  0  0  0
  -15.1610  -17.0300  -25.9120 N   0  0  0  0  0
  -15.8120  -16.3610  -27.0260 C   0  0  0  0  0
  -15.2340  -14.9520  -27.1880 C   0  0  0  0  0
  -14.9140  -14.2990  -26.1940 O   0  0  0  0  0
  -17.3220  -16.2780  -26.7850 C   0  0  0  0  0
  -17.8770  -17.6760  -26.4930 C   0  0  0  0  0
  -18.5010  -17.7040  -25.0910 C   0  0  0  0  0
  -18.7070  -16.2720  -24.5880 C   0  0  0  0  0
  -20.1560  -16.0360  -24.3350 N   0  3  0  0  0
  -15.0780  -14.4680  -28.3970 N   0  0  0  0  0
  -14.5100  -13.1080  -28.6460 C   0  0  0  0  0
  -15.4530  -12.0060  -28.1730 C   0  0  0  0  0
  -16.6730  -12.1770  -28.1780 O   0  0  0  0  0
  -14.3200  -13.0750  -30.1680 C   0  0  0  0  0
  -15.3700  -13.9960  -30.6820 C   0  0  0  0  0
  -15.4380  -15.1340  -29.6650 C   0  0  0  0  0
  -14.8880  -10.8730  -27.7740 N   0  0  0  0  0
  -15.7010   -9.7580  -27.3170 C   0  0  0  0  0
  -16.4470   -9.1320  -28.4910 C   0  0  0  0  0
  -15.8560   -8.8550  -29.5350 O   0  0  0  0  0
  -14.8180   -8.7080  -26.6380 C   0  0  0  0  0
  -15.0820   -7.3310  -27.2550 C   0  0  0  0  0
  -15.8230   -6.4460  -26.2580 C   0  0  0  0  0
  -16.8940   -5.9240  -26.5670 O   0  0  0  0  0
  -15.3150   -6.2470  -25.0730 N   0  0  0  0  0
  -17.7490   -8.9150  -28.3160 N   0  0  0  0  0
  -18.5770   -8.3220  -29.3720 C   0  0  0  0  0
  -18.8390   -6.8470  -29.0870 C   0  0  0  0  0
  -19.4910   -6.5020  -28.1010 O   0  0  0  0  0
  -19.9110   -9.0660  -29.4590 C   0  0  0  0  0
  -19.6940  -10.5470  -29.1410 C   0  0  0  0  0
  -19.8890  -11.3830  -30.4000 C   0  0  0  0  0
  -19.1230  -11.2570  -31.3550 O   0  0  0  0  0
  -20.8760  -12.2360  -30.4610 N   0  0  0  0  0
  -18.3340   -5.9840  -29.9610 N   0  0  0  0  0
  -18.5260   -4.5470  -29.8000 C   0  0  0  0  0
  -20.0060   -4.1950  -29.9000 C   0  0  0  0  0
  -20.5170   -3.3820  -29.1290 O   0  0  0  0  0
  -17.7430   -3.7920  -30.8760 C   0  0  0  0  0
  -17.5000   -2.3740  -30.4210 C   0  0  0  0  0
  -18.4560   -1.3840  -30.6740 C   0  0  0  0  0
  -16.3160   -2.0480  -29.7460 C   0  0  0  0  0
  -18.2300   -0.0680  -30.2530 C   0  0  0  0  0
  -16.0910   -0.7330  -29.3240 C   0  0  0  0  0
  -17.0480    0.2580  -29.5780 C   0  0  0  0  0
  -20.6870   -4.8130  -30.8590 N   0  0  0  0  0
  -22.1090   -4.5660  -31.0620 C   0  0  0  0  0
  -22.9150   -5.0430  -29.8590 C   0  0  0  0  0
  -23.9110   -4.4260  -29.4800 O   0  0  0  0  0
  -22.5910   -5.2860  -32.3230 C   0  0  0  0  0
  -23.6260   -4.4340  -33.0220 C   0  0  0  0  0
  -23.9430   -3.1670  -32.5210 C   0  0  0  0  0
  -24.2670   -4.9150  -34.1690 C   0  0  0  0  0
  -24.9010   -2.3780  -33.1690 C   0  0  0  0  0
  -25.2260   -4.1270  -34.8170 C   0  0  0  0  0
  -25.5430   -2.8590  -34.3160 C   0  0  0  0  0
  -22.4800   -6.1490  -29.2670 N   0  0  0  0  0
  -23.1690   -6.7050  -28.1090 C   0  0  0  0  0
  -23.1990   -5.7030  -26.9630 C   0  0  0  0  0
  -24.1520   -5.6630  -26.1850 O   0  0  0  0  0
  -22.1500   -4.8920  -26.8610 N   0  0  0  0  0
  -22.0750   -3.8920  -25.8020 C   0  0  0  0  0
  -23.1310   -2.8150  -26.0210 C   0  0  0  0  0
  -23.2670   -2.2790  -27.1210 O   0  0  0  0  0
  -20.6720   -3.2640  -25.7760 C   0  0  0  0  0
  -19.9780   -3.5310  -24.4080 C   0  0  0  0  0
  -18.4580   -3.6460  -24.6020 C   0  0  0  0  0
  -20.2660   -2.3790  -23.4250 C   0  0  0  0  0
  -23.8780   -2.5020  -24.9650 N   0  0  0  0  0
  -24.9280   -1.4860  -25.0460 C   0  0  0  0  0
  -24.3760   -0.1140  -24.6710 C   0  0  0  0  0
  -24.2770    0.7230  -25.5530 O   0  0  0  0  0
  -26.0750   -1.8500  -24.1010 C   0  0  0  0  0
  -26.9690   -2.9020  -24.7610 C   0  0  0  0  0
  -26.9010   -4.4370  -23.8010 S   0  0  0  0  0
  -28.1190   -3.9900  -22.5370 C   0  0  0  0  0
  -24.0610    0.0770  -23.5090 O   0  0  0  0  0
  -10.2908  -20.5756  -24.6512 H   0  0  0  0  0
  -11.2684  -21.9135  -24.4747 H   0  0  0  0  0
   -9.8834  -22.0094  -25.3963 H   0  0  0  0  0
  -10.7991  -20.4673  -27.0318 H   0  0  0  0  0
  -12.9241  -22.5284  -26.5349 H   0  0  0  0  0
  -11.2287  -23.0535  -26.9132 H   0  0  0  0  0
  -11.3911  -22.4318  -29.0799 H   0  0  0  0  0
  -12.4179  -20.9944  -28.6946 H   0  0  0  0  0
  -13.6068  -23.7320  -28.4097 H   0  0  0  0  0
  -13.3854  -23.0729  -30.0526 H   0  0  0  0  0
  -14.6164  -21.1295  -28.2788 H   0  0  0  0  0
  -15.1299  -24.0263  -30.1909 H   0  0  0  0  0
  -17.7884  -21.8292  -29.6103 H   0  0  0  0  0
  -16.8165  -20.7081  -28.6513 H   0  0  0  0  0
  -14.0830  -18.4486  -24.2285 H   0  0  0  0  0
  -12.5176  -17.2895  -22.8315 H   0  0  0  0  0
  -12.8205  -16.0156  -23.9545 H   0  0  0  0  0
  -10.3198  -16.8741  -23.6213 H   0  0  0  0  0
  -10.8609  -16.4603  -25.2199 H   0  0  0  0  0
  -10.1474  -18.7191  -25.6348 H   0  0  0  0  0
  -10.4620  -19.2332  -24.0367 H   0  0  0  0  0
  -15.7005  -17.2911  -25.0866 H   0  0  0  0  0
  -15.6331  -16.9329  -27.9365 H   0  0  0  0  0
  -17.8078  -15.8752  -27.6737 H   0  0  0  0  0
  -17.5162  -15.6272  -25.9324 H   0  0  0  0  0
  -17.0666  -18.4033  -26.5418 H   0  0  0  0  0
  -18.6390  -17.9233  -27.2321 H   0  0  0  0  0
  -17.8349  -18.2336  -24.4099 H   0  0  0  0  0
  -19.4637  -18.2134  -25.1344 H   0  0  0  0  0
  -18.3511  -15.5686  -25.3407 H   0  0  0  0  0
  -18.1493  -16.1291  -23.6624 H   0  0  0  0  0
  -20.2905  -15.0819  -24.0002 H   0  0  0  0  0
  -20.6775  -16.1703  -25.2013 H   0  0  0  0  0
  -20.4887  -16.6947  -23.6309 H   0  0  0  0  0
  -13.5833  -12.9321  -28.0997 H   0  0  0  0  0
  -13.3179  -13.3835  -30.4660 H   0  0  0  0  0
  -14.4180  -12.0685  -30.5749 H   0  0  0  0  0
  -15.1296  -14.3626  -31.6800 H   0  0  0  0  0
  -16.3309  -13.4920  -30.7861 H   0  0  0  0  0
  -16.4178  -15.6102  -29.6288 H   0  0  0  0  0
  -14.7724  -15.9613  -29.9115 H   0  0  0  0  0
  -13.8720  -10.7838  -27.7882 H   0  0  0  0  0
  -16.4295  -10.1287  -26.5959 H   0  0  0  0  0
  -13.7700   -8.9718  -26.7802 H   0  0  0  0  0
  -15.0494   -8.6763  -25.5733 H   0  0  0  0  0
  -15.6916   -7.4503  -28.1507 H   0  0  0  0  0
  -14.1307   -6.8643  -27.5108 H   0  0  0  0  0
  -15.8055   -5.6577  -24.4002 H   0  0  0  0  0
  -14.4273   -6.6807  -24.8193 H   0  0  0  0  0
  -18.1808   -9.1670  -27.4269 H   0  0  0  0  0
  -18.0431   -8.4075  -30.3185 H   0  0  0  0  0
  -20.3159   -8.9672  -30.4662 H   0  0  0  0  0
  -20.6110   -8.6399  -28.7403 H   0  0  0  0  0
  -20.4145  -10.8615  -28.3860 H   0  0  0  0  0
  -18.6794  -10.6895  -28.7689 H   0  0  0  0  0
  -21.0127  -12.7986  -31.3007 H   0  0  0  0  0
  -21.5102  -12.3396  -29.6689 H   0  0  0  0  0
  -17.8025   -6.3321  -30.7589 H   0  0  0  0  0
  -18.1596   -4.2551  -28.8158 H   0  0  0  0  0
  -18.3166   -3.7825  -31.8028 H   0  0  0  0  0
  -16.7871   -4.2880  -31.0444 H   0  0  0  0  0
  -19.3770   -1.6375  -31.1990 H   0  0  0  0  0
  -15.5705   -2.8186  -29.5497 H   0  0  0  0  0
  -18.9748    0.7029  -30.4510 H   0  0  0  0  0
  -15.1708   -0.4796  -28.7975 H   0  0  0  0  0
  -16.8722    1.2825  -29.2501 H   0  0  0  0  0
  -20.2040   -5.4749  -31.4665 H   0  0  0  0  0
  -22.2576   -3.4926  -31.1793 H   0  0  0  0  0
  -23.0326   -6.2442  -32.0491 H   0  0  0  0  0
  -21.7466   -5.4550  -32.9913 H   0  0  0  0  0
  -23.4443   -2.7941  -31.6264 H   0  0  0  0  0
  -24.0199   -5.9028  -34.5579 H   0  0  0  0  0
  -25.1468   -1.3897  -32.7805 H   0  0  0  0  0
  -25.7253   -4.5007  -35.7109 H   0  0  0  0  0
  -26.2903   -2.2457  -34.8195 H   0  0  0  0  0
  -21.6494   -6.6177  -29.6287 H   0  0  0  0  0
  -22.6379   -7.5983  -27.7802 H   0  0  0  0  0
  -24.1939   -6.9448  -28.3923 H   0  0  0  0  0
  -21.3868   -4.9705  -27.5331 H   0  0  0  0  0
  -22.2642   -4.3748  -24.8432 H   0  0  0  0  0
  -20.7638   -2.1877  -25.9216 H   0  0  0  0  0
  -20.0712   -3.7082  -26.5697 H   0  0  0  0  0
  -20.3718   -4.4630  -24.0025 H   0  0  0  0  0
  -18.2411   -4.4703  -25.2813 H   0  0  0  0  0
  -18.0754   -2.7162  -25.0230 H   0  0  0  0  0
  -17.9832   -3.8327  -23.6388 H   0  0  0  0  0
  -19.8862   -1.4454  -23.8400 H   0  0  0  0  0
  -21.3415   -2.2974  -23.2680 H   0  0  0  0  0
  -19.7732   -2.5825  -22.4743 H   0  0  0  0  0
  -23.7150   -2.9810  -24.0794 H   0  0  0  0  0
  -25.2960   -1.4492  -26.0714 H   0  0  0  0  0
  -24.5835    0.3497  -26.3827 H   0  0  0  0  0
  -26.6635   -0.9583  -23.8851 H   0  0  0  0  0
  -25.6668   -2.2517  -23.1736 H   0  0  0  0  0
  -26.6197   -3.0916  -25.7760 H   0  0  0  0  0
  -27.9960   -2.5383  -24.7937 H   0  0  0  0  0
  -27.7804   -3.1000  -22.0066 H   0  0  0  0  0
  -29.0780   -3.7875  -23.0139 H   0  0  0  0  0
  -28.2290   -4.8145  -21.8326 H   0  0  0  0  0
  1  2  1  0  0  0
  2  3  1  0  0  0
  2  5  1  0  0  0
  3  4  2  0  0  0
  3 12  1  0  0  0
  5  6  1  0  0  0
  6  7  1  0  0  0
  7  8  1  0  0  0
  8  9  1  0  0  0
  9 10  2  0  0  0
  9 11  1  0  0  0
 12 13  1  0  0  0
 12 18  1  0  0  0
 13 14  1  0  0  0
 13 16  1  0  0  0
 14 15  2  0  0  0
 14 19  1  0  0  0
 16 17  1  0  0  0
 17 18  1  0  0  0
 19 20  1  0  0  0
 20 21  1  0  0  0
 20 23  1  0  0  0
 21 22  2  0  0  0
 21 28  1  0  0  0
 23 24  1  0  0  0
 24 25  1  0  0  0
 25 26  1  0  0  0
 26 27  1  0  0  0
 28 29  1  0  0  0
 28 34  1  0  0  0
 29 30  1  0  0  0
 29 32  1  0  0  0
 30 31  2  0  0  0
 30 35  1  0  0  0
 32 33  1  0  0  0
 33 34  1  0  0  0
 35 36  1  0  0  0
 36 37  1  0  0  0
 36 39  1  0  0  0
 37 38  2  0  0  0
 37 44  1  0  0  0
 39 40  1  0  0  0
 40 41  1  0  0  0
 41 42  2  0  0  0
 41 43  1  0  0  0
 44 45  1  0  0  0
 45 46  1  0  0  0
 45 48  1  0  0  0
 46 47  2  0  0  0
 46 53  1  0  0  0
 48 49  1  0  0  0
 49 50  1  0  0  0
 50 51  2  0  0  0
 50 52  1  0  0  0
 53 54  1  0  0  0
 54 55  1  0  0  0
 54 57  1  0  0  0
 55 56  2  0  0  0
 55 64  1  0  0  0
 57 58  1  0  0  0
 58 59  4  0  0  0
 58 60  4  0  0  0
 59 61  4  0  0  0
 60 62  4  0  0  0
 61 63  4  0  0  0
 62 63  4  0  0  0
 64 65  1  0  0  0
 65 66  1  0  0  0
 65 68  1  0  0  0
 66 67  2  0  0  0
 66 75  1  0  0  0
 68 69  1  0  0  0
 69 70  4  0  0  0
 69 71  4  0  0  0
 70 72  4  0  0  0
 71 73  4  0  0  0
 72 74  4  0  0  0
 73 74  4  0  0  0
 75 76  1  0  0  0
 76 77  1  0  0  0
 77 78  2  0  0  0
 77 79  1  0  0  0
 79 80  1  0  0  0
 80 81  1  0  0  0
 80 83  1  0  0  0
 81 82  2  0  0  0
 81 87  1  0  0  0
 83 84  1  0  0  0
 84 85  1  0  0  0
 84 86  1  0  0  0
 87 88  1  0  0  0
 88 89  1  0  0  0
 88 91  1  0  0  0
 89 90  1  0  0  0
 89 95  2  0  0  0
 91 92  1  0  0  0
 92 93  1  0  0  0
 93 94  1  0  0  0
  1 96  1  0  0  0
  1 97  1  0  0  0
  1 98  1  0  0  0
  2 99  1  0  0  0
  5100  1  0  0  0
  5101  1  0  0  0
  6102  1  0  0  0
  6103  1  0  0  0
  7104  1  0  0  0
  7105  1  0  0  0
  8106  1  0  0  0
 10107  1  0  0  0
 11108  1  0  0  0
 11109  1  0  0  0
 13110  1  0  0  0
 16111  1  0  0  0
 16112  1  0  0  0
 17113  1  0  0  0
 17114  1  0  0  0
 18115  1  0  0  0
 18116  1  0  0  0
 19117  1  0  0  0
 20118  1  0  0  0
 23119  1  0  0  0
 23120  1  0  0  0
 24121  1  0  0  0
 24122  1  0  0  0
 25123  1  0  0  0
 25124  1  0  0  0
 26125  1  0  0  0
 26126  1  0  0  0
 27127  1  0  0  0
 27128  1  0  0  0
 27129  1  0  0  0
 29130  1  0  0  0
 32131  1  0  0  0
 32132  1  0  0  0
 33133  1  0  0  0
 33134  1  0  0  0
 34135  1  0  0  0
 34136  1  0  0  0
 35137  1  0  0  0
 36138  1  0  0  0
 39139  1  0  0  0
 39140  1  0  0  0
 40141  1  0  0  0
 40142  1  0  0  0
 43143  1  0  0  0
 43144  1  0  0  0
 44145  1  0  0  0
 45146  1  0  0  0
 48147  1  0  0  0
 48148  1  0  0  0
 49149  1  0  0  0
 49150  1  0  0  0
 52151  1  0  0  0
 52152  1  0  0  0
 53153  1  0  0  0
 54154  1  0  0  0
 57155  1  0  0  0
 57156  1  0  0  0
 59157  1  0  0  0
 60158  1  0  0  0
 61159  1  0  0  0
 62160  1  0  0  0
 63161  1  0  0  0
 64162  1  0  0  0
 65163  1  0  0  0
 68164  1  0  0  0
 68165  1  0  0  0
 70166  1  0  0  0
 71167  1  0  0  0
 72168  1  0  0  0
 73169  1  0  0  0
 74170  1  0  0  0
 75171  1  0  0  0
 76172  1  0  0  0
 76173  1  0  0  0
 79174  1  0  0  0
 80175  1  0  0  0
 83176  1  0  0  0
 83177  1  0  0  0
 84178  1  0  0  0
 85179  1  0  0  0
 85180  1  0  0  0
 85181  1  0  0  0
 86182  1  0  0  0
 86183  1  0  0  0
 86184  1  0  0  0
 87185  1  0  0  0
 88186  1  0  0  0
 90187  1  0  0  0
 91188  1  0  0  0
 91189  1  0  0  0
 92190  1  0  0  0
 92191  1  0  0  0
 94192  1  0  0  0
 94193  1  0  0  0
 94194  1  0  0  0
M  END
$$$$
