### 
### Created by X-TOOL on Mon Sep 10 21:13:05 2018
### 

@<TRIPOS>MOLECULE
2ks9_ligand
  194   197     1     0     0
SMALL
GAST_HUCK


@<TRIPOS>ATOM
      1 N         -10.6570  -21.4070  -25.1150 N.4       1 ARG         0.2379
      2 CA        -11.4320  -21.0000  -26.3220 C.3       1 ARG         0.0653
      3 C         -12.5610  -20.0670  -25.8930 C.2       1 ARG         0.2292
      4 O         -13.7310  -20.3090  -26.1780 O.2       1 ARG        -0.3905
      5 CB        -11.9790  -22.2690  -27.0120 C.3       1 ARG         0.0110
      6 CG        -12.2510  -22.0580  -28.5240 C.3       1 ARG        -0.0125
      7 CD        -13.4970  -22.8210  -28.9980 C.3       1 ARG         0.0629
      8 NE        -14.6830  -21.9890  -28.8240 N.pl3     1 ARG        -0.2723
      9 CZ        -15.8480  -22.3310  -29.3630 C.cat     1 ARG         0.2882
     10 NH1       -15.9470  -23.4300  -30.0600 N.pl3     1 ARG        -0.2849
     11 NH2       -16.8940  -21.5670  -29.1960 N.pl3     1 ARG        -0.2849
     12 N         -12.2330  -18.9970  -25.2220 N.am      1 PRO        -0.2471
     13 CA        -13.2480  -18.0040  -24.7700 C.3       1 PRO         0.1339
     14 C         -13.8650  -17.3000  -25.9710 C.2       1 PRO         0.2041
     15 O         -13.1730  -17.0070  -26.9460 O.2       1 PRO        -0.3944
     16 CB        -12.4430  -17.0360  -23.8890 C.3       1 PRO        -0.0104
     17 CG        -11.0410  -17.1460  -24.3920 C.3       1 PRO        -0.0281
     18 CD        -10.8700  -18.6030  -24.8270 C.3       1 PRO         0.0371
     19 N         -15.1610  -17.0300  -25.9120 N.am      1 LYS        -0.2637
     20 CA        -15.8120  -16.3610  -27.0260 C.3       1 LYS         0.1312
     21 C         -15.2340  -14.9520  -27.1880 C.2       1 LYS         0.2064
     22 O         -14.9140  -14.2990  -26.1940 O.2       1 LYS        -0.3942
     23 CB        -17.3220  -16.2780  -26.7850 C.3       1 LYS        -0.0122
     24 CG        -17.8770  -17.6760  -26.4930 C.3       1 LYS        -0.0440
     25 CD        -18.5010  -17.7040  -25.0910 C.3       1 LYS        -0.0124
     26 CE        -18.7070  -16.2720  -24.5880 C.3       1 LYS        -0.0354
     27 NZ        -20.1560  -16.0360  -24.3350 N.4       1 LYS         0.2185
     28 N         -15.0780  -14.4680  -28.3970 N.am      1 PRO        -0.2498
     29 CA        -14.5100  -13.1080  -28.6460 C.3       1 PRO         0.1338
     30 C         -15.4530  -12.0060  -28.1730 C.2       1 PRO         0.2041
     31 O         -16.6730  -12.1770  -28.1780 O.2       1 PRO        -0.3944
     32 CB        -14.3200  -13.0750  -30.1680 C.3       1 PRO        -0.0104
     33 CG        -15.3700  -13.9960  -30.6820 C.3       1 PRO        -0.0281
     34 CD        -15.4380  -15.1340  -29.6650 C.3       1 PRO         0.0369
     35 N         -14.8880  -10.8730  -27.7740 N.am      1 GLN        -0.2636
     36 CA        -15.7010   -9.7580  -27.3170 C.3       1 GLN         0.1330
     37 C         -16.4470   -9.1320  -28.4910 C.2       1 GLN         0.2040
     38 O         -15.8560   -8.8550  -29.5350 O.2       1 GLN        -0.3944
     39 CB        -14.8180   -8.7080  -26.6380 C.3       1 GLN         0.0045
     40 CG        -15.0820   -7.3310  -27.2550 C.3       1 GLN         0.0412
     41 CD        -15.8230   -6.4460  -26.2580 C.2       1 GLN         0.1737
     42 OE1       -16.8940   -5.9240  -26.5670 O.2       1 GLN        -0.3973
     43 NE2       -15.3150   -6.2470  -25.0730 N.am      1 GLN        -0.3009
     44 N         -17.7490   -8.9150  -28.3160 N.am      1 GLN        -0.2636
     45 CA        -18.5770   -8.3220  -29.3720 C.3       1 GLN         0.1330
     46 C         -18.8390   -6.8470  -29.0870 C.2       1 GLN         0.2042
     47 O         -19.4910   -6.5020  -28.1010 O.2       1 GLN        -0.3944
     48 CB        -19.9110   -9.0660  -29.4590 C.3       1 GLN         0.0045
     49 CG        -19.6940  -10.5470  -29.1410 C.3       1 GLN         0.0412
     50 CD        -19.8890  -11.3830  -30.4000 C.2       1 GLN         0.1737
     51 OE1       -19.1230  -11.2570  -31.3550 O.2       1 GLN        -0.3973
     52 NE2       -20.8760  -12.2360  -30.4610 N.am      1 GLN        -0.3009
     53 N         -18.3340   -5.9840  -29.9610 N.am      1 PHE        -0.2619
     54 CA        -18.5260   -4.5470  -29.8000 C.3       1 PHE         0.1404
     55 C         -20.0060   -4.1950  -29.9000 C.2       1 PHE         0.2061
     56 O         -20.5170   -3.3820  -29.1290 O.2       1 PHE        -0.3942
     57 CB        -17.7430   -3.7920  -30.8760 C.3       1 PHE         0.0214
     58 CG        -17.5000   -2.3740  -30.4210 C.ar      1 PHE        -0.0386
     59 CD1       -18.4560   -1.3840  -30.6740 C.ar      1 PHE        -0.0601
     60 CD2       -16.3160   -2.0480  -29.7460 C.ar      1 PHE        -0.0601
     61 CE1       -18.2300   -0.0680  -30.2530 C.ar      1 PHE        -0.0686
     62 CE2       -16.0910   -0.7330  -29.3240 C.ar      1 PHE        -0.0686
     63 CZ        -17.0480    0.2580  -29.5780 C.ar      1 PHE        -0.0687
     64 N         -20.6870   -4.8130  -30.8590 N.am      1 PHE        -0.2618
     65 CA        -22.1090   -4.5660  -31.0620 C.3       1 PHE         0.1404
     66 C         -22.9150   -5.0430  -29.8590 C.2       1 PHE         0.2058
     67 O         -23.9110   -4.4260  -29.4800 O.2       1 PHE        -0.3942
     68 CB        -22.5910   -5.2860  -32.3230 C.3       1 PHE         0.0214
     69 CG        -23.6260   -4.4340  -33.0220 C.ar      1 PHE        -0.0386
     70 CD1       -23.9430   -3.1670  -32.5210 C.ar      1 PHE        -0.0601
     71 CD2       -24.2670   -4.9150  -34.1690 C.ar      1 PHE        -0.0601
     72 CE1       -24.9010   -2.3780  -33.1690 C.ar      1 PHE        -0.0686
     73 CE2       -25.2260   -4.1270  -34.8170 C.ar      1 PHE        -0.0686
     74 CZ        -25.5430   -2.8590  -34.3160 C.ar      1 PHE        -0.0687
     75 N         -22.4800   -6.1490  -29.2670 N.am      1 GLY        -0.2663
     76 CA        -23.1690   -6.7050  -28.1090 C.3       1 GLY         0.1201
     77 C         -23.1990   -5.7030  -26.9630 C.2       1 GLY         0.2007
     78 O         -24.1520   -5.6630  -26.1850 O.2       1 GLY        -0.3947
     79 N         -22.1500   -4.8920  -26.8610 N.am      1 LEU        -0.2640
     80 CA        -22.0750   -3.8920  -25.8020 C.3       1 LEU         0.1312
     81 C         -23.1310   -2.8150  -26.0210 C.2       1 LEU         0.2033
     82 O         -23.2670   -2.2790  -27.1210 O.2       1 LEU        -0.3944
     83 CB        -20.6720   -3.2640  -25.7760 C.3       1 LEU        -0.0101
     84 CG        -19.9780   -3.5310  -24.4080 C.3       1 LEU        -0.0425
     85 CD1       -18.4580   -3.6460  -24.6020 C.3       1 LEU        -0.0625
     86 CD2       -20.2660   -2.3790  -23.4250 C.3       1 LEU        -0.0625
     87 N         -23.8780   -2.5020  -24.9650 N.am      1 MET        -0.2695
     88 CA        -24.9280   -1.4860  -25.0460 C.3       1 MET         0.0951
     89 C         -24.3760   -0.1140  -24.6710 C.2       1 MET         0.0601
     90 O         -24.2770    0.7230  -25.5530 O.co2     1 MET        -0.5666
     91 CB        -26.0750   -1.8500  -24.1010 C.3       1 MET        -0.0089
     92 CG        -26.9690   -2.9020  -24.7610 C.3       1 MET        -0.0030
     93 SD        -26.9010   -4.4370  -23.8010 S.3       1 MET        -0.1639
     94 CE        -28.1190   -3.9900  -22.5370 C.3       1 MET        -0.0181
     95 OXT       -24.0610    0.0770  -23.5090 O.co2     1 MET        -0.5666
     96 H1         -9.9084  -22.0240  -25.3887 H         1 ARG         0.2015
     97 H2        -11.2666  -21.8842  -24.4694 H         1 ARG         0.2015
     98 H3        -10.2721  -20.5881  -24.6709 H         1 ARG         0.2015
     99 H4        -10.7718  -20.4666  -27.0217 H         1 ARG         0.1098
    100 H5        -12.9205  -22.5579  -26.5221 H         1 ARG         0.0347
    101 H6        -11.2423  -23.0777  -26.8965 H         1 ARG         0.0347
    102 H7        -11.3797  -22.4124  -29.0942 H         1 ARG         0.0302
    103 H8        -12.3998  -20.9843  -28.7114 H         1 ARG         0.0302
    104 H9        -13.6076  -23.7423  -28.4072 H         1 ARG         0.0689
    105 H10       -13.3847  -23.0786  -30.0615 H         1 ARG         0.0689
    106 H11       -14.6157  -21.1211  -28.2735 H         1 ARG         0.2642
    107 H12       -16.8503  -23.6952  -30.4779 H         1 ARG         0.2615
    108 H13       -15.1218  -24.0321  -30.1921 H         1 ARG         0.2615
    109 H14       -16.8157  -20.6997  -28.6459 H         1 ARG         0.2615
    110 H15       -17.7972  -21.8318  -29.6144 H         1 ARG         0.2615
    111 H16       -14.0423  -18.4908  -24.1851 H         1 PRO         0.0802
    112 H17       -12.5007  -17.3339  -22.8317 H         1 PRO         0.0313
    113 H18       -12.8161  -16.0073  -24.0010 H         1 PRO         0.0313
    114 H19       -10.3265  -16.8979  -23.5934 H         1 PRO         0.0287
    115 H20       -10.8858  -16.4702  -25.2459 H         1 PRO         0.0287
    116 H21       -10.1746  -18.6825  -25.6756 H         1 PRO         0.0524
    117 H22       -10.5054  -19.2231  -23.9948 H         1 PRO         0.0524
    118 H23       -15.6899  -17.2860  -25.1028 H         1 LYS         0.1883
    119 H24       -15.6273  -16.9343  -27.9464 H         1 LYS         0.0800
    120 H25       -17.8131  -15.8696  -27.6805 H         1 LYS         0.0312
    121 H26       -17.5194  -15.6197  -25.9261 H         1 LYS         0.0312
    122 H27       -17.0605  -18.4113  -26.5442 H         1 LYS         0.0269
    123 H28       -18.6446  -17.9277  -27.2396 H         1 LYS         0.0269
    124 H29       -17.8306  -18.2400  -24.4032 H         1 LYS         0.0317
    125 H30       -19.4717  -18.2197  -25.1332 H         1 LYS         0.0317
    126 H31       -18.3473  -15.5618  -25.3471 H         1 LYS         0.0813
    127 H32       -18.1438  -16.1271  -23.6543 H         1 LYS         0.0813
    128 H33       -20.2901  -15.0934  -24.0041 H         1 LYS         0.1994
    129 H34       -20.4859  -16.6865  -23.6392 H         1 LYS         0.1994
    130 H35       -20.6724  -16.1684  -25.1905 H         1 LYS         0.1994
    131 H36       -13.5433  -12.9941  -28.1337 H         1 PRO         0.0802
    132 H37       -13.3171  -13.4322  -30.4447 H         1 PRO         0.0313
    133 H38       -14.4674  -12.0573  -30.5585 H         1 PRO         0.0313
    134 H39       -15.0928  -14.3816  -31.6742 H         1 PRO         0.0287
    135 H40       -16.3386  -13.4787  -30.7471 H         1 PRO         0.0287
    136 H41       -16.4513  -15.5591  -29.6146 H         1 PRO         0.0524
    137 H42       -14.7188  -15.9287  -29.9123 H         1 PRO         0.0524
    138 H43       -13.8919  -10.7855  -27.7880 H         1 GLN         0.1883
    139 H44       -16.4355  -10.1302  -26.5877 H         1 GLN         0.0801
    140 H45       -13.7600   -8.9744  -26.7785 H         1 GLN         0.0337
    141 H46       -15.0487   -8.6768  -25.5629 H         1 GLN         0.0337
    142 H47       -15.6935   -7.4492  -28.1617 H         1 GLN         0.0504
    143 H48       -14.1235   -6.8598  -27.5180 H         1 GLN         0.0504
    144 H49       -15.7951   -5.6680  -24.4140 H         1 GLN         0.1814
    145 H50       -14.4455   -6.6735  -24.8237 H         1 GLN         0.1814
    146 H51       -18.1724   -9.1620  -27.4444 H         1 GLN         0.1883
    147 H52       -18.0490   -8.4127  -30.3327 H         1 GLN         0.0801
    148 H53       -20.3205   -8.9659  -30.4750 H         1 GLN         0.0337
    149 H54       -20.6181   -8.6358  -28.7345 H         1 GLN         0.0337
    150 H55       -20.4177  -10.8655  -28.3763 H         1 GLN         0.0504
    151 H56       -18.6718  -10.6924  -28.7616 H         1 GLN         0.0504
    152 H57       -21.0098  -12.7878  -31.2842 H         1 GLN         0.1814
    153 H58       -21.4980  -12.3373  -29.6846 H         1 GLN         0.1814
    154 H59       -17.8129   -6.3253  -30.7433 H         1 PHE         0.1885
    155 H60       -18.1540   -4.2470  -28.8093 H         1 PHE         0.0823
    156 H61       -18.3215   -3.7826  -31.8115 H         1 PHE         0.0474
    157 H62       -16.7784   -4.2925  -31.0464 H         1 PHE         0.0474
    158 H63       -19.3719   -1.6361  -31.1961 H         1 PHE         0.0557
    159 H64       -15.5746   -2.8144  -29.5508 H         1 PHE         0.0557
    160 H65       -18.9707    0.6986  -30.4499 H         1 PHE         0.0599
    161 H66       -15.1759   -0.4810  -28.8004 H         1 PHE         0.0599
    162 H67       -16.8732    1.2769  -29.2519 H         1 PHE         0.0559
    163 H68       -20.2135   -5.4619  -31.4546 H         1 PHE         0.1885
    164 H69       -22.2653   -3.4844  -31.1870 H         1 PHE         0.0823
    165 H70       -23.0374   -6.2525  -32.0461 H         1 PHE         0.0474
    166 H71       -21.7388   -5.4555  -32.9975 H         1 PHE         0.0474
    167 H72       -23.4471   -2.7962  -31.6313 H         1 PHE         0.0557
    168 H73       -24.0212   -5.8974  -34.5558 H         1 PHE         0.0557
    169 H74       -25.1454   -1.3951  -32.7826 H         1 PHE         0.0599
    170 H75       -25.7226   -4.4986  -35.7060 H         1 PHE         0.0599
    171 H76       -26.2862   -2.2491  -34.8167 H         1 PHE         0.0559
    172 H77       -21.6657   -6.6085  -29.6217 H         1 GLY         0.1881
    173 H78       -22.6441   -7.6137  -27.7794 H         1 GLY         0.0763
    174 H79       -24.2010   -6.9599  -28.3918 H         1 GLY         0.0763
    175 H80       -21.4018   -4.9689  -27.5200 H         1 LEU         0.1883
    176 H81       -22.2634   -4.3821  -24.8354 H         1 LEU         0.0800
    177 H82       -20.7587   -2.1785  -25.9317 H         1 LEU         0.0315
    178 H83       -20.0645   -3.7026  -26.5813 H         1 LEU         0.0315
    179 H84       -20.3639   -4.4716  -23.9880 H         1 LEU         0.0298
    180 H85       -17.9776   -3.8344  -23.6305 H         1 LEU         0.0232
    181 H86       -18.0706   -2.7082  -25.0268 H         1 LEU         0.0232
    182 H87       -18.2377   -4.4777  -25.2874 H         1 LEU         0.0232
    183 H88       -21.3521   -2.2860  -23.2773 H         1 LEU         0.0232
    184 H89       -19.8700   -1.4386  -23.8360 H         1 LEU         0.0232
    185 H90       -19.7816   -2.5904  -22.4603 H         1 LEU         0.0232
    186 H91       -23.7182   -2.9716  -24.0967 H         1 MET         0.1875
    187 H92       -25.3089   -1.4485  -26.0772 H         1 MET         0.0726
    188 H93       -26.6687   -0.9502  -23.8821 H         1 MET         0.0313
    189 H94       -25.6635   -2.2546  -23.1645 H         1 MET         0.0313
    190 H95       -26.6158   -3.0936  -25.7850 H         1 MET         0.0378
    191 H96       -28.0054   -2.5349  -24.7932 H         1 MET         0.0378
    192 H97       -28.2309   -4.8214  -21.8254 H         1 MET         0.0340
    193 H98       -29.0874   -3.7854  -23.0170 H         1 MET         0.0340
    194 H99       -27.7784   -3.0919  -22.0009 H         1 MET         0.0340
@<TRIPOS>BOND
     1    1    2 1  
     2    2    3 1  
     3    2    5 1  
     4    3    4 2  
     5    3   12 am 
     6    5    6 1  
     7    6    7 1  
     8    7    8 1  
     9    8    9 ar 
    10    9   10 ar 
    11    9   11 ar 
    12   12   13 1  
    13   12   18 1  
    14   13   14 1  
    15   13   16 1  
    16   14   15 2  
    17   14   19 am 
    18   16   17 1  
    19   17   18 1  
    20   19   20 1  
    21   20   21 1  
    22   20   23 1  
    23   21   22 2  
    24   21   28 am 
    25   23   24 1  
    26   24   25 1  
    27   25   26 1  
    28   26   27 1  
    29   28   29 1  
    30   28   34 1  
    31   29   30 1  
    32   29   32 1  
    33   30   31 2  
    34   30   35 am 
    35   32   33 1  
    36   33   34 1  
    37   35   36 1  
    38   36   37 1  
    39   36   39 1  
    40   37   38 2  
    41   37   44 am 
    42   39   40 1  
    43   40   41 1  
    44   41   42 2  
    45   41   43 am 
    46   44   45 1  
    47   45   46 1  
    48   45   48 1  
    49   46   47 2  
    50   46   53 am 
    51   48   49 1  
    52   49   50 1  
    53   50   51 2  
    54   50   52 am 
    55   53   54 1  
    56   54   55 1  
    57   54   57 1  
    58   55   56 2  
    59   55   64 am 
    60   57   58 1  
    61   58   59 ar 
    62   58   60 ar 
    63   59   61 ar 
    64   60   62 ar 
    65   61   63 ar 
    66   62   63 ar 
    67   64   65 1  
    68   65   66 1  
    69   65   68 1  
    70   66   67 2  
    71   66   75 am 
    72   68   69 1  
    73   69   70 ar 
    74   69   71 ar 
    75   70   72 ar 
    76   71   73 ar 
    77   72   74 ar 
    78   73   74 ar 
    79   75   76 1  
    80   76   77 1  
    81   77   78 2  
    82   77   79 am 
    83   79   80 1  
    84   80   81 1  
    85   80   83 1  
    86   81   82 2  
    87   81   87 am 
    88   83   84 1  
    89   84   85 1  
    90   84   86 1  
    91   87   88 1  
    92   88   89 1  
    93   88   91 1  
    94   89   90 ar 
    95   89   95 ar 
    96   91   92 1  
    97   92   93 1  
    98   93   94 1  
    99    1   96 1  
   100    1   97 1  
   101    1   98 1  
   102    2   99 1  
   103    5  100 1  
   104    5  101 1  
   105    6  102 1  
   106    6  103 1  
   107    7  104 1  
   108    7  105 1  
   109    8  106 1  
   110   10  107 1  
   111   10  108 1  
   112   11  109 1  
   113   11  110 1  
   114   13  111 1  
   115   16  112 1  
   116   16  113 1  
   117   17  114 1  
   118   17  115 1  
   119   18  116 1  
   120   18  117 1  
   121   19  118 1  
   122   20  119 1  
   123   23  120 1  
   124   23  121 1  
   125   24  122 1  
   126   24  123 1  
   127   25  124 1  
   128   25  125 1  
   129   26  126 1  
   130   26  127 1  
   131   27  128 1  
   132   27  129 1  
   133   27  130 1  
   134   29  131 1  
   135   32  132 1  
   136   32  133 1  
   137   33  134 1  
   138   33  135 1  
   139   34  136 1  
   140   34  137 1  
   141   35  138 1  
   142   36  139 1  
   143   39  140 1  
   144   39  141 1  
   145   40  142 1  
   146   40  143 1  
   147   43  144 1  
   148   43  145 1  
   149   44  146 1  
   150   45  147 1  
   151   48  148 1  
   152   48  149 1  
   153   49  150 1  
   154   49  151 1  
   155   52  152 1  
   156   52  153 1  
   157   53  154 1  
   158   54  155 1  
   159   57  156 1  
   160   57  157 1  
   161   59  158 1  
   162   60  159 1  
   163   61  160 1  
   164   62  161 1  
   165   63  162 1  
   166   64  163 1  
   167   65  164 1  
   168   68  165 1  
   169   68  166 1  
   170   70  167 1  
   171   71  168 1  
   172   72  169 1  
   173   73  170 1  
   174   74  171 1  
   175   75  172 1  
   176   76  173 1  
   177   76  174 1  
   178   79  175 1  
   179   80  176 1  
   180   83  177 1  
   181   83  178 1  
   182   84  179 1  
   183   85  180 1  
   184   85  181 1  
   185   85  182 1  
   186   86  183 1  
   187   86  184 1  
   188   86  185 1  
   189   87  186 1  
   190   88  187 1  
   191   91  188 1  
   192   91  189 1  
   193   92  190 1  
   194   92  191 1  
   195   94  192 1  
   196   94  193 1  
   197   94  194 1  
@<TRIPOS>SUBSTRUCTURE
     1 ARG         1

