4jff_ligand
  -I-interpret- 

150149  0  0  0  0  0  0  0  0999 V2000
   49.9980  -14.4250   31.4030 N   0  3  0  0  0
   49.2720  -13.2030   31.8160 C   0  0  0  0  0
   49.9930  -11.9460   31.3420 C   0  0  0  0  0
   51.0340  -11.5930   31.8740 O   0  0  0  0  0
   49.1780  -13.1560   33.3180 C   0  0  0  0  0
   48.5030  -11.8990   33.8710 C   0  0  0  0  0
   47.0120  -11.9120   33.7090 C   0  0  0  0  0
   46.4710  -12.9440   33.2730 O   0  0  0  0  0
   46.3720  -10.9310   34.1290 O   0  0  0  0  0
   49.3810  -11.2290   30.3880 N   0  0  0  0  0
   49.9430  -10.0010   29.8870 C   0  0  0  0  0
   49.8950   -8.9170   30.9510 C   0  0  0  0  0
   49.0720   -8.9580   31.8760 O   0  0  0  0  0
   49.1570   -9.5190   28.6540 C   0  0  0  0  0
   49.2800  -10.3110   27.3640 C   0  0  0  0  0
   48.0900  -10.0440   26.4320 C   0  0  0  0  0
   50.5570  -10.0130   26.6940 C   0  0  0  0  0
   50.7640   -7.9470   30.8070 N   0  0  0  0  0
   50.7910   -6.8040   31.6830 C   0  0  0  0  0
   49.5420   -6.0510   31.4340 C   0  0  0  0  0
   49.1490   -5.8840   30.2850 O   0  0  0  0  0
   51.9520   -5.9420   31.3690 C   0  0  0  0  0
   48.8680   -5.6430   32.5100 N   0  0  0  0  0
   47.6550   -4.8810   32.4020 C   0  0  0  0  0
   47.8510   -3.4510   32.9050 C   0  0  0  0  0
   46.9030   -2.7210   33.0470 O   0  0  0  0  0
   49.0820   -3.1370   33.2940 N   0  0  0  0  0
   49.4780   -1.8230   33.7430 C   0  0  0  0  0
   50.9520   -1.5670   33.2550 C   0  0  0  0  0
   51.6060   -2.4710   32.7310 O   0  0  0  0  0
   49.4430   -1.7130   35.2670 C   0  0  0  0  0
   50.4420   -2.6910   35.9120 C   0  0  0  0  0
   47.9890   -1.9540   35.8150 C   0  0  0  0  0
   50.4460   -2.6510   37.4500 C   0  0  0  0  0
   51.4020   -0.3230   33.3350 N   0  0  0  0  0
   52.7780    0.0300   32.9600 C   0  0  0  0  0
   53.1190   -0.0220   31.4840 C   0  0  0  0  0
   54.3280    0.0840   31.1080 O   0  0  0  0  0
   52.0760   -0.1080   30.6260 N   0  0  0  0  0
   52.2550   -0.1360   29.1850 C   0  0  0  0  0
   51.7650    1.1980   28.5620 C   0  0  0  0  0
   50.5540    1.3920   28.3620 O   0  0  0  0  0
   51.4370   -1.2680   28.5550 C   0  0  0  0  0
   51.8460   -2.6210   29.1370 C   0  0  0  0  0
   51.5860   -1.2510   27.0640 C   0  0  0  0  0
   53.3340   -2.9340   29.0260 C   0  0  0  0  0
   52.6920    2.0810   28.2130 N   0  0  0  0  0
   52.3240    3.3600   27.6570 C   0  0  0  0  0
   53.0380    3.6570   26.3450 C   0  0  0  0  0
   54.0610    3.0780   26.0580 O   0  0  0  0  0
   52.6580    4.4900   28.6190 C   0  0  0  0  0
   52.2470    4.4470   30.0640 C   0  0  0  0  0
   52.1090    5.9190   30.5090 C   0  0  0  0  0
   50.9500    3.7030   30.2880 C   0  0  0  0  0
   52.5350    4.6580   25.6200 N   0  0  0  0  0
   53.1270    5.0740   24.3720 C   0  0  0  0  0
   54.4900    5.7470   24.6680 C   0  0  0  0  0
   54.7010    6.3200   25.7770 O   0  0  0  0  0
   52.2430    6.0840   23.6160 C   0  0  0  0  0
   50.9140    5.5840   23.5070 O   0  0  0  0  0
   52.7860    6.3140   22.2230 C   0  0  0  0  0
   55.4190    5.6290   23.7310 N   0  0  0  0  0
   56.7290    6.2220   23.9010 C   0  0  0  0  0
   56.6150    7.7190   23.7700 C   0  0  0  0  0
   57.5760    8.4720   24.1370 O   0  0  0  0  0
   57.7100    5.7040   22.9040 C   0  0  0  0  0
   57.7930    4.1430   23.0010 C   0  0  0  0  0
   57.3350    6.1420   21.5040 C   0  0  0  0  0
   55.5020    8.2360   23.3860 O   0  0  0  0  0
   50.0603  -14.4544   30.3853 H   0  0  0  0  0
   50.9366  -14.4126   31.8021 H   0  0  0  0  0
   49.4956  -15.2471   31.7380 H   0  0  0  0  0
   48.2794  -13.2362   31.3669 H   0  0  0  0  0
   50.1979  -13.1665   33.7025 H   0  0  0  0  0
   48.5709  -14.0069   33.6269 H   0  0  0  0  0
   48.8890  -11.0442   33.3156 H   0  0  0  0  0
   48.7197  -11.8489   34.9381 H   0  0  0  0  0
   46.9845  -10.2496   34.4156 H   0  0  0  0  0
   48.4950  -11.5617   30.0075 H   0  0  0  0  0
   50.9799  -10.1944   29.6122 H   0  0  0  0  0
   49.5622   -8.5336   28.4241 H   0  0  0  0  0
   48.1071   -9.5948   28.9368 H   0  0  0  0  0
   49.2671  -11.3715   27.6153 H   0  0  0  0  0
   47.1661  -10.3347   26.9321 H   0  0  0  0  0
   48.0534   -8.9826   26.1866 H   0  0  0  0  0
   48.2084  -10.6257   25.5179 H   0  0  0  0  0
   50.6046   -8.9490   26.4623 H   0  0  0  0  0
   51.3828  -10.2798   27.3535 H   0  0  0  0  0
   50.6255  -10.5904   25.7720 H   0  0  0  0  0
   51.4443   -8.0032   30.0490 H   0  0  0  0  0
   50.8734   -7.1176   32.7237 H   0  0  0  0  0
   52.8719   -6.5121   31.4992 H   0  0  0  0  0
   51.8791   -5.5981   30.3372 H   0  0  0  0  0
   51.9573   -5.0831   32.0401 H   0  0  0  0  0
   49.2240   -5.8788   33.4363 H   0  0  0  0  0
   46.8884   -5.3609   33.0104 H   0  0  0  0  0
   47.3615   -4.8427   31.3530 H   0  0  0  0  0
   49.7914   -3.8697   33.2742 H   0  0  0  0  0
   48.7832   -1.0893   33.3344 H   0  0  0  0  0
   49.7408   -0.6999   35.5374 H   0  0  0  0  0
   51.4390   -2.4049   35.5770 H   0  0  0  0  0
   50.1494   -3.6978   35.6140 H   0  0  0  0  0
   47.3151   -1.2078   35.3941 H   0  0  0  0  0
   47.6544   -2.9508   35.5277 H   0  0  0  0  0
   47.9931   -1.8699   36.9017 H   0  0  0  0  0
   50.7116   -1.6485   37.7854 H   0  0  0  0  0
   49.4543   -2.9090   37.8215 H   0  0  0  0  0
   51.1750   -3.3673   37.8289 H   0  0  0  0  0
   50.7752    0.4103   33.6664 H   0  0  0  0  0
   53.4183   -0.7093   33.4412 H   0  0  0  0  0
   52.9133    1.0686   33.2619 H   0  0  0  0  0
   51.1302   -0.1548   31.0050 H   0  0  0  0  0
   53.3163   -0.2889   28.9892 H   0  0  0  0  0
   50.3848   -1.1104   28.7921 H   0  0  0  0  0
   51.3162   -3.3856   28.5689 H   0  0  0  0  0
   51.6036   -2.5974   30.1994 H   0  0  0  0  0
   51.2312   -0.2964   26.6755 H   0  0  0  0  0
   52.6362   -1.3829   26.8036 H   0  0  0  0  0
   50.9987   -2.0614   26.6322 H   0  0  0  0  0
   53.6255   -2.9391   27.9757 H   0  0  0  0  0
   53.9047   -2.1736   29.5591 H   0  0  0  0  0
   53.5319   -3.9123   29.4641 H   0  0  0  0  0
   53.6779    1.8522   28.3396 H   0  0  0  0  0
   51.2502    3.3018   27.4790 H   0  0  0  0  0
   52.1062    5.3407   28.2191 H   0  0  0  0  0
   53.7472    4.4802   28.6602 H   0  0  0  0  0
   52.9928    3.9047   30.6452 H   0  0  0  0  0
   53.0660    6.4258   30.3854 H   0  0  0  0  0
   51.3534    6.4127   29.8979 H   0  0  0  0  0
   51.8105    5.9540   31.5567 H   0  0  0  0  0
   50.1511    4.1920   29.7305 H   0  0  0  0  0
   51.0584    2.6746   29.9434 H   0  0  0  0  0
   50.7087    3.7079   31.3510 H   0  0  0  0  0
   51.7052    5.1447   25.9592 H   0  0  0  0  0
   53.2420    4.1882   23.7473 H   0  0  0  0  0
   52.2434    7.0216   24.1718 H   0  0  0  0  0
   50.3717    6.2201   23.0348 H   0  0  0  0  0
   53.8004    6.7072   22.2902 H   0  0  0  0  0
   52.7962    5.3701   21.6780 H   0  0  0  0  0
   52.1513    7.0298   21.7006 H   0  0  0  0  0
   55.2083    5.1127   22.8769 H   0  0  0  0  0
   57.0953    5.9535   24.8919 H   0  0  0  0  0
   58.6927    6.1191   23.1280 H   0  0  0  0  0
   58.1136    3.8591   24.0034 H   0  0  0  0  0
   56.8115    3.7149   22.7971 H   0  0  0  0  0
   58.5114    3.7725   22.2698 H   0  0  0  0  0
   56.3455    5.7573   21.2571 H   0  0  0  0  0
   57.3254    7.2309   21.4557 H   0  0  0  0  0
   58.0652    5.7520   20.7949 H   0  0  0  0  0
   54.8910    7.5355   23.1461 H   0  0  0  0  0
  1  2  1  0  0  0
  2  3  1  0  0  0
  2  5  1  0  0  0
  3  4  2  0  0  0
  3 10  1  0  0  0
  5  6  1  0  0  0
  6  7  1  0  0  0
  7  8  2  0  0  0
  7  9  1  0  0  0
 10 11  1  0  0  0
 11 12  1  0  0  0
 11 14  1  0  0  0
 12 13  2  0  0  0
 12 18  1  0  0  0
 14 15  1  0  0  0
 15 16  1  0  0  0
 15 17  1  0  0  0
 18 19  1  0  0  0
 19 20  1  0  0  0
 19 22  1  0  0  0
 20 21  2  0  0  0
 20 23  1  0  0  0
 23 24  1  0  0  0
 24 25  1  0  0  0
 25 26  2  0  0  0
 25 27  1  0  0  0
 27 28  1  0  0  0
 28 29  1  0  0  0
 28 31  1  0  0  0
 29 30  2  0  0  0
 29 35  1  0  0  0
 31 32  1  0  0  0
 31 33  1  0  0  0
 32 34  1  0  0  0
 35 36  1  0  0  0
 36 37  1  0  0  0
 37 38  2  0  0  0
 37 39  1  0  0  0
 39 40  1  0  0  0
 40 41  1  0  0  0
 40 43  1  0  0  0
 41 42  2  0  0  0
 41 47  1  0  0  0
 43 44  1  0  0  0
 43 45  1  0  0  0
 44 46  1  0  0  0
 47 48  1  0  0  0
 48 49  1  0  0  0
 48 51  1  0  0  0
 49 50  2  0  0  0
 49 55  1  0  0  0
 51 52  1  0  0  0
 52 53  1  0  0  0
 52 54  1  0  0  0
 55 56  1  0  0  0
 56 57  1  0  0  0
 56 59  1  0  0  0
 57 58  2  0  0  0
 57 62  1  0  0  0
 59 60  1  0  0  0
 59 61  1  0  0  0
 62 63  1  0  0  0
 63 64  1  0  0  0
 63 66  1  0  0  0
 64 65  2  0  0  0
 64 69  1  0  0  0
 66 67  1  0  0  0
 66 68  1  0  0  0
  1 70  1  0  0  0
  1 71  1  0  0  0
  1 72  1  0  0  0
  2 73  1  0  0  0
  5 74  1  0  0  0
  5 75  1  0  0  0
  6 76  1  0  0  0
  6 77  1  0  0  0
  9 78  1  0  0  0
 10 79  1  0  0  0
 11 80  1  0  0  0
 14 81  1  0  0  0
 14 82  1  0  0  0
 15 83  1  0  0  0
 16 84  1  0  0  0
 16 85  1  0  0  0
 16 86  1  0  0  0
 17 87  1  0  0  0
 17 88  1  0  0  0
 17 89  1  0  0  0
 18 90  1  0  0  0
 19 91  1  0  0  0
 22 92  1  0  0  0
 22 93  1  0  0  0
 22 94  1  0  0  0
 23 95  1  0  0  0
 24 96  1  0  0  0
 24 97  1  0  0  0
 27 98  1  0  0  0
 28 99  1  0  0  0
 31100  1  0  0  0
 32101  1  0  0  0
 32102  1  0  0  0
 33103  1  0  0  0
 33104  1  0  0  0
 33105  1  0  0  0
 34106  1  0  0  0
 34107  1  0  0  0
 34108  1  0  0  0
 35109  1  0  0  0
 36110  1  0  0  0
 36111  1  0  0  0
 39112  1  0  0  0
 40113  1  0  0  0
 43114  1  0  0  0
 44115  1  0  0  0
 44116  1  0  0  0
 45117  1  0  0  0
 45118  1  0  0  0
 45119  1  0  0  0
 46120  1  0  0  0
 46121  1  0  0  0
 46122  1  0  0  0
 47123  1  0  0  0
 48124  1  0  0  0
 51125  1  0  0  0
 51126  1  0  0  0
 52127  1  0  0  0
 53128  1  0  0  0
 53129  1  0  0  0
 53130  1  0  0  0
 54131  1  0  0  0
 54132  1  0  0  0
 54133  1  0  0  0
 55134  1  0  0  0
 56135  1  0  0  0
 59136  1  0  0  0
 60137  1  0  0  0
 61138  1  0  0  0
 61139  1  0  0  0
 61140  1  0  0  0
 62141  1  0  0  0
 63142  1  0  0  0
 66143  1  0  0  0
 67144  1  0  0  0
 67145  1  0  0  0
 67146  1  0  0  0
 68147  1  0  0  0
 68148  1  0  0  0
 68149  1  0  0  0
 69150  1  0  0  0
M  END
$$$$
