### 
### Created by X-TOOL on Mon Sep 10 21:13:15 2018
### 

@<TRIPOS>MOLECULE
4jff_ligand
  148   147     1     0     0
SMALL
GAST_HUCK


@<TRIPOS>ATOM
      1 N          49.9980  -14.4250   31.4030 N.4       1 GLU         0.2380
      2 CA         49.2720  -13.2030   31.8160 C.3       1 GLU         0.0665
      3 C          49.9930  -11.9460   31.3420 C.2       1 GLU         0.2268
      4 O          51.0340  -11.5930   31.8740 O.2       1 GLU        -0.3907
      5 CB         49.1780  -13.1560   33.3180 C.3       1 GLU         0.0194
      6 CG         48.5030  -11.8990   33.8710 C.3       1 GLU         0.0075
      7 CD         47.0120  -11.9120   33.7090 C.2       1 GLU         0.0351
      8 OE1        46.4710  -12.9440   33.2730 O.co2     1 GLU        -0.5690
      9 OE2        46.3720  -10.9310   34.1290 O.co2     1 GLU        -0.5690
     10 N          49.3810  -11.2290   30.3880 N.am      1 LEU        -0.2610
     11 CA         49.9430  -10.0010   29.8870 C.3       1 LEU         0.1313
     12 C          49.8950   -8.9170   30.9510 C.2       1 LEU         0.2039
     13 O          49.0720   -8.9580   31.8760 O.2       1 LEU        -0.3944
     14 CB         49.1570   -9.5190   28.6540 C.3       1 LEU        -0.0101
     15 CG         49.2800  -10.3110   27.3640 C.3       1 LEU        -0.0425
     16 CD1        48.0900  -10.0440   26.4320 C.3       1 LEU        -0.0625
     17 CD2        50.5570  -10.0130   26.6940 C.3       1 LEU        -0.0625
     18 N          50.7640   -7.9470   30.8070 N.am      1 ALA        -0.2640
     19 CA         50.7910   -6.8040   31.6830 C.3       1 ALA         0.1282
     20 C          49.5420   -6.0510   31.4340 C.2       1 ALA         0.2034
     21 O          49.1490   -5.8840   30.2850 O.2       1 ALA        -0.3944
     22 CB         51.9520   -5.9420   31.3690 C.3       1 ALA        -0.0244
     23 N          48.8680   -5.6430   32.5100 N.am      1 GLY        -0.2664
     24 CA         47.6550   -4.8810   32.4020 C.3       1 GLY         0.1201
     25 C          47.8510   -3.4510   32.9050 C.2       1 GLY         0.2008
     26 O          46.9030   -2.7210   33.0470 O.2       1 GLY        -0.3947
     27 N          49.0820   -3.1370   33.2940 N.am      1 ILE        -0.2637
     28 CA         49.4780   -1.8230   33.7430 C.3       1 ILE         0.1335
     29 C          50.9520   -1.5670   33.2550 C.2       1 ILE         0.2040
     30 O          51.6060   -2.4710   32.7310 O.2       1 ILE        -0.3944
     31 CB         49.4430   -1.7130   35.2670 C.3       1 ILE        -0.0037
     32 CG1        50.4420   -2.6910   35.9120 C.3       1 ILE        -0.0491
     33 CG2        47.9890   -1.9540   35.8150 C.3       1 ILE        -0.0582
     34 CD1        50.4460   -2.6510   37.4500 C.3       1 ILE        -0.0648
     35 N          51.4020   -0.3230   33.3350 N.am      1 GLY        -0.2664
     36 CA         52.7780    0.0300   32.9600 C.3       1 GLY         0.1201
     37 C          53.1190   -0.0220   31.4840 C.2       1 GLY         0.2008
     38 O          54.3280    0.0840   31.1080 O.2       1 GLY        -0.3947
     39 N          52.0760   -0.1080   30.6260 N.am      1 ILE        -0.2637
     40 CA         52.2550   -0.1360   29.1850 C.3       1 ILE         0.1335
     41 C          51.7650    1.1980   28.5620 C.2       1 ILE         0.2042
     42 O          50.5540    1.3920   28.3620 O.2       1 ILE        -0.3944
     43 CB         51.4370   -1.2680   28.5550 C.3       1 ILE        -0.0037
     44 CG1        51.8460   -2.6210   29.1370 C.3       1 ILE        -0.0491
     45 CG2        51.5860   -1.2510   27.0640 C.3       1 ILE        -0.0582
     46 CD1        53.3340   -2.9340   29.0260 C.3       1 ILE        -0.0648
     47 N          52.6920    2.0810   28.2130 N.am      1 LEU        -0.2637
     48 CA         52.3240    3.3600   27.6570 C.3       1 LEU         0.1312
     49 C          53.0380    3.6570   26.3450 C.2       1 LEU         0.2040
     50 O          54.0610    3.0780   26.0580 O.2       1 LEU        -0.3944
     51 CB         52.6580    4.4900   28.6190 C.3       1 LEU        -0.0101
     52 CG         52.2470    4.4470   30.0640 C.3       1 LEU        -0.0425
     53 CD1        52.1090    5.9190   30.5090 C.3       1 LEU        -0.0625
     54 CD2        50.9500    3.7030   30.2880 C.3       1 LEU        -0.0625
     55 N          52.5350    4.6580   25.6200 N.am      1 THR        -0.2613
     56 CA         53.1270    5.0740   24.3720 C.3       1 THR         0.1564
     57 C          54.4900    5.7470   24.6680 C.2       1 THR         0.2059
     58 O          54.7010    6.3200   25.7770 O.2       1 THR        -0.3943
     59 CB         52.2430    6.0840   23.6160 C.3       1 THR         0.0924
     60 OG1        50.9140    5.5840   23.5070 O.3       1 THR        -0.3874
     61 CG2        52.7860    6.3140   22.2230 C.3       1 THR        -0.0346
     62 N          55.4190    5.6290   23.7310 N.am      1 VAL        -0.2692
     63 CA         56.7290    6.2220   23.9010 C.3       1 VAL         0.0967
     64 C          56.6150    7.7190   23.7700 C.2       1 VAL         0.0603
     65 O          57.5760    8.4720   24.1370 O.co2     1 VAL        -0.5666
     66 CB         57.7100    5.7040   22.9040 C.3       1 VAL        -0.0118
     67 CG1        57.7930    4.1430   23.0010 C.3       1 VAL        -0.0590
     68 CG2        57.3350    6.1420   21.5040 C.3       1 VAL        -0.0590
     69 OXT        55.5020    8.2360   23.3860 O.co2     1 VAL        -0.5666
     70 H1         49.4997  -15.2382   31.7292 H         1 GLU         0.2015
     71 H2         50.9240  -14.4164   31.8010 H         1 GLU         0.2015
     72 H3         50.0646  -14.4526   30.3976 H         1 GLU         0.2015
     73 H4         48.2605  -13.2248   31.3843 H         1 GLU         0.1099
     74 H5         50.1974  -13.2076   33.7281 H         1 GLU         0.0363
     75 H6         48.6028  -14.0313   33.6541 H         1 GLU         0.0363
     76 H7         48.9051  -11.0234   33.3403 H         1 GLU         0.0434
     77 H8         48.7379  -11.8181   34.9426 H         1 GLU         0.0434
     78 H9         48.5124  -11.5552   30.0150 H         1 LEU         0.1884
     79 H10        50.9901  -10.1800   29.6015 H         1 LEU         0.0800
     80 H11        49.4881   -8.4925   28.4381 H         1 LEU         0.0315
     81 H12        48.0922   -9.5105   28.9300 H         1 LEU         0.0315
     82 H13        49.2732  -11.3805   27.6209 H         1 LEU         0.0298
     83 H14        48.2084  -10.6306   25.5090 H         1 LEU         0.0232
     84 H15        48.0519   -8.9731   26.1835 H         1 LEU         0.0232
     85 H16        47.1569  -10.3370   26.9355 H         1 LEU         0.0232
     86 H17        51.3891  -10.2134   27.3850 H         1 LEU         0.0232
     87 H18        50.5758   -8.9547   26.3947 H         1 LEU         0.0232
     88 H19        50.6601  -10.6483   25.8019 H         1 LEU         0.0232
     89 H20        51.4309   -8.0021   30.0639 H         1 ALA         0.1883
     90 H21        50.8424   -7.1290   32.7326 H         1 ALA         0.0797
     91 H22        51.9584   -5.0748   32.0457 H         1 ALA         0.0277
     92 H23        51.8796   -5.5942   30.3280 H         1 ALA         0.0277
     93 H24        52.8811   -6.5161   31.5000 H         1 ALA         0.0277
     94 H25        49.2170   -5.8742   33.4182 H         1 GLY         0.1881
     95 H26        46.8716   -5.3675   33.0016 H         1 GLY         0.0763
     96 H27        47.3437   -4.8504   31.3474 H         1 GLY         0.0763
     97 H28        49.7775   -3.8553   33.2746 H         1 ILE         0.1883
     98 H29        48.8026   -1.0706   33.3098 H         1 ILE         0.0803
     99 H30        49.7437   -0.6909   35.5405 H         1 ILE         0.0345
    100 H31        51.4521   -2.4398   35.5561 H         1 ILE         0.0267
    101 H32        50.1838   -3.7114   35.5924 H         1 ILE         0.0267
    102 H33        47.2958   -1.2444   35.3398 H         1 ILE         0.0235
    103 H34        47.9781   -1.8033   36.9046 H         1 ILE         0.0235
    104 H35        47.6759   -2.9829   35.5840 H         1 ILE         0.0235
    105 H36        51.1814   -3.3735   37.8336 H         1 ILE         0.0230
    106 H37        49.4456   -2.9112   37.8262 H         1 ILE         0.0230
    107 H38        50.7139   -1.6397   37.7898 H         1 ILE         0.0230
    108 H39        50.7875    0.3959   33.6599 H         1 GLY         0.1881
    109 H40        53.4535   -0.6635   33.4822 H         1 GLY         0.0763
    110 H41        52.9650    1.0563   33.3087 H         1 GLY         0.0763
    111 H42        51.1487   -0.1539   30.9975 H         1 ILE         0.1883
    112 H43        53.3214   -0.2821   28.9582 H         1 ILE         0.0803
    113 H44        50.3766   -1.1006   28.7947 H         1 ILE         0.0345
    114 H45        51.2893   -3.4063   28.6047 H         1 ILE         0.0267
    115 H46        51.5708   -2.6341   30.2019 H         1 ILE         0.0267
    116 H47        51.2847   -0.2666   26.6766 H         1 ILE         0.0235
    117 H48        50.9469   -2.0299   26.6227 H         1 ILE         0.0235
    118 H49        52.6358   -1.4439   26.7982 H         1 ILE         0.0235
    119 H50        53.5350   -3.9211   29.4678 H         1 ILE         0.0230
    120 H51        53.9111   -2.1673   29.5637 H         1 ILE         0.0230
    121 H52        53.6295   -2.9395   27.9665 H         1 ILE         0.0230
    122 H53        53.6586    1.8567   28.3371 H         1 LEU         0.1883
    123 H54        51.2392    3.3521   27.4749 H         1 LEU         0.0800
    124 H55        52.2061    5.3994   28.1962 H         1 LEU         0.0315
    125 H56        53.7536    4.5878   28.6123 H         1 LEU         0.0315
    126 H57        53.0355    3.9532   30.6508 H         1 LEU         0.0298
    127 H58        51.8077    5.9557   31.5663 H         1 LEU         0.0232
    128 H59        51.3466    6.4184   29.8930 H         1 LEU         0.0232
    129 H60        53.0743    6.4317   30.3848 H         1 LEU         0.0232
    130 H61        51.0666    2.6577   29.9659 H         1 LEU         0.0232
    131 H62        50.1485    4.1793   29.7043 H         1 LEU         0.0232
    132 H63        50.6913    3.7306   31.3568 H         1 LEU         0.0232
    133 H64        51.7215    5.1351   25.9525 H         1 THR         0.1884
    134 H65        53.2809    4.1884   23.7379 H         1 THR         0.0826
    135 H66        52.2323    7.0364   24.1663 H         1 THR         0.0639
    136 H67        50.3774    6.2134   23.0398 H         1 THR         0.2101
    137 H68        52.1463    7.0363   21.6948 H         1 THR         0.0257
    138 H69        52.7968    5.3621   21.6718 H         1 THR         0.0257
    139 H70        53.8097    6.7109   22.2894 H         1 THR         0.0257
    140 H71        55.2125    5.1228   22.8937 H         1 VAL         0.1875
    141 H72        57.0954    5.9775   24.9089 H         1 VAL         0.0729
    142 H73        58.7003    6.1200   23.1410 H         1 VAL         0.0336
    143 H74        58.5178    3.7679   22.2635 H         1 VAL         0.0234
    144 H75        56.8031    3.7097   22.7954 H         1 VAL         0.0234
    145 H76        58.1165    3.8551   24.0122 H         1 VAL         0.0234
    146 H77        57.2840    7.2401   21.4647 H         1 VAL         0.0234
    147 H78        56.3548    5.7197   21.2379 H         1 VAL         0.0234
    148 H79        58.0937    5.7845   20.7923 H         1 VAL         0.0234
@<TRIPOS>BOND
     1    1    2 1  
     2    2    3 1  
     3    2    5 1  
     4    3    4 2  
     5    3   10 am 
     6    5    6 1  
     7    6    7 1  
     8    7    8 ar 
     9    7    9 ar 
    10   10   11 1  
    11   11   12 1  
    12   11   14 1  
    13   12   13 2  
    14   12   18 am 
    15   14   15 1  
    16   15   16 1  
    17   15   17 1  
    18   18   19 1  
    19   19   20 1  
    20   19   22 1  
    21   20   21 2  
    22   20   23 am 
    23   23   24 1  
    24   24   25 1  
    25   25   26 2  
    26   25   27 am 
    27   27   28 1  
    28   28   29 1  
    29   28   31 1  
    30   29   30 2  
    31   29   35 am 
    32   31   32 1  
    33   31   33 1  
    34   32   34 1  
    35   35   36 1  
    36   36   37 1  
    37   37   38 2  
    38   37   39 am 
    39   39   40 1  
    40   40   41 1  
    41   40   43 1  
    42   41   42 2  
    43   41   47 am 
    44   43   44 1  
    45   43   45 1  
    46   44   46 1  
    47   47   48 1  
    48   48   49 1  
    49   48   51 1  
    50   49   50 2  
    51   49   55 am 
    52   51   52 1  
    53   52   53 1  
    54   52   54 1  
    55   55   56 1  
    56   56   57 1  
    57   56   59 1  
    58   57   58 2  
    59   57   62 am 
    60   59   60 1  
    61   59   61 1  
    62   62   63 1  
    63   63   64 1  
    64   63   66 1  
    65   64   65 ar 
    66   64   69 ar 
    67   66   67 1  
    68   66   68 1  
    69    1   70 1  
    70    1   71 1  
    71    1   72 1  
    72    2   73 1  
    73    5   74 1  
    74    5   75 1  
    75    6   76 1  
    76    6   77 1  
    77   10   78 1  
    78   11   79 1  
    79   14   80 1  
    80   14   81 1  
    81   15   82 1  
    82   16   83 1  
    83   16   84 1  
    84   16   85 1  
    85   17   86 1  
    86   17   87 1  
    87   17   88 1  
    88   18   89 1  
    89   19   90 1  
    90   22   91 1  
    91   22   92 1  
    92   22   93 1  
    93   23   94 1  
    94   24   95 1  
    95   24   96 1  
    96   27   97 1  
    97   28   98 1  
    98   31   99 1  
    99   32  100 1  
   100   32  101 1  
   101   33  102 1  
   102   33  103 1  
   103   33  104 1  
   104   34  105 1  
   105   34  106 1  
   106   34  107 1  
   107   35  108 1  
   108   36  109 1  
   109   36  110 1  
   110   39  111 1  
   111   40  112 1  
   112   43  113 1  
   113   44  114 1  
   114   44  115 1  
   115   45  116 1  
   116   45  117 1  
   117   45  118 1  
   118   46  119 1  
   119   46  120 1  
   120   46  121 1  
   121   47  122 1  
   122   48  123 1  
   123   51  124 1  
   124   51  125 1  
   125   52  126 1  
   126   53  127 1  
   127   53  128 1  
   128   53  129 1  
   129   54  130 1  
   130   54  131 1  
   131   54  132 1  
   132   55  133 1  
   133   56  134 1  
   134   59  135 1  
   135   60  136 1  
   136   61  137 1  
   137   61  138 1  
   138   61  139 1  
   139   62  140 1  
   140   63  141 1  
   141   66  142 1  
   142   67  143 1  
   143   67  144 1  
   144   67  145 1  
   145   68  146 1  
   146   68  147 1  
   147   68  148 1  
@<TRIPOS>SUBSTRUCTURE
     1 GLU         1

