4yfi_ligand
  -I-interpret- 

 32 34  0  0  0  0  0  0  0  0999 V2000
   11.8980   20.1570   10.9060 N   0  0  0  0  0
   11.8150   18.8360   11.4030 C   0  0  0  0  0
   10.5470   17.3730   12.8730 C   0  0  0  0  0
   12.5220   16.5800   11.7680 C   0  0  0  0  0
   11.4430   16.3220   12.6160 C   0  0  0  0  0
   12.8070   20.5950    9.9260 C   0  0  0  0  0
   11.9150   23.9340    8.8790 C   0  0  0  0  0
   13.5020   22.3470    8.4490 C   0  0  0  0  0
   12.7490   17.8130   11.1310 C   0  0  0  0  0
   15.6400   16.3500   12.6720 C   0  0  0  0  0
   15.2320   15.8500   11.3400 N   0  0  0  0  0
   13.6280   15.1960   11.4230 S   0  0  0  0  0
   13.3090   14.7750   10.0650 O   0  0  0  0  0
   13.4620   14.1380   12.4650 O   0  0  0  0  0
   10.7320   18.6120   12.2530 C   0  0  0  0  0
   13.8260   19.8410    9.5320 N   0  0  0  0  0
   14.6670   20.2980    8.5750 C   0  0  0  0  0
   14.5060   21.5500    8.0570 N   0  0  0  0  0
   13.0720   23.6730    8.1090 N   0  0  0  0  0
   11.6310   22.8790    9.6730 N   0  0  0  0  0
   12.5960   21.8650    9.4100 C   0  0  0  0  0
   11.2489   20.8452   11.2874 H   0  0  0  0  0
    9.7095   17.2226   13.5543 H   0  0  0  0  0
   11.3008   15.3383   13.0634 H   0  0  0  0  0
   11.3347   24.8558    8.8376 H   0  0  0  0  0
   13.5977   17.9699   10.4652 H   0  0  0  0  0
   14.9489   17.1292   12.9935 H   0  0  0  0  0
   15.6220   15.5285   13.3882 H   0  0  0  0  0
   16.6485   16.7592   12.6118 H   0  0  0  0  0
   15.8081   15.8849   10.4990 H   0  0  0  0  0
   10.0189   19.4156   12.4366 H   0  0  0  0  0
   15.4769   19.6627    8.2163 H   0  0  0  0  0
  2  1  1  0  0  0
  1  6  1  0  0  0
  9  2  4  0  0  0
  2 15  4  0  0  0
  5  3  4  0  0  0
  3 15  4  0  0  0
  4  5  4  0  0  0
  4  9  4  0  0  0
 12  4  1  0  0  0
  6 16  4  0  0  0
  6 21  4  0  0  0
 19  7  4  0  0  0
  7 20  4  0  0  0
  8 18  4  0  0  0
  8 19  4  0  0  0
 21  8  4  0  0  0
 11 10  1  0  0  0
 11 12  1  0  0  0
 12 13  2  0  0  0
 12 14  2  0  0  0
 16 17  4  0  0  0
 17 18  4  0  0  0
 20 21  4  0  0  0
  1 22  1  0  0  0
  3 23  1  0  0  0
  5 24  1  0  0  0
  7 25  1  0  0  0
  9 26  1  0  0  0
 10 27  1  0  0  0
 10 28  1  0  0  0
 10 29  1  0  0  0
 11 30  1  0  0  0
 15 31  1  0  0  0
 17 32  1  0  0  0
M  END
$$$$
