6gxu_ligand
  -I-interpret- 

 32 33  0  0  0  0  0  0  0  0999 V2000
   45.7870   33.1440   85.2430 C   0  0  0  0  0
   45.5990   34.3980   85.6130 C   0  0  0  0  0
   44.6350   35.3470   85.0460 C   0  0  0  0  0
   43.7530   34.9090   84.0500 C   0  0  0  0  0
   42.8010   35.7610   83.5210 C   0  0  0  0  0
   42.7040   37.0560   83.9730 C   0  0  0  0  0
   43.5640   37.5210   84.9550 C   0  0  0  0  0
   46.7140   31.0010   85.5500 N   0  0  0  0  0
   46.5400   32.1990   86.0940 C   0  0  0  0  0
   44.5340   36.6770   85.4970 C   0  0  0  0  0
   45.2850   37.9090   89.3460 C   0  0  0  0  0
   44.5570   38.0010   90.5180 C   0  0  0  0  0
   43.2310   37.6330   90.5150 C   0  0  0  0  0
   42.6070   37.2110   89.3630 C   0  0  0  0  0
   43.3370   37.1250   88.1920 C   0  0  0  0  0
   44.6820   37.4630   88.1800 C   0  0  0  0  0
   46.9880   32.5070   87.2100 O   0  0  0  0  0
   47.8700   30.2810   85.8320 O   0  0  0  0  0
   45.6710   37.3070   86.7150 S   0  0  0  0  0
   42.3530   37.6050   92.0190 Cl  0  0  0  0  0
   45.3793   32.7998   84.2925 H   0  0  0  0  0
   46.2261   34.7662   86.4249 H   0  0  0  0  0
   43.8179   33.8832   83.6872 H   0  0  0  0  0
   42.1254   35.4050   82.7433 H   0  0  0  0  0
   41.9467   37.7202   83.5567 H   0  0  0  0  0
   43.4824   38.5499   85.3054 H   0  0  0  0  0
   46.0047   30.6110   84.9293 H   0  0  0  0  0
   46.3385   38.1886   89.3388 H   0  0  0  0  0
   45.0277   38.3606   91.4330 H   0  0  0  0  0
   41.5494   36.9476   89.3738 H   0  0  0  0  0
   42.8534   36.7901   87.2744 H   0  0  0  0  0
   47.8448   29.4421   85.3659 H   0  0  0  0  0
  2  1  2  0  0  0
  1  9  1  0  0  0
  3  2  1  0  0  0
  3  4  4  0  0  0
 10  3  4  0  0  0
  4  5  4  0  0  0
  6  5  4  0  0  0
  7  6  4  0  0  0
 10  7  4  0  0  0
  9  8  1  0  0  0
  8 18  1  0  0  0
  9 17  2  0  0  0
 19 10  1  0  0  0
 11 12  4  0  0  0
 16 11  4  0  0  0
 12 13  4  0  0  0
 14 13  4  0  0  0
 13 20  1  0  0  0
 15 14  4  0  0  0
 16 15  4  0  0  0
 16 19  1  0  0  0
  1 21  1  0  0  0
  2 22  1  0  0  0
  4 23  1  0  0  0
  5 24  1  0  0  0
  6 25  1  0  0  0
  7 26  1  0  0  0
  8 27  1  0  0  0
 11 28  1  0  0  0
 12 29  1  0  0  0
 14 30  1  0  0  0
 15 31  1  0  0  0
 18 32  1  0  0  0
M  END
$$$$
