5tya_ligand
  -I-interpret- 

 20 21  0  0  0  0  0  0  0  0999 V2000
   -4.4910    5.7220   13.6180 C   0  0  0  0  0
   -3.2980    5.1990   14.0370 C   0  0  0  0  0
   -5.6180    5.1010   14.0210 C   0  0  0  0  0
   -3.2730    4.0770   14.8460 C   0  0  0  0  0
   -5.6300    3.9940   14.8260 C   0  0  0  0  0
   -4.4270    3.4760   15.2620 C   0  0  0  0  0
   -4.8330    1.0040   15.4670 C   0  0  0  0  0
   -6.4380    1.1140   16.9990 C   0  0  0  0  0
   -4.3750    2.2540   16.1990 C   0  0  0  0  0
   -5.8260    0.4320   16.0490 N   0  0  0  0  0
   -4.2390    0.6010   14.4670 O   0  0  0  0  0
   -7.5670    0.9660   17.4520 O   0  0  0  0  0
   -5.5850    2.5000   17.5840 S   0  0  0  0  0
   -4.5289    6.6069   12.9827 H   0  0  0  0  0
   -2.3629    5.6686   13.7319 H   0  0  0  0  0
   -6.5742    5.5036   13.6866 H   0  0  0  0  0
   -2.3134    3.6644   15.1576 H   0  0  0  0  0
   -6.5722    3.5300   15.1174 H   0  0  0  0  0
   -3.3505    2.1472   16.5555 H   0  0  0  0  0
   -6.1276   -0.5069   15.7884 H   0  0  0  0  0
  1  2  4  0  0  0
  1  3  4  0  0  0
  2  4  4  0  0  0
  3  5  4  0  0  0
  4  6  4  0  0  0
  5  6  4  0  0  0
  6  9  1  0  0  0
  9  7  1  0  0  0
  7 10  1  0  0  0
  7 11  2  0  0  0
 10  8  1  0  0  0
  8 12  2  0  0  0
  8 13  1  0  0  0
  9 13  1  0  0  0
  1 14  1  0  0  0
  2 15  1  0  0  0
  3 16  1  0  0  0
  4 17  1  0  0  0
  5 18  1  0  0  0
  9 19  1  0  0  0
 10 20  1  0  0  0
M  END
$$$$
