### 
### Created by X-TOOL on Fri Nov 18 12:28:26 2016
### 

@<TRIPOS>MOLECULE
1icj_ligand
   66    65     1     0     0
SMALL
GAST_HUCK


@<TRIPOS>ATOM
      1 O1         31.5930   37.8640   77.3400 O.3       1 PGO        -0.3927
      2 C2         32.7220   38.6250   77.8210 C.3       1 PGO         0.0676
      3 C3         33.2650   39.5420   76.6910 C.3       1 PGO         0.0708
      4 O4         34.0800   38.7760   75.7890 O.3       1 PGO        -0.3752
      5 C5         33.4030   38.6190   74.5350 C.3       1 PGO         0.0711
      6 C6         32.9820   37.1340   74.3590 C.3       1 PGO         0.0711
      7 O7         33.1620   36.7270   72.9870 O.3       1 PGO        -0.3752
      8 C8         33.9580   35.5330   72.9470 C.3       1 PGO         0.0711
      9 C9         35.2910   35.8630   72.2860 C.3       1 PGO         0.0711
     10 O10        35.8300   34.6900   71.6800 O.3       1 PGO        -0.3752
     11 C11        36.5270   35.0520   70.4860 C.3       1 PGO         0.0711
     12 C12        37.9410   35.4510   70.8210 C.3       1 PGO         0.0711
     13 O13        37.9120   36.6720   71.5500 O.3       1 PGO        -0.3752
     14 C14        39.2190   37.2430   71.5720 C.3       1 PGO         0.0711
     15 C15        39.1100   38.7760   71.4810 C.3       1 PGO         0.0711
     16 O16        38.3540   39.3020   72.5870 O.3       1 PGO        -0.3752
     17 C17        37.1910   39.9600   72.0860 C.3       1 PGO         0.0711
     18 C18        36.6810   40.9670   73.1200 C.3       1 PGO         0.0711
     19 O19        35.2870   40.7370   73.3840 O.3       1 PGO        -0.3752
     20 C20        34.4980   41.1640   72.2560 C.3       1 PGO         0.0711
     21 C21        34.2290   42.6820   72.3390 C.3       1 PGO         0.0711
     22 O22        33.0790   42.9350   73.1700 O.3       1 PGO        -0.3752
     23 C23        33.4810   43.6300   74.3650 C.3       1 PGO         0.0711
     24 C24        33.2950   45.1460   74.1690 C.3       1 PGO         0.0711
     25 O25        34.1310   45.6080   73.0770 O.3       1 PGO        -0.3752
     26 C26        33.3240   46.2780   72.0700 C.3       1 PGO         0.0708
     27 C27        33.6270   45.7220   70.6550 C.3       1 PGO         0.0676
     28 O28        32.6460   44.7310   70.3040 O.3       1 PGO        -0.3927
     29 H1         31.2680   37.3067   78.0373 H         1 PGO         0.2095
     30 H2         33.5158   37.9350   78.1431 H         1 PGO         0.0580
     31 H3         32.4069   39.2449   78.6733 H         1 PGO         0.0580
     32 H4         33.8691   40.3476   77.1337 H         1 PGO         0.0583
     33 H5         32.4203   39.9786   76.1380 H         1 PGO         0.0583
     34 H6         34.0766   38.9092   73.7153 H         1 PGO         0.0583
     35 H7         32.5083   39.2586   74.5182 H         1 PGO         0.0583
     36 H8         31.9236   37.0206   74.6362 H         1 PGO         0.0583
     37 H9         33.6017   36.5005   75.0106 H         1 PGO         0.0583
     38 H10        33.4368   34.7588   72.3649 H         1 PGO         0.0583
     39 H11        34.1314   35.1681   73.9701 H         1 PGO         0.0583
     40 H12        35.9930   36.2378   73.0454 H         1 PGO         0.0583
     41 H13        35.1369   36.6341   71.5168 H         1 PGO         0.0583
     42 H14        36.0132   35.8976   70.0054 H         1 PGO         0.0583
     43 H15        36.5431   34.1938   69.7981 H         1 PGO         0.0583
     44 H16        38.5162   35.5878   69.8934 H         1 PGO         0.0583
     45 H17        38.4116   34.6667   71.4320 H         1 PGO         0.0583
     46 H18        39.7988   36.8651   70.7170 H         1 PGO         0.0583
     47 H19        39.7245   36.9662   72.5089 H         1 PGO         0.0583
     48 H20        38.6081   39.0465   70.5403 H         1 PGO         0.0583
     49 H21        40.1203   39.2108   71.4958 H         1 PGO         0.0583
     50 H22        36.4076   39.2146   71.8846 H         1 PGO         0.0583
     51 H23        37.4427   40.4883   71.1546 H         1 PGO         0.0583
     52 H24        36.8146   41.9874   72.7315 H         1 PGO         0.0583
     53 H25        37.2522   40.8521   74.0530 H         1 PGO         0.0583
     54 H26        33.5395   40.6244   72.2576 H         1 PGO         0.0583
     55 H27        35.0425   40.9416   71.3264 H         1 PGO         0.0583
     56 H28        34.0414   43.0743   71.3286 H         1 PGO         0.0583
     57 H29        35.1074   43.1844   72.7703 H         1 PGO         0.0583
     58 H30        34.5392   43.4153   74.5748 H         1 PGO         0.0583
     59 H31        32.8636   43.2919   75.2103 H         1 PGO         0.0583
     60 H32        33.5787   45.6710   75.0931 H         1 PGO         0.0583
     61 H33        32.2409   45.3572   73.9361 H         1 PGO         0.0583
     62 H34        33.5469   47.3550   72.0886 H         1 PGO         0.0583
     63 H35        32.2597   46.1198   72.2983 H         1 PGO         0.0583
     64 H36        34.6274   45.2647   70.6482 H         1 PGO         0.0580
     65 H37        33.5944   46.5437   69.9244 H         1 PGO         0.0580
     66 H38        32.6747   44.0212   70.9349 H         1 PGO         0.2095
@<TRIPOS>BOND
     1    1    2 1  
     2    2    3 1  
     3    3    4 1  
     4    4    5 1  
     5    5    6 1  
     6    6    7 1  
     7    7    8 1  
     8    8    9 1  
     9    9   10 1  
    10   10   11 1  
    11   11   12 1  
    12   12   13 1  
    13   13   14 1  
    14   14   15 1  
    15   15   16 1  
    16   16   17 1  
    17   17   18 1  
    18   18   19 1  
    19   19   20 1  
    20   20   21 1  
    21   21   22 1  
    22   22   23 1  
    23   23   24 1  
    24   24   25 1  
    25   25   26 1  
    26   26   27 1  
    27   27   28 1  
    28    1   29 1  
    29    2   30 1  
    30    2   31 1  
    31    3   32 1  
    32    3   33 1  
    33    5   34 1  
    34    5   35 1  
    35    6   36 1  
    36    6   37 1  
    37    8   38 1  
    38    8   39 1  
    39    9   40 1  
    40    9   41 1  
    41   11   42 1  
    42   11   43 1  
    43   12   44 1  
    44   12   45 1  
    45   14   46 1  
    46   14   47 1  
    47   15   48 1  
    48   15   49 1  
    49   17   50 1  
    50   17   51 1  
    51   18   52 1  
    52   18   53 1  
    53   20   54 1  
    54   20   55 1  
    55   21   56 1  
    56   21   57 1  
    57   23   58 1  
    58   23   59 1  
    59   24   60 1  
    60   24   61 1  
    61   26   62 1  
    62   26   63 1  
    63   27   64 1  
    64   27   65 1  
    65   28   66 1  
@<TRIPOS>SUBSTRUCTURE
     1 PGO         1

