1icj_ligand
  -I-interpret- 

 66 65  0  0  0  0  0  0  0  0999 V2000
   31.5930   37.8640   77.3400 O   0  0  0  0  0
   32.7220   38.6250   77.8210 C   0  0  0  0  0
   33.2650   39.5420   76.6910 C   0  0  0  0  0
   34.0800   38.7760   75.7890 O   0  0  0  0  0
   33.4030   38.6190   74.5350 C   0  0  0  0  0
   32.9820   37.1340   74.3590 C   0  0  0  0  0
   33.1620   36.7270   72.9870 O   0  0  0  0  0
   33.9580   35.5330   72.9470 C   0  0  0  0  0
   35.2910   35.8630   72.2860 C   0  0  0  0  0
   35.8300   34.6900   71.6800 O   0  0  0  0  0
   36.5270   35.0520   70.4860 C   0  0  0  0  0
   37.9410   35.4510   70.8210 C   0  0  0  0  0
   37.9120   36.6720   71.5500 O   0  0  0  0  0
   39.2190   37.2430   71.5720 C   0  0  0  0  0
   39.1100   38.7760   71.4810 C   0  0  0  0  0
   38.3540   39.3020   72.5870 O   0  0  0  0  0
   37.1910   39.9600   72.0860 C   0  0  0  0  0
   36.6810   40.9670   73.1200 C   0  0  0  0  0
   35.2870   40.7370   73.3840 O   0  0  0  0  0
   34.4980   41.1640   72.2560 C   0  0  0  0  0
   34.2290   42.6820   72.3390 C   0  0  0  0  0
   33.0790   42.9350   73.1700 O   0  0  0  0  0
   33.4810   43.6300   74.3650 C   0  0  0  0  0
   33.2950   45.1460   74.1690 C   0  0  0  0  0
   34.1310   45.6080   73.0770 O   0  0  0  0  0
   33.3240   46.2780   72.0700 C   0  0  0  0  0
   33.6270   45.7220   70.6550 C   0  0  0  0  0
   32.6460   44.7310   70.3040 O   0  0  0  0  0
   31.2646   37.3008   78.0447 H   0  0  0  0  0
   33.5088   37.9393   78.1355 H   0  0  0  0  0
   32.4064   39.2416   78.6626 H   0  0  0  0  0
   33.8661   40.3376   77.1312 H   0  0  0  0  0
   32.4267   39.9710   76.1420 H   0  0  0  0  0
   34.0699   38.9072   73.7225 H   0  0  0  0  0
   32.5168   39.2533   74.5176 H   0  0  0  0  0
   31.9317   37.0255   74.6294 H   0  0  0  0  0
   33.6009   36.5081   75.0019 H   0  0  0  0  0
   33.4415   34.7602   72.3778 H   0  0  0  0  0
   34.1256   35.1632   73.9586 H   0  0  0  0  0
   35.9864   36.2327   73.0396 H   0  0  0  0  0
   35.1370   36.6259   71.5229 H   0  0  0  0  0
   36.0183   35.8917   70.0124 H   0  0  0  0  0
   36.5445   34.1998   69.8066 H   0  0  0  0  0
   38.5151   35.5819   69.9037 H   0  0  0  0  0
   38.4119   34.6730   71.4219 H   0  0  0  0  0
   39.7938   36.8684   70.7250 H   0  0  0  0  0
   39.7201   36.9686   72.5003 H   0  0  0  0  0
   38.6022   39.0374   70.5526 H   0  0  0  0  0
   40.1132   39.2015   71.5073 H   0  0  0  0  0
   36.4147   39.2207   71.8888 H   0  0  0  0  0
   37.4421   40.4849   71.1643 H   0  0  0  0  0
   36.8105   41.9770   72.7312 H   0  0  0  0  0
   37.2455   40.8484   74.0449 H   0  0  0  0  0
   33.5468   40.6318   72.2635 H   0  0  0  0  0
   35.0424   40.9474   71.3369 H   0  0  0  0  0
   34.0390   43.0675   71.3373 H   0  0  0  0  0
   35.0989   43.1769   72.7708 H   0  0  0  0  0
   34.5300   43.4178   74.5716 H   0  0  0  0  0
   32.8680   43.2953   75.2019 H   0  0  0  0  0
   33.5795   45.6648   75.0844 H   0  0  0  0  0
   32.2507   45.3532   73.9353 H   0  0  0  0  0
   33.5587   47.3423   72.0851 H   0  0  0  0  0
   32.2713   46.1069   72.2949 H   0  0  0  0  0
   34.6178   45.2677   70.6496 H   0  0  0  0  0
   33.5929   46.5366   69.9315 H   0  0  0  0  0
   32.8373   44.3894   69.4274 H   0  0  0  0  0
  1  2  1  0  0  0
  2  3  1  0  0  0
  3  4  1  0  0  0
  4  5  1  0  0  0
  5  6  1  0  0  0
  6  7  1  0  0  0
  7  8  1  0  0  0
  8  9  1  0  0  0
  9 10  1  0  0  0
 10 11  1  0  0  0
 11 12  1  0  0  0
 12 13  1  0  0  0
 13 14  1  0  0  0
 14 15  1  0  0  0
 15 16  1  0  0  0
 16 17  1  0  0  0
 17 18  1  0  0  0
 18 19  1  0  0  0
 19 20  1  0  0  0
 20 21  1  0  0  0
 21 22  1  0  0  0
 22 23  1  0  0  0
 23 24  1  0  0  0
 24 25  1  0  0  0
 25 26  1  0  0  0
 26 27  1  0  0  0
 27 28  1  0  0  0
  1 29  1  0  0  0
  2 30  1  0  0  0
  2 31  1  0  0  0
  3 32  1  0  0  0
  3 33  1  0  0  0
  5 34  1  0  0  0
  5 35  1  0  0  0
  6 36  1  0  0  0
  6 37  1  0  0  0
  8 38  1  0  0  0
  8 39  1  0  0  0
  9 40  1  0  0  0
  9 41  1  0  0  0
 11 42  1  0  0  0
 11 43  1  0  0  0
 12 44  1  0  0  0
 12 45  1  0  0  0
 14 46  1  0  0  0
 14 47  1  0  0  0
 15 48  1  0  0  0
 15 49  1  0  0  0
 17 50  1  0  0  0
 17 51  1  0  0  0
 18 52  1  0  0  0
 18 53  1  0  0  0
 20 54  1  0  0  0
 20 55  1  0  0  0
 21 56  1  0  0  0
 21 57  1  0  0  0
 23 58  1  0  0  0
 23 59  1  0  0  0
 24 60  1  0  0  0
 24 61  1  0  0  0
 26 62  1  0  0  0
 26 63  1  0  0  0
 27 64  1  0  0  0
 27 65  1  0  0  0
 28 66  1  0  0  0
M  END
$$$$
