4u0n_ligand
  -I-interpret- 

 76 78  0  0  0  0  0  0  0  0999 V2000
  175.3970 -105.4160   35.0740 O   0  0  0  0  0
  175.4620 -104.1800   35.2690 C   0  0  0  0  0
  176.4100 -103.7200   35.9660 O   0  0  0  0  0
  174.3910 -103.2950   34.6980 C   0  0  0  0  0
  174.4170 -101.9300   35.3810 C   0  0  0  0  0
  175.6710 -101.1210   35.0100 C   0  0  0  0  0
  175.2990 -100.1710   33.8640 C   0  0  0  0  0
  174.4330 -100.4890   33.0820 O   0  0  0  0  0
  173.2000 -104.0710   34.9240 N   0  0  0  0  0
  172.0020 -103.6130   35.6070 C   0  0  0  0  0
  171.8670 -102.5070   36.0920 O   0  0  0  0  0
  170.8300 -104.5690   35.8220 C   0  0  0  0  0
  169.8200 -104.0790   36.8250 C   0  0  0  0  0
  168.7460 -104.8170   37.1400 C   0  0  0  0  0
  168.5450 -106.1640   36.4830 C   0  0  0  0  0
  169.4560 -106.6370   35.5950 C   0  0  0  0  0
  170.6840 -105.7820   35.2400 C   0  0  0  0  0
  167.3830 -106.8780   36.9110 N   0  0  0  0  0
  167.1030 -106.7090   38.3110 C   0  0  0  0  0
  166.1330 -107.6810   38.9470 C   0  0  0  0  0
  164.7640 -107.6030   38.4840 N   0  0  0  0  0
  166.1770 -107.3270   40.4070 C   0  0  0  0  0
  165.0040 -107.6370   41.1530 N   0  0  0  0  0
  163.9310 -108.3500   40.5710 C   0  0  0  0  0
  163.7860 -108.3470   39.2610 C   0  0  0  0  0
  163.0160 -109.0330   41.3160 N   0  0  0  0  0
  161.9140 -109.7680   40.9580 C   0  0  0  0  0
  161.1070 -110.4120   41.9570 N   0  0  0  0  0
  161.6420 -109.8660   39.6490 N   0  0  0  0  0
  162.5610 -109.1530   38.6730 C   0  0  0  0  0
  162.3100 -109.2300   37.2930 O   0  0  0  0  0
  175.9910  -98.9120   33.7470 N   0  0  0  0  0
  175.6570  -97.9920   32.7110 C   0  0  0  0  0
  176.9050  -97.6200   31.9450 C   0  0  0  0  0
  177.3590  -98.4200   31.0760 O   0  0  0  0  0
  177.5110  -96.5360   32.1500 O   0  0  0  0  0
  174.9610  -96.7930   33.3780 C   0  0  0  0  0
  174.2590  -97.2160   34.6970 C   0  0  0  0  0
  173.0470  -96.3150   34.9970 C   0  0  0  0  0
  171.8830  -96.7310   34.7690 O   0  0  0  0  0
  173.1990  -95.1570   35.4820 O   0  0  0  0  0
  164.3160 -106.8320   37.3550 C   0  0  0  0  0
  176.3272 -102.7655   36.0267 H   0  0  0  0  0
  174.4954 -103.0440   33.6425 H   0  0  0  0  0
  174.4221 -102.0895   36.4593 H   0  0  0  0  0
  173.5416 -101.3693   35.0534 H   0  0  0  0  0
  176.4733 -101.7903   34.6995 H   0  0  0  0  0
  176.0219 -100.5531   35.8717 H   0  0  0  0  0
  173.1966 -105.0287   34.5731 H   0  0  0  0  0
  169.9641 -103.1097   37.3023 H   0  0  0  0  0
  168.0215 -104.4480   37.8659 H   0  0  0  0  0
  169.3182 -107.6163   35.1366 H   0  0  0  0  0
  171.4259 -106.1476   34.5300 H   0  0  0  0  0
  166.8116 -107.4484   36.2877 H   0  0  0  0  0
  166.6393 -105.7268   38.4027 H   0  0  0  0  0
  168.0531 -106.8629   38.8226 H   0  0  0  0  0
  166.4338 -108.6978   38.6946 H   0  0  0  0  0
  166.2990 -106.2451   40.4589 H   0  0  0  0  0
  166.9846 -107.9149   40.8431 H   0  0  0  0  0
  164.9368 -107.3388   42.1261 H   0  0  0  0  0
  163.1804 -108.9898   42.3217 H   0  0  0  0  0
  161.3511 -110.3253   42.9435 H   0  0  0  0  0
  160.8410 -110.4039   39.3183 H   0  0  0  0  0
  162.8158 -108.7291   37.7017 H   0  0  0  0  0
  161.5255 -109.7619   37.1408 H   0  0  0  0  0
  176.7274  -98.6771   34.4126 H   0  0  0  0  0
  174.9739  -98.4190   31.9768 H   0  0  0  0  0
  176.7959  -99.1962   31.0321 H   0  0  0  0  0
  174.2090  -96.4013   32.6931 H   0  0  0  0  0
  175.7126  -96.0384   33.6097 H   0  0  0  0  0
  174.9724  -97.1232   35.5159 H   0  0  0  0  0
  173.9108  -98.2435   34.5916 H   0  0  0  0  0
  174.1353  -94.9811   35.5999 H   0  0  0  0  0
  164.5445 -105.7794   37.5218 H   0  0  0  0  0
  164.8255 -107.1776   36.4555 H   0  0  0  0  0
  163.2398 -106.9570   37.2353 H   0  0  0  0  0
  1  2  2  0  0  0
  2  3  1  0  0  0
  2  4  1  0  0  0
  4  5  1  0  0  0
  4  9  1  0  0  0
  5  6  1  0  0  0
  6  7  1  0  0  0
  7  8  2  0  0  0
  7 32  1  0  0  0
  9 10  1  0  0  0
 10 11  2  0  0  0
 10 12  1  0  0  0
 12 13  4  0  0  0
 12 17  4  0  0  0
 13 14  4  0  0  0
 14 15  4  0  0  0
 15 16  4  0  0  0
 15 18  1  0  0  0
 16 17  4  0  0  0
 18 19  1  0  0  0
 19 20  1  0  0  0
 20 21  1  0  0  0
 20 22  1  0  0  0
 21 25  1  0  0  0
 21 42  1  0  0  0
 22 23  1  0  0  0
 23 24  1  0  0  0
 24 25  2  0  0  0
 24 26  1  0  0  0
 25 30  1  0  0  0
 26 27  1  0  0  0
 27 28  2  0  0  0
 27 29  1  0  0  0
 29 30  1  0  0  0
 30 31  1  0  0  0
 32 33  1  0  0  0
 33 34  1  0  0  0
 33 37  1  0  0  0
 34 35  1  0  0  0
 34 36  2  0  0  0
 37 38  1  0  0  0
 38 39  1  0  0  0
 39 40  2  0  0  0
 39 41  1  0  0  0
  3 43  1  0  0  0
  4 44  1  0  0  0
  5 45  1  0  0  0
  5 46  1  0  0  0
  6 47  1  0  0  0
  6 48  1  0  0  0
  9 49  1  0  0  0
 13 50  1  0  0  0
 14 51  1  0  0  0
 16 52  1  0  0  0
 17 53  1  0  0  0
 18 54  1  0  0  0
 19 55  1  0  0  0
 19 56  1  0  0  0
 20 57  1  0  0  0
 22 58  1  0  0  0
 22 59  1  0  0  0
 23 60  1  0  0  0
 26 61  1  0  0  0
 28 62  1  0  0  0
 29 63  1  0  0  0
 30 64  1  0  0  0
 31 65  1  0  0  0
 32 66  1  0  0  0
 33 67  1  0  0  0
 35 68  1  0  0  0
 37 69  1  0  0  0
 37 70  1  0  0  0
 38 71  1  0  0  0
 38 72  1  0  0  0
 41 73  1  0  0  0
 42 74  1  0  0  0
 42 75  1  0  0  0
 42 76  1  0  0  0
M  END
$$$$
