6ds0_ligand
  -I-interpret- 

 49 52  0  0  0  0  0  0  0  0999 V2000
   16.4200   24.1540   11.2300 C   0  0  0  0  0
   19.3880   23.3400   13.4390 C   0  0  0  0  0
   24.4410   12.1310    7.8540 C   0  0  0  0  0
   17.9090   20.5100    9.6010 C   0  0  0  0  0
   17.4630   21.8410    9.7260 C   0  0  0  0  0
   23.7280   13.3650    9.9740 C   0  0  0  0  0
   23.0590   14.4900   10.5780 C   0  0  0  0  0
   23.1390   14.3000    7.7520 C   0  0  0  0  0
   20.9610   18.6540    6.6380 C   0  0  0  0  0
   21.4030   17.1700    6.5520 C   0  0  0  0  0
   19.5200   18.6020   10.1580 C   0  0  0  0  0
   23.7630   13.2760    8.5290 C   0  0  0  0  0
   19.0320   20.0730   10.3140 C   0  0  0  0  0
   19.7180   20.9730   11.1520 C   0  0  0  0  0
   18.1420   22.7320   10.5630 C   0  0  0  0  0
   21.7360   16.6380    7.8920 C   0  0  0  0  0
   19.2690   22.3030   11.2760 C   0  0  0  0  0
   21.3440   17.3070    9.0770 C   0  0  0  0  0
   22.4790   15.4400    9.7850 C   0  0  0  0  0
   22.5080   15.3620    8.3860 C   0  0  0  0  0
   20.5890   18.5830    9.0790 C   0  0  0  0  0
   19.9770   18.7950    7.7660 N   0  3  0  0  0
   21.8140   16.5550   10.0260 N   0  0  0  0  0
   17.6980   24.0400   10.6790 O   0  0  0  0  0
   19.9580   23.2130   12.1250 O   0  0  0  0  0
   21.1100   20.4470   12.0360 Cl  0  0  0  0  0
   15.7056   23.6235   10.6004 H   0  0  0  0  0
   16.4169   23.7204   12.2301 H   0  0  0  0  0
   16.1434   25.2067   11.2881 H   0  0  0  0  0
   18.3608   23.6948   13.3553 H   0  0  0  0  0
   19.3991   22.3689   13.9339 H   0  0  0  0  0
   19.9735   24.0522   14.0204 H   0  0  0  0  0
   25.4930   12.1141    8.1389 H   0  0  0  0  0
   23.9658   11.1984    8.1583 H   0  0  0  0  0
   24.3577   12.2469    6.7734 H   0  0  0  0  0
   17.3779   19.8184    8.9470 H   0  0  0  0  0
   16.5877   22.1763    9.1696 H   0  0  0  0  0
   24.1970   12.5986   10.5910 H   0  0  0  0  0
   23.0159   14.5826   11.6632 H   0  0  0  0  0
   23.1583   14.2476    6.6634 H   0  0  0  0  0
   20.4972   18.9587    5.6998 H   0  0  0  0  0
   21.8275   19.2901    6.8188 H   0  0  0  0  0
   22.2884   17.1047    5.9197 H   0  0  0  0  0
   20.5829   16.5841    6.1368 H   0  0  0  0  0
   18.6889   17.9537    9.8804 H   0  0  0  0  0
   19.9255   18.2346   11.1007 H   0  0  0  0  0
   21.2908   19.3888    9.2942 H   0  0  0  0  0
   19.2527   18.0880    7.6401 H   0  0  0  0  0
   19.6074   19.7454    7.7424 H   0  0  0  0  0
 24  1  1  0  0  0
 25  2  1  0  0  0
 12  3  1  0  0  0
  4  5  4  0  0  0
 13  4  4  0  0  0
  5 15  4  0  0  0
  6  7  4  0  0  0
 12  6  4  0  0  0
  7 19  4  0  0  0
  8 12  4  0  0  0
 20  8  4  0  0  0
 10  9  1  0  0  0
  9 22  1  0  0  0
 16 10  1  0  0  0
 11 13  1  0  0  0
 21 11  1  0  0  0
 13 14  4  0  0  0
 14 17  4  0  0  0
 14 26  1  0  0  0
 17 15  4  0  0  0
 15 24  1  0  0  0
 18 16  4  0  0  0
 16 20  4  0  0  0
 17 25  1  0  0  0
 18 21  1  0  0  0
 18 23  4  0  0  0
 19 20  4  0  0  0
 19 23  4  0  0  0
 21 22  1  0  0  0
  1 27  1  0  0  0
  1 28  1  0  0  0
  1 29  1  0  0  0
  2 30  1  0  0  0
  2 31  1  0  0  0
  2 32  1  0  0  0
  3 33  1  0  0  0
  3 34  1  0  0  0
  3 35  1  0  0  0
  4 36  1  0  0  0
  5 37  1  0  0  0
  6 38  1  0  0  0
  7 39  1  0  0  0
  8 40  1  0  0  0
  9 41  1  0  0  0
  9 42  1  0  0  0
 10 43  1  0  0  0
 10 44  1  0  0  0
 11 45  1  0  0  0
 11 46  1  0  0  0
 21 47  1  0  0  0
 22 48  1  0  0  0
 22 49  1  0  0  0
M  END
$$$$
