5ddb_ligand
  -I-interpret- 

 41 44  0  0  0  0  0  0  0  0999 V2000
   10.9450    7.5470  -12.3190 C   0  0  0  0  0
   10.8170    8.8580  -12.0050 C   0  0  0  0  0
   11.9100    9.5160  -11.5030 C   0  0  0  0  0
   13.0510    8.8540  -11.3020 N   0  0  0  0  0
   12.0850    6.9210  -12.1380 N   0  0  0  0  0
    5.1130    7.9790  -12.2780 F   0  0  0  0  0
    6.3660    7.8370  -12.0200 C   0  0  0  0  0
    6.5840    6.6070  -11.8780 F   0  0  0  0  0
    6.5880    8.3780  -10.9570 F   0  0  0  0  0
    7.2570    8.4520  -13.1270 C   0  0  0  0  0
    8.7440    8.2900  -12.7680 C   0  0  0  0  0
    9.5700    6.8800  -12.9590 S   0  0  0  0  0
    9.5480    9.2570  -12.2720 C   0  0  0  0  0
   13.2080    7.5390  -11.6530 C   0  0  0  0  0
   11.9980   10.8320  -11.1640 N   0  0  0  0  0
   11.0230   11.8070  -11.7160 C   0  0  0  0  0
   11.7170   13.0560  -12.2880 C   0  0  0  0  0
   13.0760   11.3250  -10.2750 C   0  0  0  0  0
   12.9950   12.8490  -10.0870 C   0  0  0  0  0
   12.7760   13.5520  -11.3770 N   0  0  0  0  0
   13.5640   14.5850  -11.7030 C   0  0  0  0  0
   13.6370   15.3290  -13.1610 S   0  0  0  0  0
   14.4300   15.1570  -10.8610 N   0  0  0  0  0
   15.1040   16.1550  -11.4110 N   0  0  0  0  0
   14.7710   16.3700  -12.6860 C   0  0  0  0  0
   15.3790   17.4440  -13.5740 C   0  0  0  0  0
   14.4700   18.4520  -13.7790 F   0  0  0  0  0
   15.7470   16.8770  -14.7940 F   0  0  0  0  0
    7.0272    9.5135  -13.2196 H   0  0  0  0  0
    7.0604    7.9383  -14.0680 H   0  0  0  0  0
    9.2039   10.2769  -12.1001 H   0  0  0  0  0
   14.1611    7.0197  -11.5533 H   0  0  0  0  0
   10.3633   12.1237  -10.9082 H   0  0  0  0  0
   10.4757   11.3213  -12.5239 H   0  0  0  0  0
   10.9706   13.8409  -12.4106 H   0  0  0  0  0
   12.1762   12.7910  -13.2404 H   0  0  0  0  0
   14.0369   11.0828  -10.7289 H   0  0  0  0  0
   12.9655   10.8496   -9.3004 H   0  0  0  0  0
   13.9391   13.1932   -9.6648 H   0  0  0  0  0
   12.1542   13.0692   -9.4293 H   0  0  0  0  0
   16.2606   17.8621  -13.0881 H   0  0  0  0  0
  1  2  4  0  0  0
  1  5  4  0  0  0
 12  1  4  0  0  0
  2  3  4  0  0  0
  2 13  4  0  0  0
  3  4  4  0  0  0
  3 15  1  0  0  0
 14  4  4  0  0  0
  5 14  4  0  0  0
  7  6  1  0  0  0
  7  8  1  0  0  0
  7  9  1  0  0  0
 10  7  1  0  0  0
 11 10  1  0  0  0
 11 12  4  0  0  0
 11 13  4  0  0  0
 15 16  1  0  0  0
 15 18  1  0  0  0
 16 17  1  0  0  0
 17 20  1  0  0  0
 18 19  1  0  0  0
 19 20  1  0  0  0
 20 21  1  0  0  0
 21 22  4  0  0  0
 21 23  4  0  0  0
 22 25  4  0  0  0
 23 24  4  0  0  0
 24 25  4  0  0  0
 25 26  1  0  0  0
 26 27  1  0  0  0
 26 28  1  0  0  0
 10 29  1  0  0  0
 10 30  1  0  0  0
 13 31  1  0  0  0
 14 32  1  0  0  0
 16 33  1  0  0  0
 16 34  1  0  0  0
 17 35  1  0  0  0
 17 36  1  0  0  0
 18 37  1  0  0  0
 18 38  1  0  0  0
 19 39  1  0  0  0
 19 40  1  0  0  0
 26 41  1  0  0  0
M  END
$$$$
