### 
### Created by X-TOOL on Mon Sep 10 21:12:53 2018
### 

@<TRIPOS>MOLECULE
1y19_ligand
  179   184     1     0     0
SMALL
GAST_HUCK


@<TRIPOS>ATOM
      1 N          17.0320   33.3440   21.1770 N.4       1 SER         0.2396
      2 CA         15.5720   33.5720   21.3570 C.3       1 SER         0.0885
      3 C          14.7750   32.2620   21.3190 C.2       1 SER         0.2291
      4 O          15.3030   31.1890   21.6110 O.2       1 SER        -0.3906
      5 CB         15.0570   34.5300   20.2790 C.3       1 SER         0.1041
      6 OG         13.7160   34.9200   20.5280 O.3       1 SER        -0.3870
      7 N          13.5050   32.3600   20.9430 N.am      1 TRP        -0.2599
      8 CA         12.6060   31.2120   20.8960 C.3       1 TRP         0.1353
      9 C          13.0760   29.9450   20.1830 C.2       1 TRP         0.2052
     10 O          13.7070   29.9940   19.1290 O.2       1 TRP        -0.3942
     11 CB         11.2630   31.6310   20.2920 C.3       1 TRP         0.0042
     12 CG         10.4820   32.5780   21.1380 C.2       1 TRP        -0.0418
     13 CD1        10.0900   33.8370   20.8030 C.2       1 TRP         0.0167
     14 CD2         9.9770   32.3360   22.4580 C.ar      1 TRP        -0.0214
     15 NE1         9.3710   34.4000   21.8300 N.pl3     1 TRP        -0.2890
     16 CE2         9.2880   33.5010   22.8600 C.ar      1 TRP         0.0603
     17 CE3        10.0440   31.2490   23.3410 C.ar      1 TRP        -0.0747
     18 CZ2         8.6620   33.6100   24.1100 C.ar      1 TRP        -0.0443
     19 CZ3         9.4220   31.3580   24.5830 C.ar      1 TRP        -0.0792
     20 CH2         8.7430   32.5320   24.9550 C.ar      1 TRP        -0.0768
     21 N          12.7350   28.8080   20.7800 N.am      1 VAL        -0.2634
     22 CA         13.0510   27.4950   20.2380 C.3       1 VAL         0.1333
     23 C          11.7420   26.7220   20.3270 C.2       1 VAL         0.2043
     24 O          11.1990   26.5310   21.4130 O.2       1 VAL        -0.3944
     25 CB         14.1300   26.7780   21.0660 C.3       1 VAL        -0.0063
     26 CG1        14.4100   25.3960   20.4760 C.3       1 VAL        -0.0584
     27 CG2        15.3940   27.6180   21.0920 C.3       1 VAL        -0.0584
     28 N          11.2330   26.2880   19.1820 N.am      1 TYR        -0.2621
     29 CA          9.9610   25.5830   19.1400 C.3       1 TYR         0.1390
     30 C          10.0150   24.0860   19.3430 C.2       1 TYR         0.2058
     31 O          10.9500   23.4160   18.9180 O.2       1 TYR        -0.3942
     32 CB          9.2440   25.8960   17.8270 C.3       1 TYR         0.0163
     33 CG          8.8970   27.3570   17.6940 C.ar      1 TYR        -0.0493
     34 CD1         9.8980   28.3250   17.5770 C.ar      1 TYR        -0.0685
     35 CD2         7.5700   27.7820   17.7380 C.ar      1 TYR        -0.0685
     36 CE1         9.5870   29.6780   17.5100 C.ar      1 TYR        -0.0398
     37 CE2         7.2460   29.1360   17.6730 C.ar      1 TYR        -0.0398
     38 CZ          8.2580   30.0760   17.5600 C.ar      1 TYR         0.0805
     39 OH          7.9370   31.4120   17.5010 O.3       1 TYR        -0.3376
     40 N           8.9940   23.5740   20.0160 N.am      1 SER        -0.2614
     41 CA          8.8840   22.1500   20.2770 C.3       1 SER         0.1541
     42 C           8.2700   21.4870   19.0580 C.2       1 SER         0.2087
     43 O           7.2490   21.9430   18.5470 O.2       1 SER        -0.3941
     44 CB          7.9840   21.8860   21.4860 C.3       1 SER         0.0843
     45 OG          7.6720   20.5060   21.5830 O.3       1 SER        -0.3903
     46 N           8.8970   20.4140   18.5640 N.am      1 PRO        -0.2498
     47 CA          8.3940   19.6910   17.3960 C.3       1 PRO         0.1338
     48 C           6.9790   19.1560   17.6240 C.2       1 PRO         0.2041
     49 O           6.1930   19.0370   16.6850 O.2       1 PRO        -0.3944
     50 CB          9.4210   18.5810   17.2270 C.3       1 PRO        -0.0104
     51 CG         10.6870   19.2680   17.6380 C.3       1 PRO        -0.0281
     52 CD         10.2580   19.9670   18.9040 C.3       1 PRO         0.0369
     53 N           6.6710   18.8410   18.8800 N.am      1 LEU        -0.2637
     54 CA          5.3620   18.3190   19.2590 C.3       1 LEU         0.1312
     55 C           4.2090   19.2470   18.8950 C.2       1 LEU         0.2040
     56 O           3.0590   18.8170   18.8480 O.2       1 LEU        -0.3944
     57 CB          5.3250   18.0180   20.7610 C.3       1 LEU        -0.0101
     58 CG          5.7080   16.6040   21.2200 C.3       1 LEU        -0.0425
     59 CD1         7.0150   16.1600   20.5780 C.3       1 LEU        -0.0625
     60 CD2         5.8300   16.5890   22.7280 C.3       1 LEU        -0.0625
     61 N           4.5070   20.5160   18.6400 N.am      1 HIS        -0.2619
     62 CA          3.4650   21.4600   18.2680 C.3       1 HIS         0.1421
     63 C           3.4780   21.8650   16.7950 C.2       1 HIS         0.2061
     64 O           2.7470   22.7680   16.3900 O.2       1 HIS        -0.3942
     65 CB          3.5150   22.7050   19.1590 C.3       1 HIS         0.0427
     66 CG          2.8190   22.5290   20.4740 C.2       1 HIS         0.0561
     67 ND1         2.1700   23.5620   21.1160 N.pl3     1 HIS        -0.2623
     68 CD2         2.6660   21.4400   21.2660 C.2       1 HIS        -0.0276
     69 CE1         1.6460   23.1170   22.2440 C.2       1 HIS         0.0875
     70 NE2         1.9330   21.8330   22.3600 N.2       1 HIS        -0.3437
     71 N           4.3180   21.2070   16.0000 N.am      1 TYR        -0.2620
     72 CA          4.3750   21.4590   14.5630 C.3       1 TYR         0.1390
     73 C           3.1010   20.8240   13.9980 C.2       1 TYR         0.2058
     74 O           2.5320   19.9260   14.6220 O.2       1 TYR        -0.3942
     75 CB          5.6130   20.7880   13.9440 C.3       1 TYR         0.0163
     76 CG          6.9200   21.5270   14.1710 C.ar      1 TYR        -0.0493
     77 CD1         8.1470   20.9200   13.8940 C.ar      1 TYR        -0.0685
     78 CD2         6.9290   22.8430   14.6290 C.ar      1 TYR        -0.0685
     79 CE1         9.3460   21.6100   14.0670 C.ar      1 TYR        -0.0398
     80 CE2         8.1180   23.5420   14.8040 C.ar      1 TYR        -0.0398
     81 CZ          9.3240   22.9260   14.5220 C.ar      1 TYR         0.0805
     82 OH         10.5000   23.6350   14.6850 O.3       1 TYR        -0.3376
     83 N           2.6440   21.2870   12.8390 N.am      1 SER        -0.2614
     84 CA          1.4420   20.7250   12.2420 C.3       1 SER         0.1539
     85 C           1.6810   19.2370   12.0700 C.2       1 SER         0.2063
     86 O           2.8250   18.8060   11.9190 O.2       1 SER        -0.3943
     87 CB          1.1710   21.3590   10.8830 C.3       1 SER         0.0843
     88 OG          2.1940   21.0170    9.9660 O.3       1 SER        -0.3903
     89 N           0.6070   18.4540   12.0920 N.am      1 ALA        -0.2626
     90 CA          0.7130   17.0010   11.9490 C.3       1 ALA         0.1392
     91 C           1.4830   16.5740   10.7020 C.2       1 ALA         0.2568
     92 O           2.3120   15.6660   10.7540 O.2       1 ALA        -0.3680
     93 CB         -0.6670   16.3790   11.9420 C.3       1 ALA        -0.0230
     94 O1          1.2552   17.1905    9.5458 O.3       1 ALA        -0.2910
     95 H1         17.5164   34.2274   21.2084 H         1 SER         0.2016
     96 H2         17.1958   32.9025   20.2858 H         1 SER         0.2016
     97 H3         17.3725   32.7478   21.9150 H         1 SER         0.2016
     98 H4         15.4173   34.0377   22.3415 H         1 SER         0.1122
     99 H5         15.1077   34.0285   19.3013 H         1 SER         0.0640
    100 H6         15.6933   35.4271   20.2644 H         1 SER         0.0640
    101 H7         13.6659   35.3582   21.3694 H         1 SER         0.2099
    102 H8         13.1504   33.2577   20.6813 H         1 TRP         0.1886
    103 H9         12.4306   30.9254   21.9434 H         1 TRP         0.0815
    104 H10        10.6569   30.7262   20.1373 H         1 TRP         0.0397
    105 H11        11.4561   32.1133   19.3224 H         1 TRP         0.0397
    106 H12        10.3138   34.3280   19.8571 H         1 TRP         0.0795
    107 H13         8.9610   35.3449   21.8258 H         1 TRP         0.2216
    108 H14        10.5690   30.3423   23.0631 H         1 TRP         0.0540
    109 H15         8.1340   34.5119   24.3979 H         1 TRP         0.0541
    110 H16         9.4621   30.5239   25.2741 H         1 TRP         0.0510
    111 H17         8.2734   32.5865   25.9305 H         1 TRP         0.0530
    112 H18        12.2361   28.8570   21.6453 H         1 VAL         0.1883
    113 H19        13.3868   27.5805   19.1940 H         1 VAL         0.0802
    114 H20        13.7656   26.6543   22.0965 H         1 VAL         0.0343
    115 H21        15.1826   24.8914   21.0748 H         1 VAL         0.0234
    116 H22        14.7620   25.5042   19.4395 H         1 VAL         0.0234
    117 H23        13.4870   24.7978   20.4892 H         1 VAL         0.0234
    118 H24        15.1688   28.6061   21.5196 H         1 VAL         0.0234
    119 H25        15.7743   27.7401   20.0671 H         1 VAL         0.0234
    120 H26        16.1549   27.1166   21.7082 H         1 VAL         0.0234
    121 H27        11.7331   26.4484   18.3310 H         1 TYR         0.1885
    122 H28         9.3521   25.9880   19.9618 H         1 TYR         0.0821
    123 H29         8.3158   25.3074   17.7826 H         1 TYR         0.0453
    124 H30         9.8991   25.6113   16.9905 H         1 TYR         0.0453
    125 H31        10.9360   28.0150   17.5378 H         1 TYR         0.0530
    126 H32         6.7774   27.0475   17.8242 H         1 TYR         0.0530
    127 H33        10.3756   30.4162   17.4195 H         1 TYR         0.0525
    128 H34         6.2096   29.4516   17.7106 H         1 TYR         0.0525
    129 H35         8.7332   31.9248   17.4253 H         1 TYR         0.2458
    130 H36         8.2790   24.1862   20.3536 H         1 SER         0.1884
    131 H37         9.8839   21.7329   20.4670 H         1 SER         0.0823
    132 H38         7.0525   22.4605   21.3758 H         1 SER         0.0606
    133 H39         8.5050   22.2042   22.4011 H         1 SER         0.0606
    134 H40         7.1136   20.3610   22.3378 H         1 SER         0.2097
    135 H41         8.3845   20.3438   16.5107 H         1 PRO         0.0802
    136 H42         9.4722   18.2386   16.1829 H         1 PRO         0.0313
    137 H43         9.1983   17.7264   17.8827 H         1 PRO         0.0313
    138 H44        11.4914   18.5434   17.8328 H         1 PRO         0.0287
    139 H45        11.0186   19.9877   16.8751 H         1 PRO         0.0287
    140 H46        10.2490   19.2747   19.7588 H         1 PRO         0.0524
    141 H47        10.9137   20.8207   19.1304 H         1 PRO         0.0524
    142 H48         7.3629   18.9668   19.5910 H         1 LEU         0.1883
    143 H49         5.2131   17.3747   18.7149 H         1 LEU         0.0800
    144 H50         4.2987   18.2082   21.1080 H         1 LEU         0.0315
    145 H51         6.0144   18.7200   21.2528 H         1 LEU         0.0315
    146 H52         4.9138   15.9051   20.9188 H         1 LEU         0.0298
    147 H53         7.2667   15.1461   20.9223 H         1 LEU         0.0232
    148 H54         7.8186   16.8544   20.8642 H         1 LEU         0.0232
    149 H55         6.9041   16.1586   19.4836 H         1 LEU         0.0232
    150 H56         4.8787   16.9119   23.1760 H         1 LEU         0.0232
    151 H57         6.6325   17.2746   23.0378 H         1 LEU         0.0232
    152 H58         6.0674   15.5697   23.0666 H         1 LEU         0.0232
    153 H59         5.4559   20.8250   18.7043 H         1 HIS         0.1885
    154 H60         2.5033   20.9587   18.4522 H         1 HIS         0.0824
    155 H61         3.0372   23.5371   18.6212 H         1 HIS         0.0491
    156 H62         4.5692   22.9514   19.3537 H         1 HIS         0.0491
    157 H63         2.1040   24.5299   20.7701 H         1 HIS         0.2386
    158 H64         3.0518   20.4403   21.0718 H         1 HIS         0.0324
    159 H65         1.0742   23.7086   22.9574 H         1 HIS         0.1149
    160 H66         4.9271   20.5209   16.3978 H         1 TYR         0.1885
    161 H67         4.3973   22.5396   14.3586 H         1 TYR         0.0821
    162 H68         5.4508   20.7056   12.8592 H         1 TYR         0.0453
    163 H69         5.7094   19.7818   14.3778 H         1 TYR         0.0453
    164 H70         8.1674   19.8960   13.5388 H         1 TYR         0.0530
    165 H71         5.9883   23.3325   14.8538 H         1 TYR         0.0530
    166 H72        10.2904   21.1247   13.8485 H         1 TYR         0.0525
    167 H73         8.1000   24.5657   15.1600 H         1 TYR         0.0525
    168 H74        11.2367   23.0817   14.4535 H         1 TYR         0.2458
    169 H75         3.1298   22.0270   12.3739 H         1 SER         0.1884
    170 H76         0.5801   20.8957   12.9038 H         1 SER         0.0823
    171 H77         1.1347   22.4528   10.9941 H         1 SER         0.0606
    172 H78         0.2054   20.9970   10.5002 H         1 SER         0.0606
    173 H79         2.2260   20.0728    9.8666 H         1 SER         0.2097
    174 H80        -0.2958   18.8678   12.2091 H         1 ALA         0.1884
    175 H81         1.2588   16.6193   12.8244 H         1 ALA         0.0813
    176 H82        -0.5769   15.2880   11.8342 H         1 ALA         0.0278
    177 H83        -1.2474   16.7839   11.0999 H         1 ALA         0.0278
    178 H84        -1.1795   16.6130   12.8868 H         1 ALA         0.0278
    179 H85         2.0598   17.5909    9.2378 H         1 ALA         0.2540
@<TRIPOS>BOND
     1    2    1 1  
     2    2    5 1  
     3    3    2 1  
     4    3    4 2  
     5    5    6 1  
     6    8    7 1  
     7    8   11 1  
     8    9    8 1  
     9    9   10 2  
    10   11   12 1  
    11   12   13 2  
    12   12   14 1  
    13   14   17 ar 
    14   14   16 ar 
    15   16   18 ar 
    16   16   15 1  
    17   13   15 1  
    18   18   20 ar 
    19   19   20 ar 
    20   17   19 ar 
    21    7    3 am 
    22   22   21 1  
    23   22   25 1  
    24   23   22 1  
    25   23   24 2  
    26   25   27 1  
    27   25   26 1  
    28   21    9 am 
    29   29   28 1  
    30   29   32 1  
    31   30   29 1  
    32   30   31 2  
    33   32   33 1  
    34   33   34 ar 
    35   33   35 ar 
    36   35   37 ar 
    37   37   38 ar 
    38   38   39 1  
    39   36   38 ar 
    40   34   36 ar 
    41   28   23 am 
    42   41   40 1  
    43   41   44 1  
    44   42   41 1  
    45   42   43 2  
    46   44   45 1  
    47   40   30 am 
    48   48   47 1  
    49   47   50 1  
    50   47   46 1  
    51   46   52 1  
    52   52   51 1  
    53   50   51 1  
    54   48   49 2  
    55   46   42 am 
    56   54   53 1  
    57   54   57 1  
    58   55   54 1  
    59   55   56 2  
    60   57   58 1  
    61   58   59 1  
    62   58   60 1  
    63   53   48 am 
    64   62   61 1  
    65   62   65 1  
    66   63   62 1  
    67   63   64 2  
    68   65   66 1  
    69   66   67 1  
    70   66   68 2  
    71   68   70 1  
    72   70   69 2  
    73   67   69 1  
    74   61   55 am 
    75   72   71 1  
    76   72   75 1  
    77   73   72 1  
    78   73   74 2  
    79   75   76 1  
    80   76   77 ar 
    81   76   78 ar 
    82   78   80 ar 
    83   80   81 ar 
    84   81   82 1  
    85   79   81 ar 
    86   77   79 ar 
    87   71   63 am 
    88   84   83 1  
    89   84   87 1  
    90   85   84 1  
    91   85   86 2  
    92   87   88 1  
    93   83   73 am 
    94   89   90 1  
    95   90   93 1  
    96   90   91 1  
    97   91   92 2  
    98   85   89 am 
    99   91   94 1  
   100    1   95 1  
   101    1   96 1  
   102    1   97 1  
   103    2   98 1  
   104    5   99 1  
   105    5  100 1  
   106    6  101 1  
   107    7  102 1  
   108    8  103 1  
   109   11  104 1  
   110   11  105 1  
   111   13  106 1  
   112   15  107 1  
   113   17  108 1  
   114   18  109 1  
   115   19  110 1  
   116   20  111 1  
   117   21  112 1  
   118   22  113 1  
   119   25  114 1  
   120   26  115 1  
   121   26  116 1  
   122   26  117 1  
   123   27  118 1  
   124   27  119 1  
   125   27  120 1  
   126   28  121 1  
   127   29  122 1  
   128   32  123 1  
   129   32  124 1  
   130   34  125 1  
   131   35  126 1  
   132   36  127 1  
   133   37  128 1  
   134   39  129 1  
   135   40  130 1  
   136   41  131 1  
   137   44  132 1  
   138   44  133 1  
   139   45  134 1  
   140   47  135 1  
   141   50  136 1  
   142   50  137 1  
   143   51  138 1  
   144   51  139 1  
   145   52  140 1  
   146   52  141 1  
   147   53  142 1  
   148   54  143 1  
   149   57  144 1  
   150   57  145 1  
   151   58  146 1  
   152   59  147 1  
   153   59  148 1  
   154   59  149 1  
   155   60  150 1  
   156   60  151 1  
   157   60  152 1  
   158   61  153 1  
   159   62  154 1  
   160   65  155 1  
   161   65  156 1  
   162   67  157 1  
   163   68  158 1  
   164   69  159 1  
   165   71  160 1  
   166   72  161 1  
   167   75  162 1  
   168   75  163 1  
   169   77  164 1  
   170   78  165 1  
   171   79  166 1  
   172   80  167 1  
   173   82  168 1  
   174   83  169 1  
   175   84  170 1  
   176   87  171 1  
   177   87  172 1  
   178   88  173 1  
   179   89  174 1  
   180   90  175 1  
   181   93  176 1  
   182   93  177 1  
   183   93  178 1  
   184   94  179 1  
@<TRIPOS>SUBSTRUCTURE
     1 SER         1

