1y19_ligand
  -I-interpret- 

177182  0  0  0  0  0  0  0  0999 V2000
   17.0320   33.3440   21.1770 N   0  3  0  0  0
   15.5720   33.5720   21.3570 C   0  0  0  0  0
   14.7750   32.2620   21.3190 C   0  0  0  0  0
   15.3030   31.1890   21.6110 O   0  0  0  0  0
   15.0570   34.5300   20.2790 C   0  0  0  0  0
   13.7160   34.9200   20.5280 O   0  0  0  0  0
   13.5050   32.3600   20.9430 N   0  0  0  0  0
   12.6060   31.2120   20.8960 C   0  0  0  0  0
   13.0760   29.9450   20.1830 C   0  0  0  0  0
   13.7070   29.9940   19.1290 O   0  0  0  0  0
   11.2630   31.6310   20.2920 C   0  0  0  0  0
   10.4820   32.5780   21.1380 C   0  0  0  0  0
   10.0900   33.8370   20.8030 C   0  0  0  0  0
    9.9770   32.3360   22.4580 C   0  0  0  0  0
    9.3710   34.4000   21.8300 N   0  0  0  0  0
    9.2880   33.5010   22.8600 C   0  0  0  0  0
   10.0440   31.2490   23.3410 C   0  0  0  0  0
    8.6620   33.6100   24.1100 C   0  0  0  0  0
    9.4220   31.3580   24.5830 C   0  0  0  0  0
    8.7430   32.5320   24.9550 C   0  0  0  0  0
   12.7350   28.8080   20.7800 N   0  0  0  0  0
   13.0510   27.4950   20.2380 C   0  0  0  0  0
   11.7420   26.7220   20.3270 C   0  0  0  0  0
   11.1990   26.5310   21.4130 O   0  0  0  0  0
   14.1300   26.7780   21.0660 C   0  0  0  0  0
   14.4100   25.3960   20.4760 C   0  0  0  0  0
   15.3940   27.6180   21.0920 C   0  0  0  0  0
   11.2330   26.2880   19.1820 N   0  0  0  0  0
    9.9610   25.5830   19.1400 C   0  0  0  0  0
   10.0150   24.0860   19.3430 C   0  0  0  0  0
   10.9500   23.4160   18.9180 O   0  0  0  0  0
    9.2440   25.8960   17.8270 C   0  0  0  0  0
    8.8970   27.3570   17.6940 C   0  0  0  0  0
    9.8980   28.3250   17.5770 C   0  0  0  0  0
    7.5700   27.7820   17.7380 C   0  0  0  0  0
    9.5870   29.6780   17.5100 C   0  0  0  0  0
    7.2460   29.1360   17.6730 C   0  0  0  0  0
    8.2580   30.0760   17.5600 C   0  0  0  0  0
    7.9370   31.4120   17.5010 O   0  0  0  0  0
    8.9940   23.5740   20.0160 N   0  0  0  0  0
    8.8840   22.1500   20.2770 C   0  0  0  0  0
    8.2700   21.4870   19.0580 C   0  0  0  0  0
    7.2490   21.9430   18.5470 O   0  0  0  0  0
    7.9840   21.8860   21.4860 C   0  0  0  0  0
    7.6720   20.5060   21.5830 O   0  0  0  0  0
    8.8970   20.4140   18.5640 N   0  0  0  0  0
    8.3940   19.6910   17.3960 C   0  0  0  0  0
    6.9790   19.1560   17.6240 C   0  0  0  0  0
    6.1930   19.0370   16.6850 O   0  0  0  0  0
    9.4210   18.5810   17.2270 C   0  0  0  0  0
   10.6870   19.2680   17.6380 C   0  0  0  0  0
   10.2580   19.9670   18.9040 C   0  0  0  0  0
    6.6710   18.8410   18.8800 N   0  0  0  0  0
    5.3620   18.3190   19.2590 C   0  0  0  0  0
    4.2090   19.2470   18.8950 C   0  0  0  0  0
    3.0590   18.8170   18.8480 O   0  0  0  0  0
    5.3250   18.0180   20.7610 C   0  0  0  0  0
    5.7080   16.6040   21.2200 C   0  0  0  0  0
    7.0150   16.1600   20.5780 C   0  0  0  0  0
    5.8300   16.5890   22.7280 C   0  0  0  0  0
    4.5070   20.5160   18.6400 N   0  0  0  0  0
    3.4650   21.4600   18.2680 C   0  0  0  0  0
    3.4780   21.8650   16.7950 C   0  0  0  0  0
    2.7470   22.7680   16.3900 O   0  0  0  0  0
    3.5150   22.7050   19.1590 C   0  0  0  0  0
    2.8190   22.5290   20.4740 C   0  0  0  0  0
    2.1700   23.5620   21.1160 N   0  0  0  0  0
    2.6660   21.4400   21.2660 C   0  0  0  0  0
    1.6460   23.1170   22.2440 C   0  0  0  0  0
    1.9330   21.8330   22.3600 N   0  0  0  0  0
    4.3180   21.2070   16.0000 N   0  0  0  0  0
    4.3750   21.4590   14.5630 C   0  0  0  0  0
    3.1010   20.8240   13.9980 C   0  0  0  0  0
    2.5320   19.9260   14.6220 O   0  0  0  0  0
    5.6130   20.7880   13.9440 C   0  0  0  0  0
    6.9200   21.5270   14.1710 C   0  0  0  0  0
    8.1470   20.9200   13.8940 C   0  0  0  0  0
    6.9290   22.8430   14.6290 C   0  0  0  0  0
    9.3460   21.6100   14.0670 C   0  0  0  0  0
    8.1180   23.5420   14.8040 C   0  0  0  0  0
    9.3240   22.9260   14.5220 C   0  0  0  0  0
   10.5000   23.6350   14.6850 O   0  0  0  0  0
    2.6440   21.2870   12.8390 N   0  0  0  0  0
    1.4420   20.7250   12.2420 C   0  0  0  0  0
    1.6810   19.2370   12.0700 C   0  0  0  0  0
    2.8250   18.8060   11.9190 O   0  0  0  0  0
    1.1710   21.3590   10.8830 C   0  0  0  0  0
    2.1940   21.0170    9.9660 O   0  0  0  0  0
    0.6070   18.4540   12.0920 N   0  0  0  0  0
    0.7130   17.0010   11.9490 C   0  0  0  0  0
    1.4830   16.5740   10.7020 C   0  0  0  0  0
    2.3120   15.6660   10.7540 O   0  0  0  0  0
   -0.6670   16.3790   11.9420 C   0  0  0  0  0
    1.2552   17.1905    9.5458 O   0  0  0  0  0
   17.5211   34.2385   21.2089 H   0  0  0  0  0
   17.3753   32.7406   21.9242 H   0  0  0  0  0
   17.1965   32.8972   20.2749 H   0  0  0  0  0
   15.4272   34.0146   22.3425 H   0  0  0  0  0
   15.0952   34.0196   19.3166 H   0  0  0  0  0
   15.6826   35.4226   20.2828 H   0  0  0  0  0
   13.4243   35.5184   19.8364 H   0  0  0  0  0
   13.1433   33.2756   20.6761 H   0  0  0  0  0
   12.5470   30.9194   21.9443 H   0  0  0  0  0
   10.6633   30.7274   20.1828 H   0  0  0  0  0
   11.4776   32.1405   19.3526 H   0  0  0  0  0
   10.3140   34.3285   19.8562 H   0  0  0  0  0
   10.5719   30.3372   23.0615 H   0  0  0  0  0
    8.1311   34.5169   24.3995 H   0  0  0  0  0
    9.4624   30.5192   25.2780 H   0  0  0  0  0
    8.2708   32.5868   25.9359 H   0  0  0  0  0
   12.2261   28.8580   21.6626 H   0  0  0  0  0
   13.4433   27.5700   19.2238 H   0  0  0  0  0
   13.7760   26.6477   22.0886 H   0  0  0  0  0
   13.4947   24.8043   20.4896 H   0  0  0  0  0
   14.7587   25.5046   19.4490 H   0  0  0  0  0
   15.1756   24.8970   21.0701 H   0  0  0  0  0
   15.7543   27.7617   20.0733 H   0  0  0  0  0
   15.1758   28.5867   21.5416 H   0  0  0  0  0
   16.1565   27.1067   21.6797 H   0  0  0  0  0
   11.7431   26.4516   18.3140 H   0  0  0  0  0
    9.4131   25.9570   20.0049 H   0  0  0  0  0
    8.3151   25.3261   17.8065 H   0  0  0  0  0
    9.9125   25.6327   17.0073 H   0  0  0  0  0
   10.9417   28.0133   17.5376 H   0  0  0  0  0
    6.7730   27.0435   17.8246 H   0  0  0  0  0
   10.3799   30.4203   17.4190 H   0  0  0  0  0
    6.2039   29.4534   17.7108 H   0  0  0  0  0
    8.7415   31.9302   17.4245 H   0  0  0  0  0
    8.2647   24.1985   20.3604 H   0  0  0  0  0
    9.8756   21.7485   20.4857 H   0  0  0  0  0
    7.0589   22.4502   21.3679 H   0  0  0  0  0
    8.5078   22.1945   22.3907 H   0  0  0  0  0
    7.1077   20.3595   22.3457 H   0  0  0  0  0
    8.2942   20.3131   16.5065 H   0  0  0  0  0
    9.4572   18.1748   16.2162 H   0  0  0  0  0
    9.1992   17.6922   17.8177 H   0  0  0  0  0
   11.5251   18.5859   17.7807 H   0  0  0  0  0
   11.0802   19.9450   16.8795 H   0  0  0  0  0
   10.2931   19.3245   19.7838 H   0  0  0  0  0
   10.9205   20.7837   19.1907 H   0  0  0  0  0
    7.3767   18.9693   19.6052 H   0  0  0  0  0
    5.2235   17.4024   18.6857 H   0  0  0  0  0
    4.2839   18.1469   21.0570 H   0  0  0  0  0
    6.0678   18.6790   21.2076 H   0  0  0  0  0
    4.9308   15.9059   20.9090 H   0  0  0  0  0
    6.9038   16.1591   19.4937 H   0  0  0  0  0
    7.8104   16.8489   20.8623 H   0  0  0  0  0
    7.2633   15.1553   20.9199 H   0  0  0  0  0
    6.6000   17.2963   23.0360 H   0  0  0  0  0
    4.8756   16.8731   23.1713 H   0  0  0  0  0
    6.1019   15.5868   23.0593 H   0  0  0  0  0
    5.4749   20.8312   18.7056 H   0  0  0  0  0
    2.5263   20.9287   18.4250 H   0  0  0  0  0
    3.0082   23.5093   18.6258 H   0  0  0  0  0
    4.5637   22.9146   19.3695 H   0  0  0  0  0
    3.0522   20.4394   21.0716 H   0  0  0  0  0
    1.0737   23.7092   22.9581 H   0  0  0  0  0
    4.9393   20.5072   16.4057 H   0  0  0  0  0
    4.4437   22.5240   14.3415 H   0  0  0  0  0
    5.4503   20.7574   12.8666 H   0  0  0  0  0
    5.7148   19.8126   14.4198 H   0  0  0  0  0
    8.1675   19.8904   13.5369 H   0  0  0  0  0
    5.9831   23.3352   14.8550 H   0  0  0  0  0
   10.2956   21.1220   13.8473 H   0  0  0  0  0
    8.0999   24.5714   15.1620 H   0  0  0  0  0
   11.2445   23.0759   14.4511 H   0  0  0  0  0
    3.1395   22.0418   12.3646 H   0  0  0  0  0
    0.5787   20.9164   12.8793 H   0  0  0  0  0
    1.1433   22.4428   10.9960 H   0  0  0  0  0
    0.2172   20.9920   10.5039 H   0  0  0  0  0
    2.0092   21.4233    9.1161 H   0  0  0  0  0
   -0.3138   18.8761   12.2115 H   0  0  0  0  0
    1.2817   16.6430   12.8072 H   0  0  0  0  0
   -1.1737   16.6116   12.8786 H   0  0  0  0  0
   -1.2411   16.7810   11.1072 H   0  0  0  0  0
   -0.5764   15.2980   11.8352 H   0  0  0  0  0
    0.5871   17.8682    9.6720 H   0  0  0  0  0
  2  1  1  0  0  0
  2  5  1  0  0  0
  3  2  1  0  0  0
  3  4  2  0  0  0
  5  6  1  0  0  0
  8  7  1  0  0  0
  8 11  1  0  0  0
  9  8  1  0  0  0
  9 10  2  0  0  0
 11 12  1  0  0  0
 12 13  4  0  0  0
 12 14  4  0  0  0
 14 17  4  0  0  0
 14 16  4  0  0  0
 16 18  4  0  0  0
 16 15  4  0  0  0
 13 15  4  0  0  0
 18 20  4  0  0  0
 19 20  4  0  0  0
 17 19  4  0  0  0
  7  3  1  0  0  0
 22 21  1  0  0  0
 22 25  1  0  0  0
 23 22  1  0  0  0
 23 24  2  0  0  0
 25 27  1  0  0  0
 25 26  1  0  0  0
 21  9  1  0  0  0
 29 28  1  0  0  0
 29 32  1  0  0  0
 30 29  1  0  0  0
 30 31  2  0  0  0
 32 33  1  0  0  0
 33 34  4  0  0  0
 33 35  4  0  0  0
 35 37  4  0  0  0
 37 38  4  0  0  0
 38 39  1  0  0  0
 36 38  4  0  0  0
 34 36  4  0  0  0
 28 23  1  0  0  0
 41 40  1  0  0  0
 41 44  1  0  0  0
 42 41  1  0  0  0
 42 43  2  0  0  0
 44 45  1  0  0  0
 40 30  1  0  0  0
 48 47  1  0  0  0
 47 50  1  0  0  0
 47 46  1  0  0  0
 46 52  1  0  0  0
 52 51  1  0  0  0
 50 51  1  0  0  0
 48 49  2  0  0  0
 46 42  1  0  0  0
 54 53  1  0  0  0
 54 57  1  0  0  0
 55 54  1  0  0  0
 55 56  2  0  0  0
 57 58  1  0  0  0
 58 59  1  0  0  0
 58 60  1  0  0  0
 53 48  1  0  0  0
 62 61  1  0  0  0
 62 65  1  0  0  0
 63 62  1  0  0  0
 63 64  2  0  0  0
 65 66  1  0  0  0
 66 67  4  0  0  0
 66 68  4  0  0  0
 68 70  4  0  0  0
 70 69  4  0  0  0
 67 69  4  0  0  0
 61 55  1  0  0  0
 72 71  1  0  0  0
 72 75  1  0  0  0
 73 72  1  0  0  0
 73 74  2  0  0  0
 75 76  1  0  0  0
 76 77  4  0  0  0
 76 78  4  0  0  0
 78 80  4  0  0  0
 80 81  4  0  0  0
 81 82  1  0  0  0
 79 81  4  0  0  0
 77 79  4  0  0  0
 71 63  1  0  0  0
 84 83  1  0  0  0
 84 87  1  0  0  0
 85 84  1  0  0  0
 85 86  2  0  0  0
 87 88  1  0  0  0
 83 73  1  0  0  0
 89 90  1  0  0  0
 90 93  1  0  0  0
 90 91  1  0  0  0
 91 92  2  0  0  0
 85 89  1  0  0  0
 91 94  1  0  0  0
  1 95  1  0  0  0
  1 96  1  0  0  0
  1 97  1  0  0  0
  2 98  1  0  0  0
  5 99  1  0  0  0
  5100  1  0  0  0
  6101  1  0  0  0
  7102  1  0  0  0
  8103  1  0  0  0
 11104  1  0  0  0
 11105  1  0  0  0
 13106  1  0  0  0
 17107  1  0  0  0
 18108  1  0  0  0
 19109  1  0  0  0
 20110  1  0  0  0
 21111  1  0  0  0
 22112  1  0  0  0
 25113  1  0  0  0
 26114  1  0  0  0
 26115  1  0  0  0
 26116  1  0  0  0
 27117  1  0  0  0
 27118  1  0  0  0
 27119  1  0  0  0
 28120  1  0  0  0
 29121  1  0  0  0
 32122  1  0  0  0
 32123  1  0  0  0
 34124  1  0  0  0
 35125  1  0  0  0
 36126  1  0  0  0
 37127  1  0  0  0
 39128  1  0  0  0
 40129  1  0  0  0
 41130  1  0  0  0
 44131  1  0  0  0
 44132  1  0  0  0
 45133  1  0  0  0
 47134  1  0  0  0
 50135  1  0  0  0
 50136  1  0  0  0
 51137  1  0  0  0
 51138  1  0  0  0
 52139  1  0  0  0
 52140  1  0  0  0
 53141  1  0  0  0
 54142  1  0  0  0
 57143  1  0  0  0
 57144  1  0  0  0
 58145  1  0  0  0
 59146  1  0  0  0
 59147  1  0  0  0
 59148  1  0  0  0
 60149  1  0  0  0
 60150  1  0  0  0
 60151  1  0  0  0
 61152  1  0  0  0
 62153  1  0  0  0
 65154  1  0  0  0
 65155  1  0  0  0
 68156  1  0  0  0
 69157  1  0  0  0
 71158  1  0  0  0
 72159  1  0  0  0
 75160  1  0  0  0
 75161  1  0  0  0
 77162  1  0  0  0
 78163  1  0  0  0
 79164  1  0  0  0
 80165  1  0  0  0
 82166  1  0  0  0
 83167  1  0  0  0
 84168  1  0  0  0
 87169  1  0  0  0
 87170  1  0  0  0
 88171  1  0  0  0
 89172  1  0  0  0
 90173  1  0  0  0
 93174  1  0  0  0
 93175  1  0  0  0
 93176  1  0  0  0
 94177  1  0  0  0
M  END
$$$$
