5mng_ligand
  -I-interpret- 

 17 17  0  0  0  0  0  0  0  0999 V2000
   -1.7430  -14.7430  -17.0860 C   0  0  0  0  0
   -1.5750  -13.3550  -17.1640 C   0  0  0  0  0
   -1.2340  -12.6360  -16.0350 C   0  0  0  0  0
   -1.0630  -13.2840  -14.8200 C   0  0  0  0  0
   -1.2180  -14.6540  -14.7420 C   0  0  0  0  0
   -1.5470  -15.3800  -15.8690 C   0  0  0  0  0
   -2.1090  -15.5200  -18.2810 C   0  0  0  0  0
   -1.7330  -16.7690  -18.3930 N   0  0  0  0  0
   -2.7790  -14.9530  -19.2520 N   0  0  0  0  0
   -1.7133  -12.8419  -18.1157 H   0  0  0  0  0
   -1.0988  -11.5563  -16.0987 H   0  0  0  0  0
   -0.8066  -12.7123  -13.9281 H   0  0  0  0  0
   -1.0802  -15.1633  -13.7882 H   0  0  0  0  0
   -1.6537  -16.4627  -15.8023 H   0  0  0  0  0
   -1.9623  -17.2971  -19.2350 H   0  0  0  0  0
   -1.2107  -17.2140  -17.6383 H   0  0  0  0  0
   -3.0066  -15.4841  -20.0926 H   0  0  0  0  0
  1  2  4  0  0  0
  1  6  4  0  0  0
  1  7  1  0  0  0
  2  3  4  0  0  0
  3  4  4  0  0  0
  4  5  4  0  0  0
  5  6  4  0  0  0
  7  8  1  0  0  0
  7  9  2  0  0  0
  2 10  1  0  0  0
  3 11  1  0  0  0
  4 12  1  0  0  0
  5 13  1  0  0  0
  6 14  1  0  0  0
  8 15  1  0  0  0
  8 16  1  0  0  0
  9 17  1  0  0  0
M  END
$$$$
