5n8w_ligand
  -I-interpret- 

155159  0  0  0  0  0  0  0  0999 V2000
   33.1460    8.9860    7.2850 N   0  3  0  0  0
   32.0100    9.5810    6.5270 C   0  0  0  0  0
   31.1930   10.5980    7.3110 C   0  0  0  0  0
   31.7170   11.3620    8.1400 O   0  0  0  0  0
   29.8940   10.6060    7.0400 N   0  0  0  0  0
   28.9840   11.5480    7.6570 C   0  0  0  0  0
   28.9470   11.4310    9.1680 C   0  0  0  0  0
   28.9320   10.3310    9.7350 O   0  0  0  0  0
   28.9590   12.5810    9.8270 N   0  0  0  0  0
   28.7740   12.6040   11.2690 C   0  0  0  0  0
   28.5810   14.0310   11.7560 C   0  0  0  0  0
   29.7510   14.9640   11.8460 C   0  0  0  0  0
   30.0740   16.0080   10.9970 C   0  0  0  0  0
   31.1790   16.6920   11.4430 N   0  0  0  0  0
   31.6040   16.1440   12.6020 C   0  0  0  0  0
   32.6380   16.4610   13.4560 C   0  0  0  0  0
   32.8620   15.7020   14.6020 C   0  0  0  0  0
   32.0190   14.6290   14.9130 C   0  0  0  0  0
   30.9490   14.2860   14.0850 C   0  0  0  0  0
   30.7330   15.0310   12.9370 C   0  0  0  0  0
   29.8570   11.8820   12.0220 C   0  0  0  0  0
   29.6110   11.3630   13.1130 O   0  0  0  0  0
   31.0540   11.8210   11.4440 N   0  0  0  0  0
   32.1820   11.1380   12.0740 C   0  0  0  0  0
   31.8380    9.7120   12.4370 C   0  0  0  0  0
   32.2120    9.2230   13.5200 O   0  0  0  0  0
   33.3690   11.1340   11.1140 C   0  0  0  0  0
   33.8380   12.5090   10.7000 C   0  0  0  0  0
   34.5180   12.7390    9.5720 N   0  0  0  0  0
   33.6840   13.7140   11.3600 C   0  0  0  0  0
   34.7940   14.0610    9.5070 C   0  0  0  0  0
   34.2780   14.6670   10.6040 N   0  0  0  0  0
   31.1180    9.0330   11.5440 N   0  0  0  0  0
   30.7200    7.6380   11.7660 C   0  0  0  0  0
   29.7230    7.4910   12.8910 C   0  0  0  0  0
   29.7770    6.5310   13.6640 O   0  0  0  0  0
   30.1110    7.0360   10.4910 C   0  0  0  0  0
   31.0970    6.9320    9.3500 C   0  0  0  0  0
   30.6390    6.7320    8.2020 O   0  0  0  0  0
   32.3170    7.0310    9.5880 O   0  0  0  0  0
   28.8000    8.4380   13.0050 N   0  0  0  0  0
   27.7900    8.3910   14.0690 C   0  0  0  0  0
   28.4110    8.6990   15.4120 C   0  0  0  0  0
   28.0530    8.0710   16.4130 O   0  0  0  0  0
   26.6540    9.3680   13.7820 C   0  0  0  0  0
   25.9760    9.1770   12.4160 C   0  0  0  0  0
   25.3360    7.8220   12.2120 C   0  0  0  0  0
   25.1830    7.4180   11.0380 O   0  0  0  0  0
   24.9360    7.1390   13.1800 O   0  0  0  0  0
   29.3540    9.6460   15.4530 N   0  0  0  0  0
   29.9380   10.0930   16.7220 C   0  0  0  0  0
   30.7210   11.3780   16.5020 C   0  0  0  0  0
   30.8360    9.0690   17.3640 C   0  0  0  0  0
   31.1580    9.2000   18.5460 O   0  0  0  0  0
   31.2750    8.0710   16.5950 N   0  0  0  0  0
   32.1620    7.0080   17.0820 C   0  0  0  0  0
   33.4880    7.0610   16.3100 C   0  0  0  0  0
   34.2220    8.3590   16.6170 C   0  0  0  0  0
   33.2590    6.9230   14.8980 O   0  0  0  0  0
   31.5210    5.6440   16.9650 C   0  0  0  0  0
   32.2160    4.6270   17.0440 O   0  0  0  0  0
   30.1950    5.6010   16.8040 N   0  0  0  0  0
   29.4570    4.3460   16.6690 C   0  0  0  0  0
   27.9790    4.6960   16.4650 C   0  0  0  0  0
   27.1440    3.4750   16.2160 C   0  0  0  0  0
   26.8440    2.8660   15.0030 C   0  0  0  0  0
   26.0530    1.7720   15.2050 N   0  0  0  0  0
   25.7890    1.6000   16.5180 C   0  0  0  0  0
   25.0570    0.6770   17.2580 C   0  0  0  0  0
   24.9930    0.7990   18.6520 C   0  0  0  0  0
   25.6450    1.8360   19.3310 C   0  0  0  0  0
   26.3950    2.7810   18.6290 C   0  0  0  0  0
   26.4670    2.6810   17.2470 C   0  0  0  0  0
   29.6460    3.4720   17.8950 C   0  0  0  0  0
   29.5800    3.9520   19.0280 O   0  0  0  0  0
   29.9090    2.1860   17.6810 N   0  0  0  0  0
   30.0590    1.2220   18.7850 C   0  0  0  0  0
   29.1670    0.0390   18.5640 C   0  0  0  0  0
   28.9530   -0.3740   17.4270 O   0  0  0  0  0
   31.5050    0.7420   18.9010 C   0  0  0  0  0
   32.4650    1.8930   19.2080 C   0  0  0  0  0
   33.5870    1.5080   20.1710 C   0  0  0  0  0
   33.2890    1.9890   21.5880 C   0  0  0  0  0
   33.6310    3.3930   21.7070 N   0  3  0  0  0
   28.6410   -0.5290   19.5180 O   0  0  0  0  0
   33.6379    8.3192    6.6902 H   0  0  0  0  0
   33.7872    9.7260    7.5708 H   0  0  0  0  0
   32.7880    8.5068    8.1112 H   0  0  0  0  0
   31.3374    8.7639    6.2662 H   0  0  0  0  0
   32.4365   10.1051    5.6717 H   0  0  0  0  0
   29.5245    9.9263    6.3753 H   0  0  0  0  0
   27.9824   11.3368    7.2825 H   0  0  0  0  0
   29.3271   12.5526    7.4096 H   0  0  0  0  0
   29.0988   13.4548    9.3197 H   0  0  0  0  0
   27.8637   12.0446   11.4846 H   0  0  0  0  0
   28.2431   13.9214   12.7865 H   0  0  0  0  0
   27.9299   14.4855   11.0093 H   0  0  0  0  0
   29.5223   16.2560   10.0903 H   0  0  0  0  0
   33.2840   17.3103   13.2334 H   0  0  0  0  0
   33.6971   15.9446   15.2592 H   0  0  0  0  0
   32.2014   14.0505   15.8186 H   0  0  0  0  0
   30.2969   13.4495   14.3363 H   0  0  0  0  0
   31.1882   12.2637   10.5349 H   0  0  0  0  0
   32.4301   11.6734   12.9904 H   0  0  0  0  0
   33.0478   10.6186   10.2089 H   0  0  0  0  0
   34.1993   10.6544   11.6324 H   0  0  0  0  0
   33.1778   13.8682   12.3130 H   0  0  0  0  0
   35.3409   14.5572    8.7052 H   0  0  0  0  0
   30.8353    9.4968   10.6807 H   0  0  0  0  0
   31.6297    7.1037   12.0400 H   0  0  0  0  0
   29.3028    7.6930   10.1696 H   0  0  0  0  0
   29.7760    6.0268   10.7303 H   0  0  0  0  0
   29.6809    6.6894    8.2439 H   0  0  0  0  0
   28.7924    9.2124   12.3412 H   0  0  0  0  0
   27.3815    7.3808   14.0971 H   0  0  0  0  0
   27.0863   10.3686   13.7856 H   0  0  0  0  0
   25.8909    9.2009   14.5422 H   0  0  0  0  0
   26.7537    9.2777   11.6590 H   0  0  0  0  0
   25.1787    9.9174   12.3513 H   0  0  0  0  0
   25.5468    8.0643   10.4284 H   0  0  0  0  0
   29.6748   10.0675   14.5813 H   0  0  0  0  0
   29.1040   10.2566   17.4044 H   0  0  0  0  0
   31.5180   11.1974   15.7807 H   0  0  0  0  0
   30.0517   12.1490   16.1203 H   0  0  0  0  0
   31.1526   11.7054   17.4478 H   0  0  0  0  0
   30.9792    8.0455   15.6192 H   0  0  0  0  0
   32.3535    7.1748   18.1420 H   0  0  0  0  0
   34.1125    6.2273   16.6310 H   0  0  0  0  0
   33.6014    9.2047   16.3208 H   0  0  0  0  0
   34.4278    8.4145   17.6860 H   0  0  0  0  0
   35.1605    8.3839   16.0633 H   0  0  0  0  0
   34.0986    6.9586   14.4338 H   0  0  0  0  0
   29.6769    6.4791   16.7741 H   0  0  0  0  0
   29.8295    3.7783   15.8163 H   0  0  0  0  0
   27.8991    5.3478   15.5950 H   0  0  0  0  0
   27.6144    5.1804   17.3708 H   0  0  0  0  0
   27.1909    3.2126   14.0295 H   0  0  0  0  0
   24.5356   -0.1375   16.7553 H   0  0  0  0  0
   24.4209    0.0678   19.2231 H   0  0  0  0  0
   25.5662    1.9056   20.4159 H   0  0  0  0  0
   26.9139    3.5817   19.1561 H   0  0  0  0  0
   30.0102    1.8563   16.7211 H   0  0  0  0  0
   29.7787    1.7279   19.7089 H   0  0  0  0  0
   31.7957    0.2992   17.9484 H   0  0  0  0  0
   31.5619    0.0223   19.7177 H   0  0  0  0  0
   31.8856    2.6868   19.6796 H   0  0  0  0  0
   32.9279    2.1939   18.2682 H   0  0  0  0  0
   34.5113    1.9760   19.8324 H   0  0  0  0  0
   33.6760    0.4217   20.1843 H   0  0  0  0  0
   33.8797    1.4108   22.2985 H   0  0  0  0  0
   32.2283    1.8553   21.8003 H   0  0  0  0  0
   33.4307    3.7113   22.6551 H   0  0  0  0  0
   34.6235    3.5180   21.5077 H   0  0  0  0  0
   33.0786    3.9338   21.0416 H   0  0  0  0  0
   28.9024   -0.0930   20.3324 H   0  0  0  0  0
  1  2  1  0  0  0
  2  3  1  0  0  0
  3  4  2  0  0  0
  3  5  1  0  0  0
  5  6  1  0  0  0
  6  7  1  0  0  0
  7  8  2  0  0  0
  7  9  1  0  0  0
  9 10  1  0  0  0
 10 11  1  0  0  0
 10 21  1  0  0  0
 11 12  1  0  0  0
 12 13  4  0  0  0
 12 20  4  0  0  0
 13 14  4  0  0  0
 14 15  4  0  0  0
 15 16  4  0  0  0
 15 20  4  0  0  0
 16 17  4  0  0  0
 17 18  4  0  0  0
 18 19  4  0  0  0
 19 20  4  0  0  0
 21 22  2  0  0  0
 21 23  1  0  0  0
 23 24  1  0  0  0
 24 25  1  0  0  0
 24 27  1  0  0  0
 25 26  2  0  0  0
 25 33  1  0  0  0
 27 28  1  0  0  0
 28 29  4  0  0  0
 28 30  4  0  0  0
 29 31  4  0  0  0
 30 32  4  0  0  0
 31 32  4  0  0  0
 33 34  1  0  0  0
 34 35  1  0  0  0
 34 37  1  0  0  0
 35 36  2  0  0  0
 35 41  1  0  0  0
 37 38  1  0  0  0
 38 39  1  0  0  0
 38 40  2  0  0  0
 41 42  1  0  0  0
 42 43  1  0  0  0
 42 45  1  0  0  0
 43 44  2  0  0  0
 43 50  1  0  0  0
 45 46  1  0  0  0
 46 47  1  0  0  0
 47 48  1  0  0  0
 47 49  2  0  0  0
 50 51  1  0  0  0
 51 52  1  0  0  0
 51 53  1  0  0  0
 53 54  2  0  0  0
 53 55  1  0  0  0
 55 56  1  0  0  0
 56 57  1  0  0  0
 56 60  1  0  0  0
 57 58  1  0  0  0
 57 59  1  0  0  0
 60 61  2  0  0  0
 60 62  1  0  0  0
 62 63  1  0  0  0
 63 64  1  0  0  0
 63 74  1  0  0  0
 64 65  1  0  0  0
 65 66  4  0  0  0
 65 73  4  0  0  0
 66 67  4  0  0  0
 67 68  4  0  0  0
 68 69  4  0  0  0
 68 73  4  0  0  0
 69 70  4  0  0  0
 70 71  4  0  0  0
 71 72  4  0  0  0
 72 73  4  0  0  0
 74 75  2  0  0  0
 74 76  1  0  0  0
 76 77  1  0  0  0
 77 78  1  0  0  0
 77 80  1  0  0  0
 78 79  2  0  0  0
 78 85  1  0  0  0
 80 81  1  0  0  0
 81 82  1  0  0  0
 82 83  1  0  0  0
 83 84  1  0  0  0
  1 86  1  0  0  0
  1 87  1  0  0  0
  1 88  1  0  0  0
  2 89  1  0  0  0
  2 90  1  0  0  0
  5 91  1  0  0  0
  6 92  1  0  0  0
  6 93  1  0  0  0
  9 94  1  0  0  0
 10 95  1  0  0  0
 11 96  1  0  0  0
 11 97  1  0  0  0
 13 98  1  0  0  0
 16 99  1  0  0  0
 17100  1  0  0  0
 18101  1  0  0  0
 19102  1  0  0  0
 23103  1  0  0  0
 24104  1  0  0  0
 27105  1  0  0  0
 27106  1  0  0  0
 30107  1  0  0  0
 31108  1  0  0  0
 33109  1  0  0  0
 34110  1  0  0  0
 37111  1  0  0  0
 37112  1  0  0  0
 39113  1  0  0  0
 41114  1  0  0  0
 42115  1  0  0  0
 45116  1  0  0  0
 45117  1  0  0  0
 46118  1  0  0  0
 46119  1  0  0  0
 48120  1  0  0  0
 50121  1  0  0  0
 51122  1  0  0  0
 52123  1  0  0  0
 52124  1  0  0  0
 52125  1  0  0  0
 55126  1  0  0  0
 56127  1  0  0  0
 57128  1  0  0  0
 58129  1  0  0  0
 58130  1  0  0  0
 58131  1  0  0  0
 59132  1  0  0  0
 62133  1  0  0  0
 63134  1  0  0  0
 64135  1  0  0  0
 64136  1  0  0  0
 66137  1  0  0  0
 69138  1  0  0  0
 70139  1  0  0  0
 71140  1  0  0  0
 72141  1  0  0  0
 76142  1  0  0  0
 77143  1  0  0  0
 80144  1  0  0  0
 80145  1  0  0  0
 81146  1  0  0  0
 81147  1  0  0  0
 82148  1  0  0  0
 82149  1  0  0  0
 83150  1  0  0  0
 83151  1  0  0  0
 84152  1  0  0  0
 84153  1  0  0  0
 84154  1  0  0  0
 85155  1  0  0  0
M  END
$$$$
