### 
### Created by X-TOOL on Mon Sep 10 21:13:30 2018
### 

@<TRIPOS>MOLECULE
5n8w_ligand
  155   159     1     0     0
SMALL
GAST_HUCK


@<TRIPOS>ATOM
      1 N          33.1460    8.9860    7.2850 N.4       1 GLY         0.2357
      2 CA         32.0100    9.5810    6.5270 C.3       1 GLY         0.0545
      3 C          31.1930   10.5980    7.3110 C.2       1 GLY         0.2234
      4 O          31.7170   11.3620    8.1400 O.2       1 GLY        -0.3911
      5 N          29.8940   10.6060    7.0400 N.am      1 GLY        -0.2639
      6 CA         28.9840   11.5480    7.6570 C.3       1 GLY         0.1202
      7 C          28.9470   11.4310    9.1680 C.2       1 GLY         0.2008
      8 O          28.9320   10.3310    9.7350 O.2       1 GLY        -0.3947
      9 N          28.9590   12.5810    9.8270 N.am      1 DTR        -0.2629
     10 CA         28.7740   12.6040   11.2690 C.3       1 DTR         0.1352
     11 CB         28.5810   14.0310   11.7560 C.3       1 DTR         0.0042
     12 CG         29.7510   14.9640   11.8460 C.2       1 DTR        -0.0418
     13 CD1        30.0740   16.0080   10.9970 C.2       1 DTR         0.0167
     14 NE1        31.1790   16.6920   11.4430 N.pl3     1 DTR        -0.2890
     15 CE2        31.6040   16.1440   12.6020 C.ar      1 DTR         0.0603
     16 CZ2        32.6380   16.4610   13.4560 C.ar      1 DTR        -0.0443
     17 CH2        32.8620   15.7020   14.6020 C.ar      1 DTR        -0.0768
     18 CZ3        32.0190   14.6290   14.9130 C.ar      1 DTR        -0.0792
     19 CE3        30.9490   14.2860   14.0850 C.ar      1 DTR        -0.0747
     20 CD2        30.7330   15.0310   12.9370 C.ar      1 DTR        -0.0214
     21 C          29.8570   11.8820   12.0220 C.2       1 DTR         0.2053
     22 O          29.6110   11.3630   13.1130 O.2       1 DTR        -0.3942
     23 N          31.0540   11.8210   11.4440 N.am      1 DHI        -0.2624
     24 CA         32.1820   11.1380   12.0740 C.3       1 DHI         0.1369
     25 C          31.8380    9.7120   12.4370 C.2       1 DHI         0.2054
     26 O          32.2120    9.2230   13.5200 O.2       1 DHI        -0.3942
     27 CB         33.3690   11.1340   11.1140 C.3       1 DHI         0.0145
     28 CG         33.8380   12.5090   10.7000 C.2       1 DHI        -0.0027
     29 ND1        34.5180   12.7390    9.5720 N.2       1 DHI        -0.3252
     30 CD2        33.6840   13.7140   11.3600 C.2       1 DHI         0.0291
     31 CE1        34.7940   14.0610    9.5070 C.2       1 DHI         0.0907
     32 NE2        34.2780   14.6670   10.6040 N.pl3     1 DHI        -0.2752
     33 N          31.1180    9.0330   11.5440 N.am      1 DAS        -0.2621
     34 CA         30.7200    7.6380   11.7660 C.3       1 DAS         0.1423
     35 C          29.7230    7.4910   12.8910 C.2       1 DAS         0.2056
     36 O          29.7770    6.5310   13.6640 O.2       1 DAS        -0.3943
     37 CB         30.1110    7.0360   10.4910 C.3       1 DAS         0.0406
     38 CG         31.0970    6.9320    9.3500 C.2       1 DAS         0.0393
     39 OD1        30.6390    6.7320    8.2020 O.co2     1 DAS        -0.5688
     40 OD2        32.3170    7.0310    9.5880 O.co2     1 DAS        -0.5688
     41 N          28.8000    8.4380   13.0050 N.am      1 DGL        -0.2635
     42 CA         27.7900    8.3910   14.0690 C.3       1 DGL         0.1325
     43 C          28.4110    8.6990   15.4120 C.2       1 DGL         0.2040
     44 O          28.0530    8.0710   16.4130 O.2       1 DGL        -0.3944
     45 CB         26.6540    9.3680   13.7820 C.3       1 DGL        -0.0008
     46 CG         25.9760    9.1770   12.4160 C.3       1 DGL         0.0044
     47 CD         25.3360    7.8220   12.2120 C.2       1 DGL         0.0350
     48 OE1        25.1830    7.4180   11.0380 O.co2     1 DGL        -0.5690
     49 OE2        24.9360    7.1390   13.1800 O.co2     1 DGL        -0.5690
     50 N          29.3540    9.6460   15.4530 N.am      1 DAL        -0.2640
     51 CA         29.9380   10.0930   16.7220 C.3       1 DAL         0.1282
     52 CB         30.7210   11.3780   16.5020 C.3       1 DAL        -0.0244
     53 C          30.8360    9.0690   17.3640 C.2       1 DAL         0.2037
     54 O          31.1580    9.2000   18.5460 O.2       1 DAL        -0.3944
     55 N          31.2750    8.0710   16.5950 N.am      1 DTH        -0.2613
     56 CA         32.1620    7.0080   17.0820 C.3       1 DTH         0.1565
     57 CB         33.4880    7.0610   16.3100 C.3       1 DTH         0.0924
     58 CG2        34.2220    8.3590   16.6170 C.3       1 DTH        -0.0346
     59 OG1        33.2590    6.9230   14.8980 O.3       1 DTH        -0.3874
     60 C          31.5210    5.6440   16.9650 C.2       1 DTH         0.2066
     61 O          32.2160    4.6270   17.0440 O.2       1 DTH        -0.3943
     62 N          30.1950    5.6010   16.8040 N.am      1 DTR        -0.2626
     63 CA         29.4570    4.3460   16.6690 C.3       1 DTR         0.1351
     64 CB         27.9790    4.6960   16.4650 C.3       1 DTR         0.0042
     65 CG         27.1440    3.4750   16.2160 C.2       1 DTR        -0.0418
     66 CD1        26.8440    2.8660   15.0030 C.2       1 DTR         0.0167
     67 NE1        26.0530    1.7720   15.2050 N.pl3     1 DTR        -0.2890
     68 CE2        25.7890    1.6000   16.5180 C.ar      1 DTR         0.0603
     69 CZ2        25.0570    0.6770   17.2580 C.ar      1 DTR        -0.0443
     70 CH2        24.9930    0.7990   18.6520 C.ar      1 DTR        -0.0768
     71 CZ3        25.6450    1.8360   19.3310 C.ar      1 DTR        -0.0792
     72 CE3        26.3950    2.7810   18.6290 C.ar      1 DTR        -0.0747
     73 CD2        26.4670    2.6810   17.2470 C.ar      1 DTR        -0.0214
     74 C          29.6460    3.4720   17.8950 C.2       1 DTR         0.2046
     75 O          29.5800    3.9520   19.0280 O.2       1 DTR        -0.3943
     76 N          29.9090    2.1860   17.6810 N.am      1 DLY        -0.2694
     77 CA         30.0590    1.2220   18.7850 C.3       1 DLY         0.0944
     78 C          29.1670    0.0390   18.5640 C.2       1 DLY         0.0601
     79 O          28.9530   -0.3740   17.4270 O.co2     1 DLY        -0.5666
     80 CB         31.5050    0.7420   18.9010 C.3       1 DLY        -0.0177
     81 CG         32.4650    1.8930   19.2080 C.3       1 DLY        -0.0446
     82 CD         33.5870    1.5080   20.1710 C.3       1 DLY        -0.0125
     83 CE         33.2890    1.9890   21.5880 C.3       1 DLY        -0.0354
     84 NZ         33.6310    3.3930   21.7070 N.4       1 DLY         0.2185
     85 OXT        28.6410   -0.5290   19.5180 O.co2     1 DLY        -0.5666
     86 H1         33.6329    8.3268    6.6981 H         1 GLY         0.2012
     87 H2         32.7934    8.5121    8.1018 H         1 GLY         0.2012
     88 H3         33.7804    9.7164    7.5680 H         1 GLY         0.2012
     89 H4         31.3390    8.7662    6.2175 H         1 GLY         0.1061
     90 H5         32.4160   10.0805    5.6350 H         1 GLY         0.1061
     91 H6         29.5318    9.9396    6.3883 H         1 GLY         0.1882
     92 H7         27.9721   11.3656    7.2662 H         1 GLY         0.0763
     93 H8         29.3013   12.5673    7.3918 H         1 GLY         0.0763
     94 H9         29.0961   13.4376    9.3296 H         1 DTR         0.1884
     95 H10        27.8385   12.0643   11.4777 H         1 DTR         0.0815
     96 H11        28.1510   13.9649   12.7663 H         1 DTR         0.0397
     97 H12        27.8535   14.5008   11.0778 H         1 DTR         0.0397
     98 H13        29.5228   16.2558   10.0911 H         1 DTR         0.0795
     99 H14        31.6145   17.4958   10.9684 H         1 DTR         0.2216
    100 H15        33.2804   17.3056   13.2346 H         1 DTR         0.0541
    101 H16        33.6925   15.9432   15.2556 H         1 DTR         0.0530
    102 H17        32.2004   14.0536   15.8136 H         1 DTR         0.0510
    103 H18        30.3005   13.4541   14.3349 H         1 DTR         0.0540
    104 H19        31.1855   12.2551   10.5528 H         1 DHI         0.1885
    105 H20        32.4574   11.6808   12.9902 H         1 DHI         0.0817
    106 H21        33.0777   10.5822   10.2081 H         1 DHI         0.0420
    107 H22        34.2071   10.6173   11.6045 H         1 DHI         0.0420
    108 H23        33.1783   13.8681   12.3121 H         1 DHI         0.0729
    109 H24        35.3404   14.5567    8.7060 H         1 DHI         0.1199
    110 H25        34.3287   15.6721   10.8231 H         1 DHI         0.2361
    111 H26        30.8408    9.4877   10.6976 H         1 DAS         0.1884
    112 H27        31.6230    7.0671   12.0281 H         1 DAS         0.0819
    113 H28        29.2721    7.6714   10.1709 H         1 DAS         0.0478
    114 H29        29.7389    6.0274   10.7241 H         1 DAS         0.0478
    115 H30        28.7926    9.1972   12.3542 H         1 DGL         0.1883
    116 H31        27.3729    7.3737   14.1039 H         1 DGL         0.0801
    117 H32        27.0609   10.3891   13.8233 H         1 DGL         0.0330
    118 H33        25.8903    9.2457   14.5642 H         1 DGL         0.0330
    119 H34        26.7361    9.3182   11.6335 H         1 DGL         0.0433
    120 H35        25.1947    9.9442   12.3110 H         1 DGL         0.0433
    121 H36        29.6685   10.0592   14.5984 H         1 DAL         0.1883
    122 H37        29.1113   10.3001   17.4175 H         1 DAL         0.0797
    123 H38        31.1571   11.7095   17.4559 H         1 DAL         0.0277
    124 H39        30.0466   12.1570   16.1168 H         1 DAL         0.0277
    125 H40        31.5257   11.1970   15.7742 H         1 DAL         0.0277
    126 H41        30.9850    8.0460   15.6383 H         1 DTH         0.1884
    127 H42        32.3712    7.1937   18.1458 H         1 DTH         0.0826
    128 H43        34.1164    6.2210   16.6408 H         1 DTH         0.0639
    129 H44        35.1694    8.3853   16.0587 H         1 DTH         0.0257
    130 H45        34.4303    8.4162   17.6956 H         1 DTH         0.0257
    131 H46        33.5967    9.2133   16.3185 H         1 DTH         0.0257
    132 H47        34.0925    6.9184   14.4421 H         1 DTH         0.2101
    133 H48        29.6870    6.4619   16.7747 H         1 DTR         0.1884
    134 H49        29.8259    3.8001   15.7881 H         1 DTR         0.0815
    135 H50        27.8893    5.3704   15.6006 H         1 DTR         0.0397
    136 H51        27.6061    5.2039   17.3666 H         1 DTR         0.0397
    137 H52        27.1905    3.2122   14.0304 H         1 DTR         0.0795
    138 H53        25.7036    1.1587   14.4549 H         1 DTR         0.2216
    139 H54        24.5384   -0.1331   16.7581 H         1 DTR         0.0541
    140 H55        24.4240    0.0719   19.2200 H         1 DTR         0.0530
    141 H56        25.5666    1.9053   20.4099 H         1 DTR         0.0510
    142 H57        26.9110    3.5773   19.1532 H         1 DTR         0.0540
    143 H58        30.0082    1.8628   16.7399 H         1 DLY         0.1875
    144 H59        29.7722    1.7166   19.7247 H         1 DLY         0.0726
    145 H60        31.8021    0.2750   17.9504 H         1 DLY         0.0305
    146 H61        31.5695   -0.0003   19.7102 H         1 DLY         0.0305
    147 H62        31.8895    2.7170   19.6550 H         1 DLY         0.0269
    148 H63        32.9169    2.2312   18.2639 H         1 DLY         0.0269
    149 H64        34.5268    1.9648   19.8275 H         1 DLY         0.0317
    150 H65        33.6929    0.4131   20.1789 H         1 DLY         0.0317
    151 H66        33.8842    1.4052   22.3056 H         1 DLY         0.0813
    152 H67        32.2188    1.8534   21.8032 H         1 DLY         0.0813
    153 H68        33.4334    3.7087   22.6437 H         1 DLY         0.1994
    154 H69        33.0856    3.9286   21.0499 H         1 DLY         0.1994
    155 H70        34.6117    3.5178   21.5103 H         1 DLY         0.1994
@<TRIPOS>BOND
     1    1    2 1  
     2    2    3 1  
     3    3    4 2  
     4    3    5 am 
     5    5    6 1  
     6    6    7 1  
     7    7    8 2  
     8    7    9 am 
     9    9   10 1  
    10   10   11 1  
    11   10   21 1  
    12   11   12 1  
    13   12   13 2  
    14   12   20 1  
    15   13   14 1  
    16   14   15 1  
    17   15   16 ar 
    18   15   20 ar 
    19   16   17 ar 
    20   17   18 ar 
    21   18   19 ar 
    22   19   20 ar 
    23   21   22 2  
    24   21   23 am 
    25   23   24 1  
    26   24   25 1  
    27   24   27 1  
    28   25   26 2  
    29   25   33 am 
    30   27   28 1  
    31   28   29 1  
    32   28   30 2  
    33   29   31 2  
    34   30   32 1  
    35   31   32 1  
    36   33   34 1  
    37   34   35 1  
    38   34   37 1  
    39   35   36 2  
    40   35   41 am 
    41   37   38 1  
    42   38   39 ar 
    43   38   40 ar 
    44   41   42 1  
    45   42   43 1  
    46   42   45 1  
    47   43   44 2  
    48   43   50 am 
    49   45   46 1  
    50   46   47 1  
    51   47   48 ar 
    52   47   49 ar 
    53   50   51 1  
    54   51   52 1  
    55   51   53 1  
    56   53   54 2  
    57   53   55 am 
    58   55   56 1  
    59   56   57 1  
    60   56   60 1  
    61   57   58 1  
    62   57   59 1  
    63   60   61 2  
    64   60   62 am 
    65   62   63 1  
    66   63   64 1  
    67   63   74 1  
    68   64   65 1  
    69   65   66 2  
    70   65   73 1  
    71   66   67 1  
    72   67   68 1  
    73   68   69 ar 
    74   68   73 ar 
    75   69   70 ar 
    76   70   71 ar 
    77   71   72 ar 
    78   72   73 ar 
    79   74   75 2  
    80   74   76 am 
    81   76   77 1  
    82   77   78 1  
    83   77   80 1  
    84   78   79 ar 
    85   78   85 ar 
    86   80   81 1  
    87   81   82 1  
    88   82   83 1  
    89   83   84 1  
    90    1   86 1  
    91    1   87 1  
    92    1   88 1  
    93    2   89 1  
    94    2   90 1  
    95    5   91 1  
    96    6   92 1  
    97    6   93 1  
    98    9   94 1  
    99   10   95 1  
   100   11   96 1  
   101   11   97 1  
   102   13   98 1  
   103   14   99 1  
   104   16  100 1  
   105   17  101 1  
   106   18  102 1  
   107   19  103 1  
   108   23  104 1  
   109   24  105 1  
   110   27  106 1  
   111   27  107 1  
   112   30  108 1  
   113   31  109 1  
   114   32  110 1  
   115   33  111 1  
   116   34  112 1  
   117   37  113 1  
   118   37  114 1  
   119   41  115 1  
   120   42  116 1  
   121   45  117 1  
   122   45  118 1  
   123   46  119 1  
   124   46  120 1  
   125   50  121 1  
   126   51  122 1  
   127   52  123 1  
   128   52  124 1  
   129   52  125 1  
   130   55  126 1  
   131   56  127 1  
   132   57  128 1  
   133   58  129 1  
   134   58  130 1  
   135   58  131 1  
   136   59  132 1  
   137   62  133 1  
   138   63  134 1  
   139   64  135 1  
   140   64  136 1  
   141   66  137 1  
   142   67  138 1  
   143   69  139 1  
   144   70  140 1  
   145   71  141 1  
   146   72  142 1  
   147   76  143 1  
   148   77  144 1  
   149   80  145 1  
   150   80  146 1  
   151   81  147 1  
   152   81  148 1  
   153   82  149 1  
   154   82  150 1  
   155   83  151 1  
   156   83  152 1  
   157   84  153 1  
   158   84  154 1  
   159   84  155 1  
@<TRIPOS>SUBSTRUCTURE
     1 GLY         1

