4d8s_ligand
  -I-interpret- 

 41 41  0  0  0  0  0  0  0  0999 V2000
  -26.6740  -22.0990  -11.4440 C   0  0  0  0  0
  -26.1270  -23.1890  -10.5210 C   0  0  0  0  0
  -24.0740  -19.8010  -11.9140 C   0  0  0  0  0
  -23.7740  -18.3310  -11.6670 C   0  0  0  0  0
  -22.2770  -20.4560  -10.5560 C   0  0  0  0  0
  -21.5810  -21.6300   -9.8620 C   0  0  0  0  0
  -21.5920  -19.2800  -10.8400 C   0  0  0  0  0
  -22.2610  -18.1200  -11.5780 C   0  0  0  0  0
  -25.2450  -16.6420  -12.7420 C   0  0  0  0  0
  -25.5530  -15.9500  -14.0680 C   0  0  0  0  0
  -24.2660  -17.5440  -12.8040 N   0  0  0  0  0
  -25.5600  -21.4390  -12.2420 C   0  0  0  0  0
  -26.1520  -23.0370  -14.0550 C   0  0  0  0  0
  -25.8430  -21.5720  -13.7400 C   0  0  0  0  0
  -25.4680  -20.0680  -11.8920 O   0  0  0  0  0
  -23.5940  -20.5990  -10.8520 O   0  0  0  0  0
  -20.4540  -21.4680   -9.3560 O   0  0  0  0  0
  -22.1930  -22.7150   -9.8380 O   0  0  0  0  0
  -21.9460  -16.8870  -10.9260 O   0  0  0  0  0
  -25.8760  -16.3660  -11.7290 O   0  0  0  0  0
  -27.1598  -21.3386  -10.8325 H   0  0  0  0  0
  -27.3764  -22.5556  -12.1414 H   0  0  0  0  0
  -25.6286  -23.9526  -11.1182 H   0  0  0  0  0
  -25.4144  -22.7488   -9.8235 H   0  0  0  0  0
  -26.9496  -23.6397   -9.9658 H   0  0  0  0  0
  -23.6133  -20.0223  -12.8768 H   0  0  0  0  0
  -24.2556  -18.0220  -10.7392 H   0  0  0  0  0
  -20.5519  -19.1825  -10.5287 H   0  0  0  0  0
  -21.8778  -18.0803  -12.5976 H   0  0  0  0  0
  -26.5874  -16.1488  -14.3484 H   0  0  0  0  0
  -25.4049  -14.8757  -13.9587 H   0  0  0  0  0
  -24.8858  -16.3334  -14.8400 H   0  0  0  0  0
  -23.8251  -17.6993  -13.7106 H   0  0  0  0  0
  -24.6159  -21.9330  -12.0123 H   0  0  0  0  0
  -25.2953  -23.6541  -13.7840 H   0  0  0  0  0
  -27.0247  -23.3538  -13.4840 H   0  0  0  0  0
  -26.3553  -23.1431  -15.1206 H   0  0  0  0  0
  -24.9730  -21.2470  -14.3106 H   0  0  0  0  0
  -26.6944  -20.9481  -14.0120 H   0  0  0  0  0
  -20.1721  -20.5601   -9.4894 H   0  0  0  0  0
  -22.3683  -16.1623  -11.3931 H   0  0  0  0  0
  1  2  1  0  0  0
 12  1  1  0  0  0
  3  4  1  0  0  0
 15  3  1  0  0  0
  3 16  1  0  0  0
  4  8  1  0  0  0
  4 11  1  0  0  0
  5  6  1  0  0  0
  5  7  2  0  0  0
 16  5  1  0  0  0
  6 17  1  0  0  0
  6 18  2  0  0  0
  8  7  1  0  0  0
  8 19  1  0  0  0
  9 10  1  0  0  0
 11  9  1  0  0  0
  9 20  2  0  0  0
 12 14  1  0  0  0
 12 15  1  0  0  0
 14 13  1  0  0  0
  1 21  1  0  0  0
  1 22  1  0  0  0
  2 23  1  0  0  0
  2 24  1  0  0  0
  2 25  1  0  0  0
  3 26  1  0  0  0
  4 27  1  0  0  0
  7 28  1  0  0  0
  8 29  1  0  0  0
 10 30  1  0  0  0
 10 31  1  0  0  0
 10 32  1  0  0  0
 11 33  1  0  0  0
 12 34  1  0  0  0
 13 35  1  0  0  0
 13 36  1  0  0  0
 13 37  1  0  0  0
 14 38  1  0  0  0
 14 39  1  0  0  0
 17 40  1  0  0  0
 19 41  1  0  0  0
M  END
$$$$
