4ok3_ligand
  -I-interpret- 

 35 37  0  0  0  0  0  0  0  0999 V2000
  -21.6260  -28.6710   27.9160 Cl  0  0  0  0  0
  -20.2660  -29.7910   28.0040 C   0  0  0  0  0
  -20.1830  -30.7040   29.0490 C   0  0  0  0  0
  -19.2630  -29.7750   27.0380 C   0  0  0  0  0
  -18.2040  -30.6600   27.1160 C   0  0  0  0  0
  -18.1220  -31.5630   28.1630 C   0  0  0  0  0
  -19.1170  -31.5820   29.1350 C   0  0  0  0  0
  -19.0540  -32.5920   30.2540 C   0  0  0  0  0
  -18.9160  -32.1020   31.6380 N   0  0  0  0  0
  -18.0450  -31.1510   32.1240 C   0  0  0  0  0
  -18.2110  -31.0340   33.4570 C   0  0  0  0  0
  -17.5120  -30.0900   34.3950 C   0  0  0  0  0
  -16.7390  -30.8340   35.4540 C   0  0  0  0  0
  -15.9700  -31.7110   35.1210 O   0  0  0  0  0
  -16.8900  -30.5110   36.7580 O   0  0  0  0  0
  -19.2380  -32.0010   33.8550 C   0  0  0  0  0
  -19.6340  -32.6510   32.6810 C   0  0  0  0  0
  -19.8250  -32.3460   35.0770 C   0  0  0  0  0
  -20.7780  -33.3200   35.1190 C   0  0  0  0  0
  -21.1800  -33.9720   33.9530 C   0  0  0  0  0
  -20.6080  -33.6370   32.7430 C   0  0  0  0  0
  -20.9651  -30.7285   29.8078 H   0  0  0  0  0
  -19.3133  -29.0609   26.2161 H   0  0  0  0  0
  -17.4293  -30.6471   26.3494 H   0  0  0  0  0
  -17.2822  -32.2551   28.2250 H   0  0  0  0  0
  -18.1495  -33.1702   30.0651 H   0  0  0  0  0
  -20.0150  -33.1057   30.2283 H   0  0  0  0  0
  -17.3336  -30.5826   31.5249 H   0  0  0  0  0
  -18.2637  -29.4723   34.8864 H   0  0  0  0  0
  -16.8124  -29.4852   33.8180 H   0  0  0  0  0
  -17.5325  -29.8023   36.8386 H   0  0  0  0  0
  -19.5215  -31.8379   35.9923 H   0  0  0  0  0
  -21.2302  -33.5919   36.0728 H   0  0  0  0  0
  -21.9460  -34.7461   33.9979 H   0  0  0  0  0
  -20.9222  -34.1485   31.8332 H   0  0  0  0  0
  1  2  1  0  0  0
  2  3  4  0  0  0
  2  4  4  0  0  0
  3  7  4  0  0  0
  4  5  4  0  0  0
  5  6  4  0  0  0
  6  7  4  0  0  0
  7  8  1  0  0  0
  8  9  1  0  0  0
  9 10  4  0  0  0
  9 17  4  0  0  0
 10 11  4  0  0  0
 11 12  1  0  0  0
 11 16  4  0  0  0
 12 13  1  0  0  0
 13 14  2  0  0  0
 13 15  1  0  0  0
 16 17  4  0  0  0
 16 18  4  0  0  0
 17 21  4  0  0  0
 18 19  4  0  0  0
 19 20  4  0  0  0
 20 21  4  0  0  0
  3 22  1  0  0  0
  4 23  1  0  0  0
  5 24  1  0  0  0
  6 25  1  0  0  0
  8 26  1  0  0  0
  8 27  1  0  0  0
 10 28  1  0  0  0
 12 29  1  0  0  0
 12 30  1  0  0  0
 15 31  1  0  0  0
 18 32  1  0  0  0
 19 33  1  0  0  0
 20 34  1  0  0  0
 21 35  1  0  0  0
M  END
$$$$
