2pyy_ligand
  -I-interpret- 

 20 19  0  0  0  0  0  0  0  0999 V2000
   53.2820   21.0470   34.2300 N   0  3  0  0  0
   54.6110   21.4180   34.8000 C   0  0  0  0  0
   54.5400   22.8220   35.4090 C   0  0  0  0  0
   53.7400   23.6430   34.9140 O   0  0  0  0  0
   55.6930   21.3900   33.7010 C   0  0  0  0  0
   57.0950   21.6210   34.2370 C   0  0  0  0  0
   58.1510   21.7090   33.1530 C   0  0  0  0  0
   59.3510   21.7900   33.5010 O   0  0  0  0  0
   57.7870   21.7060   31.9610 O   0  0  0  0  0
   55.2870   23.0940   36.3700 O   0  0  0  0  0
   52.5784   21.0702   34.9681 H   0  0  0  0  0
   53.0302   21.7108   33.4976 H   0  0  0  0  0
   53.3326   20.1074   33.8362 H   0  0  0  0  0
   54.8721   20.6963   35.5740 H   0  0  0  0  0
   53.2664   23.2292   34.1887 H   0  0  0  0  0
   55.4712   22.1931   32.9982 H   0  0  0  0  0
   55.6731   20.4013   33.2425 H   0  0  0  0  0
   57.3471   20.7711   34.8712 H   0  0  0  0  0
   57.0899   22.5735   34.7670 H   0  0  0  0  0
   59.4068   21.7751   34.4593 H   0  0  0  0  0
  1  2  1  0  0  0
  2  3  1  0  0  0
  2  5  1  0  0  0
  3  4  1  0  0  0
  3 10  2  0  0  0
  5  6  1  0  0  0
  6  7  1  0  0  0
  7  8  1  0  0  0
  7  9  2  0  0  0
  1 11  1  0  0  0
  1 12  1  0  0  0
  1 13  1  0  0  0
  2 14  1  0  0  0
  4 15  1  0  0  0
  5 16  1  0  0  0
  5 17  1  0  0  0
  6 18  1  0  0  0
  6 19  1  0  0  0
  8 20  1  0  0  0
M  END
$$$$
