5dit_ligand
  -I-interpret- 

106110  0  0  0  0  0  0  0  0999 V2000
  -11.2740   -2.6780  -25.4880 C   0  0  0  0  0
  -11.7840   -3.9700  -24.8440 C   0  0  0  0  0
  -11.3230   -3.9560  -23.4000 C   0  0  0  0  0
   -9.8090   -4.0860  -23.3480 C   0  0  0  0  0
   -9.1260   -3.0090  -24.1980 C   0  0  0  0  0
   -9.7290   -2.9290  -25.6080 C   0  0  0  0  0
   -8.9660   -1.8670  -26.4670 C   0  0  0  0  0
   -9.5770   -1.7680  -27.8870 C   0  0  0  0  0
   -8.6540   -0.9960  -28.8250 C   0  0  0  0  0
   -9.7550   -3.0760  -28.4410 O   0  0  0  0  0
   -8.9380   -0.4560  -25.8000 C   0  0  0  0  0
  -10.0110    0.0810  -25.4920 O   0  0  0  0  0
   -7.7280    0.1510  -25.5690 N   0  0  0  0  0
   -6.3780   -0.4140  -25.9620 C   0  0  0  0  0
   -5.2800   -0.1560  -24.9990 C   0  0  0  0  0
   -5.2990    1.3300  -24.7100 C   0  0  0  0  0
   -6.5870    1.7330  -24.0180 C   0  0  0  0  0
   -7.7730    1.5190  -24.9530 C   0  0  0  0  0
   -7.8250    2.5220  -25.9620 C   0  0  0  0  0
   -8.2450    3.6580  -25.7160 O   0  0  0  0  0
   -7.3810    2.1280  -27.1980 O   0  0  0  0  0
   -7.4490    3.0970  -28.2680 C   0  0  0  0  0
   -8.8520    3.0260  -28.8550 C   0  0  0  0  0
   -9.1550    4.2010  -29.7490 C   0  0  0  0  0
   -9.4860    5.4070  -29.0650 C   0  0  0  0  0
  -10.7180    5.6330  -28.4180 C   0  0  0  0  0
   -8.5500    6.4360  -29.1060 C   0  0  0  0  0
   -8.8010    7.6480  -28.4910 C   0  0  0  0  0
  -10.0040    7.8730  -27.8310 C   0  0  0  0  0
  -10.2090    9.1050  -27.2550 O   0  0  0  0  0
  -11.0540    9.3260  -26.1130 C   0  0  0  0  0
  -10.9810    6.8680  -27.8010 C   0  0  0  0  0
  -12.1310    7.1690  -27.1300 O   0  0  0  0  0
  -13.3580    6.5980  -27.6150 C   0  0  0  0  0
   -6.3900    2.7310  -29.1200 C   0  0  0  0  0
   -5.3340    3.6120  -29.2690 C   0  0  0  0  0
   -6.3050    1.4910  -29.7490 C   0  0  0  0  0
   -5.2090    1.1690  -30.5530 C   0  0  0  0  0
   -4.1650    2.0820  -30.7140 C   0  0  0  0  0
   -4.2380    3.3070  -30.0540 C   0  0  0  0  0
   -3.2990    4.2830  -30.1520 O   0  0  0  0  0
   -1.9570    3.9060  -30.3120 C   0  0  0  0  0
   -1.1620    5.1180  -29.8450 C   0  0  0  0  0
   -0.7600    6.0250  -30.9590 N   0  3  0  0  0
   -1.8780    6.4790  -31.8100 C   0  0  0  0  0
   -1.3760    7.3180  -32.9850 C   0  0  0  0  0
   -0.3240    6.5930  -33.6810 O   0  0  0  0  0
    0.8080    6.4660  -32.8530 C   0  0  0  0  0
    0.3560    5.4840  -31.7630 C   0  0  0  0  0
  -11.5135   -1.7908  -24.9018 H   0  0  0  0  0
  -11.7442   -2.4711  -26.4494 H   0  0  0  0  0
  -11.3916   -4.8427  -25.3661 H   0  0  0  0  0
  -12.8710   -4.0272  -24.9017 H   0  0  0  0  0
  -11.7772   -4.7908  -22.8662 H   0  0  0  0  0
  -11.6227   -3.0179  -22.9327 H   0  0  0  0  0
   -9.5318   -5.0643  -23.7406 H   0  0  0  0  0
   -9.4866   -3.9668  -22.3136 H   0  0  0  0  0
   -8.0702   -3.2636  -24.2905 H   0  0  0  0  0
   -9.2680   -2.0452  -23.7091 H   0  0  0  0  0
   -9.6046   -3.8712  -26.1418 H   0  0  0  0  0
   -7.9345   -2.2120  -26.5382 H   0  0  0  0  0
  -10.5330   -1.2528  -27.7940 H   0  0  0  0  0
   -7.6973   -1.5132  -28.8982 H   0  0  0  0  0
   -9.1113   -0.9336  -29.8125 H   0  0  0  0  0
   -8.4963    0.0084  -28.4321 H   0  0  0  0  0
  -10.1338   -3.0012  -29.3199 H   0  0  0  0  0
   -6.0955    0.0720  -26.8958 H   0  0  0  0  0
   -6.4964   -1.4961  -26.0186 H   0  0  0  0  0
   -4.3189   -0.4598  -25.4137 H   0  0  0  0  0
   -5.4205   -0.7324  -24.0846 H   0  0  0  0  0
   -5.2252    1.8706  -25.6536 H   0  0  0  0  0
   -4.4608    1.5696  -24.0557 H   0  0  0  0  0
   -6.5320    2.7869  -23.7451 H   0  0  0  0  0
   -6.7201    1.1217  -23.1254 H   0  0  0  0  0
   -8.6818    1.5975  -24.3564 H   0  0  0  0  0
   -7.3180    4.1452  -27.9994 H   0  0  0  0  0
   -9.5653    3.0340  -28.0309 H   0  0  0  0  0
   -8.9240    2.1174  -29.4529 H   0  0  0  0  0
  -10.0257    3.9274  -30.3449 H   0  0  0  0  0
   -8.2503    4.4021  -30.3227 H   0  0  0  0  0
  -11.4710    4.8452  -28.3962 H   0  0  0  0  0
   -7.6064    6.2841  -29.6301 H   0  0  0  0  0
   -8.0482    8.4356  -28.5237 H   0  0  0  0  0
  -12.0719    9.0170  -26.3506 H   0  0  0  0  0
  -10.6833    8.7428  -25.2700 H   0  0  0  0  0
  -11.0452   10.3851  -25.8556 H   0  0  0  0  0
  -13.5301    6.9267  -28.6399 H   0  0  0  0  0
  -13.2869    5.5107  -27.5879 H   0  0  0  0  0
  -14.1841    6.9252  -26.9836 H   0  0  0  0  0
   -5.3671    4.5720  -28.7538 H   0  0  0  0  0
   -7.1041    0.7625  -29.6120 H   0  0  0  0  0
   -5.1687    0.2028  -31.0558 H   0  0  0  0  0
   -3.3089    1.8410  -31.3442 H   0  0  0  0  0
   -1.7277    3.6399  -31.3439 H   0  0  0  0  0
   -1.7128    3.0117  -29.7387 H   0  0  0  0  0
   -0.2503    4.7520  -29.3729 H   0  0  0  0  0
   -1.7984    5.6888  -29.1688 H   0  0  0  0  0
   -0.4184    6.8634  -30.4892 H   0  0  0  0  0
   -2.5469    7.0924  -31.2063 H   0  0  0  0  0
   -2.3924    5.6025  -32.2041 H   0  0  0  0  0
   -0.9824    8.2646  -32.6148 H   0  0  0  0  0
   -2.1998    7.5128  -33.6717 H   0  0  0  0  0
    1.1309    7.4225  -32.4419 H   0  0  0  0  0
    1.6822    6.1085  -33.3971 H   0  0  0  0  0
    0.0147    4.5695  -32.2482 H   0  0  0  0  0
    1.1994    5.3022  -31.0968 H   0  0  0  0  0
  1  2  1  0  0  0
  1  6  1  0  0  0
  2  3  1  0  0  0
  3  4  1  0  0  0
  4  5  1  0  0  0
  5  6  1  0  0  0
  6  7  1  0  0  0
  7  8  1  0  0  0
  7 11  1  0  0  0
  8  9  1  0  0  0
  8 10  1  0  0  0
 11 12  2  0  0  0
 11 13  1  0  0  0
 13 14  1  0  0  0
 13 18  1  0  0  0
 14 15  1  0  0  0
 15 16  1  0  0  0
 16 17  1  0  0  0
 17 18  1  0  0  0
 18 19  1  0  0  0
 19 20  2  0  0  0
 19 21  1  0  0  0
 21 22  1  0  0  0
 22 23  1  0  0  0
 22 35  1  0  0  0
 23 24  1  0  0  0
 24 25  1  0  0  0
 25 26  4  0  0  0
 25 27  4  0  0  0
 26 32  4  0  0  0
 27 28  4  0  0  0
 28 29  4  0  0  0
 29 30  1  0  0  0
 29 32  4  0  0  0
 30 31  1  0  0  0
 32 33  1  0  0  0
 33 34  1  0  0  0
 35 36  4  0  0  0
 35 37  4  0  0  0
 36 40  4  0  0  0
 37 38  4  0  0  0
 38 39  4  0  0  0
 39 40  4  0  0  0
 40 41  1  0  0  0
 41 42  1  0  0  0
 42 43  1  0  0  0
 43 44  1  0  0  0
 44 45  1  0  0  0
 44 49  1  0  0  0
 45 46  1  0  0  0
 46 47  1  0  0  0
 47 48  1  0  0  0
 48 49  1  0  0  0
  1 50  1  0  0  0
  1 51  1  0  0  0
  2 52  1  0  0  0
  2 53  1  0  0  0
  3 54  1  0  0  0
  3 55  1  0  0  0
  4 56  1  0  0  0
  4 57  1  0  0  0
  5 58  1  0  0  0
  5 59  1  0  0  0
  6 60  1  0  0  0
  7 61  1  0  0  0
  8 62  1  0  0  0
  9 63  1  0  0  0
  9 64  1  0  0  0
  9 65  1  0  0  0
 10 66  1  0  0  0
 14 67  1  0  0  0
 14 68  1  0  0  0
 15 69  1  0  0  0
 15 70  1  0  0  0
 16 71  1  0  0  0
 16 72  1  0  0  0
 17 73  1  0  0  0
 17 74  1  0  0  0
 18 75  1  0  0  0
 22 76  1  0  0  0
 23 77  1  0  0  0
 23 78  1  0  0  0
 24 79  1  0  0  0
 24 80  1  0  0  0
 26 81  1  0  0  0
 27 82  1  0  0  0
 28 83  1  0  0  0
 31 84  1  0  0  0
 31 85  1  0  0  0
 31 86  1  0  0  0
 34 87  1  0  0  0
 34 88  1  0  0  0
 34 89  1  0  0  0
 36 90  1  0  0  0
 37 91  1  0  0  0
 38 92  1  0  0  0
 39 93  1  0  0  0
 42 94  1  0  0  0
 42 95  1  0  0  0
 43 96  1  0  0  0
 43 97  1  0  0  0
 44 98  1  0  0  0
 45 99  1  0  0  0
 45100  1  0  0  0
 46101  1  0  0  0
 46102  1  0  0  0
 48103  1  0  0  0
 48104  1  0  0  0
 49105  1  0  0  0
 49106  1  0  0  0
M  END
$$$$
