5v3o_ligand
  -I-interpret- 

 61 65  0  0  0  0  0  0  0  0999 V2000
   46.8520   57.2640  -37.7450 C   0  0  0  0  0
   48.1840   56.9090  -37.9290 C   0  0  0  0  0
   48.5360   55.5840  -38.1810 C   0  0  0  0  0
   45.8500   56.3010  -37.8110 C   0  0  0  0  0
   46.1890   54.9740  -38.0670 C   0  0  0  0  0
   47.5240   54.6390  -38.2460 C   0  0  0  0  0
   46.2150   52.7450  -38.4290 N   0  0  0  0  0
   46.7510   49.1230  -37.8760 N   0  0  0  0  0
   52.1100   56.3750  -31.6400 N   0  3  0  0  0
   44.2150   53.7520  -38.0730 O   0  0  0  0  0
   47.6240   53.1430  -38.5000 C   0  0  0  0  0
   45.4390   53.8030  -38.1880 C   0  0  0  0  0
   45.7460   51.3610  -38.5890 C   0  0  0  0  0
   46.0370   50.8760  -40.0060 C   0  0  0  0  0
   45.6640   49.4020  -40.1560 C   0  0  0  0  0
   46.3820   48.5600  -39.1030 C   0  0  0  0  0
   46.4700   50.4640  -37.5790 C   0  0  0  0  0
   50.8150   56.1110  -37.8930 C   0  0  0  0  0
   51.3390   56.0060  -36.6060 C   0  0  0  0  0
   46.8050   50.9210  -36.4880 O   0  0  0  0  0
   52.2180   55.7380  -30.3160 C   0  0  0  0  0
   51.3040   56.4720  -29.3280 C   0  0  0  0  0
   51.6190   57.8810  -29.2650 O   0  0  0  0  0
   51.5230   58.4920  -30.5650 C   0  0  0  0  0
   52.5040   57.7870  -31.5040 C   0  0  0  0  0
   52.9790   55.6880  -32.6150 C   0  0  0  0  0
   52.3960   55.7950  -34.0320 C   0  0  0  0  0
   52.2550   54.6600  -34.8240 C   0  0  0  0  0
   51.7280   54.7630  -36.1070 C   0  0  0  0  0
   52.0090   57.0320  -34.5390 C   0  0  0  0  0
   51.4820   57.1460  -35.8200 C   0  0  0  0  0
   49.8290   55.1820  -38.3710 O   0  0  0  0  0
   46.6390   47.3810  -39.3330 O   0  0  0  0  0
   46.5912   58.3038  -37.5477 H   0  0  0  0  0
   48.9593   57.6733  -37.8757 H   0  0  0  0  0
   44.8074   56.5826  -37.6635 H   0  0  0  0  0
   47.2330   48.5474  -37.1855 H   0  0  0  0  0
   51.1507   56.3119  -31.9809 H   0  0  0  0  0
   48.2636   52.6196  -37.7894 H   0  0  0  0  0
   48.1038   52.8901  -39.4455 H   0  0  0  0  0
   44.6711   51.3191  -38.4129 H   0  0  0  0  0
   47.1016   50.9936  -40.2083 H   0  0  0  0  0
   45.4464   51.4634  -40.7090 H   0  0  0  0  0
   45.9620   49.0599  -41.1471 H   0  0  0  0  0
   44.5876   49.2933  -40.0233 H   0  0  0  0  0
   51.6740   55.9405  -38.5419 H   0  0  0  0  0
   50.2942   57.0685  -37.8881 H   0  0  0  0  0
   53.2497   55.7898  -29.9680 H   0  0  0  0  0
   51.9161   54.6930  -30.3869 H   0  0  0  0  0
   51.4478   56.0406  -28.3374 H   0  0  0  0  0
   50.2728   56.3626  -29.6637 H   0  0  0  0  0
   51.7677   59.5521  -30.4977 H   0  0  0  0  0
   50.5068   58.3968  -30.9476 H   0  0  0  0  0
   52.4863   58.2685  -32.4817 H   0  0  0  0  0
   53.5123   57.8486  -31.0945 H   0  0  0  0  0
   53.0510   54.6351  -32.3422 H   0  0  0  0  0
   53.9626   56.1575  -32.6024 H   0  0  0  0  0
   52.5585   53.6869  -34.4378 H   0  0  0  0  0
   51.6188   53.8708  -36.7236 H   0  0  0  0  0
   52.1208   57.9241  -33.9227 H   0  0  0  0  0
   51.1830   58.1205  -36.2062 H   0  0  0  0  0
  2  1  4  0  0  0
  1  4  4  0  0  0
  3  2  4  0  0  0
  3  6  4  0  0  0
 32  3  1  0  0  0
  5  4  4  0  0  0
  6  5  4  0  0  0
  5 12  1  0  0  0
  6 11  1  0  0  0
 11  7  1  0  0  0
  7 12  1  0  0  0
  7 13  1  0  0  0
  8 16  1  0  0  0
 17  8  1  0  0  0
  9 21  1  0  0  0
  9 25  1  0  0  0
 26  9  1  0  0  0
 12 10  2  0  0  0
 13 14  1  0  0  0
 13 17  1  0  0  0
 14 15  1  0  0  0
 15 16  1  0  0  0
 16 33  2  0  0  0
 17 20  2  0  0  0
 19 18  1  0  0  0
 18 32  1  0  0  0
 29 19  4  0  0  0
 19 31  4  0  0  0
 21 22  1  0  0  0
 22 23  1  0  0  0
 24 23  1  0  0  0
 25 24  1  0  0  0
 27 26  1  0  0  0
 28 27  4  0  0  0
 27 30  4  0  0  0
 28 29  4  0  0  0
 30 31  4  0  0  0
  1 34  1  0  0  0
  2 35  1  0  0  0
  4 36  1  0  0  0
  8 37  1  0  0  0
  9 38  1  0  0  0
 11 39  1  0  0  0
 11 40  1  0  0  0
 13 41  1  0  0  0
 14 42  1  0  0  0
 14 43  1  0  0  0
 15 44  1  0  0  0
 15 45  1  0  0  0
 18 46  1  0  0  0
 18 47  1  0  0  0
 21 48  1  0  0  0
 21 49  1  0  0  0
 22 50  1  0  0  0
 22 51  1  0  0  0
 24 52  1  0  0  0
 24 53  1  0  0  0
 25 54  1  0  0  0
 25 55  1  0  0  0
 26 56  1  0  0  0
 26 57  1  0  0  0
 28 58  1  0  0  0
 29 59  1  0  0  0
 30 60  1  0  0  0
 31 61  1  0  0  0
M  END
$$$$
