5d0c_ligand
  -I-interpret- 

 54 57  0  0  0  0  0  0  0  0999 V2000
    5.7320    9.6900   -3.3530 C   0  0  0  0  0
    5.3800    9.3220   -4.7760 C   0  0  0  0  0
    5.6360    7.8510   -4.8640 N   0  0  0  0  0
    6.6850    7.3030   -5.5250 C   0  0  0  0  0
    7.4830    7.9560   -6.2000 O   0  0  0  0  0
    6.8790    5.7800   -5.5290 C   0  0  0  0  0
    4.6830    7.1160   -3.9770 C   0  0  0  0  0
    4.9690    7.4350   -2.5360 C   0  0  0  0  0
    4.7910    8.9530   -2.3650 C   0  0  0  0  0
    5.0840    9.2910   -0.9070 C   0  0  0  0  0
    4.7260   10.7110   -0.6010 N   0  0  0  0  0
    5.5540   11.4180    0.6080 S   0  0  0  0  0
    6.9970   11.4350    0.2520 O   0  0  0  0  0
    4.8760   12.7330    0.8270 O   0  0  0  0  0
    5.3260   10.4150    2.0710 C   0  0  0  0  0
    6.4460    9.8570    2.6480 C   0  0  0  0  0
    6.3820    9.0490    3.7760 C   0  0  0  0  0
    5.1680    8.8020    4.3320 C   0  0  0  0  0
    4.0720    9.3320    3.7420 C   0  0  0  0  0
    4.0710   10.1320    2.6560 C   0  0  0  0  0
    2.8140   10.6060    2.1780 C   0  0  0  0  0
    1.6530   10.2160    2.8730 C   0  0  0  0  0
    1.7620    9.3670    3.9870 C   0  0  0  0  0
    2.9790    8.9420    4.4270 C   0  0  0  0  0
    3.4430    8.1110    5.4250 C   0  0  0  0  0
    2.7780    7.4110    6.2210 O   0  0  0  0  0
    4.7670    8.0390    5.3640 N   0  0  0  0  0
    5.6450    7.2480    6.2370 C   0  0  0  0  0
    5.8530    5.8370    5.6520 C   0  0  0  0  0
    5.6167   10.7660   -3.2223 H   0  0  0  0  0
    6.7626    9.3974   -3.1519 H   0  0  0  0  0
    5.9739    9.8814   -5.4988 H   0  0  0  0  0
    4.3457    9.5692   -5.0153 H   0  0  0  0  0
    6.7872    5.4060   -6.5487 H   0  0  0  0  0
    7.8687    5.5401   -5.1404 H   0  0  0  0  0
    6.1184    5.3165   -4.9007 H   0  0  0  0  0
    4.7998    6.0441   -4.1364 H   0  0  0  0  0
    3.6641    7.4208   -4.2157 H   0  0  0  0  0
    5.9820    7.1339   -2.2690 H   0  0  0  0  0
    4.2895    6.8915   -1.8794 H   0  0  0  0  0
    3.7755    9.2751   -2.5956 H   0  0  0  0  0
    6.1496    9.1527   -0.7242 H   0  0  0  0  0
    4.4886    8.6362   -0.2707 H   0  0  0  0  0
    4.0032   11.2082   -1.1213 H   0  0  0  0  0
    7.4201   10.0575    2.2019 H   0  0  0  0  0
    7.2879    8.6219    4.2062 H   0  0  0  0  0
    2.7536   11.2507    1.3012 H   0  0  0  0  0
    0.6749   10.5710    2.5483 H   0  0  0  0  0
    0.8599    9.0438    4.5066 H   0  0  0  0  0
    5.1831    7.1605    7.2204 H   0  0  0  0  0
    6.6112    7.7464    6.3149 H   0  0  0  0  0
    4.8894    5.3347    5.5669 H   0  0  0  0  0
    6.3105    5.9177    4.6659 H   0  0  0  0  0
    6.5057    5.2644    6.3110 H   0  0  0  0  0
  1  2  1  0  0  0
  1  9  1  0  0  0
  2  3  1  0  0  0
  3  4  1  0  0  0
  3  7  1  0  0  0
  4  5  2  0  0  0
  4  6  1  0  0  0
  7  8  1  0  0  0
  8  9  1  0  0  0
  9 10  1  0  0  0
 10 11  1  0  0  0
 11 12  1  0  0  0
 12 13  2  0  0  0
 12 14  2  0  0  0
 12 15  1  0  0  0
 15 16  4  0  0  0
 15 20  4  0  0  0
 16 17  4  0  0  0
 17 18  4  0  0  0
 18 19  4  0  0  0
 18 27  1  0  0  0
 19 20  4  0  0  0
 19 24  4  0  0  0
 20 21  4  0  0  0
 21 22  4  0  0  0
 22 23  4  0  0  0
 23 24  4  0  0  0
 24 25  1  0  0  0
 25 26  2  0  0  0
 25 27  1  0  0  0
 27 28  1  0  0  0
 28 29  1  0  0  0
  1 30  1  0  0  0
  1 31  1  0  0  0
  2 32  1  0  0  0
  2 33  1  0  0  0
  6 34  1  0  0  0
  6 35  1  0  0  0
  6 36  1  0  0  0
  7 37  1  0  0  0
  7 38  1  0  0  0
  8 39  1  0  0  0
  8 40  1  0  0  0
  9 41  1  0  0  0
 10 42  1  0  0  0
 10 43  1  0  0  0
 11 44  1  0  0  0
 16 45  1  0  0  0
 17 46  1  0  0  0
 21 47  1  0  0  0
 22 48  1  0  0  0
 23 49  1  0  0  0
 28 50  1  0  0  0
 28 51  1  0  0  0
 29 52  1  0  0  0
 29 53  1  0  0  0
 29 54  1  0  0  0
M  END
$$$$
