5w7i_ligand
  -I-interpret- 

131131  0  0  0  0  0  0  0  0999 V2000
    1.5690   30.2720    2.5360 N   0  3  0  0  0
    1.1910   29.4340    1.4140 C   0  0  0  0  0
    1.2490   30.1470    0.0730 C   0  0  0  0  0
    1.4600   31.3620    0.0020 O   0  0  0  0  0
    1.0840   29.3830   -0.9990 N   0  0  0  0  0
    0.9950   29.9500   -2.3300 C   0  0  0  0  0
   -0.4710   30.2490   -2.6240 C   0  0  0  0  0
   -1.3770   29.7690   -1.9340 O   0  0  0  0  0
    1.6220   28.9990   -3.3790 C   0  0  0  0  0
    3.0050   28.5710   -2.9350 C   0  0  0  0  0
    0.7760   27.7810   -3.5860 C   0  0  0  0  0
   -0.7200   31.0720   -3.6390 N   0  0  0  0  0
   -2.0870   31.4180   -4.0340 C   0  0  0  0  0
   -2.5770   30.3670   -5.0210 C   0  0  0  0  0
   -2.0620   30.2640   -6.1410 O   0  0  0  0  0
   -2.1770   32.8170   -4.6540 C   0  0  0  0  0
   -3.6300   33.1300   -4.9830 C   0  0  0  0  0
   -1.5700   33.8780   -3.7230 C   0  0  0  0  0
   -3.5770   29.5840   -4.6160 N   0  0  0  0  0
   -4.1400   28.5820   -5.5130 C   0  0  0  0  0
   -5.6410   28.7500   -5.6640 C   0  0  0  0  0
   -6.3220   27.8180   -6.0980 O   0  0  0  0  0
   -3.8060   27.1670   -5.0500 C   0  0  0  0  0
   -6.1540   29.9380   -5.3310 N   0  0  0  0  0
   -7.5590   30.2920   -5.4640 C   0  0  0  0  0
   -7.6600   31.6290   -6.1780 C   0  0  0  0  0
   -6.9180   32.5570   -5.8680 O   0  0  0  0  0
   -8.2400   30.4110   -4.0990 C   0  0  0  0  0
   -7.7290   29.4520   -3.1880 O   0  0  0  0  0
   -8.5920   31.7420   -7.1060 N   0  0  0  0  0
   -8.7170   32.9790   -7.8560 C   0  0  0  0  0
   -9.3260   34.0890   -6.9930 C   0  0  0  0  0
  -10.1190   33.8180   -6.0910 O   0  0  0  0  0
   -9.5790   32.7460   -9.0870 C   0  0  0  0  0
  -10.9700   32.2370   -8.7780 C   0  0  0  0  0
  -11.8450   32.1610  -10.0290 C   0  0  0  0  0
  -11.9950   33.1490  -10.7650 O   0  0  0  0  0
  -12.4090   30.9770  -10.2880 N   0  0  0  0  0
   -8.9850   35.3530   -7.2700 N   0  0  0  0  0
   -9.6110   36.4710   -6.5490 C   0  0  0  0  0
  -11.1300   36.4070   -6.6230 C   0  0  0  0  0
  -11.7020   36.0420   -7.6450 O   0  0  0  0  0
   -9.0680   37.7060   -7.2740 C   0  0  0  0  0
   -7.7690   37.2650   -7.8540 C   0  0  0  0  0
   -7.9770   35.8160   -8.2400 C   0  0  0  0  0
  -11.7910   36.7680   -5.5300 N   0  0  0  0  0
  -13.2460   36.6970   -5.4760 C   0  0  0  0  0
  -13.8330   38.0210   -5.0000 C   0  0  0  0  0
  -13.1290   38.8940   -4.4810 O   0  0  0  0  0
  -13.7180   35.5530   -4.5720 C   0  0  0  0  0
  -15.1440   38.1590   -5.2040 N   0  0  0  0  0
  -15.8990   39.2700   -4.6390 C   0  0  0  0  0
  -15.7350   39.2880   -3.1190 C   0  0  0  0  0
  -15.4730   38.2610   -2.4860 O   0  0  0  0  0
  -17.3790   39.1580   -5.0240 C   0  0  0  0  0
  -15.8510   40.4730   -2.5310 N   0  0  0  0  0
  -15.7530   40.5910   -1.0840 C   0  0  0  0  0
  -17.0540   40.1040   -0.4700 C   0  0  0  0  0
  -18.1320   40.3510   -1.0140 O   0  0  0  0  0
  -15.4390   42.0230   -0.6480 C   0  0  0  0  0
  -15.4850   42.1280    0.8670 C   0  0  0  0  0
  -14.0710   42.4350   -1.1730 C   0  0  0  0  0
  -17.0530   39.4420    0.5730 O   0  0  0  0  0
    1.5073   29.7313    3.3987 H   0  0  0  0  0
    2.5261   30.5999    2.4066 H   0  0  0  0  0
    0.9384   31.0720    2.5889 H   0  0  0  0  0
    0.1588   29.1220    1.5731 H   0  0  0  0  0
    1.8975   28.6050    1.3735 H   0  0  0  0  0
    1.0181   28.3717   -0.8837 H   0  0  0  0  0
    1.5632   30.8786   -2.3851 H   0  0  0  0  0
    1.6860   29.5442   -4.3207 H   0  0  0  0  0
    2.9291   28.0132   -2.0016 H   0  0  0  0  0
    3.4521   27.9389   -3.7022 H   0  0  0  0  0
    3.6257   29.4539   -2.7826 H   0  0  0  0  0
    1.2293   27.1511   -4.3514 H   0  0  0  0  0
    0.7063   27.2254   -2.6508 H   0  0  0  0  0
   -0.2213   28.0830   -3.9059 H   0  0  0  0  0
    0.0624   31.4729   -4.1562 H   0  0  0  0  0
   -2.7158   31.4337   -3.1438 H   0  0  0  0  0
   -1.5958   32.8362   -5.5759 H   0  0  0  0  0
   -4.0081   32.3920   -5.6905 H   0  0  0  0  0
   -4.2234   33.0966   -4.0693 H   0  0  0  0  0
   -3.6952   34.1247   -5.4240 H   0  0  0  0  0
   -2.1107   33.8812   -2.7766 H   0  0  0  0  0
   -0.5208   33.6439   -3.5427 H   0  0  0  0  0
   -1.6494   34.8589   -4.1916 H   0  0  0  0  0
   -3.9507   29.6866   -3.6725 H   0  0  0  0  0
   -3.6822   28.7364   -6.4901 H   0  0  0  0  0
   -2.7237   27.0401   -5.0255 H   0  0  0  0  0
   -4.2146   27.0066   -4.0523 H   0  0  0  0  0
   -4.2419   26.4471   -5.7426 H   0  0  0  0  0
   -5.5184   30.6436   -4.9588 H   0  0  0  0  0
   -8.0588   29.5054   -6.0292 H   0  0  0  0  0
   -9.3085   30.2367   -4.2260 H   0  0  0  0  0
   -8.0495   31.4073   -3.6999 H   0  0  0  0  0
   -8.1721   29.5483   -2.3418 H   0  0  0  0  0
   -9.2223   30.9628   -7.2956 H   0  0  0  0  0
   -7.7207   33.2975   -8.1626 H   0  0  0  0  0
   -9.0830   31.9849   -9.6893 H   0  0  0  0  0
   -9.6908   33.7067   -9.5896 H   0  0  0  0  0
  -11.4375   32.9288   -8.0774 H   0  0  0  0  0
  -10.8805   31.2327   -8.3639 H   0  0  0  0  0
  -12.9895   30.8594  -11.1184 H   0  0  0  0  0
  -12.2588   30.1912   -9.6552 H   0  0  0  0  0
   -9.3819   36.4669   -5.4833 H   0  0  0  0  0
   -8.9446   38.5522   -6.5981 H   0  0  0  0  0
   -9.7556   38.0615   -8.0414 H   0  0  0  0  0
   -6.9520   37.3776   -7.1414 H   0  0  0  0  0
   -7.4856   37.8729   -8.7132 H   0  0  0  0  0
   -8.3016   35.6978   -9.2738 H   0  0  0  0  0
   -7.0565   35.2334   -8.2016 H   0  0  0  0  0
  -11.2734   37.0999   -4.7162 H   0  0  0  0  0
  -13.6024   36.4976   -6.4866 H   0  0  0  0  0
  -13.3394   34.6066   -4.9582 H   0  0  0  0  0
  -13.3415   35.7112   -3.5614 H   0  0  0  0  0
  -14.8076   35.5304   -4.5557 H   0  0  0  0  0
  -15.6323   37.4667   -5.7720 H   0  0  0  0  0
  -15.5128   40.2059   -5.0428 H   0  0  0  0  0
  -17.4732   39.1786   -6.1097 H   0  0  0  0  0
  -17.7829   38.2210   -4.6406 H   0  0  0  0  0
  -17.9292   39.9951   -4.5944 H   0  0  0  0  0
  -16.0099   41.3062   -3.0975 H   0  0  0  0  0
  -14.9251   39.9752   -0.7325 H   0  0  0  0  0
  -16.1884   42.6970   -1.0629 H   0  0  0  0  0
  -16.4801   41.8559    1.2187 H   0  0  0  0  0
  -14.7478   41.4515    1.2994 H   0  0  0  0  0
  -15.2599   43.1517    1.1660 H   0  0  0  0  0
  -13.3122   41.7620   -0.7737 H   0  0  0  0  0
  -14.0697   42.3811   -2.2617 H   0  0  0  0  0
  -13.8548   43.4559   -0.8582 H   0  0  0  0  0
  -16.1499   39.3302    0.8789 H   0  0  0  0  0
  1  2  1  0  0  0
  2  3  1  0  0  0
  3  4  2  0  0  0
  3  5  1  0  0  0
  5  6  1  0  0  0
  6  7  1  0  0  0
  6  9  1  0  0  0
  7  8  2  0  0  0
  7 12  1  0  0  0
  9 10  1  0  0  0
  9 11  1  0  0  0
 12 13  1  0  0  0
 13 14  1  0  0  0
 13 16  1  0  0  0
 14 15  2  0  0  0
 14 19  1  0  0  0
 16 17  1  0  0  0
 16 18  1  0  0  0
 19 20  1  0  0  0
 20 21  1  0  0  0
 20 23  1  0  0  0
 21 22  2  0  0  0
 21 24  1  0  0  0
 24 25  1  0  0  0
 25 26  1  0  0  0
 25 28  1  0  0  0
 26 27  2  0  0  0
 26 30  1  0  0  0
 28 29  1  0  0  0
 30 31  1  0  0  0
 31 32  1  0  0  0
 31 34  1  0  0  0
 32 33  2  0  0  0
 32 39  1  0  0  0
 34 35  1  0  0  0
 35 36  1  0  0  0
 36 37  2  0  0  0
 36 38  1  0  0  0
 39 40  1  0  0  0
 39 45  1  0  0  0
 40 41  1  0  0  0
 40 43  1  0  0  0
 41 42  2  0  0  0
 41 46  1  0  0  0
 43 44  1  0  0  0
 44 45  1  0  0  0
 46 47  1  0  0  0
 47 48  1  0  0  0
 47 50  1  0  0  0
 48 49  2  0  0  0
 48 51  1  0  0  0
 51 52  1  0  0  0
 52 53  1  0  0  0
 52 55  1  0  0  0
 53 54  2  0  0  0
 53 56  1  0  0  0
 56 57  1  0  0  0
 57 58  1  0  0  0
 57 60  1  0  0  0
 58 59  2  0  0  0
 58 63  1  0  0  0
 60 61  1  0  0  0
 60 62  1  0  0  0
  1 64  1  0  0  0
  1 65  1  0  0  0
  1 66  1  0  0  0
  2 67  1  0  0  0
  2 68  1  0  0  0
  5 69  1  0  0  0
  6 70  1  0  0  0
  9 71  1  0  0  0
 10 72  1  0  0  0
 10 73  1  0  0  0
 10 74  1  0  0  0
 11 75  1  0  0  0
 11 76  1  0  0  0
 11 77  1  0  0  0
 12 78  1  0  0  0
 13 79  1  0  0  0
 16 80  1  0  0  0
 17 81  1  0  0  0
 17 82  1  0  0  0
 17 83  1  0  0  0
 18 84  1  0  0  0
 18 85  1  0  0  0
 18 86  1  0  0  0
 19 87  1  0  0  0
 20 88  1  0  0  0
 23 89  1  0  0  0
 23 90  1  0  0  0
 23 91  1  0  0  0
 24 92  1  0  0  0
 25 93  1  0  0  0
 28 94  1  0  0  0
 28 95  1  0  0  0
 29 96  1  0  0  0
 30 97  1  0  0  0
 31 98  1  0  0  0
 34 99  1  0  0  0
 34100  1  0  0  0
 35101  1  0  0  0
 35102  1  0  0  0
 38103  1  0  0  0
 38104  1  0  0  0
 40105  1  0  0  0
 43106  1  0  0  0
 43107  1  0  0  0
 44108  1  0  0  0
 44109  1  0  0  0
 45110  1  0  0  0
 45111  1  0  0  0
 46112  1  0  0  0
 47113  1  0  0  0
 50114  1  0  0  0
 50115  1  0  0  0
 50116  1  0  0  0
 51117  1  0  0  0
 52118  1  0  0  0
 55119  1  0  0  0
 55120  1  0  0  0
 55121  1  0  0  0
 56122  1  0  0  0
 57123  1  0  0  0
 60124  1  0  0  0
 61125  1  0  0  0
 61126  1  0  0  0
 61127  1  0  0  0
 62128  1  0  0  0
 62129  1  0  0  0
 62130  1  0  0  0
 63131  1  0  0  0
M  END
$$$$
