### 
### Created by X-TOOL on Mon Sep 10 21:13:31 2018
### 

@<TRIPOS>MOLECULE
5w7i_ligand
  130   130     1     0     0
SMALL
GAST_HUCK


@<TRIPOS>ATOM
      1 N           1.5690   30.2720    2.5360 N.4       1 GLY         0.2357
      2 CA          1.1910   29.4340    1.4140 C.3       1 GLY         0.0545
      3 C           1.2490   30.1470    0.0730 C.2       1 GLY         0.2236
      4 O           1.4600   31.3620    0.0020 O.2       1 GLY        -0.3910
      5 N           1.0840   29.3830   -0.9990 N.am      1 VAL        -0.2610
      6 CA          0.9950   29.9500   -2.3300 C.3       1 VAL         0.1334
      7 C          -0.4710   30.2490   -2.6240 C.2       1 VAL         0.2042
      8 O          -1.3770   29.7690   -1.9340 O.2       1 VAL        -0.3944
      9 CB          1.6220   28.9990   -3.3790 C.3       1 VAL        -0.0063
     10 CG1         3.0050   28.5710   -2.9350 C.3       1 VAL        -0.0584
     11 CG2         0.7760   27.7810   -3.5860 C.3       1 VAL        -0.0584
     12 N          -0.7200   31.0720   -3.6390 N.am      1 VAL        -0.2635
     13 CA         -2.0870   31.4180   -4.0340 C.3       1 VAL         0.1332
     14 C          -2.5770   30.3670   -5.0210 C.2       1 VAL         0.2041
     15 O          -2.0620   30.2640   -6.1410 O.2       1 VAL        -0.3944
     16 CB         -2.1770   32.8170   -4.6540 C.3       1 VAL        -0.0063
     17 CG1        -3.6300   33.1300   -4.9830 C.3       1 VAL        -0.0584
     18 CG2        -1.5700   33.8780   -3.7230 C.3       1 VAL        -0.0584
     19 N          -3.5770   29.5840   -4.6160 N.am      1 ALA        -0.2640
     20 CA         -4.1400   28.5820   -5.5130 C.3       1 ALA         0.1282
     21 C          -5.6410   28.7500   -5.6640 C.2       1 ALA         0.2037
     22 O          -6.3220   27.8180   -6.0980 O.2       1 ALA        -0.3944
     23 CB         -3.8060   27.1670   -5.0500 C.3       1 ALA        -0.0244
     24 N          -6.1540   29.9380   -5.3310 N.am      1 SER        -0.2616
     25 CA         -7.5590   30.2920   -5.4640 C.3       1 SER         0.1539
     26 C          -7.6600   31.6290   -6.1780 C.2       1 SER         0.2062
     27 O          -6.9180   32.5570   -5.8680 O.2       1 SER        -0.3943
     28 CB         -8.2400   30.4110   -4.0990 C.3       1 SER         0.0843
     29 OG         -7.7290   29.4520   -3.1880 O.3       1 SER        -0.3903
     30 N          -8.5920   31.7420   -7.1060 N.am      1 GLN        -0.2635
     31 CA         -8.7170   32.9790   -7.8560 C.3       1 GLN         0.1332
     32 C          -9.3260   34.0890   -6.9930 C.2       1 GLN         0.2065
     33 O         -10.1190   33.8180   -6.0910 O.2       1 GLN        -0.3942
     34 CB         -9.5790   32.7460   -9.0870 C.3       1 GLN         0.0045
     35 CG        -10.9700   32.2370   -8.7780 C.3       1 GLN         0.0412
     36 CD        -11.8450   32.1610  -10.0290 C.2       1 GLN         0.1737
     37 OE1       -11.9950   33.1490  -10.7650 O.2       1 GLN        -0.3973
     38 NE2       -12.4090   30.9770  -10.2880 N.am      1 GLN        -0.3009
     39 N          -8.9850   35.3530   -7.2700 N.am      1 PRO        -0.2498
     40 CA         -9.6110   36.4710   -6.5490 C.3       1 PRO         0.1338
     41 C         -11.1300   36.4070   -6.6230 C.2       1 PRO         0.2041
     42 O         -11.7020   36.0420   -7.6450 O.2       1 PRO        -0.3944
     43 CB         -9.0680   37.7060   -7.2740 C.3       1 PRO        -0.0104
     44 CG         -7.7690   37.2650   -7.8540 C.3       1 PRO        -0.0281
     45 CD         -7.9770   35.8160   -8.2400 C.3       1 PRO         0.0369
     46 N         -11.7910   36.7680   -5.5300 N.am      1 ALA        -0.2640
     47 CA        -13.2460   36.6970   -5.4760 C.3       1 ALA         0.1282
     48 C         -13.8330   38.0210   -5.0000 C.2       1 ALA         0.2036
     49 O         -13.1290   38.8940   -4.4810 O.2       1 ALA        -0.3944
     50 CB        -13.7180   35.5530   -4.5720 C.3       1 ALA        -0.0244
     51 N         -15.1440   38.1590   -5.2040 N.am      1 ARG        -0.2640
     52 CA        -15.8990   39.2700   -4.6390 C.3       1 ARG         0.1282
     53 C         -15.7350   39.2880   -3.1190 C.2       1 ARG         0.2031
     54 O         -15.4730   38.2610   -2.4860 O.2       1 ARG        -0.3944
     55 CB        -17.3790   39.1580   -5.0240 C.3       1 ARG        -0.0244
     56 N         -15.8510   40.4730   -2.5310 N.am      1 VAL        -0.2692
     57 CA        -15.7530   40.5910   -1.0840 C.3       1 VAL         0.0967
     58 C         -17.0540   40.1040   -0.4700 C.2       1 VAL         0.0603
     59 O         -18.1320   40.3510   -1.0140 O.co2     1 VAL        -0.5666
     60 CB        -15.4390   42.0230   -0.6480 C.3       1 VAL        -0.0118
     61 CG1       -15.4850   42.1280    0.8670 C.3       1 VAL        -0.0590
     62 CG2       -14.0710   42.4350   -1.1730 C.3       1 VAL        -0.0590
     63 OXT       -17.0530   39.4420    0.5730 O.co2     1 VAL        -0.5666
     64 H1          1.5084   29.7386    3.3892 H         1 GLY         0.2012
     65 H2          0.9465   31.0630    2.5894 H         1 GLY         0.2012
     66 H3          2.5148   30.5967    2.4093 H         1 GLY         0.2012
     67 H4          0.1618   29.0808    1.5754 H         1 GLY         0.1061
     68 H5          1.8733   28.5719    1.3788 H         1 GLY         0.1061
     69 H6          1.0194   28.3915   -0.8860 H         1 VAL         0.1884
     70 H7          1.5558   30.8961   -2.3507 H         1 VAL         0.0802
     71 H8          1.7041   29.5383   -4.3342 H         1 VAL         0.0343
     72 H9          3.4393   27.8965   -3.6876 H         1 VAL         0.0234
     73 H10         2.9347   28.0472   -1.9703 H         1 VAL         0.0234
     74 H11         3.6457   29.4583   -2.8246 H         1 VAL         0.0234
     75 H12        -0.2308   28.0845   -3.9089 H         1 VAL         0.0234
     76 H13         0.7048   27.2193   -2.6429 H         1 VAL         0.0234
     77 H14         1.2324   27.1445   -4.3583 H         1 VAL         0.0234
     78 H15         0.0471   31.4651   -4.1460 H         1 VAL         0.1883
     79 H16        -2.7275   31.3965   -3.1400 H         1 VAL         0.0802
     80 H17        -1.6016   32.8189   -5.5915 H         1 VAL         0.0343
     81 H18        -3.6971   34.1337   -5.4281 H         1 VAL         0.0234
     82 H19        -4.2300   33.0967   -4.0617 H         1 VAL         0.0234
     83 H20        -4.0128   32.3859   -5.6970 H         1 VAL         0.0234
     84 H21        -0.5226   33.6204   -3.5072 H         1 VAL         0.0234
     85 H22        -2.1406   33.9108   -2.7832 H         1 VAL         0.0234
     86 H23        -1.6121   34.8623   -4.2121 H         1 VAL         0.0234
     87 H24        -3.9433   29.6846   -3.6910 H         1 ALA         0.1883
     88 H25        -3.6840   28.7284   -6.5032 H         1 ALA         0.0797
     89 H26        -4.2454   26.4394   -5.7483 H         1 ALA         0.0277
     90 H27        -4.2179   27.0038   -4.0432 H         1 ALA         0.0277
     91 H28        -2.7139   27.0376   -5.0249 H         1 ALA         0.0277
     92 H29        -5.5309   30.6298   -4.9661 H         1 SER         0.1884
     93 H30        -8.0705   29.5178   -6.0547 H         1 SER         0.0823
     94 H31        -9.3211   30.2495   -4.2216 H         1 SER         0.0606
     95 H32        -8.0632   31.4191   -3.6960 H         1 SER         0.0606
     96 H33        -8.1674   29.5472   -2.3506 H         1 SER         0.2097
     97 H34        -9.2100   30.9781   -7.2919 H         1 GLN         0.1883
     98 H35        -7.7147   33.2968   -8.1790 H         1 GLN         0.0801
     99 H36        -9.0749   32.0072   -9.7273 H         1 GLN         0.0337
    100 H37        -9.6720   33.6985   -9.6293 H         1 GLN         0.0337
    101 H38       -11.4439   32.9166   -8.0544 H         1 GLN         0.0504
    102 H39       -10.8905   31.2315   -8.3391 H         1 GLN         0.0504
    103 H40       -12.9922   30.8663  -11.0928 H         1 GLN         0.1814
    104 H41       -12.2478   30.2020   -9.6770 H         1 GLN         0.1814
    105 H42        -9.3026   36.4730   -5.4931 H         1 PRO         0.0802
    106 H43        -8.9154   38.5347   -6.5670 H         1 PRO         0.0313
    107 H44        -9.7591   38.0243   -8.0684 H         1 PRO         0.0313
    108 H45        -6.9643   37.3539   -7.1094 H         1 PRO         0.0287
    109 H46        -7.5176   37.8675   -8.7393 H         1 PRO         0.0287
    110 H47        -8.3527   35.7319   -9.2704 H         1 PRO         0.0524
    111 H48        -7.0429   35.2434   -8.1424 H         1 PRO         0.0524
    112 H49       -11.2835   37.0934   -4.7321 H         1 ALA         0.1883
    113 H50       -13.6150   36.5027   -6.4939 H         1 ALA         0.0797
    114 H51       -14.8176   35.5291   -4.5548 H         1 ALA         0.0277
    115 H52       -13.3387   35.7115   -3.5517 H         1 ALA         0.0277
    116 H53       -13.3366   34.5973   -4.9607 H         1 ALA         0.0277
    117 H54       -15.6227   37.4802   -5.7609 H         1 ARG         0.1883
    118 H55       -15.5015   40.2111   -5.0469 H         1 ARG         0.0797
    119 H56       -17.9354   40.0023   -4.5910 H         1 ARG         0.0277
    120 H57       -17.7879   38.2127   -4.6376 H         1 ARG         0.0277
    121 H58       -17.4755   39.1787   -6.1196 H         1 ARG         0.0277
    122 H59       -16.0068   41.2898   -3.0864 H         1 VAL         0.1875
    123 H60       -14.9353   39.9429   -0.7356 H         1 VAL         0.0729
    124 H61       -16.1976   42.6978   -1.0713 H         1 VAL         0.0336
    125 H62       -15.2580   43.1608    1.1700 H         1 VAL         0.0234
    126 H63       -14.7414   41.4457    1.3046 H         1 VAL         0.0234
    127 H64       -16.4889   41.8536    1.2233 H         1 VAL         0.0234
    128 H65       -14.0590   42.3519   -2.2698 H         1 VAL         0.0234
    129 H66       -13.3008   41.7753   -0.7469 H         1 VAL         0.0234
    130 H67       -13.8646   43.4755   -0.8818 H         1 VAL         0.0234
@<TRIPOS>BOND
     1    1    2 1  
     2    2    3 1  
     3    3    4 2  
     4    3    5 am 
     5    5    6 1  
     6    6    7 1  
     7    6    9 1  
     8    7    8 2  
     9    7   12 am 
    10    9   10 1  
    11    9   11 1  
    12   12   13 1  
    13   13   14 1  
    14   13   16 1  
    15   14   15 2  
    16   14   19 am 
    17   16   17 1  
    18   16   18 1  
    19   19   20 1  
    20   20   21 1  
    21   20   23 1  
    22   21   22 2  
    23   21   24 am 
    24   24   25 1  
    25   25   26 1  
    26   25   28 1  
    27   26   27 2  
    28   26   30 am 
    29   28   29 1  
    30   30   31 1  
    31   31   32 1  
    32   31   34 1  
    33   32   33 2  
    34   32   39 am 
    35   34   35 1  
    36   35   36 1  
    37   36   37 2  
    38   36   38 am 
    39   39   40 1  
    40   39   45 1  
    41   40   41 1  
    42   40   43 1  
    43   41   42 2  
    44   41   46 am 
    45   43   44 1  
    46   44   45 1  
    47   46   47 1  
    48   47   48 1  
    49   47   50 1  
    50   48   49 2  
    51   48   51 am 
    52   51   52 1  
    53   52   53 1  
    54   52   55 1  
    55   53   54 2  
    56   53   56 am 
    57   56   57 1  
    58   57   58 1  
    59   57   60 1  
    60   58   59 ar 
    61   58   63 ar 
    62   60   61 1  
    63   60   62 1  
    64    1   64 1  
    65    1   65 1  
    66    1   66 1  
    67    2   67 1  
    68    2   68 1  
    69    5   69 1  
    70    6   70 1  
    71    9   71 1  
    72   10   72 1  
    73   10   73 1  
    74   10   74 1  
    75   11   75 1  
    76   11   76 1  
    77   11   77 1  
    78   12   78 1  
    79   13   79 1  
    80   16   80 1  
    81   17   81 1  
    82   17   82 1  
    83   17   83 1  
    84   18   84 1  
    85   18   85 1  
    86   18   86 1  
    87   19   87 1  
    88   20   88 1  
    89   23   89 1  
    90   23   90 1  
    91   23   91 1  
    92   24   92 1  
    93   25   93 1  
    94   28   94 1  
    95   28   95 1  
    96   29   96 1  
    97   30   97 1  
    98   31   98 1  
    99   34   99 1  
   100   34  100 1  
   101   35  101 1  
   102   35  102 1  
   103   38  103 1  
   104   38  104 1  
   105   40  105 1  
   106   43  106 1  
   107   43  107 1  
   108   44  108 1  
   109   44  109 1  
   110   45  110 1  
   111   45  111 1  
   112   46  112 1  
   113   47  113 1  
   114   50  114 1  
   115   50  115 1  
   116   50  116 1  
   117   51  117 1  
   118   52  118 1  
   119   55  119 1  
   120   55  120 1  
   121   55  121 1  
   122   56  122 1  
   123   57  123 1  
   124   60  124 1  
   125   61  125 1  
   126   61  126 1  
   127   61  127 1  
   128   62  128 1  
   129   62  129 1  
   130   62  130 1  
@<TRIPOS>SUBSTRUCTURE
     1 GLY         1

