6i8z_ligand
  -I-interpret- 

 69 73  0  0  0  0  0  0  0  0999 V2000
    5.2580   22.8490   29.0520 C   0  0  0  0  0
    4.4720   21.7020   29.3100 C   0  0  0  0  0
    5.0270   20.8360   30.2410 C   0  0  0  0  0
    5.6590   24.5940   27.4400 C   0  0  0  0  0
    7.0060   26.5740   27.5310 C   0  0  0  0  0
    5.9710   24.4220   26.0770 C   0  0  0  0  0
    6.1980   23.7460   23.7670 C   0  0  0  0  0
   10.7090   30.5420   32.2280 C   0  0  0  0  0
   11.6730   30.2370   29.9470 C   0  0  0  0  0
   12.1990   33.8460   31.0570 C   0  0  0  0  0
   12.3830   31.5830   30.0890 C   0  0  0  0  0
    7.9310   22.4890   31.2810 N   0  0  0  0  0
    6.8160   22.2020   30.5480 C   0  0  0  0  0
    6.4050   23.1130   29.6470 N   0  0  0  0  0
    6.1840   21.0640   30.8760 N   0  0  0  0  0
    3.1590   21.3870   28.6520 C   0  0  0  0  0
    2.5720   20.3240   29.1610 F   0  0  0  0  0
    2.2780   22.3780   28.7740 F   0  0  0  0  0
    3.2900   21.1480   27.3440 F   0  0  0  0  0
    4.8320   23.6210   28.0050 O   0  0  0  0  0
    7.0300   25.0170   24.0040 C   0  0  0  0  0
    6.1600   25.6720   28.1610 C   0  0  0  0  0
    7.3280   26.4150   26.1910 C   0  0  0  0  0
    6.8120   25.3490   25.4590 C   0  0  0  0  0
   11.5930   32.4870   30.9800 N   0  3  0  0  0
   11.4420   31.8780   32.3360 C   0  0  0  0  0
   11.4500   29.5940   31.3050 C   0  0  0  0  0
   10.7190   28.3310   31.1780 N   0  0  0  0  0
    9.6780   25.6600   30.4250 C   0  0  0  0  0
   10.2270   25.9990   31.6620 C   0  0  0  0  0
   10.0110   25.1700   32.7610 C   0  0  0  0  0
    9.2670   24.0070   32.6160 C   0  0  0  0  0
    8.7080   23.6660   31.3620 C   0  0  0  0  0
    8.9330   24.5060   30.2710 C   0  0  0  0  0
    9.0370   23.0900   33.6060 O   0  0  0  0  0
    9.6430   23.3010   34.8880 C   0  0  0  0  0
   11.0850   27.2150   31.8320 C   0  0  0  0  0
   12.0720   27.1820   32.5640 O   0  0  0  0  0
    5.5690   23.3880   25.0960 C   0  0  0  0  0
    4.8580   22.4220   25.3030 O   0  0  0  0  0
    4.4896   19.9155   30.4692 H   0  0  0  0  0
    7.4197   27.4119   28.0921 H   0  0  0  0  0
    6.8247   22.9328   23.4009 H   0  0  0  0  0
    5.4345   23.9160   23.0078 H   0  0  0  0  0
    9.7127   30.7196   31.8231 H   0  0  0  0  0
   10.6497   30.0926   33.2193 H   0  0  0  0  0
   12.2950   29.5751   29.3443 H   0  0  0  0  0
   10.7047   30.4003   29.4739 H   0  0  0  0  0
   13.2114   33.7691   31.4536 H   0  0  0  0  0
   12.2304   34.2854   30.0600 H   0  0  0  0  0
   11.5970   34.4742   31.7135 H   0  0  0  0  0
   12.4787   32.0432   29.1056 H   0  0  0  0  0
   13.3696   31.4236   30.5241 H   0  0  0  0  0
    8.2589   21.7238   31.8703 H   0  0  0  0  0
    6.7230   25.8328   23.3495 H   0  0  0  0  0
    8.0844   24.8623   23.7750 H   0  0  0  0  0
    5.8915   25.8072   29.2087 H   0  0  0  0  0
    7.9913   27.1315   25.7066 H   0  0  0  0  0
   10.6635   32.5986   30.5751 H   0  0  0  0  0
   12.4292   31.7123   32.7674 H   0  0  0  0  0
   10.8676   32.5526   32.9709 H   0  0  0  0  0
   12.4269   29.3777   31.7373 H   0  0  0  0  0
    9.9008   28.2970   30.5699 H   0  0  0  0  0
    9.8388   26.3143   29.5682 H   0  0  0  0  0
   10.4258   25.4345   33.7337 H   0  0  0  0  0
    8.5203   24.2516   29.2948 H   0  0  0  0  0
   10.7270   23.3253   34.7765 H   0  0  0  0  0
    9.2976   24.2491   35.3001 H   0  0  0  0  0
    9.3636   22.4885   35.5587 H   0  0  0  0  0
  1  2  4  0  0  0
 14  1  4  0  0  0
  1 20  1  0  0  0
  3  2  4  0  0  0
  2 16  1  0  0  0
 15  3  4  0  0  0
  4  6  4  0  0  0
 20  4  1  0  0  0
  4 22  4  0  0  0
 22  5  4  0  0  0
  5 23  4  0  0  0
  6 24  4  0  0  0
  6 39  1  0  0  0
  7 21  1  0  0  0
 39  7  1  0  0  0
  8 26  1  0  0  0
 27  8  1  0  0  0
  9 11  1  0  0  0
 27  9  1  0  0  0
 25 10  1  0  0  0
 11 25  1  0  0  0
 12 13  1  0  0  0
 33 12  1  0  0  0
 13 14  4  0  0  0
 13 15  4  0  0  0
 16 17  1  0  0  0
 16 18  1  0  0  0
 16 19  1  0  0  0
 24 21  1  0  0  0
 24 23  4  0  0  0
 26 25  1  0  0  0
 28 27  1  0  0  0
 37 28  1  0  0  0
 30 29  4  0  0  0
 29 34  4  0  0  0
 31 30  4  0  0  0
 30 37  1  0  0  0
 32 31  4  0  0  0
 32 33  4  0  0  0
 32 35  1  0  0  0
 33 34  4  0  0  0
 35 36  1  0  0  0
 37 38  2  0  0  0
 39 40  2  0  0  0
  3 41  1  0  0  0
  5 42  1  0  0  0
  7 43  1  0  0  0
  7 44  1  0  0  0
  8 45  1  0  0  0
  8 46  1  0  0  0
  9 47  1  0  0  0
  9 48  1  0  0  0
 10 49  1  0  0  0
 10 50  1  0  0  0
 10 51  1  0  0  0
 11 52  1  0  0  0
 11 53  1  0  0  0
 12 54  1  0  0  0
 21 55  1  0  0  0
 21 56  1  0  0  0
 22 57  1  0  0  0
 23 58  1  0  0  0
 25 59  1  0  0  0
 26 60  1  0  0  0
 26 61  1  0  0  0
 27 62  1  0  0  0
 28 63  1  0  0  0
 29 64  1  0  0  0
 31 65  1  0  0  0
 34 66  1  0  0  0
 36 67  1  0  0  0
 36 68  1  0  0  0
 36 69  1  0  0  0
M  END
$$$$
