4a95_ligand
  -I-interpret- 

 44 45  0  0  0  0  0  0  0  0999 V2000
   20.2020   43.9940   62.3900 N   0  0  0  0  0
   21.2520   44.4240   62.7060 C   0  0  0  0  0
   22.5770   44.8910   63.1320 C   0  0  0  0  0
   23.3900   45.2490   61.8820 C   0  0  0  0  0
   22.7660   46.6960   61.0630 S   0  0  0  0  0
   22.6820   47.9280   62.2940 C   0  0  0  0  0
   23.8070   48.3070   63.0210 C   0  0  0  0  0
   25.0760   47.7990   62.6560 C   0  0  0  0  0
   26.1620   48.2420   63.3960 C   0  0  0  0  0
   27.4280   47.7520   63.0860 O   0  0  0  0  0
   27.6070   47.0610   61.8120 C   0  0  0  0  0
   25.9690   49.0960   64.4850 C   0  0  0  0  0
   24.7430   49.6430   64.8330 C   0  0  0  0  0
   23.6490   49.1810   64.0880 C   0  0  0  0  0
   22.4390   49.6670   64.4570 N   0  0  0  0  0
   21.3210   49.3590   63.7740 C   0  0  0  0  0
   20.0350   50.0070   64.2950 C   0  0  0  0  0
   21.4430   48.4510   62.6850 C   0  0  0  0  0
   20.2980   47.9820   61.7960 C   0  0  0  0  0
   18.9150   47.8120   62.3180 C   0  0  0  0  0
   17.8540   48.0460   61.2530 C   0  0  0  0  0
   17.1470   49.3710   61.4630 C   0  0  0  0  0
   23.0848   44.1080   63.6952 H   0  0  0  0  0
   22.4751   45.7663   63.7736 H   0  0  0  0  0
   23.3258   44.4126   61.1860 H   0  0  0  0  0
   24.4151   45.4518   62.1921 H   0  0  0  0  0
   25.1943   47.0938   61.8333 H   0  0  0  0  0
   26.9513   46.1910   61.7767 H   0  0  0  0  0
   27.3586   47.7382   60.9948 H   0  0  0  0  0
   28.6443   46.7398   61.7169 H   0  0  0  0  0
   26.8344   49.3475   65.0981 H   0  0  0  0  0
   24.6375   50.3798   65.6293 H   0  0  0  0  0
   19.8641   49.6951   65.3254 H   0  0  0  0  0
   20.1338   51.0917   64.2540 H   0  0  0  0  0
   19.1949   49.6938   63.6751 H   0  0  0  0  0
   20.5911   46.9714   61.5117 H   0  0  0  0  0
   20.1988   48.7816   61.0619 H   0  0  0  0  0
   18.7629   48.5458   63.1095 H   0  0  0  0  0
   18.8141   46.7860   62.6719 H   0  0  0  0  0
   17.1170   47.2453   61.3150 H   0  0  0  0  0
   18.3390   48.0619   60.2770 H   0  0  0  0  0
   16.6649   49.3732   62.4406 H   0  0  0  0  0
   17.8743   50.1813   61.4133 H   0  0  0  0  0
   16.3954   49.5075   60.6855 H   0  0  0  0  0
  1  2  3  0  0  0
  2  3  1  0  0  0
  3  4  1  0  0  0
  4  5  1  0  0  0
  5  6  1  0  0  0
  6  7  4  0  0  0
  6 18  4  0  0  0
  7  8  4  0  0  0
  7 14  4  0  0  0
  8  9  4  0  0  0
  9 10  1  0  0  0
  9 12  4  0  0  0
 10 11  1  0  0  0
 12 13  4  0  0  0
 13 14  4  0  0  0
 14 15  4  0  0  0
 15 16  4  0  0  0
 16 17  1  0  0  0
 16 18  4  0  0  0
 18 19  1  0  0  0
 19 20  1  0  0  0
 20 21  1  0  0  0
 21 22  1  0  0  0
  3 23  1  0  0  0
  3 24  1  0  0  0
  4 25  1  0  0  0
  4 26  1  0  0  0
  8 27  1  0  0  0
 11 28  1  0  0  0
 11 29  1  0  0  0
 11 30  1  0  0  0
 12 31  1  0  0  0
 13 32  1  0  0  0
 17 33  1  0  0  0
 17 34  1  0  0  0
 17 35  1  0  0  0
 19 36  1  0  0  0
 19 37  1  0  0  0
 20 38  1  0  0  0
 20 39  1  0  0  0
 21 40  1  0  0  0
 21 41  1  0  0  0
 22 42  1  0  0  0
 22 43  1  0  0  0
 22 44  1  0  0  0
M  END
$$$$
