### 
### Created by X-TOOL on Mon Sep 10 21:13:29 2018
### 

@<TRIPOS>MOLECULE
5l7k_ligand
  118   117     1     0     0
SMALL
GAST_HUCK


@<TRIPOS>ATOM
      1 N           1.6260  -33.8330  -26.7140 N.4       1 GLY         0.2657
      2 CA          2.4710  -34.5190  -27.6740 C.3       1 GLY         0.0588
      3 C           3.5250  -35.3810  -27.0080 C.2       1 GLY         0.2239
      4 O           3.8350  -36.4750  -27.4800 O.2       1 GLY        -0.3910
      5 N           4.0770  -34.8860  -25.9050 N.am      1 THR        -0.2589
      6 CA          5.1090  -35.6190  -25.1640 C.3       1 THR         0.1566
      7 C           4.7230  -37.0840  -24.8550 C.2       1 THR         0.2065
      8 O           5.5930  -37.9350  -24.7550 O.2       1 THR        -0.3943
      9 CB          5.4810  -34.8260  -23.8970 C.3       1 THR         0.0924
     10 OG1         5.9510  -33.5400  -24.3210 O.3       1 THR        -0.3874
     11 CG2         6.5760  -35.5200  -23.0800 C.3       1 THR        -0.0346
     12 N           3.4320  -37.3820  -24.7320 N.am      1 ALA        -0.2639
     13 CA          2.9810  -38.7590  -24.5560 C.3       1 ALA         0.1282
     14 C           3.4190  -39.6640  -25.7190 C.2       1 ALA         0.2037
     15 O           3.5830  -40.8300  -25.5230 O.2       1 ALA        -0.3944
     16 CB          1.4640  -38.8280  -24.3740 C.3       1 ALA        -0.0244
     17 N           3.6430  -39.1280  -26.9070 N.am      1 SER        -0.2616
     18 CA          4.1060  -39.9400  -28.0420 C.3       1 SER         0.1539
     19 C           5.3730  -40.7070  -27.7100 C.2       1 SER         0.2062
     20 O           5.5590  -41.7990  -28.1840 O.2       1 SER        -0.3943
     21 CB          4.4860  -39.0890  -29.2550 C.3       1 SER         0.0843
     22 OG          3.4750  -38.1960  -29.6440 O.3       1 SER        -0.3903
     23 N           6.2410  -40.0800  -26.9210 N.am      1 SER        -0.2615
     24 CA          7.6090  -40.5140  -26.6730 C.3       1 SER         0.1539
     25 C           7.7290  -41.6350  -25.6460 C.2       1 SER         0.2056
     26 O           8.8210  -42.1370  -25.4510 O.2       1 SER        -0.3943
     27 CB          8.4260  -39.3170  -26.1520 C.3       1 SER         0.0843
     28 OG          8.8040  -38.4310  -27.2050 O.3       1 SER        -0.3903
     29 N           6.6640  -42.0050  -24.9410 N.am      1 LEU        -0.2694
     30 CA          6.7920  -43.0960  -23.9450 C.3       1 LEU         0.0946
     31 C           6.5870  -44.4480  -24.5930 C.2       1 LEU         0.0601
     32 O           6.5250  -44.5390  -25.8150 O.co2     1 LEU        -0.5666
     33 CB          5.8250  -42.9260  -22.7730 C.3       1 LEU        -0.0156
     34 CG          6.3030  -41.8240  -21.8260 C.3       1 LEU        -0.0431
     35 CD1         6.0070  -40.4170  -22.3380 C.3       1 LEU        -0.0625
     36 CD2         5.7030  -42.0430  -20.4660 C.3       1 LEU        -0.0625
     37 OXT         6.4830  -45.4520  -23.8960 O.co2     1 LEU        -0.5666
     38 C1          0.5100  -34.2790  -25.8640 C.3       1 MYR         0.0822
     39 O1          1.2130  -35.2520  -25.6760 O.3       1 MYR        -0.3531
     40 C2          0.4480  -33.0370  -24.9810 C.3       1 MYR         0.0166
     41 C3         -1.0700  -33.0330  -24.6960 C.3       1 MYR        -0.0455
     42 C4         -1.4400  -31.9490  -23.7090 C.3       1 MYR        -0.0528
     43 C5         -2.9220  -31.7470  -23.7780 C.3       1 MYR        -0.0531
     44 C6         -3.3510  -30.6730  -22.7530 C.3       1 MYR        -0.0531
     45 C7         -2.8420  -29.3220  -23.1970 C.3       1 MYR        -0.0531
     46 C8         -3.8550  -28.2420  -22.9550 C.3       1 MYR        -0.0531
     47 C9         -4.6770  -28.1170  -24.2320 C.3       1 MYR        -0.0531
     48 C10        -4.1510  -27.0260  -25.1470 C.3       1 MYR        -0.0531
     49 C11        -5.1650  -25.8720  -25.2370 C.3       1 MYR        -0.0531
     50 C12        -5.7670  -25.7460  -26.6490 C.3       1 MYR        -0.0533
     51 C13        -6.8940  -26.7420  -26.8160 C.3       1 MYR        -0.0559
     52 C14        -8.1760  -26.0280  -26.4300 C.3       1 MYR        -0.0653
     53 H1          1.2225  -33.0830  -27.2532 H         1 GLY         0.2060
     54 H2          2.2854  -33.4542  -26.0524 H         1 GLY         0.2060
     55 H3          2.9741  -33.7682  -28.3010 H         1 GLY         0.1063
     56 H4          1.8387  -35.1601  -28.3057 H         1 GLY         0.1063
     57 H5          3.7811  -33.9908  -25.5717 H         1 THR         0.1885
     58 H6          6.0036  -35.6580  -25.8029 H         1 THR         0.0826
     59 H7          4.5871  -34.7083  -23.2669 H         1 THR         0.0639
     60 H8          5.2633  -33.0958  -24.8028 H         1 THR         0.2101
     61 H9          6.8060  -34.9176  -22.1888 H         1 THR         0.0257
     62 H10         7.4817  -35.6250  -23.6953 H         1 THR         0.0257
     63 H11         6.2264  -36.5156  -22.7693 H         1 THR         0.0257
     64 H12         2.7556  -36.6460  -24.7608 H         1 ALA         0.1883
     65 H13         3.4484  -39.1449  -23.6380 H         1 ALA         0.0797
     66 H14         1.1576  -39.8765  -24.2443 H         1 ALA         0.0277
     67 H15         0.9687  -38.4085  -25.2621 H         1 ALA         0.0277
     68 H16         1.1746  -38.2488  -23.4848 H         1 ALA         0.0277
     69 H17         3.4940  -38.1477  -27.0364 H         1 SER         0.1884
     70 H18         3.3039  -40.6413  -28.3154 H         1 SER         0.0823
     71 H19         4.7026  -39.7605  -30.0989 H         1 SER         0.0606
     72 H20         5.3874  -38.5095  -29.0067 H         1 SER         0.0606
     73 H21         3.2838  -37.6037  -28.9263 H         1 SER         0.2097
     74 H22         5.9306  -39.2469  -26.4631 H         1 SER         0.1884
     75 H23         8.0364  -40.8648  -27.6239 H         1 SER         0.0823
     76 H24         9.3353  -39.6940  -25.6611 H         1 SER         0.0606
     77 H25         7.8181  -38.7625  -25.4219 H         1 SER         0.0606
     78 H26         9.3045  -37.7082  -26.8449 H         1 SER         0.2097
     79 H27         5.7840  -41.5512  -25.0814 H         1 LEU         0.1875
     80 H28         7.8157  -43.0620  -23.5439 H         1 LEU         0.0726
     81 H29         5.7606  -43.8740  -22.2188 H         1 LEU         0.0308
     82 H30         4.8310  -42.6603  -23.1619 H         1 LEU         0.0308
     83 H31         7.3954  -41.9146  -21.7348 H         1 LEU         0.0297
     84 H32         6.3755  -39.6775  -21.6118 H         1 LEU         0.0232
     85 H33         4.9215  -40.2946  -22.4671 H         1 LEU         0.0232
     86 H34         6.5107  -40.2648  -23.3040 H         1 LEU         0.0232
     87 H35         5.9323  -43.0630  -20.1240 H         1 LEU         0.0232
     88 H36         4.6123  -41.9112  -20.5208 H         1 LEU         0.0232
     89 H37         6.1251  -41.3152  -19.7574 H         1 LEU         0.0232
     90 H38        -0.4729  -34.5190  -26.2957 H         1 GLY         0.1184
     91 H39         0.7680  -35.8547  -25.0919 H         1 GLY         0.2154
     92 H40         0.7715  -32.1318  -25.5158 H         1 GLY         0.0346
     93 H41         1.0417  -33.1519  -24.0621 H         1 GLY         0.0346
     94 H42        -1.3594  -34.0097  -24.2809 H         1 GLY         0.0268
     95 H43        -1.6111  -32.8600  -25.6379 H         1 GLY         0.0268
     96 H44        -0.9232  -31.0138  -23.9704 H         1 GLY         0.0265
     97 H45        -1.1519  -32.2554  -22.6926 H         1 GLY         0.0265
     98 H46        -3.4310  -32.6948  -23.5488 H         1 GLY         0.0265
     99 H47        -3.1991  -31.4174  -24.7902 H         1 GLY         0.0265
    100 H48        -2.9292  -30.9178  -21.7670 H         1 GLY         0.0265
    101 H49        -4.4487  -30.6475  -22.6862 H         1 GLY         0.0265
    102 H50        -2.6137  -29.3625  -24.2723 H         1 GLY         0.0265
    103 H51        -1.9260  -29.0840  -22.6364 H         1 GLY         0.0265
    104 H52        -3.3491  -27.2903  -22.7354 H         1 GLY         0.0265
    105 H53        -4.5055  -28.5148  -22.1109 H         1 GLY         0.0265
    106 H54        -5.7173  -27.8823  -23.9623 H         1 GLY         0.0265
    107 H55        -4.6450  -29.0762  -24.7694 H         1 GLY         0.0265
    108 H56        -3.9852  -27.4429  -26.1513 H         1 GLY         0.0265
    109 H57        -3.2003  -26.6437  -24.7471 H         1 GLY         0.0265
    110 H58        -4.6562  -24.9307  -24.9820 H         1 GLY         0.0265
    111 H59        -5.9778  -26.0558  -24.5189 H         1 GLY         0.0265
    112 H60        -4.9871  -25.9480  -27.3980 H         1 GLY         0.0265
    113 H61        -6.1562  -24.7270  -26.7906 H         1 GLY         0.0265
    114 H62        -6.7322  -27.6096  -26.1594 H         1 GLY         0.0263
    115 H63        -6.9491  -27.0787  -27.8617 H         1 GLY         0.0263
    116 H64        -9.0262  -26.7177  -26.5368 H         1 GLY         0.0230
    117 H65        -8.3241  -25.1589  -27.0879 H         1 GLY         0.0230
    118 H66        -8.1072  -25.6898  -25.3856 H         1 GLY         0.0230
@<TRIPOS>BOND
     1    1    2 1  
     2    1   38 1  
     3    2    3 1  
     4    3    4 2  
     5    3    5 am 
     6    5    6 1  
     7    6    7 1  
     8    6    9 1  
     9    7    8 2  
    10    7   12 am 
    11    9   10 1  
    12    9   11 1  
    13   12   13 1  
    14   13   14 1  
    15   13   16 1  
    16   14   15 2  
    17   14   17 am 
    18   17   18 1  
    19   18   19 1  
    20   18   21 1  
    21   19   20 2  
    22   19   23 am 
    23   21   22 1  
    24   23   24 1  
    25   24   25 1  
    26   24   27 1  
    27   25   26 2  
    28   25   29 am 
    29   27   28 1  
    30   29   30 1  
    31   30   31 1  
    32   30   33 1  
    33   31   32 ar 
    34   31   37 ar 
    35   33   34 1  
    36   34   35 1  
    37   34   36 1  
    38   38   39 1  
    39   38   40 1  
    40   40   41 1  
    41   41   42 1  
    42   42   43 1  
    43   43   44 1  
    44   44   45 1  
    45   45   46 1  
    46   46   47 1  
    47   47   48 1  
    48   48   49 1  
    49   49   50 1  
    50   50   51 1  
    51   51   52 1  
    52    1   53 1  
    53    1   54 1  
    54    2   55 1  
    55    2   56 1  
    56    5   57 1  
    57    6   58 1  
    58    9   59 1  
    59   10   60 1  
    60   11   61 1  
    61   11   62 1  
    62   11   63 1  
    63   12   64 1  
    64   13   65 1  
    65   16   66 1  
    66   16   67 1  
    67   16   68 1  
    68   17   69 1  
    69   18   70 1  
    70   21   71 1  
    71   21   72 1  
    72   22   73 1  
    73   23   74 1  
    74   24   75 1  
    75   27   76 1  
    76   27   77 1  
    77   28   78 1  
    78   29   79 1  
    79   30   80 1  
    80   33   81 1  
    81   33   82 1  
    82   34   83 1  
    83   35   84 1  
    84   35   85 1  
    85   35   86 1  
    86   36   87 1  
    87   36   88 1  
    88   36   89 1  
    89   38   90 1  
    90   39   91 1  
    91   40   92 1  
    92   40   93 1  
    93   41   94 1  
    94   41   95 1  
    95   42   96 1  
    96   42   97 1  
    97   43   98 1  
    98   43   99 1  
    99   44  100 1  
   100   44  101 1  
   101   45  102 1  
   102   45  103 1  
   103   46  104 1  
   104   46  105 1  
   105   47  106 1  
   106   47  107 1  
   107   48  108 1  
   108   48  109 1  
   109   49  110 1  
   110   49  111 1  
   111   50  112 1  
   112   50  113 1  
   113   51  114 1  
   114   51  115 1  
   115   52  116 1  
   116   52  117 1  
   117   52  118 1  
@<TRIPOS>SUBSTRUCTURE
     1 GLY         1

