5l7k_ligand
  -I-interpret- 

119118  0  0  0  0  0  0  0  0999 V2000
    1.6260  -33.8330  -26.7140 N   0  3  0  0  0
    2.4710  -34.5190  -27.6740 C   0  0  0  0  0
    3.5250  -35.3810  -27.0080 C   0  0  0  0  0
    3.8350  -36.4750  -27.4800 O   0  0  0  0  0
    4.0770  -34.8860  -25.9050 N   0  0  0  0  0
    5.1090  -35.6190  -25.1640 C   0  0  0  0  0
    4.7230  -37.0840  -24.8550 C   0  0  0  0  0
    5.5930  -37.9350  -24.7550 O   0  0  0  0  0
    5.4810  -34.8260  -23.8970 C   0  0  0  0  0
    5.9510  -33.5400  -24.3210 O   0  0  0  0  0
    6.5760  -35.5200  -23.0800 C   0  0  0  0  0
    3.4320  -37.3820  -24.7320 N   0  0  0  0  0
    2.9810  -38.7590  -24.5560 C   0  0  0  0  0
    3.4190  -39.6640  -25.7190 C   0  0  0  0  0
    3.5830  -40.8300  -25.5230 O   0  0  0  0  0
    1.4640  -38.8280  -24.3740 C   0  0  0  0  0
    3.6430  -39.1280  -26.9070 N   0  0  0  0  0
    4.1060  -39.9400  -28.0420 C   0  0  0  0  0
    5.3730  -40.7070  -27.7100 C   0  0  0  0  0
    5.5590  -41.7990  -28.1840 O   0  0  0  0  0
    4.4860  -39.0890  -29.2550 C   0  0  0  0  0
    3.4750  -38.1960  -29.6440 O   0  0  0  0  0
    6.2410  -40.0800  -26.9210 N   0  0  0  0  0
    7.6090  -40.5140  -26.6730 C   0  0  0  0  0
    7.7290  -41.6350  -25.6460 C   0  0  0  0  0
    8.8210  -42.1370  -25.4510 O   0  0  0  0  0
    8.4260  -39.3170  -26.1520 C   0  0  0  0  0
    8.8040  -38.4310  -27.2050 O   0  0  0  0  0
    6.6640  -42.0050  -24.9410 N   0  0  0  0  0
    6.7920  -43.0960  -23.9450 C   0  0  0  0  0
    6.5870  -44.4480  -24.5930 C   0  0  0  0  0
    6.5250  -44.5390  -25.8150 O   0  0  0  0  0
    5.8250  -42.9260  -22.7730 C   0  0  0  0  0
    6.3030  -41.8240  -21.8260 C   0  0  0  0  0
    6.0070  -40.4170  -22.3380 C   0  0  0  0  0
    5.7030  -42.0430  -20.4660 C   0  0  0  0  0
    6.4830  -45.4520  -23.8960 O   0  0  0  0  0
    0.5100  -34.2790  -25.8640 C   0  0  0  0  0
    1.2130  -35.2520  -25.6760 O   0  0  0  0  0
    0.4480  -33.0370  -24.9810 C   0  0  0  0  0
   -1.0700  -33.0330  -24.6960 C   0  0  0  0  0
   -1.4400  -31.9490  -23.7090 C   0  0  0  0  0
   -2.9220  -31.7470  -23.7780 C   0  0  0  0  0
   -3.3510  -30.6730  -22.7530 C   0  0  0  0  0
   -2.8420  -29.3220  -23.1970 C   0  0  0  0  0
   -3.8550  -28.2420  -22.9550 C   0  0  0  0  0
   -4.6770  -28.1170  -24.2320 C   0  0  0  0  0
   -4.1510  -27.0260  -25.1470 C   0  0  0  0  0
   -5.1650  -25.8720  -25.2370 C   0  0  0  0  0
   -5.7670  -25.7460  -26.6490 C   0  0  0  0  0
   -6.8940  -26.7420  -26.8160 C   0  0  0  0  0
   -8.1760  -26.0280  -26.4300 C   0  0  0  0  0
    1.1120  -33.2266  -27.3531 H   0  0  0  0  0
    2.3194  -33.6482  -25.9891 H   0  0  0  0  0
    2.9823  -33.7643  -28.2716 H   0  0  0  0  0
    1.8364  -35.1691  -28.2764 H   0  0  0  0  0
    3.7752  -33.9729  -25.5650 H   0  0  0  0  0
    5.9882  -35.7019  -25.8029 H   0  0  0  0  0
    4.6031  -34.7487  -23.2556 H   0  0  0  0  0
    5.2665  -33.1033  -24.8331 H   0  0  0  0  0
    7.4664  -35.6410  -23.6970 H   0  0  0  0  0
    6.8168  -34.9125  -22.2076 H   0  0  0  0  0
    6.2210  -36.4984  -22.7563 H   0  0  0  0  0
    2.7421  -36.6313  -24.7614 H   0  0  0  0  0
    3.4575  -39.1297  -23.6484 H   0  0  0  0  0
    1.1786  -38.2537  -23.4926 H   0  0  0  0  0
    0.9744  -38.4120  -25.2545 H   0  0  0  0  0
    1.1617  -39.8673  -24.2456 H   0  0  0  0  0
    3.4911  -38.1281  -27.0390 H   0  0  0  0  0
    3.2657  -40.5998  -28.2582 H   0  0  0  0  0
    4.6669  -39.7664  -30.0896 H   0  0  0  0  0
    5.3608  -38.4986  -28.9827 H   0  0  0  0  0
    3.7703  -37.6923  -30.4061 H   0  0  0  0  0
    5.9244  -39.2303  -26.4539 H   0  0  0  0  0
    7.9815  -40.8979  -27.6227 H   0  0  0  0  0
    9.3337  -39.7001  -25.6857 H   0  0  0  0  0
    7.8079  -38.7634  -25.4453 H   0  0  0  0  0
    9.3097  -37.7007  -26.8411 H   0  0  0  0  0
    5.7664  -41.5421  -25.0842 H   0  0  0  0  0
    7.8061  -43.0408  -23.5492 H   0  0  0  0  0
    6.6241  -43.6674  -26.2051 H   0  0  0  0  0
    5.7747  -43.8647  -22.2213 H   0  0  0  0  0
    4.8453  -42.6514  -23.1640 H   0  0  0  0  0
    7.3893  -41.8908  -21.7667 H   0  0  0  0  0
    6.5066  -40.2675  -23.2952 H   0  0  0  0  0
    4.9312  -40.2970  -22.4656 H   0  0  0  0  0
    6.3726  -39.6852  -21.6176 H   0  0  0  0  0
    4.6160  -42.0143  -20.5410 H   0  0  0  0  0
    6.0166  -43.0145  -20.0841 H   0  0  0  0  0
    6.0427  -41.2585  -19.7898 H   0  0  0  0  0
   -0.5417  -34.5358  -25.9908 H   0  0  0  0  0
    1.0640  -35.8929  -26.3750 H   0  0  0  0  0
    0.8372  -32.1255  -25.4346 H   0  0  0  0  0
    1.0858  -33.0637  -24.0975 H   0  0  0  0  0
   -1.3462  -33.9982  -24.2715 H   0  0  0  0  0
   -1.5984  -32.8464  -25.6309 H   0  0  0  0  0
   -0.9217  -31.0223  -23.9554 H   0  0  0  0  0
   -1.1462  -32.2413  -22.7008 H   0  0  0  0  0
   -3.4252  -32.6862  -23.5485 H   0  0  0  0  0
   -3.1950  -31.4182  -24.7807 H   0  0  0  0  0
   -2.9332  -30.9156  -21.7759 H   0  0  0  0  0
   -4.4387  -30.6478  -22.6867 H   0  0  0  0  0
   -2.6356  -29.3666  -24.2664 H   0  0  0  0  0
   -1.9451  -29.0870  -22.6239 H   0  0  0  0  0
   -3.3659  -27.2981  -22.7145 H   0  0  0  0  0
   -4.4921  -28.4907  -22.1063 H   0  0  0  0  0
   -5.6998  -27.8628  -23.9538 H   0  0  0  0  0
   -4.6199  -29.0652  -24.7666 H   0  0  0  0  0
   -3.9938  -27.4408  -26.1426 H   0  0  0  0  0
   -3.2123  -26.6452  -24.7447 H   0  0  0  0  0
   -4.6468  -24.9423  -25.0020 H   0  0  0  0  0
   -5.9754  -26.0734  -24.5365 H   0  0  0  0  0
   -4.9938  -25.9488  -27.3900 H   0  0  0  0  0
   -6.1545  -24.7366  -26.7870 H   0  0  0  0  0
   -6.7337  -27.6160  -26.1847 H   0  0  0  0  0
   -6.9452  -27.0983  -27.8448 H   0  0  0  0  0
   -8.1065  -25.6934  -25.3950 H   0  0  0  0  0
   -8.3215  -25.1671  -27.0825 H   0  0  0  0  0
   -9.0177  -26.7124  -26.5362 H   0  0  0  0  0
  1  2  1  0  0  0
  1 38  1  0  0  0
  2  3  1  0  0  0
  3  4  2  0  0  0
  3  5  1  0  0  0
  5  6  1  0  0  0
  6  7  1  0  0  0
  6  9  1  0  0  0
  7  8  2  0  0  0
  7 12  1  0  0  0
  9 10  1  0  0  0
  9 11  1  0  0  0
 12 13  1  0  0  0
 13 14  1  0  0  0
 13 16  1  0  0  0
 14 15  2  0  0  0
 14 17  1  0  0  0
 17 18  1  0  0  0
 18 19  1  0  0  0
 18 21  1  0  0  0
 19 20  2  0  0  0
 19 23  1  0  0  0
 21 22  1  0  0  0
 23 24  1  0  0  0
 24 25  1  0  0  0
 24 27  1  0  0  0
 25 26  2  0  0  0
 25 29  1  0  0  0
 27 28  1  0  0  0
 29 30  1  0  0  0
 30 31  1  0  0  0
 30 33  1  0  0  0
 31 32  1  0  0  0
 31 37  2  0  0  0
 33 34  1  0  0  0
 34 35  1  0  0  0
 34 36  1  0  0  0
 38 39  1  0  0  0
 38 40  1  0  0  0
 40 41  1  0  0  0
 41 42  1  0  0  0
 42 43  1  0  0  0
 43 44  1  0  0  0
 44 45  1  0  0  0
 45 46  1  0  0  0
 46 47  1  0  0  0
 47 48  1  0  0  0
 48 49  1  0  0  0
 49 50  1  0  0  0
 50 51  1  0  0  0
 51 52  1  0  0  0
  1 53  1  0  0  0
  1 54  1  0  0  0
  2 55  1  0  0  0
  2 56  1  0  0  0
  5 57  1  0  0  0
  6 58  1  0  0  0
  9 59  1  0  0  0
 10 60  1  0  0  0
 11 61  1  0  0  0
 11 62  1  0  0  0
 11 63  1  0  0  0
 12 64  1  0  0  0
 13 65  1  0  0  0
 16 66  1  0  0  0
 16 67  1  0  0  0
 16 68  1  0  0  0
 17 69  1  0  0  0
 18 70  1  0  0  0
 21 71  1  0  0  0
 21 72  1  0  0  0
 22 73  1  0  0  0
 23 74  1  0  0  0
 24 75  1  0  0  0
 27 76  1  0  0  0
 27 77  1  0  0  0
 28 78  1  0  0  0
 29 79  1  0  0  0
 30 80  1  0  0  0
 32 81  1  0  0  0
 33 82  1  0  0  0
 33 83  1  0  0  0
 34 84  1  0  0  0
 35 85  1  0  0  0
 35 86  1  0  0  0
 35 87  1  0  0  0
 36 88  1  0  0  0
 36 89  1  0  0  0
 36 90  1  0  0  0
 38 91  1  0  0  0
 39 92  1  0  0  0
 40 93  1  0  0  0
 40 94  1  0  0  0
 41 95  1  0  0  0
 41 96  1  0  0  0
 42 97  1  0  0  0
 42 98  1  0  0  0
 43 99  1  0  0  0
 43100  1  0  0  0
 44101  1  0  0  0
 44102  1  0  0  0
 45103  1  0  0  0
 45104  1  0  0  0
 46105  1  0  0  0
 46106  1  0  0  0
 47107  1  0  0  0
 47108  1  0  0  0
 48109  1  0  0  0
 48110  1  0  0  0
 49111  1  0  0  0
 49112  1  0  0  0
 50113  1  0  0  0
 50114  1  0  0  0
 51115  1  0  0  0
 51116  1  0  0  0
 52117  1  0  0  0
 52118  1  0  0  0
 52119  1  0  0  0
M  END
$$$$
