6axq_ligand
  -I-interpret- 

 21 22  0  0  0  0  0  0  0  0999 V2000
   20.7620  -32.1580   -9.3230 C   0  0  0  0  0
   20.1590  -30.9250   -9.6430 C   0  0  0  0  0
   20.2250  -30.4690  -10.9560 C   0  0  0  0  0
   20.8960  -31.2200  -11.9140 C   0  0  0  0  0
   21.5000  -32.4230  -11.5760 C   0  0  0  0  0
   21.4350  -32.9090  -10.2820 C   0  0  0  0  0
   20.5630  -32.4020   -7.9840 N   0  0  0  0  0
   18.9590  -29.0980   -8.1530 C   0  0  0  0  0
   18.6290  -28.6960   -7.0680 O   0  0  0  0  0
   18.2950  -27.0470   -9.1070 C   0  0  0  0  0
   19.5930  -30.4150   -8.4010 C   0  0  0  0  0
   19.8610  -31.3570   -7.4410 C   0  0  0  0  0
   18.8240  -28.3890   -9.2680 O   0  0  0  0  0
   19.7523  -29.5265  -11.2322 H   0  0  0  0  0
   20.9484  -30.8603  -12.9416 H   0  0  0  0  0
   22.0318  -32.9917  -12.3388 H   0  0  0  0  0
   21.9006  -33.8590  -10.0197 H   0  0  0  0  0
   17.3028  -27.1003   -8.6588 H   0  0  0  0  0
   18.9572  -26.4721   -8.4596 H   0  0  0  0  0
   18.2291  -26.5644  -10.0821 H   0  0  0  0  0
   19.5592  -31.2852   -6.3961 H   0  0  0  0  0
  2  1  4  0  0  0
  1  6  4  0  0  0
  1  7  4  0  0  0
  2  3  4  0  0  0
 11  2  4  0  0  0
  3  4  4  0  0  0
  4  5  4  0  0  0
  6  5  4  0  0  0
  7 12  4  0  0  0
  8  9  2  0  0  0
  8 11  1  0  0  0
  8 13  1  0  0  0
 13 10  1  0  0  0
 11 12  4  0  0  0
  3 14  1  0  0  0
  4 15  1  0  0  0
  5 16  1  0  0  0
  6 17  1  0  0  0
 10 18  1  0  0  0
 10 19  1  0  0  0
 10 20  1  0  0  0
 12 21  1  0  0  0
M  END
$$$$
