2v2h_ligand
  -I-interpret- 

 14 13  0  0  0  0  0  0  0  0999 V2000
  -17.8090   -6.3090  -12.8520 P   0  0  0  0  0
  -18.3560   -5.6970  -14.2470 O   0  0  0  0  0
  -17.2500   -7.6810  -13.1540 O   0  0  0  0  0
  -19.0670   -6.3180  -12.0410 O   0  0  0  0  0
  -16.7790   -5.3540  -12.3310 O   0  0  0  0  0
  -17.3650   -5.3440  -15.2630 C   0  0  0  0  0
  -18.0850   -4.6020  -16.3600 C   0  0  0  0  0
  -17.3210   -4.3400  -17.3530 O   0  0  0  0  0
  -19.2390   -4.2690  -16.3510 O   0  0  0  0  0
  -16.4483   -7.5912  -13.6744 H   0  0  0  0  0
  -15.9983   -5.3917  -12.8884 H   0  0  0  0  0
  -16.8887   -6.2410  -15.6587 H   0  0  0  0  0
  -16.5821   -4.7204  -14.8313 H   0  0  0  0  0
  -16.4415   -4.6828  -17.1778 H   0  0  0  0  0
  1  2  1  0  0  0
  1  3  1  0  0  0
  1  4  2  0  0  0
  1  5  1  0  0  0
  2  6  1  0  0  0
  6  7  1  0  0  0
  7  8  1  0  0  0
  7  9  2  0  0  0
  3 10  1  0  0  0
  5 11  1  0  0  0
  6 12  1  0  0  0
  6 13  1  0  0  0
  8 14  1  0  0  0
M  END
$$$$
