2zdz_ligand
  -I-interpret- 

 57 60  0  0  0  0  0  0  0  0999 V2000
   16.8280  -10.7960   19.2680 C   0  0  0  0  0
   15.8920  -11.0840   18.2520 C   0  0  0  0  0
   16.7370   -5.6460   16.2110 C   0  0  0  0  0
   15.5540   -7.7230   17.0410 C   0  0  0  0  0
   18.1300  -11.3060   19.1990 C   0  0  0  0  0
   17.6040  -12.4040   17.1030 C   0  0  0  0  0
   16.2970  -11.8940   17.1690 C   0  0  0  0  0
   14.5410  -10.5230   18.3710 C   0  0  0  0  0
    9.5910   -7.6380   16.5140 C   0  0  0  0  0
   10.2010   -4.2120   14.0010 C   0  0  0  0  0
    8.4350   -3.2380   15.3500 C   0  0  0  0  0
    9.2480   -4.3320   15.0240 C   0  0  0  0  0
    8.5670    0.3980   13.0210 C   0  0  0  0  0
    9.6850   -0.5900   12.9200 C   0  0  0  0  0
    9.5460   -1.8940   13.6380 C   0  0  0  0  0
    8.5840   -2.0220   14.6650 C   0  0  0  0  0
   10.4820   -8.5730   17.0590 C   0  0  0  0  0
   11.8030   -8.2100   17.3690 C   0  0  0  0  0
   12.2070   -6.8770   17.1260 C   0  0  0  0  0
   11.3160   -5.9390   16.5770 C   0  0  0  0  0
   12.7120   -9.2130   17.9550 C   0  0  0  0  0
   12.4290  -10.0550   19.0210 C   0  0  0  0  0
   13.5580  -10.8670   19.2770 C   0  0  0  0  0
   10.4860   -0.4680   11.9910 O   0  0  0  0  0
   10.3480   -2.9990   13.3120 C   0  0  0  0  0
    9.0160   -5.4940   15.7400 O   0  0  0  0  0
   10.0000   -6.3210   16.2660 C   0  0  0  0  0
   14.0180   -9.5130   17.5700 N   0  0  0  0  0
   14.7530   -8.8700   16.4900 C   0  0  0  0  0
   15.8030   -7.5820   18.2340 O   0  0  0  0  0
   15.9900   -6.8080   16.0230 N   0  0  0  0  0
   16.8940   -4.8080   15.1160 N   0  0  0  0  0
   16.9930   -5.1500   17.4870 N   0  0  0  0  0
   18.5170  -12.1060   18.1200 C   0  0  0  0  0
   15.2190  -12.3030   15.8810 Cl  0  0  0  0  0
   16.5352  -10.1721   20.1125 H   0  0  0  0  0
   18.8448  -11.0783   19.9898 H   0  0  0  0  0
   17.9056  -13.0294   16.2628 H   0  0  0  0  0
    8.5696   -7.9386   16.2808 H   0  0  0  0  0
   10.8290   -5.0641   13.7409 H   0  0  0  0  0
    7.6861   -3.3316   16.1364 H   0  0  0  0  0
    8.9791    1.4009   13.1328 H   0  0  0  0  0
    7.9603    0.3519   12.1166 H   0  0  0  0  0
    7.9496    0.1588   13.8869 H   0  0  0  0  0
    7.9542   -1.1718   14.9267 H   0  0  0  0  0
   10.1459   -9.5932   17.2443 H   0  0  0  0  0
   13.2251   -6.5722   17.3682 H   0  0  0  0  0
   11.6454   -4.9164   16.3927 H   0  0  0  0  0
   11.4889  -10.0855   19.5717 H   0  0  0  0  0
   13.6379  -11.6292   20.0521 H   0  0  0  0  0
   11.0900   -2.9139   12.5181 H   0  0  0  0  0
   15.4250   -9.5929   16.0275 H   0  0  0  0  0
   14.0506   -8.4972   15.7445 H   0  0  0  0  0
   16.4708   -5.0536   14.2210 H   0  0  0  0  0
   16.6316   -5.6387   18.3061 H   0  0  0  0  0
   17.5419   -4.2980   17.6024 H   0  0  0  0  0
   19.5327  -12.4986   18.0710 H   0  0  0  0  0
  2  1  4  0  0  0
  1  5  4  0  0  0
  2  7  4  0  0  0
  8  2  1  0  0  0
 31  3  4  0  0  0
  3 32  2  0  0  0
  3 33  1  0  0  0
 29  4  1  0  0  0
  4 30  2  0  0  0
  4 31  1  0  0  0
  5 34  4  0  0  0
  7  6  4  0  0  0
  6 34  4  0  0  0
  7 35  1  0  0  0
  8 23  4  0  0  0
 28  8  4  0  0  0
 17  9  4  0  0  0
  9 27  4  0  0  0
 12 10  4  0  0  0
 10 25  4  0  0  0
 12 11  4  0  0  0
 11 16  4  0  0  0
 26 12  1  0  0  0
 14 13  1  0  0  0
 15 14  1  0  0  0
 14 24  2  0  0  0
 16 15  4  0  0  0
 25 15  4  0  0  0
 18 17  4  0  0  0
 18 19  4  0  0  0
 21 18  1  0  0  0
 19 20  4  0  0  0
 20 27  4  0  0  0
 21 22  4  0  0  0
 28 21  4  0  0  0
 22 23  4  0  0  0
 27 26  1  0  0  0
 28 29  1  0  0  0
  1 36  1  0  0  0
  5 37  1  0  0  0
  6 38  1  0  0  0
  9 39  1  0  0  0
 10 40  1  0  0  0
 11 41  1  0  0  0
 13 42  1  0  0  0
 13 43  1  0  0  0
 13 44  1  0  0  0
 16 45  1  0  0  0
 17 46  1  0  0  0
 19 47  1  0  0  0
 20 48  1  0  0  0
 22 49  1  0  0  0
 23 50  1  0  0  0
 25 51  1  0  0  0
 29 52  1  0  0  0
 29 53  1  0  0  0
 32 54  1  0  0  0
 33 55  1  0  0  0
 33 56  1  0  0  0
 34 57  1  0  0  0
M  END
$$$$
