3lc5_ligand
  -I-interpret- 

 49 53  0  0  0  0  0  0  0  0999 V2000
  -13.4080   -6.4310    6.8510 C   0  0  0  0  0
  -13.0670   -5.6320    7.9280 C   0  0  0  0  0
  -13.7070   -5.8640    5.6190 C   0  0  0  0  0
  -13.0130   -4.2580    7.8260 C   0  0  0  0  0
  -13.6570   -4.4660    5.5050 C   0  0  0  0  0
  -13.3110   -3.6690    6.5950 C   0  0  0  0  0
  -13.3990   -7.7840    7.1740 C   0  0  0  0  0
  -13.0490   -7.9790    8.5020 C   0  0  0  0  0
  -12.7810   -6.5520    9.2000 S   0  0  0  0  0
  -12.9410   -9.2690    9.1940 C   0  0  0  0  0
  -13.3050  -10.3860    8.6300 N   0  0  0  0  0
  -12.4410   -9.2840   10.4770 N   0  0  0  0  0
  -14.0320   -6.7140    4.5960 O   0  0  0  0  0
  -14.2620   -6.4510    3.2120 C   0  0  0  0  0
  -15.7440   -6.5890    2.9150 C   0  0  0  0  0
  -16.4190   -5.6240    2.1770 C   0  0  0  0  0
  -16.4350   -7.6690    3.4440 C   0  0  0  0  0
  -17.7760   -5.7590    1.9460 C   0  0  0  0  0
  -17.7920   -7.8070    3.2120 C   0  0  0  0  0
  -18.4580   -6.8520    2.4680 C   0  0  0  0  0
  -13.3470   -7.3860    2.4450 C   0  0  0  0  0
  -13.5990   -8.4610    1.9120 O   0  0  0  0  0
  -12.5710   -8.9280    1.3960 N   0  0  0  0  0
  -12.0570   -7.0700    2.3240 N   0  0  0  0  0
  -11.5570   -8.0770    1.6340 C   0  0  0  0  0
  -10.1350   -8.1710    1.2340 C   0  0  0  0  0
   -9.1820   -7.3190    1.8040 C   0  0  0  0  0
   -9.7420   -9.0980    0.2800 C   0  0  0  0  0
   -7.8450   -7.3950    1.4250 C   0  0  0  0  0
   -8.4050   -9.1720   -0.0940 C   0  0  0  0  0
   -7.4590   -8.3250    0.4720 C   0  0  0  0  0
  -12.7439   -3.6454    8.6864 H   0  0  0  0  0
  -13.8922   -3.9965    4.5498 H   0  0  0  0  0
  -13.2729   -2.5851    6.4866 H   0  0  0  0  0
  -13.6360   -8.5861    6.4750 H   0  0  0  0  0
  -13.6777  -10.3802    7.6805 H   0  0  0  0  0
  -12.3570  -10.1666   10.9813 H   0  0  0  0  0
  -12.1547   -8.4125   10.9230 H   0  0  0  0  0
  -14.0201   -5.4332    2.9060 H   0  0  0  0  0
  -15.8804   -4.7630    1.7813 H   0  0  0  0  0
  -15.9078   -8.4108    4.0439 H   0  0  0  0  0
  -18.3082   -5.0118    1.3573 H   0  0  0  0  0
  -18.3325   -8.6641    3.6138 H   0  0  0  0  0
  -19.5281   -6.9567    2.2887 H   0  0  0  0  0
   -9.4900   -6.5887    2.5522 H   0  0  0  0  0
  -10.4763   -9.7639   -0.1733 H   0  0  0  0  0
   -7.1078   -6.7291    1.8735 H   0  0  0  0  0
   -8.0946   -9.9033   -0.8403 H   0  0  0  0  0
   -6.4148   -8.3920    0.1668 H   0  0  0  0  0
  1  2  4  0  0  0
  1  3  4  0  0  0
  1  7  4  0  0  0
  2  4  4  0  0  0
  2  9  4  0  0  0
  3  5  4  0  0  0
  3 13  1  0  0  0
  4  6  4  0  0  0
  5  6  4  0  0  0
  7  8  4  0  0  0
  8  9  4  0  0  0
  8 10  1  0  0  0
 10 11  2  0  0  0
 10 12  1  0  0  0
 13 14  1  0  0  0
 14 15  1  0  0  0
 14 21  1  0  0  0
 15 16  4  0  0  0
 15 17  4  0  0  0
 16 18  4  0  0  0
 17 19  4  0  0  0
 18 20  4  0  0  0
 19 20  4  0  0  0
 21 22  4  0  0  0
 21 24  4  0  0  0
 22 23  4  0  0  0
 23 25  4  0  0  0
 24 25  4  0  0  0
 25 26  1  0  0  0
 26 27  4  0  0  0
 26 28  4  0  0  0
 27 29  4  0  0  0
 28 30  4  0  0  0
 29 31  4  0  0  0
 30 31  4  0  0  0
  4 32  1  0  0  0
  5 33  1  0  0  0
  6 34  1  0  0  0
  7 35  1  0  0  0
 11 36  1  0  0  0
 12 37  1  0  0  0
 12 38  1  0  0  0
 14 39  1  0  0  0
 16 40  1  0  0  0
 17 41  1  0  0  0
 18 42  1  0  0  0
 19 43  1  0  0  0
 20 44  1  0  0  0
 27 45  1  0  0  0
 28 46  1  0  0  0
 29 47  1  0  0  0
 30 48  1  0  0  0
 31 49  1  0  0  0
M  END
$$$$
