5c7b_ligand
  -I-interpret- 

 38 39  0  0  0  0  0  0  0  0999 V2000
  -15.2350  -21.6550   -0.5670 C   0  0  0  0  0
  -15.8160  -20.2860   -0.8860 C   0  0  0  0  0
  -15.8160  -20.0190   -2.3890 C   0  0  0  0  0
  -16.2160  -18.6500   -2.7400 N   0  3  0  0  0
  -16.3550  -18.4380   -4.1930 C   0  0  0  0  0
  -15.1780  -18.8580   -5.0720 C   0  0  0  0  0
  -14.9380  -19.2480   -8.6810 C   0  0  0  0  0
  -16.2550  -18.5250   -8.5330 C   0  0  0  0  0
  -16.6650  -18.7990   -7.1130 C   0  0  0  0  0
  -15.3350  -17.6790   -2.0890 C   0  0  0  0  0
  -15.3930  -17.8440   -0.5810 C   0  0  0  0  0
  -14.0930  -19.1630   -4.5900 O   0  0  0  0  0
  -15.3770  -18.8830   -6.4050 N   0  0  0  0  0
  -14.2540  -19.0810   -7.3350 C   0  0  0  0  0
  -15.0000  -19.2270   -0.2010 N   0  3  0  0  0
  -14.2049  -21.7024   -0.9203 H   0  0  0  0  0
  -15.2586  -21.8161    0.5108 H   0  0  0  0  0
  -15.8266  -22.4241   -1.0637 H   0  0  0  0  0
  -16.8463  -20.2635   -0.5309 H   0  0  0  0  0
  -16.5379  -20.6981   -2.8427 H   0  0  0  0  0
  -14.7973  -20.1652   -2.7480 H   0  0  0  0  0
  -17.1570  -18.4992   -2.3763 H   0  0  0  0  0
  -16.4573  -17.3612   -4.3278 H   0  0  0  0  0
  -17.1951  -19.0585   -4.5049 H   0  0  0  0  0
  -14.3391  -18.8401   -9.4952 H   0  0  0  0  0
  -15.0769  -20.2978   -8.9395 H   0  0  0  0  0
  -16.9985  -18.8711   -9.2510 H   0  0  0  0  0
  -16.1651  -17.4582   -8.7378 H   0  0  0  0  0
  -17.2609  -19.7063   -7.0136 H   0  0  0  0  0
  -17.3201  -18.0282   -6.7069 H   0  0  0  0  0
  -15.6606  -16.6720   -2.3498 H   0  0  0  0  0
  -14.3118  -17.8445   -2.4262 H   0  0  0  0  0
  -16.4110  -17.6557   -0.2401 H   0  0  0  0  0
  -14.7047  -17.1371   -0.1177 H   0  0  0  0  0
  -13.5489  -18.2498   -7.3235 H   0  0  0  0  0
  -13.6364  -19.9390   -7.0695 H   0  0  0  0  0
  -14.0277  -19.3587   -0.4796 H   0  0  0  0  0
  -15.1487  -19.3248    0.8034 H   0  0  0  0  0
  2  1  1  0  0  0
  3  2  1  0  0  0
  2 15  1  0  0  0
  4  3  1  0  0  0
  5  4  1  0  0  0
  4 10  1  0  0  0
  6  5  1  0  0  0
  6 12  2  0  0  0
 13  6  1  0  0  0
  8  7  1  0  0  0
  7 14  1  0  0  0
  9  8  1  0  0  0
  9 13  1  0  0  0
 10 11  1  0  0  0
 11 15  1  0  0  0
 13 14  1  0  0  0
  1 16  1  0  0  0
  1 17  1  0  0  0
  1 18  1  0  0  0
  2 19  1  0  0  0
  3 20  1  0  0  0
  3 21  1  0  0  0
  4 22  1  0  0  0
  5 23  1  0  0  0
  5 24  1  0  0  0
  7 25  1  0  0  0
  7 26  1  0  0  0
  8 27  1  0  0  0
  8 28  1  0  0  0
  9 29  1  0  0  0
  9 30  1  0  0  0
 10 31  1  0  0  0
 10 32  1  0  0  0
 11 33  1  0  0  0
 11 34  1  0  0  0
 14 35  1  0  0  0
 14 36  1  0  0  0
 15 37  1  0  0  0
 15 38  1  0  0  0
M  END
$$$$
