1mjj_ligand
  -I-interpret- 

 62 63  0  0  0  0  0  0  0  0999 V2000
    0.9290   44.8040   49.5320 C   0  0  0  0  0
    1.8140   45.3060   48.5900 C   0  0  0  0  0
    1.6210   45.0410   47.2170 C   0  0  0  0  0
    0.5340   44.2670   46.8060 C   0  0  0  0  0
   -0.3540   43.7690   47.7430 C   0  0  0  0  0
   -0.1510   44.0450   49.1040 C   0  0  0  0  0
    1.2050   44.9530   51.0010 C   0  0  0  0  0
    1.4930   43.6330   51.6780 C   0  0  0  0  0
    1.8830   43.7210   53.0910 N   0  0  0  0  0
    1.9650   42.6430   53.8630 C   0  0  0  0  0
    1.7290   41.5160   53.4220 O   0  0  0  0  0
    2.4090   42.8350   55.3130 C   0  0  0  0  0
    1.9130   44.0670   55.8320 O   0  0  0  0  0
    2.8310   45.3760   55.8720 P   0  0  0  0  0
    2.4290   46.2660   54.7550 O   0  0  0  0  0
    4.2530   44.9690   55.9870 O   0  0  0  0  0
    2.4930   46.0840   57.1370 C   0  0  0  0  0
    3.1840   47.4680   57.2620 C   0  0  0  0  0
    2.8780   48.2080   58.5710 C   0  0  0  0  0
    3.7320   48.1050   59.6700 C   0  0  0  0  0
    3.4410   48.7710   60.8850 C   0  0  0  0  0
    2.2770   49.5490   61.0000 C   0  0  0  0  0
    1.4180   49.6540   59.8950 C   0  0  0  0  0
    1.7270   48.9890   58.7020 C   0  0  0  0  0
    1.0620   46.3130   57.3530 N   0  0  0  0  0
    0.3640   45.7610   58.3510 C   0  0  0  0  0
    0.8420   44.9520   59.1510 O   0  0  0  0  0
   -1.1120   46.1430   58.4520 C   0  0  0  0  0
   -1.6610   46.0580   59.9190 C   0  0  0  0  0
   -0.8230   46.9040   60.8740 C   0  0  0  0  0
   -1.3660   46.8920   62.3060 C   0  0  0  0  0
   -1.1790   47.9010   63.0130 O   0  0  0  0  0
   -1.9530   45.8750   62.7330 O   0  0  0  0  0
    2.6635   45.9086   48.9115 H   0  0  0  0  0
    2.3183   45.4393   46.4800 H   0  0  0  0  0
    0.3850   44.0551   45.7472 H   0  0  0  0  0
   -1.2053   43.1665   47.4263 H   0  0  0  0  0
   -0.8553   43.6556   49.8391 H   0  0  0  0  0
    0.3170   45.3807   51.4664 H   0  0  0  0  0
    2.0856   45.5855   51.1133 H   0  0  0  0  0
    2.3371   43.1900   51.1494 H   0  0  0  0  0
    0.5672   43.0586   51.6461 H   0  0  0  0  0
    2.0968   44.6348   53.4906 H   0  0  0  0  0
    3.4983   42.8500   55.3493 H   0  0  0  0  0
    2.0155   42.0152   55.9139 H   0  0  0  0  0
    1.4868   46.4416   54.8104 H   0  0  0  0  0
    2.8623   45.3894   57.8915 H   0  0  0  0  0
    2.8110   48.0884   56.4471 H   0  0  0  0  0
    4.2597   47.2940   57.2349 H   0  0  0  0  0
    4.6370   47.5025   59.5917 H   0  0  0  0  0
    4.1209   48.6800   61.7321 H   0  0  0  0  0
    2.0446   50.0630   61.9327 H   0  0  0  0  0
    0.5102   50.2533   59.9655 H   0  0  0  0  0
    1.0509   49.0833   57.8522 H   0  0  0  0  0
    0.5703   46.9286   56.7052 H   0  0  0  0  0
   -1.6813   45.4427   57.8408 H   0  0  0  0  0
   -1.2142   47.1749   58.1159 H   0  0  0  0  0
   -1.6177   45.0192   60.2463 H   0  0  0  0  0
   -2.6842   46.4336   59.9291 H   0  0  0  0  0
   -0.8451   47.9334   60.5163 H   0  0  0  0  0
    0.1840   46.4872   60.8944 H   0  0  0  0  0
   -1.9939   45.2147   62.0373 H   0  0  0  0  0
  1  2  4  0  0  0
  1  6  4  0  0  0
  1  7  1  0  0  0
  2  3  4  0  0  0
  3  4  4  0  0  0
  4  5  4  0  0  0
  5  6  4  0  0  0
  7  8  1  0  0  0
  8  9  1  0  0  0
  9 10  1  0  0  0
 10 11  2  0  0  0
 10 12  1  0  0  0
 12 13  1  0  0  0
 13 14  1  0  0  0
 14 15  1  0  0  0
 14 16  2  0  0  0
 14 17  1  0  0  0
 17 18  1  0  0  0
 17 25  1  0  0  0
 18 19  1  0  0  0
 19 20  4  0  0  0
 19 24  4  0  0  0
 20 21  4  0  0  0
 21 22  4  0  0  0
 22 23  4  0  0  0
 23 24  4  0  0  0
 25 26  1  0  0  0
 26 27  2  0  0  0
 26 28  1  0  0  0
 28 29  1  0  0  0
 29 30  1  0  0  0
 30 31  1  0  0  0
 31 32  2  0  0  0
 31 33  1  0  0  0
  2 34  1  0  0  0
  3 35  1  0  0  0
  4 36  1  0  0  0
  5 37  1  0  0  0
  6 38  1  0  0  0
  7 39  1  0  0  0
  7 40  1  0  0  0
  8 41  1  0  0  0
  8 42  1  0  0  0
  9 43  1  0  0  0
 12 44  1  0  0  0
 12 45  1  0  0  0
 15 46  1  0  0  0
 17 47  1  0  0  0
 18 48  1  0  0  0
 18 49  1  0  0  0
 20 50  1  0  0  0
 21 51  1  0  0  0
 22 52  1  0  0  0
 23 53  1  0  0  0
 24 54  1  0  0  0
 25 55  1  0  0  0
 28 56  1  0  0  0
 28 57  1  0  0  0
 29 58  1  0  0  0
 29 59  1  0  0  0
 30 60  1  0  0  0
 30 61  1  0  0  0
 33 62  1  0  0  0
M  END
$$$$
