4zam_ligand
  -I-interpret- 

 79 81  0  0  0  0  0  0  0  0999 V2000
   11.1260    2.6820   -2.7600 C   0  0  0  0  0
   11.6450    3.3210   -1.5010 C   0  0  0  0  0
   11.2370    4.7910   -1.3950 C   0  0  0  0  0
   11.5920    5.5230   -2.6730 C   0  0  0  0  0
   11.0460    4.8200   -3.9140 C   0  0  0  0  0
   11.4100    5.4570   -5.2490 C   0  0  0  0  0
   11.1310    2.6870   -0.3500 O   0  0  0  0  0
   11.8080    5.3870   -0.2130 O   0  0  0  0  0
   11.4660    3.4490   -3.9270 O   0  0  0  0  0
   12.8390    5.6370   -5.3170 O   0  0  0  0  0
    9.6570    2.6160   -2.6680 O   0  0  0  0  0
   10.9550    6.7960   -2.5370 O   0  0  0  0  0
    6.5980   -0.0730   -3.1330 C   0  0  0  0  0
    7.3610   -0.3060   -1.8730 C   0  0  0  0  0
    8.2070    0.9600   -1.6690 C   0  0  0  0  0
    9.0660    1.3170   -2.8670 C   0  0  0  0  0
    8.2300    1.3930   -4.1170 C   0  0  0  0  0
    8.9920    1.5680   -5.4140 C   0  0  0  0  0
    5.7580   -1.2290   -3.3200 O   0  0  0  0  0
    6.4980   -0.5480   -0.7920 O   0  0  0  0  0
    9.0680    0.8230   -0.5450 O   0  0  0  0  0
    7.4570    0.1790   -4.2330 O   0  0  0  0  0
    9.9530    0.5080   -5.4990 O   0  0  0  0  0
    4.7040   -0.9770   -4.2590 C   0  0  0  0  0
    3.4460   -0.5210   -3.5520 C   0  0  0  0  0
    2.4110   -0.1820   -4.6060 C   0  0  0  0  0
    1.1420    0.3570   -3.9810 C   0  0  0  0  0
    0.3180    1.0980   -5.0430 C   0  0  0  0  0
   -0.3430    0.0870   -5.9490 C   0  0  0  0  0
   -1.5750    0.5180   -6.7340 C   0  0  0  0  0
   -1.5880   -0.4660   -7.9130 C   0  0  0  0  0
   -2.3160   -0.0560   -9.1650 C   0  0  0  0  0
   -3.1000    1.2050   -8.9680 C   0  0  0  0  0
   -2.1980    2.3000   -8.4660 C   0  0  0  0  0
   -1.6660    2.0180   -7.0840 C   0  0  0  0  0
   11.5755    1.6935   -2.8546 H   0  0  0  0  0
   12.7294    3.2242   -1.5544 H   0  0  0  0  0
   10.1556    4.8689   -1.2829 H   0  0  0  0  0
   12.6726    5.5785   -2.8044 H   0  0  0  0  0
    9.9637    4.9145   -3.8253 H   0  0  0  0  0
   10.9156    6.4243   -5.3387 H   0  0  0  0  0
   11.0846    4.8094   -6.0632 H   0  0  0  0  0
   11.3619    1.7554   -0.3691 H   0  0  0  0  0
   11.5468    4.8787    0.5584 H   0  0  0  0  0
   13.0702    6.0384   -6.1578 H   0  0  0  0  0
   11.2956    7.2414   -1.7577 H   0  0  0  0  0
    5.9835    0.8246   -3.0635 H   0  0  0  0  0
    7.9923   -1.1923   -1.9363 H   0  0  0  0  0
    7.4824    1.7594   -1.5144 H   0  0  0  0  0
    9.8304    0.5471   -2.9721 H   0  0  0  0  0
    7.6246    2.2910   -3.9936 H   0  0  0  0  0
    9.4917    2.5365   -5.4335 H   0  0  0  0  0
    8.3099    1.5316   -6.2634 H   0  0  0  0  0
    7.0159   -0.6940    0.0030 H   0  0  0  0  0
    9.5845    1.6253   -0.4393 H   0  0  0  0  0
   10.4520    0.5946   -6.3145 H   0  0  0  0  0
    4.4876   -1.8994   -4.7980 H   0  0  0  0  0
    5.0252   -0.1915   -4.9430 H   0  0  0  0  0
    3.6566    0.3538   -2.9368 H   0  0  0  0  0
    3.0737   -1.3112   -2.9000 H   0  0  0  0  0
    2.1669   -1.0907   -5.1562 H   0  0  0  0  0
    2.8245    0.5824   -5.2639 H   0  0  0  0  0
    1.3993    1.0464   -3.1769 H   0  0  0  0  0
    0.5561   -0.4705   -3.5809 H   0  0  0  0  0
    0.9714    1.7441   -5.6293 H   0  0  0  0  0
   -0.4434    1.7080   -4.5568 H   0  0  0  0  0
   -0.6879   -0.7081   -5.2880 H   0  0  0  0  0
    0.4064   -0.1562   -6.7023 H   0  0  0  0  0
   -2.4891    0.4583   -6.1433 H   0  0  0  0  0
   -2.1133   -1.3486   -7.5481 H   0  0  0  0  0
   -0.5448   -0.5787   -8.2080 H   0  0  0  0  0
   -3.0109   -0.8521   -9.4324 H   0  0  0  0  0
   -1.5778    0.1194   -9.9476 H   0  0  0  0  0
   -3.8879    1.0263   -8.2363 H   0  0  0  0  0
   -3.5359    1.5082   -9.9199 H   0  0  0  0  0
   -2.7784    3.2216   -8.4224 H   0  0  0  0  0
   -1.3489    2.3755   -9.1453 H   0  0  0  0  0
   -0.6536    2.4198   -7.0413 H   0  0  0  0  0
   -2.3580    2.4720   -6.3746 H   0  0  0  0  0
  1  2  1  0  0  0
  1  9  1  0  0  0
 11  1  1  0  0  0
  2  3  1  0  0  0
  2  7  1  0  0  0
  3  4  1  0  0  0
  3  8  1  0  0  0
  5  4  1  0  0  0
  4 12  1  0  0  0
  5  6  1  0  0  0
  9  5  1  0  0  0
  6 10  1  0  0  0
 16 11  1  0  0  0
 14 13  1  0  0  0
 13 19  1  0  0  0
 13 22  1  0  0  0
 15 14  1  0  0  0
 14 20  1  0  0  0
 15 16  1  0  0  0
 15 21  1  0  0  0
 16 17  1  0  0  0
 17 18  1  0  0  0
 17 22  1  0  0  0
 18 23  1  0  0  0
 19 24  1  0  0  0
 24 25  1  0  0  0
 25 26  1  0  0  0
 26 27  1  0  0  0
 27 28  1  0  0  0
 28 29  1  0  0  0
 29 30  1  0  0  0
 30 31  1  0  0  0
 30 35  1  0  0  0
 31 32  1  0  0  0
 32 33  1  0  0  0
 33 34  1  0  0  0
 34 35  1  0  0  0
  1 36  1  0  0  0
  2 37  1  0  0  0
  3 38  1  0  0  0
  4 39  1  0  0  0
  5 40  1  0  0  0
  6 41  1  0  0  0
  6 42  1  0  0  0
  7 43  1  0  0  0
  8 44  1  0  0  0
 10 45  1  0  0  0
 12 46  1  0  0  0
 13 47  1  0  0  0
 14 48  1  0  0  0
 15 49  1  0  0  0
 16 50  1  0  0  0
 17 51  1  0  0  0
 18 52  1  0  0  0
 18 53  1  0  0  0
 20 54  1  0  0  0
 21 55  1  0  0  0
 23 56  1  0  0  0
 24 57  1  0  0  0
 24 58  1  0  0  0
 25 59  1  0  0  0
 25 60  1  0  0  0
 26 61  1  0  0  0
 26 62  1  0  0  0
 27 63  1  0  0  0
 27 64  1  0  0  0
 28 65  1  0  0  0
 28 66  1  0  0  0
 29 67  1  0  0  0
 29 68  1  0  0  0
 30 69  1  0  0  0
 31 70  1  0  0  0
 31 71  1  0  0  0
 32 72  1  0  0  0
 32 73  1  0  0  0
 33 74  1  0  0  0
 33 75  1  0  0  0
 34 76  1  0  0  0
 34 77  1  0  0  0
 35 78  1  0  0  0
 35 79  1  0  0  0
M  END
$$$$
