4oeu_ligand
  -I-interpret- 

 20 20  0  0  0  0  0  0  0  0999 V2000
  -76.9780   -9.2480   40.0560 N   0  3  0  0  0
  -77.7040   -7.9840   40.1470 C   0  0  0  0  0
  -77.1350   -7.1180   41.2600 C   0  0  0  0  0
  -76.3850   -7.6180   42.0910 O   0  0  0  0  0
  -79.1880   -8.2380   40.4130 C   0  0  0  0  0
  -79.4690   -8.8400   41.7520 C   0  0  0  0  0
  -78.5950   -9.7200   42.3750 N   0  0  0  0  0
  -80.5150   -8.7060   42.6020 C   0  0  0  0  0
  -79.0980  -10.0940   43.5320 C   0  0  0  0  0
  -80.2650   -9.4890   43.7000 N   0  0  0  0  0
  -77.4450   -5.9290   41.3890 O   0  0  0  0  0
  -75.9913   -9.0600   39.8786 H   0  0  0  0  0
  -77.0756   -9.7587   40.9335 H   0  0  0  0  0
  -77.3618   -9.8050   39.2926 H   0  0  0  0  0
  -77.5920   -7.4631   39.1961 H   0  0  0  0  0
  -79.5358   -8.9453   39.6601 H   0  0  0  0  0
  -79.6932   -7.2728   40.3791 H   0  0  0  0  0
  -81.3976   -8.0867   42.4420 H   0  0  0  0  0
  -78.6328  -10.7855   44.2345 H   0  0  0  0  0
  -78.0319   -5.6731   40.6737 H   0  0  0  0  0
  1  2  1  0  0  0
  2  3  1  0  0  0
  2  5  1  0  0  0
  3  4  2  0  0  0
  3 11  1  0  0  0
  5  6  1  0  0  0
  6  7  4  0  0  0
  6  8  4  0  0  0
  7  9  4  0  0  0
  8 10  4  0  0  0
  9 10  4  0  0  0
  1 12  1  0  0  0
  1 13  1  0  0  0
  1 14  1  0  0  0
  2 15  1  0  0  0
  5 16  1  0  0  0
  5 17  1  0  0  0
  8 18  1  0  0  0
  9 19  1  0  0  0
 11 20  1  0  0  0
M  END
$$$$
