4jze_ligand
  -I-interpret- 

 72 75  0  0  0  0  0  0  0  0999 V2000
   15.9810   43.0750   22.2980 C   0  0  0  0  0
   14.6890   42.2610   22.5020 C   0  0  0  0  0
   14.7450   41.1200   21.4680 C   0  0  0  0  0
   14.6970   41.6110   23.8940 C   0  0  0  0  0
   13.4070   43.1410   22.4970 C   0  0  0  0  0
   13.3380   44.0430   21.2460 C   0  0  0  0  0
   12.1000   44.7570   21.1200 O   0  0  0  0  0
   12.1460   42.3730   22.5790 N   0  0  0  0  0
   11.2840   42.5110   23.6180 C   0  0  0  0  0
   11.3670   43.3780   24.4750 O   0  0  0  0  0
   10.1340   41.5460   23.6580 C   0  0  0  0  0
    8.8030   41.8960   23.9640 C   0  0  0  0  0
    7.7770   40.9310   23.9460 C   0  0  0  0  0
    8.0660   39.5920   23.6390 C   0  0  0  0  0
    9.4110   39.2500   23.3720 C   0  0  0  0  0
   10.4300   40.2080   23.3480 C   0  0  0  0  0
    9.8470   37.8720   22.9770 C   0  0  0  0  0
   10.7280   37.2870   23.6000 O   0  0  0  0  0
    9.2380   37.2960   21.9540 O   0  0  0  0  0
    6.9690   38.5590   23.6420 C   0  0  0  0  0
    5.9470   38.7600   22.6920 C   0  0  0  0  0
    4.8790   37.8710   22.5270 C   0  0  0  0  0
    4.8940   36.6970   23.3030 C   0  0  0  0  0
    5.8890   36.4720   24.2220 N   0  0  0  0  0
    6.9080   37.3710   24.3940 C   0  0  0  0  0
    7.9070   37.0480   25.4590 C   0  0  0  0  0
    8.4100   37.9100   26.1540 O   0  0  0  0  0
    8.2660   35.7400   25.5510 N   0  0  0  0  0
    8.8130   35.0920   26.6200 C   0  0  0  0  0
    9.4200   33.8330   26.4460 C   0  0  0  0  0
    9.8690   33.0560   27.5220 C   0  0  0  0  0
    9.7580   33.5490   28.8320 C   0  0  0  0  0
    9.2220   34.8400   29.0520 C   0  0  0  0  0
    8.7370   35.5710   27.9480 C   0  0  0  0  0
    9.1290   35.3900   30.3370 C   0  0  0  0  0
    9.6030   34.6270   31.4150 C   0  0  0  0  0
   10.1560   33.3960   31.2190 N   0  0  0  0  0
   10.2220   32.8570   29.9710 C   0  0  0  0  0
   10.7490   31.6220   29.8970 N   0  0  0  0  0
    3.8590   35.8800   23.0520 O   0  0  0  0  0
    3.8520   34.5640   23.6980 C   0  0  0  0  0
   15.9367   43.5900   21.3383 H   0  0  0  0  0
   16.0785   43.8065   23.1002 H   0  0  0  0  0
   16.8386   42.4024   22.3117 H   0  0  0  0  0
   13.9134   40.4362   21.6380 H   0  0  0  0  0
   14.6741   41.5377   20.4637 H   0  0  0  0  0
   15.6870   40.5818   21.5734 H   0  0  0  0  0
   14.7321   42.3890   24.6567 H   0  0  0  0  0
   13.7924   41.0163   24.0211 H   0  0  0  0  0
   15.5722   40.9681   23.9884 H   0  0  0  0  0
   13.4948   43.7436   23.4010 H   0  0  0  0  0
   13.4336   43.3980   20.3725 H   0  0  0  0  0
   14.1343   44.7823   21.3320 H   0  0  0  0  0
   12.1222   45.2961   20.3260 H   0  0  0  0  0
   11.9168   41.7187   21.8308 H   0  0  0  0  0
    8.5643   42.9287   24.2183 H   0  0  0  0  0
    6.7522   41.2258   24.1719 H   0  0  0  0  0
   11.4485   39.9179   23.0901 H   0  0  0  0  0
    8.5835   37.8981   21.5924 H   0  0  0  0  0
    5.9906   39.6461   22.0587 H   0  0  0  0  0
    4.0697   38.0790   21.8271 H   0  0  0  0  0
    8.1068   35.1731   24.7181 H   0  0  0  0  0
    9.5454   33.4478   25.4341 H   0  0  0  0  0
   10.3029   32.0723   27.3428 H   0  0  0  0  0
    8.2844   36.5465   28.1260 H   0  0  0  0  0
    8.7016   36.3802   30.4946 H   0  0  0  0  0
    9.5279   35.0253   32.4269 H   0  0  0  0  0
   10.8242   31.1528   28.9944 H   0  0  0  0  0
   11.0735   31.1544   30.7434 H   0  0  0  0  0
    4.7367   34.0057   23.3918 H   0  0  0  0  0
    3.8582   34.6920   24.7804 H   0  0  0  0  0
    2.9560   34.0193   23.4003 H   0  0  0  0  0
  1  2  1  0  0  0
  2  3  1  0  0  0
  2  4  1  0  0  0
  2  5  1  0  0  0
  5  6  1  0  0  0
  5  8  1  0  0  0
  6  7  1  0  0  0
  8  9  1  0  0  0
  9 10  2  0  0  0
  9 11  1  0  0  0
 11 12  4  0  0  0
 11 16  4  0  0  0
 12 13  4  0  0  0
 13 14  4  0  0  0
 14 15  4  0  0  0
 14 20  1  0  0  0
 15 16  4  0  0  0
 15 17  1  0  0  0
 17 18  2  0  0  0
 17 19  1  0  0  0
 20 21  4  0  0  0
 20 25  4  0  0  0
 21 22  4  0  0  0
 22 23  4  0  0  0
 23 24  4  0  0  0
 23 40  1  0  0  0
 24 25  4  0  0  0
 25 26  1  0  0  0
 26 27  2  0  0  0
 26 28  1  0  0  0
 28 29  1  0  0  0
 29 30  4  0  0  0
 29 34  4  0  0  0
 30 31  4  0  0  0
 31 32  4  0  0  0
 32 33  4  0  0  0
 32 38  4  0  0  0
 33 34  4  0  0  0
 33 35  4  0  0  0
 35 36  4  0  0  0
 36 37  4  0  0  0
 37 38  4  0  0  0
 38 39  1  0  0  0
 40 41  1  0  0  0
  1 42  1  0  0  0
  1 43  1  0  0  0
  1 44  1  0  0  0
  3 45  1  0  0  0
  3 46  1  0  0  0
  3 47  1  0  0  0
  4 48  1  0  0  0
  4 49  1  0  0  0
  4 50  1  0  0  0
  5 51  1  0  0  0
  6 52  1  0  0  0
  6 53  1  0  0  0
  7 54  1  0  0  0
  8 55  1  0  0  0
 12 56  1  0  0  0
 13 57  1  0  0  0
 16 58  1  0  0  0
 19 59  1  0  0  0
 21 60  1  0  0  0
 22 61  1  0  0  0
 28 62  1  0  0  0
 30 63  1  0  0  0
 31 64  1  0  0  0
 34 65  1  0  0  0
 35 66  1  0  0  0
 36 67  1  0  0  0
 39 68  1  0  0  0
 39 69  1  0  0  0
 41 70  1  0  0  0
 41 71  1  0  0  0
 41 72  1  0  0  0
M  END
$$$$
