### 
### Created by X-TOOL on Mon Sep 10 21:13:29 2018
### 

@<TRIPOS>MOLECULE
5j19_ligand
  118   119     1     0     0
SMALL
GAST_HUCK


@<TRIPOS>ATOM
      1 N          -2.4680    0.9890   -3.4000 N.4       1 ALA         0.2377
      2 CA         -2.6660    2.3940   -3.0390 C.3       1 ALA         0.0621
      3 C          -2.5590    3.3040   -4.2640 C.2       1 ALA         0.2264
      4 O          -2.3350    4.5130   -4.1490 O.2       1 ALA        -0.3907
      5 CB         -1.6740    2.8180   -1.9880 C.3       1 ALA        -0.0040
      6 N          -2.7120    2.7210   -5.4430 N.am      1 ALA        -0.2613
      7 CA         -2.7500    3.5170   -6.6560 C.3       1 ALA         0.1283
      8 C          -4.0620    4.2920   -6.7000 C.2       1 ALA         0.2037
      9 O          -5.0970    3.8260   -6.2350 O.2       1 ALA        -0.3944
     10 CB         -2.6210    2.6320   -7.8700 C.3       1 ALA        -0.0244
     11 N          -4.0030    5.4910   -7.2410 N.am      1 PHE        -0.2619
     12 CA         -5.1900    6.2780   -7.5110 C.3       1 PHE         0.1404
     13 C          -5.9490    5.6580   -8.6960 C.2       1 PHE         0.2060
     14 O          -7.1820    5.7540   -8.7990 O.2       1 PHE        -0.3942
     15 CB         -4.7110    7.6830   -7.8610 C.3       1 PHE         0.0214
     16 CG         -5.7930    8.6200   -8.2840 C.ar      1 PHE        -0.0386
     17 CD1        -6.8380    8.9320   -7.4230 C.ar      1 PHE        -0.0601
     18 CD2        -5.7380    9.2330   -9.5270 C.ar      1 PHE        -0.0601
     19 CE1        -7.8280    9.8250   -7.8110 C.ar      1 PHE        -0.0686
     20 CE2        -6.7140   10.1280   -9.9180 C.ar      1 PHE        -0.0686
     21 CZ         -7.7610   10.4280   -9.0540 C.ar      1 PHE        -0.0687
     22 N          -5.2070    5.0190   -9.5950 N.am      1 SER        -0.2614
     23 CA         -5.7860    4.6110  -10.8730 C.3       1 SER         0.1539
     24 C          -5.1550    3.3210  -11.3630 C.2       1 SER         0.2062
     25 O          -4.2230    2.8030  -10.7360 O.2       1 SER        -0.3943
     26 CB         -5.5270    5.6910  -11.9170 C.3       1 SER         0.0843
     27 OG         -4.1520    5.7360  -12.2460 O.3       1 SER        -0.3903
     28 N          -5.6480    2.8290  -12.5000 N.am      1 SER        -0.2615
     29 CA         -5.0810    1.6460  -13.1340 C.3       1 SER         0.1539
     30 C          -3.6800    1.9870  -13.6650 C.2       1 SER         0.2063
     31 O          -3.2420    3.1380  -13.5590 O.2       1 SER        -0.3943
     32 CB         -6.0100    1.1300  -14.2520 C.3       1 SER         0.0843
     33 OG         -6.1680    2.0760  -15.3150 O.3       1 SER        -0.3903
     34 N          -2.9770    0.9840  -14.1970 N.am      1 TPO        -0.2610
     35 CA         -1.6090    1.1300  -14.7170 C.3       1 TPO         0.1614
     36 CB         -1.1100   -0.2150  -15.2750 C.3       1 TPO         0.1262
     37 CG2         0.2900   -0.0350  -15.8590 C.3       1 TPO        -0.0298
     38 OG1        -1.0060   -1.1430  -14.2000 O.3       1 TPO        -0.2685
     39 P          -2.1280   -2.2910  -14.3680 P.3       1 TPO         0.2014
     40 O1P        -1.8530   -3.0930  -15.5880 O.co2     1 TPO        -0.5537
     41 O2P        -2.0890   -3.2350  -13.0710 O.co2     1 TPO        -0.5537
     42 O3P        -3.5590   -1.5890  -14.5400 O.co2     1 TPO        -0.5537
     43 C          -1.4410    2.2530  -15.7650 C.2       1 TPO         0.2093
     44 O          -2.0240    2.2080  -16.8430 O.2       1 TPO        -0.3941
     45 N          -0.6430    3.2750  -15.4310 N.am      1 PRO        -0.2498
     46 CA         -0.4270    4.4050  -16.3430 C.3       1 PRO         0.1337
     47 C           0.5280    4.0880  -17.5010 C.2       1 PRO         0.2035
     48 O           1.1710    3.0300  -17.5180 O.2       1 PRO        -0.3944
     49 CB          0.2000    5.4690  -15.4370 C.3       1 PRO        -0.0104
     50 CG          0.8630    4.7050  -14.3430 C.3       1 PRO        -0.0281
     51 CD          0.0490    3.4480  -14.1400 C.3       1 PRO         0.0369
     52 N           0.5970    5.0010  -18.4680 N.am      1 LYS        -0.2695
     53 CA          1.6380    4.9620  -19.5030 C.3       1 LYS         0.0944
     54 C           2.9760    5.3970  -18.9200 C.2       1 LYS         0.0601
     55 O           3.9000    4.5970  -18.7950 O.co2     1 LYS        -0.5666
     56 CB          1.2730    5.8840  -20.6660 C.3       1 LYS        -0.0177
     57 CG         -0.0610    5.5710  -21.2960 C.3       1 LYS        -0.0446
     58 CD         -0.4720    6.6550  -22.2990 C.3       1 LYS        -0.0125
     59 CE         -1.7610    6.2640  -23.0210 C.3       1 LYS        -0.0354
     60 NZ         -2.4130    7.4090  -23.7190 N.4       1 LYS         0.2185
     61 OXT         3.1610    6.5580  -18.5620 O.co2     1 LYS        -0.5666
     62 H1         -2.5442    0.4160   -2.5742 H         1 ALA         0.2015
     63 H2         -1.5531    0.8723   -3.8067 H         1 ALA         0.2015
     64 H3         -3.1704    0.7114   -4.0675 H         1 ALA         0.2015
     65 H4         -3.6780    2.4994   -2.6210 H         1 ALA         0.1095
     66 H5         -1.8403    3.8748   -1.7320 H         1 ALA         0.0310
     67 H6         -0.6524    2.6910   -2.3755 H         1 ALA         0.0310
     68 H7         -1.8049    2.1980   -1.0889 H         1 ALA         0.0310
     69 H8         -2.8019    1.7266   -5.4979 H         1 ALA         0.1884
     70 H9         -1.9117    4.2291   -6.6455 H         1 ALA         0.0797
     71 H10        -2.6516    3.2502   -8.7793 H         1 ALA         0.0277
     72 H11        -3.4519    1.9114   -7.8884 H         1 ALA         0.0277
     73 H12        -1.6654    2.0888   -7.8280 H         1 ALA         0.0277
     74 H13        -3.1082    5.8719   -7.4737 H         1 PHE         0.1885
     75 H14        -5.8427    6.3075   -6.6261 H         1 PHE         0.0823
     76 H15        -3.9851    7.6032   -8.6836 H         1 PHE         0.0474
     77 H16        -4.2162    8.1076   -6.9751 H         1 PHE         0.0474
     78 H17        -6.8807    8.4748   -6.4410 H         1 PHE         0.0557
     79 H18        -4.9187    9.0066  -10.1997 H         1 PHE         0.0557
     80 H19        -8.6509   10.0489   -7.1418 H         1 PHE         0.0599
     81 H20        -6.6640   10.5950  -10.8950 H         1 PHE         0.0599
     82 H21        -8.5256   11.1351   -9.3547 H         1 PHE         0.0559
     83 H22        -4.2482    4.8166   -9.3957 H         1 SER         0.1884
     84 H23        -6.8693    4.4658  -10.7495 H         1 SER         0.0823
     85 H24        -5.8358    6.6668  -11.5140 H         1 SER         0.0606
     86 H25        -6.1097    5.4673  -12.8228 H         1 SER         0.0606
     87 H26        -3.8836    4.8946  -12.5962 H         1 SER         0.2097
     88 H27        -6.4280    3.2843  -12.9292 H         1 SER         0.1884
     89 H28        -4.9831    0.8533  -12.3777 H         1 SER         0.0823
     90 H29        -6.9987    0.9179  -13.8190 H         1 SER         0.0606
     91 H30        -5.5841    0.2037  -14.6649 H         1 SER         0.0606
     92 H31        -5.3200    2.2612  -15.7012 H         1 SER         0.2097
     93 H32        -3.4054    0.0816  -14.2446 H         1 TPO         0.1884
     94 H33        -0.9686    1.3946  -13.8627 H         1 TPO         0.0830
     95 H34        -1.8026   -0.5882  -16.0438 H         1 TPO         0.0695
     96 H35         0.6472   -0.9959  -16.2579 H         1 TPO         0.0260
     97 H36         0.9743    0.3118  -15.0707 H         1 TPO         0.0260
     98 H37         0.2567    0.7086  -16.6689 H         1 TPO         0.0260
     99 H38        -1.3866    4.7509  -16.7546 H         1 PRO         0.0802
    100 H39        -0.5751    6.1342  -15.0287 H         1 PRO         0.0313
    101 H40         0.9380    6.0647  -15.9943 H         1 PRO         0.0313
    102 H41         0.8777    5.3011  -13.4186 H         1 PRO         0.0287
    103 H42         1.8933    4.4478  -14.6300 H         1 PRO         0.0287
    104 H43         0.7003    2.5882  -13.9244 H         1 PRO         0.0524
    105 H44        -0.6735    3.5753  -13.3204 H         1 PRO         0.0524
    106 H45        -0.0810    5.7358  -18.4900 H         1 LYS         0.1875
    107 H46         1.7272    3.9315  -19.8774 H         1 LYS         0.0726
    108 H47         2.0510    5.7927  -21.4382 H         1 LYS         0.0305
    109 H48         1.2461    6.9185  -20.2931 H         1 LYS         0.0305
    110 H49        -0.8238    5.5061  -20.5061 H         1 LYS         0.0269
    111 H50         0.0077    4.6061  -21.8196 H         1 LYS         0.0269
    112 H51         0.3311    6.7848  -23.0394 H         1 LYS         0.0317
    113 H52        -0.6321    7.6015  -21.7620 H         1 LYS         0.0317
    114 H53        -2.4666    5.8576  -22.2815 H         1 LYS         0.0813
    115 H54        -1.5238    5.4898  -23.7655 H         1 LYS         0.0813
    116 H55        -3.2539    7.0902  -24.1742 H         1 LYS         0.1994
    117 H56        -1.7810    7.7869  -24.4073 H         1 LYS         0.1994
    118 H57        -2.6449    8.1239  -23.0474 H         1 LYS         0.1994
@<TRIPOS>BOND
     1    1    2 1  
     2    2    3 1  
     3    2    5 1  
     4    3    4 2  
     5    3    6 am 
     6    6    7 1  
     7    7    8 1  
     8    7   10 1  
     9    8    9 2  
    10    8   11 am 
    11   11   12 1  
    12   12   13 1  
    13   12   15 1  
    14   13   14 2  
    15   13   22 am 
    16   15   16 1  
    17   16   17 ar 
    18   16   18 ar 
    19   17   19 ar 
    20   18   20 ar 
    21   19   21 ar 
    22   20   21 ar 
    23   22   23 1  
    24   23   24 1  
    25   23   26 1  
    26   24   25 2  
    27   24   28 am 
    28   26   27 1  
    29   28   29 1  
    30   29   30 1  
    31   29   32 1  
    32   30   31 2  
    33   30   34 am 
    34   32   33 1  
    35   34   35 1  
    36   35   36 1  
    37   35   43 1  
    38   36   37 1  
    39   36   38 1  
    40   38   39 1  
    41   39   40 ar 
    42   39   41 ar 
    43   39   42 ar 
    44   43   44 2  
    45   43   45 am 
    46   45   46 1  
    47   45   51 1  
    48   46   47 1  
    49   46   49 1  
    50   47   48 2  
    51   47   52 am 
    52   49   50 1  
    53   50   51 1  
    54   52   53 1  
    55   53   54 1  
    56   53   56 1  
    57   54   55 ar 
    58   54   61 ar 
    59   56   57 1  
    60   57   58 1  
    61   58   59 1  
    62   59   60 1  
    63    1   62 1  
    64    1   63 1  
    65    1   64 1  
    66    2   65 1  
    67    5   66 1  
    68    5   67 1  
    69    5   68 1  
    70    6   69 1  
    71    7   70 1  
    72   10   71 1  
    73   10   72 1  
    74   10   73 1  
    75   11   74 1  
    76   12   75 1  
    77   15   76 1  
    78   15   77 1  
    79   17   78 1  
    80   18   79 1  
    81   19   80 1  
    82   20   81 1  
    83   21   82 1  
    84   22   83 1  
    85   23   84 1  
    86   26   85 1  
    87   26   86 1  
    88   27   87 1  
    89   28   88 1  
    90   29   89 1  
    91   32   90 1  
    92   32   91 1  
    93   33   92 1  
    94   34   93 1  
    95   35   94 1  
    96   36   95 1  
    97   37   96 1  
    98   37   97 1  
    99   37   98 1  
   100   46   99 1  
   101   49  100 1  
   102   49  101 1  
   103   50  102 1  
   104   50  103 1  
   105   51  104 1  
   106   51  105 1  
   107   52  106 1  
   108   53  107 1  
   109   56  108 1  
   110   56  109 1  
   111   57  110 1  
   112   57  111 1  
   113   58  112 1  
   114   58  113 1  
   115   59  114 1  
   116   59  115 1  
   117   60  116 1  
   118   60  117 1  
   119   60  118 1  
@<TRIPOS>SUBSTRUCTURE
     1 ALA         1

