5j19_ligand
  -I-interpret- 

121122  0  0  0  0  0  0  0  0999 V2000
   -2.4680    0.9890   -3.4000 N   0  3  0  0  0
   -2.6660    2.3940   -3.0390 C   0  0  0  0  0
   -2.5590    3.3040   -4.2640 C   0  0  0  0  0
   -2.3350    4.5130   -4.1490 O   0  0  0  0  0
   -1.6740    2.8180   -1.9880 C   0  0  0  0  0
   -2.7120    2.7210   -5.4430 N   0  0  0  0  0
   -2.7500    3.5170   -6.6560 C   0  0  0  0  0
   -4.0620    4.2920   -6.7000 C   0  0  0  0  0
   -5.0970    3.8260   -6.2350 O   0  0  0  0  0
   -2.6210    2.6320   -7.8700 C   0  0  0  0  0
   -4.0030    5.4910   -7.2410 N   0  0  0  0  0
   -5.1900    6.2780   -7.5110 C   0  0  0  0  0
   -5.9490    5.6580   -8.6960 C   0  0  0  0  0
   -7.1820    5.7540   -8.7990 O   0  0  0  0  0
   -4.7110    7.6830   -7.8610 C   0  0  0  0  0
   -5.7930    8.6200   -8.2840 C   0  0  0  0  0
   -6.8380    8.9320   -7.4230 C   0  0  0  0  0
   -5.7380    9.2330   -9.5270 C   0  0  0  0  0
   -7.8280    9.8250   -7.8110 C   0  0  0  0  0
   -6.7140   10.1280   -9.9180 C   0  0  0  0  0
   -7.7610   10.4280   -9.0540 C   0  0  0  0  0
   -5.2070    5.0190   -9.5950 N   0  0  0  0  0
   -5.7860    4.6110  -10.8730 C   0  0  0  0  0
   -5.1550    3.3210  -11.3630 C   0  0  0  0  0
   -4.2230    2.8030  -10.7360 O   0  0  0  0  0
   -5.5270    5.6910  -11.9170 C   0  0  0  0  0
   -4.1520    5.7360  -12.2460 O   0  0  0  0  0
   -5.6480    2.8290  -12.5000 N   0  0  0  0  0
   -5.0810    1.6460  -13.1340 C   0  0  0  0  0
   -3.6800    1.9870  -13.6650 C   0  0  0  0  0
   -3.2420    3.1380  -13.5590 O   0  0  0  0  0
   -6.0100    1.1300  -14.2520 C   0  0  0  0  0
   -6.1680    2.0760  -15.3150 O   0  0  0  0  0
   -2.9770    0.9840  -14.1970 N   0  0  0  0  0
   -1.6090    1.1300  -14.7170 C   0  0  0  0  0
   -1.1100   -0.2150  -15.2750 C   0  0  0  0  0
    0.2900   -0.0350  -15.8590 C   0  0  0  0  0
   -1.0060   -1.1430  -14.2000 O   0  0  0  0  0
   -2.1280   -2.2910  -14.3680 P   0  0  0  0  0
   -1.8530   -3.0930  -15.5880 O   0  0  0  0  0
   -2.0890   -3.2350  -13.0710 O   0  0  0  0  0
   -3.5590   -1.5890  -14.5400 O   0  0  0  0  0
   -1.4410    2.2530  -15.7650 C   0  0  0  0  0
   -2.0240    2.2080  -16.8430 O   0  0  0  0  0
   -0.6430    3.2750  -15.4310 N   0  0  0  0  0
   -0.4270    4.4050  -16.3430 C   0  0  0  0  0
    0.5280    4.0880  -17.5010 C   0  0  0  0  0
    1.1710    3.0300  -17.5180 O   0  0  0  0  0
    0.2000    5.4690  -15.4370 C   0  0  0  0  0
    0.8630    4.7050  -14.3430 C   0  0  0  0  0
    0.0490    3.4480  -14.1400 C   0  0  0  0  0
    0.5970    5.0010  -18.4680 N   0  0  0  0  0
    1.6380    4.9620  -19.5030 C   0  0  0  0  0
    2.9760    5.3970  -18.9200 C   0  0  0  0  0
    3.9000    4.5970  -18.7950 O   0  0  0  0  0
    1.2730    5.8840  -20.6660 C   0  0  0  0  0
   -0.0610    5.5710  -21.2960 C   0  0  0  0  0
   -0.4720    6.6550  -22.2990 C   0  0  0  0  0
   -1.7610    6.2640  -23.0210 C   0  0  0  0  0
   -2.4130    7.4090  -23.7190 N   0  3  0  0  0
    3.1610    6.5580  -18.5620 O   0  0  0  0  0
   -3.1486    0.7229   -4.1116 H   0  0  0  0  0
   -1.5244    0.8630   -3.7663 H   0  0  0  0  0
   -2.5935    0.4057   -2.5727 H   0  0  0  0  0
   -3.6724    2.4910   -2.6318 H   0  0  0  0  0
   -0.6650    2.7523   -2.3950 H   0  0  0  0  0
   -1.8803    3.8457   -1.6890 H   0  0  0  0  0
   -1.7613    2.1618   -1.1220 H   0  0  0  0  0
   -2.8037    1.7067   -5.4990 H   0  0  0  0  0
   -1.9142    4.2167   -6.6580 H   0  0  0  0  0
   -3.4507    1.9254   -7.8928 H   0  0  0  0  0
   -2.6408    3.2467   -8.7699 H   0  0  0  0  0
   -1.6786    2.0864   -7.8218 H   0  0  0  0  0
   -3.0903    5.8796   -7.4784 H   0  0  0  0  0
   -5.8632    6.3042   -6.6541 H   0  0  0  0  0
   -4.0267    7.5854   -8.7038 H   0  0  0  0  0
   -4.2627    8.1004   -6.9594 H   0  0  0  0  0
   -6.8809    8.4723   -6.4356 H   0  0  0  0  0
   -4.9142    9.0054  -10.2035 H   0  0  0  0  0
   -8.6554   10.0501   -7.1381 H   0  0  0  0  0
   -6.6638   10.5976  -10.9004 H   0  0  0  0  0
   -8.5298   11.1391   -9.3564 H   0  0  0  0  0
   -4.2290    4.8126   -9.3917 H   0  0  0  0  0
   -6.8558    4.4611  -10.7279 H   0  0  0  0  0
   -5.8278    6.6571  -11.5118 H   0  0  0  0  0
   -6.1006    5.4625  -12.8153 H   0  0  0  0  0
   -4.0037    6.4196  -12.9035 H   0  0  0  0  0
   -6.4436    3.2934  -12.9378 H   0  0  0  0  0
   -4.9894    0.8420  -12.4037 H   0  0  0  0  0
   -6.9921    0.9480  -13.8155 H   0  0  0  0  0
   -5.5641    0.2271  -14.6693 H   0  0  0  0  0
   -6.7522    1.7102  -15.9832 H   0  0  0  0  0
   -3.4139    0.0636  -14.2455 H   0  0  0  0  0
   -0.9954    1.4339  -13.8690 H   0  0  0  0  0
   -1.8019   -0.5685  -16.0395 H   0  0  0  0  0
    0.2556    0.7020  -16.6613 H   0  0  0  0  0
    0.9671    0.3087  -15.0770 H   0  0  0  0  0
    0.6428   -0.9877  -16.2539 H   0  0  0  0  0
   -2.2676   -2.7088  -12.2882 H   0  0  0  0  0
   -3.7533   -1.0655  -13.7591 H   0  0  0  0  0
   -1.3585    4.7016  -16.8251 H   0  0  0  0  0
   -0.5483    6.1605  -15.0497 H   0  0  0  0  0
    0.9094    6.0936  -15.9799 H   0  0  0  0  0
    0.9050    5.2940  -13.4268 H   0  0  0  0  0
    1.8931    4.4638  -14.6053 H   0  0  0  0  0
    0.6656    2.5883  -13.8775 H   0  0  0  0  0
   -0.6433    3.5289  -13.3020 H   0  0  0  0  0
   -0.0945    5.7505  -18.4904 H   0  0  0  0  0
    1.7154    3.9380  -19.8684 H   0  0  0  0  0
    2.0342    5.7535  -21.4352 H   0  0  0  0  0
    1.2157    6.8982  -20.2709 H   0  0  0  0  0
   -0.8136    5.5235  -20.5089 H   0  0  0  0  0
    0.0197    4.6215  -21.8252 H   0  0  0  0  0
    0.3225    6.7720  -23.0360 H   0  0  0  0  0
   -0.6394    7.5876  -21.7603 H   0  0  0  0  0
   -2.4599    5.8924  -22.2717 H   0  0  0  0  0
   -1.5048    5.5198  -23.7750 H   0  0  0  0  0
   -3.2637    7.0852  -24.1792 H   0  0  0  0  0
   -2.6472    8.1318  -23.0384 H   0  0  0  0  0
   -1.7725    7.7905  -24.4152 H   0  0  0  0  0
    2.3633    7.0698  -18.7150 H   0  0  0  0  0
  1  2  1  0  0  0
  2  3  1  0  0  0
  2  5  1  0  0  0
  3  4  2  0  0  0
  3  6  1  0  0  0
  6  7  1  0  0  0
  7  8  1  0  0  0
  7 10  1  0  0  0
  8  9  2  0  0  0
  8 11  1  0  0  0
 11 12  1  0  0  0
 12 13  1  0  0  0
 12 15  1  0  0  0
 13 14  2  0  0  0
 13 22  1  0  0  0
 15 16  1  0  0  0
 16 17  4  0  0  0
 16 18  4  0  0  0
 17 19  4  0  0  0
 18 20  4  0  0  0
 19 21  4  0  0  0
 20 21  4  0  0  0
 22 23  1  0  0  0
 23 24  1  0  0  0
 23 26  1  0  0  0
 24 25  2  0  0  0
 24 28  1  0  0  0
 26 27  1  0  0  0
 28 29  1  0  0  0
 29 30  1  0  0  0
 29 32  1  0  0  0
 30 31  2  0  0  0
 30 34  1  0  0  0
 32 33  1  0  0  0
 34 35  1  0  0  0
 35 36  1  0  0  0
 35 43  1  0  0  0
 36 37  1  0  0  0
 36 38  1  0  0  0
 38 39  1  0  0  0
 39 40  2  0  0  0
 39 41  1  0  0  0
 39 42  1  0  0  0
 43 44  2  0  0  0
 43 45  1  0  0  0
 45 46  1  0  0  0
 45 51  1  0  0  0
 46 47  1  0  0  0
 46 49  1  0  0  0
 47 48  2  0  0  0
 47 52  1  0  0  0
 49 50  1  0  0  0
 50 51  1  0  0  0
 52 53  1  0  0  0
 53 54  1  0  0  0
 53 56  1  0  0  0
 54 55  2  0  0  0
 54 61  1  0  0  0
 56 57  1  0  0  0
 57 58  1  0  0  0
 58 59  1  0  0  0
 59 60  1  0  0  0
  1 62  1  0  0  0
  1 63  1  0  0  0
  1 64  1  0  0  0
  2 65  1  0  0  0
  5 66  1  0  0  0
  5 67  1  0  0  0
  5 68  1  0  0  0
  6 69  1  0  0  0
  7 70  1  0  0  0
 10 71  1  0  0  0
 10 72  1  0  0  0
 10 73  1  0  0  0
 11 74  1  0  0  0
 12 75  1  0  0  0
 15 76  1  0  0  0
 15 77  1  0  0  0
 17 78  1  0  0  0
 18 79  1  0  0  0
 19 80  1  0  0  0
 20 81  1  0  0  0
 21 82  1  0  0  0
 22 83  1  0  0  0
 23 84  1  0  0  0
 26 85  1  0  0  0
 26 86  1  0  0  0
 27 87  1  0  0  0
 28 88  1  0  0  0
 29 89  1  0  0  0
 32 90  1  0  0  0
 32 91  1  0  0  0
 33 92  1  0  0  0
 34 93  1  0  0  0
 35 94  1  0  0  0
 36 95  1  0  0  0
 37 96  1  0  0  0
 37 97  1  0  0  0
 37 98  1  0  0  0
 41 99  1  0  0  0
 42100  1  0  0  0
 46101  1  0  0  0
 49102  1  0  0  0
 49103  1  0  0  0
 50104  1  0  0  0
 50105  1  0  0  0
 51106  1  0  0  0
 51107  1  0  0  0
 52108  1  0  0  0
 53109  1  0  0  0
 56110  1  0  0  0
 56111  1  0  0  0
 57112  1  0  0  0
 57113  1  0  0  0
 58114  1  0  0  0
 58115  1  0  0  0
 59116  1  0  0  0
 59117  1  0  0  0
 60118  1  0  0  0
 60119  1  0  0  0
 60120  1  0  0  0
 61121  1  0  0  0
M  END
$$$$
