3qkv_ligand
  -I-interpret- 

 35 37  0  0  0  0  0  0  0  0999 V2000
   -2.2010  -19.6830  -37.2060 N   0  3  0  0  0
   -7.0320  -21.4780  -37.9420 C   0  0  0  0  0
   -4.6070  -19.5130  -37.3100 C   0  0  0  0  0
   -3.4080  -21.7350  -37.5130 C   0  0  0  0  0
   -2.3670  -20.8010  -38.1320 C   0  0  0  0  0
   -6.4960  -21.0950  -35.5160 C   0  0  0  0  0
   -7.9390  -21.6690  -38.9830 C   0  0  0  0  0
   -9.3070  -21.6830  -38.7150 C   0  0  0  0  0
  -11.6210  -21.5330  -37.0460 Br  0  0  0  0  0
   -9.7650  -21.5100  -37.4080 C   0  0  0  0  0
   -7.4880  -21.3060  -36.6400 C   0  0  0  0  0
   -8.8550  -21.3190  -36.3690 C   0  0  0  0  0
   -5.6840  -21.4630  -38.2050 O   0  0  0  0  0
   -4.7370  -21.0380  -37.2210 C   0  0  0  0  0
   -5.1580  -21.4350  -35.9070 O   0  0  0  0  0
   -3.3450  -18.9650  -36.6490 C   0  0  0  0  0
   -0.8590  -19.2640  -36.8270 C   0  0  0  0  0
   -0.6240  -19.5970  -35.4530 O   0  0  0  0  0
   -3.0592  -20.1651  -37.4731 H   0  0  0  0  0
   -5.4615  -19.0821  -36.7882 H   0  0  0  0  0
   -4.5613  -19.2510  -38.3671 H   0  0  0  0  0
   -3.0079  -22.0973  -36.5660 H   0  0  0  0  0
   -3.6025  -22.5353  -38.2270 H   0  0  0  0  0
   -1.4216  -21.3212  -38.2856 H   0  0  0  0  0
   -2.6944  -20.4491  -39.1103 H   0  0  0  0  0
   -6.7817  -21.7394  -34.6846 H   0  0  0  0  0
   -6.5125  -20.0404  -35.2411 H   0  0  0  0  0
   -7.5800  -21.8069  -40.0029 H   0  0  0  0  0
  -10.0195  -21.8292  -39.5268 H   0  0  0  0  0
   -9.2115  -21.1803  -35.3483 H   0  0  0  0  0
   -3.2509  -17.8962  -36.8412 H   0  0  0  0  0
   -3.3914  -19.1068  -35.5693 H   0  0  0  0  0
   -0.7637  -18.1865  -36.9609 H   0  0  0  0  0
   -0.1284  -19.7746  -37.4544 H   0  0  0  0  0
    0.2610  -19.3202  -35.2047 H   0  0  0  0  0
  5  1  1  0  0  0
 16  1  1  0  0  0
  1 17  1  0  0  0
  2  7  4  0  0  0
  2 11  4  0  0  0
 13  2  1  0  0  0
 14  3  1  0  0  0
  3 16  1  0  0  0
  4  5  1  0  0  0
 14  4  1  0  0  0
 11  6  1  0  0  0
  6 15  1  0  0  0
  7  8  4  0  0  0
  8 10  4  0  0  0
 10  9  1  0  0  0
 12 10  4  0  0  0
 11 12  4  0  0  0
 13 14  1  0  0  0
 14 15  1  0  0  0
 17 18  1  0  0  0
  1 19  1  0  0  0
  3 20  1  0  0  0
  3 21  1  0  0  0
  4 22  1  0  0  0
  4 23  1  0  0  0
  5 24  1  0  0  0
  5 25  1  0  0  0
  6 26  1  0  0  0
  6 27  1  0  0  0
  7 28  1  0  0  0
  8 29  1  0  0  0
 12 30  1  0  0  0
 16 31  1  0  0  0
 16 32  1  0  0  0
 17 33  1  0  0  0
 17 34  1  0  0  0
 18 35  1  0  0  0
M  END
$$$$
