### 
### Created by X-TOOL on Mon Sep 10 21:13:08 2018
### 

@<TRIPOS>MOLECULE
3qkv_ligand
   34    36     1     0     0
SMALL
GAST_HUCK


@<TRIPOS>ATOM
      1 N1         -2.2010  -19.6830  -37.2060 N.4       1 QKV         0.4204
      2 C4         -7.0320  -21.4780  -37.9420 C.ar      1 QKV         0.1018
      3 C5         -4.6070  -19.5130  -37.3100 C.3       1 QKV        -0.0126
      4 C6         -3.4080  -21.7350  -37.5130 C.3       1 QKV        -0.0126
      5 C8         -2.3670  -20.8010  -38.1320 C.3       1 QKV        -0.1043
      6 C10        -6.4960  -21.0950  -35.5160 C.3       1 QKV         0.0841
      7 C13        -7.9390  -21.6690  -38.9830 C.ar      1 QKV        -0.0364
      8 C15        -9.3070  -21.6830  -38.7150 C.ar      1 QKV        -0.0680
      9 BR1       -11.6210  -21.5330  -37.0460 Br        1 QKV        -0.0618
     10 C14        -9.7650  -21.5100  -37.4080 C.ar      1 QKV        -0.0054
     11 C3         -7.4880  -21.3060  -36.6400 C.ar      1 QKV         0.0150
     12 C11        -8.8550  -21.3190  -36.3690 C.ar      1 QKV        -0.0571
     13 O1         -5.6840  -21.4630  -38.2050 O.3       1 QKV        -0.2869
     14 C2         -4.7370  -21.0380  -37.2210 C.3       1 QKV         0.1888
     15 O2         -5.1580  -21.4350  -35.9070 O.3       1 QKV        -0.3339
     16 C9         -3.3450  -18.9650  -36.6490 C.3       1 QKV        -0.1043
     17 C1         -0.8590  -19.2640  -36.8270 C.3       1 QKV        -0.0100
     18 O3         -0.6240  -19.5970  -35.4530 O.3       1 QKV        -0.4170
     19 H          -5.4615  -19.0821  -36.7882 H         1 QKV         0.0301
     20 H          -4.5613  -19.2510  -38.3671 H         1 QKV         0.0301
     21 H          -3.0079  -22.0973  -36.5660 H         1 QKV         0.0301
     22 H          -3.6025  -22.5353  -38.2270 H         1 QKV         0.0301
     23 H          -1.4216  -21.3212  -38.2856 H         1 QKV         0.0020
     24 H          -2.6944  -20.4491  -39.1103 H         1 QKV         0.0020
     25 H          -6.7817  -21.7394  -34.6846 H         1 QKV         0.0702
     26 H          -6.5125  -20.0404  -35.2411 H         1 QKV         0.0702
     27 H          -7.5800  -21.8069  -40.0029 H         1 QKV         0.0529
     28 H         -10.0195  -21.8292  -39.5268 H         1 QKV         0.0558
     29 H          -9.2115  -21.1803  -35.3483 H         1 QKV         0.0552
     30 H          -3.2509  -17.8962  -36.8412 H         1 QKV         0.0020
     31 H          -3.3914  -19.1068  -35.5693 H         1 QKV         0.0020
     32 H          -0.7637  -18.1865  -36.9609 H         1 QKV         0.0307
     33 H          -0.1284  -19.7746  -37.4544 H         1 QKV         0.0307
     34 H           0.2610  -19.3202  -35.2047 H         1 QKV         0.2065
@<TRIPOS>BOND
     1    5    1 1  
     2   16    1 1  
     3    1   17 1  
     4    2    7 ar 
     5    2   11 ar 
     6   13    2 1  
     7   14    3 1  
     8    3   16 1  
     9    4    5 1  
    10   14    4 1  
    11   11    6 1  
    12    6   15 1  
    13    7    8 ar 
    14    8   10 ar 
    15   10    9 1  
    16   12   10 ar 
    17   11   12 ar 
    18   13   14 1  
    19   14   15 1  
    20   17   18 1  
    21    3   19 1  
    22    3   20 1  
    23    4   21 1  
    24    4   22 1  
    25    5   23 1  
    26    5   24 1  
    27    6   25 1  
    28    6   26 1  
    29    7   27 1  
    30    8   28 1  
    31   12   29 1  
    32   16   30 1  
    33   16   31 1  
    34   17   32 1  
    35   17   33 1  
    36   18   34 1  
@<TRIPOS>SUBSTRUCTURE
     1 QKV         1

