3cx9_ligand
  -I-interpret- 

 75 74  0  0  0  0  0  0  0  0999 V2000
  -35.4210    4.8070  -11.6010 O   0  0  0  0  0
  -35.6910    3.9310  -10.8000 C   0  0  0  0  0
  -35.2770    2.5850  -11.1260 O   0  0  0  0  0
  -36.1400    1.5170  -10.7890 C   0  0  0  0  0
  -35.5930    0.2200  -11.3620 C   0  0  0  0  0
  -34.2390    0.4190  -11.7650 O   0  0  0  0  0
  -36.3600   -0.2430  -12.5770 C   0  0  0  0  0
  -35.4600   -0.3420  -13.6600 O   0  0  0  0  0
  -35.8160    0.1040  -15.1680 P   0  0  0  0  0
  -35.6090   -1.0510  -16.1590 O   0  0  0  0  0
  -34.6810    1.2140  -15.4690 O   0  0  0  0  0
  -34.9800    2.3030  -16.3390 C   0  0  0  0  0
  -33.6880    2.8050  -16.9570 C   0  0  0  0  0
  -33.1750    1.7950  -17.8640 N   0  3  0  0  0
  -37.1620    0.8070  -15.1290 O   0  0  0  0  0
  -36.4440    4.2630   -9.5260 C   0  0  0  0  0
  -36.9570    5.7100   -9.5640 C   0  0  0  0  0
  -36.0250    6.7690   -8.9820 C   0  0  0  0  0
  -34.5840    6.3180   -8.8040 C   0  0  0  0  0
  -34.1040    6.6610   -7.4240 C   0  0  0  0  0
  -33.1630    7.8380   -7.4880 C   0  0  0  0  0
  -31.8530    7.4570   -6.8370 C   0  0  0  0  0
  -30.6410    7.5710   -7.7410 C   0  0  0  0  0
  -30.1820    6.1720   -8.1550 C   0  0  0  0  0
  -28.8070    6.1590   -8.8370 C   0  0  0  0  0
  -28.5010    5.1270   -9.8960 C   0  0  0  0  0
  -29.7530    4.3900  -10.3530 C   0  0  0  0  0
  -29.5220    2.8810  -10.3110 C   0  0  0  0  0
  -30.7760    2.1280   -9.9010 C   0  0  0  0  0
  -31.8390    2.9860   -9.2150 C   0  0  0  0  0
  -37.1303    1.7069  -11.2030 H   0  0  0  0  0
  -36.2073    1.4340   -9.7043 H   0  0  0  0  0
  -35.6822   -0.5348  -10.5807 H   0  0  0  0  0
  -33.7224    0.7150  -11.0119 H   0  0  0  0  0
  -37.1509    0.4690  -12.8128 H   0  0  0  0  0
  -36.8178   -1.2128  -12.3822 H   0  0  0  0  0
  -34.7166   -1.3930  -16.0682 H   0  0  0  0  0
  -35.4560    3.1056  -15.7757 H   0  0  0  0  0
  -35.6606    1.9725  -17.1237 H   0  0  0  0  0
  -32.9568    3.0004  -16.1726 H   0  0  0  0  0
  -33.8766    3.7288  -17.5040 H   0  0  0  0  0
  -32.3061    2.1260  -18.2832 H   0  0  0  0  0
  -32.9979    0.9338  -17.3469 H   0  0  0  0  0
  -33.8617    1.6178  -18.5971 H   0  0  0  0  0
  -35.7699    4.1491   -8.6770 H   0  0  0  0  0
  -37.2951    3.5885   -9.4324 H   0  0  0  0  0
  -37.8598    5.7296   -8.9536 H   0  0  0  0  0
  -37.0840    5.9610  -10.6171 H   0  0  0  0  0
  -36.4050    7.0160   -7.9907 H   0  0  0  0  0
  -36.0124    7.6017   -9.6852 H   0  0  0  0  0
  -33.9570    6.8249   -9.5375 H   0  0  0  0  0
  -34.5266    5.2387   -8.9451 H   0  0  0  0  0
  -33.5804    5.8036   -7.0012 H   0  0  0  0  0
  -34.9591    6.9169   -6.7983 H   0  0  0  0  0
  -33.6007    8.6874   -6.9635 H   0  0  0  0  0
  -32.9899    8.1140   -8.5282 H   0  0  0  0  0
  -31.9353    6.4097   -6.5465 H   0  0  0  0  0
  -31.6973    8.1477   -6.0082 H   0  0  0  0  0
  -29.8353    8.0752   -7.2074 H   0  0  0  0  0
  -30.9026    8.1458   -8.6294 H   0  0  0  0  0
  -30.9077    5.7864   -8.8710 H   0  0  0  0  0
  -30.1056    5.5698   -7.2497 H   0  0  0  0  0
  -28.1050    5.9408   -8.0322 H   0  0  0  0  0
  -28.7534    7.1129   -9.3617 H   0  0  0  0  0
  -27.8116    4.3971   -9.4716 H   0  0  0  0  0
  -28.0734    5.6394  -10.7578 H   0  0  0  0  0
  -29.9883    4.6865  -11.3752 H   0  0  0  0  0
  -30.5786    4.6431   -9.6879 H   0  0  0  0  0
  -28.7435    2.6744   -9.5766 H   0  0  0  0  0
  -29.2359    2.5508  -11.3096 H   0  0  0  0  0
  -30.4695    1.3675   -9.1829 H   0  0  0  0  0
  -31.2244    1.7364  -10.8141 H   0  0  0  0  0
  -31.4216    3.4229   -8.3078 H   0  0  0  0  0
  -32.1542    3.7809   -9.8909 H   0  0  0  0  0
  -32.6966    2.3638   -8.9589 H   0  0  0  0  0
  1  2  2  0  0  0
  2  3  1  0  0  0
  2 16  1  0  0  0
  3  4  1  0  0  0
  4  5  1  0  0  0
  5  6  1  0  0  0
  5  7  1  0  0  0
  7  8  1  0  0  0
  8  9  1  0  0  0
  9 10  1  0  0  0
  9 11  1  0  0  0
  9 15  2  0  0  0
 11 12  1  0  0  0
 12 13  1  0  0  0
 13 14  1  0  0  0
 16 17  1  0  0  0
 17 18  1  0  0  0
 18 19  1  0  0  0
 19 20  1  0  0  0
 20 21  1  0  0  0
 21 22  1  0  0  0
 22 23  1  0  0  0
 23 24  1  0  0  0
 24 25  1  0  0  0
 25 26  1  0  0  0
 26 27  1  0  0  0
 27 28  1  0  0  0
 28 29  1  0  0  0
 29 30  1  0  0  0
  4 31  1  0  0  0
  4 32  1  0  0  0
  5 33  1  0  0  0
  6 34  1  0  0  0
  7 35  1  0  0  0
  7 36  1  0  0  0
 10 37  1  0  0  0
 12 38  1  0  0  0
 12 39  1  0  0  0
 13 40  1  0  0  0
 13 41  1  0  0  0
 14 42  1  0  0  0
 14 43  1  0  0  0
 14 44  1  0  0  0
 16 45  1  0  0  0
 16 46  1  0  0  0
 17 47  1  0  0  0
 17 48  1  0  0  0
 18 49  1  0  0  0
 18 50  1  0  0  0
 19 51  1  0  0  0
 19 52  1  0  0  0
 20 53  1  0  0  0
 20 54  1  0  0  0
 21 55  1  0  0  0
 21 56  1  0  0  0
 22 57  1  0  0  0
 22 58  1  0  0  0
 23 59  1  0  0  0
 23 60  1  0  0  0
 24 61  1  0  0  0
 24 62  1  0  0  0
 25 63  1  0  0  0
 25 64  1  0  0  0
 26 65  1  0  0  0
 26 66  1  0  0  0
 27 67  1  0  0  0
 27 68  1  0  0  0
 28 69  1  0  0  0
 28 70  1  0  0  0
 29 71  1  0  0  0
 29 72  1  0  0  0
 30 73  1  0  0  0
 30 74  1  0  0  0
 30 75  1  0  0  0
M  END
$$$$
