### 
### Created by X-TOOL on Mon Sep 10 21:13:01 2018
### 

@<TRIPOS>MOLECULE
3cx9_ligand
   74    73     1     0     0
SMALL
GAST_HUCK


@<TRIPOS>ATOM
      1 O7        -35.4210    4.8070  -11.6010 O.2       1 LPX        -0.3704
      2 C6        -35.6910    3.9310  -10.8000 C.2       1 LPX         0.2338
      3 O6        -35.2770    2.5850  -11.1260 O.3       1 LPX        -0.2742
      4 C5        -36.1400    1.5170  -10.7890 C.3       1 LPX         0.1051
      5 C4        -35.5930    0.2200  -11.3620 C.3       1 LPX         0.1111
      6 O5        -34.2390    0.4190  -11.7650 O.3       1 LPX        -0.3865
      7 C3        -36.3600   -0.2430  -12.5770 C.3       1 LPX         0.1120
      8 O1        -35.4600   -0.3420  -13.6600 O.3       1 LPX        -0.2514
      9 P1        -35.8160    0.1040  -15.1680 P.3       1 LPX         0.2554
     10 O3        -35.6090   -1.0510  -16.1590 O.co2     1 LPX        -0.6177
     11 O2        -34.6810    1.2140  -15.4690 O.3       1 LPX        -0.2488
     12 C1        -34.9800    2.3030  -16.3390 C.3       1 LPX         0.1232
     13 C2        -33.6880    2.8050  -16.9570 C.3       1 LPX        -0.0062
     14 N1        -33.1750    1.7950  -17.8640 N.4       1 LPX         0.2204
     15 O4        -37.1620    0.8070  -15.1290 O.co2     1 LPX        -0.6177
     16 C7        -36.4440    4.2630   -9.5260 C.3       1 LPX         0.0487
     17 C8        -36.9570    5.7100   -9.5640 C.3       1 LPX        -0.0348
     18 C9        -36.0250    6.7690   -8.9820 C.3       1 LPX        -0.0509
     19 C10       -34.5840    6.3180   -8.8040 C.3       1 LPX        -0.0529
     20 C11       -34.1040    6.6610   -7.4240 C.3       1 LPX        -0.0531
     21 C12       -33.1630    7.8380   -7.4880 C.3       1 LPX        -0.0531
     22 C13       -31.8530    7.4570   -6.8370 C.3       1 LPX        -0.0531
     23 C14       -30.6410    7.5710   -7.7410 C.3       1 LPX        -0.0531
     24 C15       -30.1820    6.1720   -8.1550 C.3       1 LPX        -0.0531
     25 C16       -28.8070    6.1590   -8.8370 C.3       1 LPX        -0.0531
     26 C17       -28.5010    5.1270   -9.8960 C.3       1 LPX        -0.0531
     27 C18       -29.7530    4.3900  -10.3530 C.3       1 LPX        -0.0531
     28 C19       -29.5220    2.8810  -10.3110 C.3       1 LPX        -0.0533
     29 C20       -30.7760    2.1280   -9.9010 C.3       1 LPX        -0.0559
     30 C21       -31.8390    2.9860   -9.2150 C.3       1 LPX        -0.0653
     31 H         -37.1303    1.7069  -11.2030 H         1 LPX         0.0640
     32 H         -36.2073    1.4340   -9.7043 H         1 LPX         0.0640
     33 H         -35.6822   -0.5348  -10.5807 H         1 LPX         0.0647
     34 H         -33.8907   -0.3989  -12.1275 H         1 LPX         0.2100
     35 H         -37.1509    0.4690  -12.8128 H         1 LPX         0.0647
     36 H         -36.8178   -1.2128  -12.3822 H         1 LPX         0.0647
     37 H         -35.4560    3.1056  -15.7757 H         1 LPX         0.0674
     38 H         -35.6606    1.9725  -17.1237 H         1 LPX         0.0674
     39 H         -32.9568    3.0004  -16.1726 H         1 LPX         0.0840
     40 H         -33.8766    3.7288  -17.5040 H         1 LPX         0.0840
     41 H         -32.3061    2.1260  -18.2832 H         1 LPX         0.1995
     42 H         -32.9979    0.9338  -17.3469 H         1 LPX         0.1995
     43 H         -33.8617    1.6178  -18.5971 H         1 LPX         0.1995
     44 H         -35.7699    4.1491   -8.6770 H         1 LPX         0.0518
     45 H         -37.2951    3.5885   -9.4324 H         1 LPX         0.0518
     46 H         -37.8598    5.7296   -8.9536 H         1 LPX         0.0291
     47 H         -37.0840    5.9610  -10.6171 H         1 LPX         0.0291
     48 H         -36.4050    7.0160   -7.9907 H         1 LPX         0.0267
     49 H         -36.0124    7.6017   -9.6852 H         1 LPX         0.0267
     50 H         -33.9570    6.8249   -9.5375 H         1 LPX         0.0265
     51 H         -34.5266    5.2387   -8.9451 H         1 LPX         0.0265
     52 H         -33.5804    5.8036   -7.0012 H         1 LPX         0.0265
     53 H         -34.9591    6.9169   -6.7983 H         1 LPX         0.0265
     54 H         -33.6007    8.6874   -6.9635 H         1 LPX         0.0265
     55 H         -32.9899    8.1140   -8.5282 H         1 LPX         0.0265
     56 H         -31.9353    6.4097   -6.5465 H         1 LPX         0.0265
     57 H         -31.6973    8.1477   -6.0082 H         1 LPX         0.0265
     58 H         -29.8353    8.0752   -7.2074 H         1 LPX         0.0265
     59 H         -30.9026    8.1458   -8.6294 H         1 LPX         0.0265
     60 H         -30.9077    5.7864   -8.8710 H         1 LPX         0.0265
     61 H         -30.1056    5.5698   -7.2497 H         1 LPX         0.0265
     62 H         -28.1050    5.9408   -8.0322 H         1 LPX         0.0265
     63 H         -28.7534    7.1129   -9.3617 H         1 LPX         0.0265
     64 H         -27.8116    4.3971   -9.4716 H         1 LPX         0.0265
     65 H         -28.0734    5.6394  -10.7578 H         1 LPX         0.0265
     66 H         -29.9883    4.6865  -11.3752 H         1 LPX         0.0265
     67 H         -30.5786    4.6431   -9.6879 H         1 LPX         0.0265
     68 H         -28.7435    2.6744   -9.5766 H         1 LPX         0.0265
     69 H         -29.2359    2.5508  -11.3096 H         1 LPX         0.0265
     70 H         -30.4695    1.3675   -9.1829 H         1 LPX         0.0263
     71 H         -31.2244    1.7364  -10.8141 H         1 LPX         0.0263
     72 H         -31.4216    3.4229   -8.3078 H         1 LPX         0.0230
     73 H         -32.1542    3.7809   -9.8909 H         1 LPX         0.0230
     74 H         -32.6966    2.3638   -8.9589 H         1 LPX         0.0230
@<TRIPOS>BOND
     1    1    2 2  
     2    2    3 1  
     3    2   16 1  
     4    3    4 1  
     5    4    5 1  
     6    5    6 1  
     7    5    7 1  
     8    7    8 1  
     9    8    9 1  
    10    9   10 ar 
    11    9   11 1  
    12    9   15 ar 
    13   11   12 1  
    14   12   13 1  
    15   13   14 1  
    16   16   17 1  
    17   17   18 1  
    18   18   19 1  
    19   19   20 1  
    20   20   21 1  
    21   21   22 1  
    22   22   23 1  
    23   23   24 1  
    24   24   25 1  
    25   25   26 1  
    26   26   27 1  
    27   27   28 1  
    28   28   29 1  
    29   29   30 1  
    30    4   31 1  
    31    4   32 1  
    32    5   33 1  
    33    6   34 1  
    34    7   35 1  
    35    7   36 1  
    36   12   37 1  
    37   12   38 1  
    38   13   39 1  
    39   13   40 1  
    40   14   41 1  
    41   14   42 1  
    42   14   43 1  
    43   16   44 1  
    44   16   45 1  
    45   17   46 1  
    46   17   47 1  
    47   18   48 1  
    48   18   49 1  
    49   19   50 1  
    50   19   51 1  
    51   20   52 1  
    52   20   53 1  
    53   21   54 1  
    54   21   55 1  
    55   22   56 1  
    56   22   57 1  
    57   23   58 1  
    58   23   59 1  
    59   24   60 1  
    60   24   61 1  
    61   25   62 1  
    62   25   63 1  
    63   26   64 1  
    64   26   65 1  
    65   27   66 1  
    66   27   67 1  
    67   28   68 1  
    68   28   69 1  
    69   29   70 1  
    70   29   71 1  
    71   30   72 1  
    72   30   73 1  
    73   30   74 1  
@<TRIPOS>SUBSTRUCTURE
     1 LPX         1

