2qhd_ligand
  -I-interpret- 

 38 37  0  0  0  0  0  0  0  0999 V2000
  -24.8230   30.3350  -24.1430 O   0  0  0  0  0
  -25.2060   28.1680  -23.6500 O   0  0  0  0  0
  -25.5260   29.2010  -24.1740 C   0  0  0  0  0
  -26.8610   28.9430  -24.8610 C   0  0  0  0  0
  -27.8320   30.0450  -24.5610 C   0  0  0  0  0
  -29.1830   29.3580  -24.2360 C   0  0  0  0  0
  -29.6580   29.6630  -22.8560 C   0  0  0  0  0
  -30.0130   28.3540  -22.2240 C   0  0  0  0  0
  -31.0130   28.4010  -21.0010 C   0  0  0  0  0
  -30.2980   28.6960  -19.7310 C   0  0  0  0  0
  -30.0790   27.3930  -18.9510 C   0  0  0  0  0
  -28.5670   27.1730  -18.8950 C   0  0  0  0  0
  -28.4200   25.9100  -18.1480 C   0  0  0  0  0
  -27.6780   24.9430  -19.0300 C   0  0  0  0  0
  -25.2907   31.0136  -24.6353 H   0  0  0  0  0
  -27.2707   28.0022  -24.4935 H   0  0  0  0  0
  -26.7004   28.8980  -25.9382 H   0  0  0  0  0
  -27.9307   30.7223  -25.4093 H   0  0  0  0  0
  -27.4893   30.6521  -23.7231 H   0  0  0  0  0
  -29.0405   28.2801  -24.3132 H   0  0  0  0  0
  -29.9283   29.7298  -24.9392 H   0  0  0  0  0
  -30.5206   30.3289  -22.8806 H   0  0  0  0  0
  -28.8841   30.1736  -22.2830 H   0  0  0  0  0
  -29.0803   27.9480  -21.8325 H   0  0  0  0  0
  -30.5147   27.7740  -22.9986 H   0  0  0  0  0
  -31.4962   27.4282  -20.9098 H   0  0  0  0  0
  -31.7436   29.1899  -21.1797 H   0  0  0  0  0
  -30.8942   29.3827  -19.1301 H   0  0  0  0  0
  -29.3333   29.1512  -19.9551 H   0  0  0  0  0
  -30.5784   26.5561  -19.4391 H   0  0  0  0  0
  -30.5019   27.4611  -17.9487 H   0  0  0  0  0
  -28.0457   28.0011  -18.4148 H   0  0  0  0  0
  -28.1191   27.1216  -19.8874 H   0  0  0  0  0
  -29.3984   25.5090  -17.8832 H   0  0  0  0  0
  -27.8706   26.0780  -17.2217 H   0  0  0  0  0
  -28.2459   24.7793  -19.9459 H   0  0  0  0  0
  -26.6995   25.3553  -19.2764 H   0  0  0  0  0
  -27.5529   23.9963  -18.5044 H   0  0  0  0  0
  1  3  1  0  0  0
  3  2  2  0  0  0
  3  4  1  0  0  0
  4  5  1  0  0  0
  5  6  1  0  0  0
  6  7  1  0  0  0
  7  8  1  0  0  0
  8  9  1  0  0  0
  9 10  1  0  0  0
 10 11  1  0  0  0
 11 12  1  0  0  0
 12 13  1  0  0  0
 13 14  1  0  0  0
  1 15  1  0  0  0
  4 16  1  0  0  0
  4 17  1  0  0  0
  5 18  1  0  0  0
  5 19  1  0  0  0
  6 20  1  0  0  0
  6 21  1  0  0  0
  7 22  1  0  0  0
  7 23  1  0  0  0
  8 24  1  0  0  0
  8 25  1  0  0  0
  9 26  1  0  0  0
  9 27  1  0  0  0
 10 28  1  0  0  0
 10 29  1  0  0  0
 11 30  1  0  0  0
 11 31  1  0  0  0
 12 32  1  0  0  0
 12 33  1  0  0  0
 13 34  1  0  0  0
 13 35  1  0  0  0
 14 36  1  0  0  0
 14 37  1  0  0  0
 14 38  1  0  0  0
M  END
$$$$
