5go2_ligand
  -I-interpret- 

 21 20  0  0  0  0  0  0  0  0999 V2000
   14.1040    4.1520   -6.2870 C   0  0  0  0  0
   14.8330    3.9190   -7.3040 O   0  0  0  0  0
   12.9210    3.7110   -6.2270 O   0  0  0  0  0
   14.6680    4.9500   -5.1310 C   0  0  0  0  0
   14.3160    4.3460   -3.7710 C   0  0  0  0  0
   14.6920    2.9850   -3.6900 O   0  0  0  0  0
   15.0130    5.1760   -2.7060 C   0  0  0  0  0
   16.4380    4.7100   -2.4440 C   0  0  0  0  0
   17.4110    5.0880   -3.1710 O   0  0  0  0  0
   16.6340    3.9530   -1.4540 O   0  0  0  0  0
   12.8370    4.4660   -3.4450 C   0  0  0  0  0
   12.2860    5.5670   -3.6620 O   0  0  0  0  0
   12.1860    3.5100   -2.9300 O   0  0  0  0  0
   15.6934    4.3263   -7.1796 H   0  0  0  0  0
   14.2391    5.9511   -5.1741 H   0  0  0  0  0
   15.7539    4.9540   -5.2249 H   0  0  0  0  0
   14.2370    2.4873   -4.3732 H   0  0  0  0  0
   14.4499    5.0742   -1.7783 H   0  0  0  0  0
   15.0555    6.2069   -3.0574 H   0  0  0  0  0
   17.0832    5.6549   -3.8730 H   0  0  0  0  0
   12.7610    2.7471   -2.8355 H   0  0  0  0  0
  1  2  1  0  0  0
  1  3  2  0  0  0
  1  4  1  0  0  0
  4  5  1  0  0  0
  5  6  1  0  0  0
  5  7  1  0  0  0
  5 11  1  0  0  0
  7  8  1  0  0  0
  8  9  1  0  0  0
  8 10  2  0  0  0
 11 12  2  0  0  0
 11 13  1  0  0  0
  2 14  1  0  0  0
  4 15  1  0  0  0
  4 16  1  0  0  0
  6 17  1  0  0  0
  7 18  1  0  0  0
  7 19  1  0  0  0
  9 20  1  0  0  0
 13 21  1  0  0  0
M  END
$$$$
