### 
### Created by X-TOOL on Mon Sep 10 21:12:54 2018
### 

@<TRIPOS>MOLECULE
2cmc_ligand
   55    56     1     0     0
SMALL
GAST_HUCK


@<TRIPOS>ATOM
      1 C1         26.0720   31.4290   19.6100 C.3       1 DFM         0.2931
      2 O6         25.1730   33.2820   21.6650 O.co2     1 DFM        -0.5668
      3 O7         24.5670   30.5810   21.9400 O.co2     1 DFM        -0.5668
      4 O9         27.2370   31.5510   22.2720 O.co2     1 DFM        -0.5668
      5 C11        24.9110   31.3600   18.7420 C.ar      1 DFM         0.0219
      6 C12        24.5070   32.5990   18.1050 C.ar      1 DFM        -0.0385
      7 C13        23.3020   32.5620   17.2740 C.ar      1 DFM        -0.0280
      8 C14        22.5770   31.3040   17.1090 C.ar      1 DFM        -0.0068
      9 C15        22.9810   30.0390   17.7230 C.ar      1 DFM        -0.0280
     10 C16        24.1920   30.0930   18.5560 C.ar      1 DFM        -0.0385
     11 C21        21.3350   31.2400   16.2410 C.3       1 DFM         0.0367
     12 C22        21.5800   31.6810   14.7840 C.3       1 DFM         0.1448
     13 C25        22.6220   30.7880   14.1050 C.2       1 DFM         0.2021
     14 O26        23.7620   31.1880   13.8780 O.2       1 DFM        -0.3945
     15 N27        22.2700   29.5400   13.7890 N.am      1 DFM        -0.2988
     16 N45        20.2880   31.6360   14.0730 N.am      1 DFM        -0.2611
     17 C47        20.0540   32.5190   13.1110 C.2       1 DFM         0.2061
     18 C48        18.7670   32.3920   12.3350 C.3       1 DFM         0.1404
     19 O49        20.8520   33.4120   12.8770 O.2       1 DFM        -0.3942
     20 N51        18.1210   33.7080   12.3230 N.am      1 DFM        -0.2640
     21 C4         19.0410   31.9870   10.8870 C.3       1 DFM         0.0214
     22 C5         19.8140   30.6960   10.7650 C.ar      1 DFM        -0.0386
     23 C30        19.1900   29.4410   11.1700 C.ar      1 DFM        -0.0601
     24 C31        19.9620   28.2010   11.1100 C.ar      1 DFM        -0.0686
     25 C6         21.3420   28.2970   10.6360 C.ar      1 DFM        -0.0687
     26 C33        21.9730   29.5520   10.2210 C.ar      1 DFM        -0.0686
     27 C34        21.1900   30.7910   10.2780 C.ar      1 DFM        -0.0601
     28 C67        17.0130   33.9010   13.0310 C.2       1 DFM         0.1752
     29 O70        16.3970   32.9360   13.5170 O.2       1 DFM        -0.3972
     30 C71        16.4910   35.3100   13.2140 C.3       1 DFM         0.0258
     31 F66        27.0840   32.4280   19.1320 F         1 DFM        -0.2419
     32 F67        26.8280   30.1590   19.4610 F         1 DFM        -0.2419
     33 P68        25.7440   31.7240   21.3980 P.3       1 DFM         0.0966
     34 H1         25.0733   33.5137   18.2385 H         1 DFM         0.0835
     35 H2         22.9498   33.4625   16.7841 H         1 DFM         0.0652
     36 H3         22.4238   29.1212   17.5737 H         1 DFM         0.0652
     37 H4         24.5562   29.1917   19.0358 H         1 DFM         0.0835
     38 H5         20.5694   31.8969   16.6796 H         1 DFM         0.0547
     39 H6         20.9681   30.2030   16.2339 H         1 DFM         0.0547
     40 H7         21.9548   32.7152   14.7802 H         1 DFM         0.0833
     41 H8         22.9281   28.9322   13.3447 H         1 DFM         0.1815
     42 H9         21.3481   29.2128   13.9965 H         1 DFM         0.1815
     43 H10        19.5999   30.9510   14.3124 H         1 DFM         0.1886
     44 H11        18.1138   31.6473   12.8133 H         1 DFM         0.0823
     45 H12        18.5115   34.4555   11.7856 H         1 DFM         0.1884
     46 H13        19.6201   32.7878   10.4039 H         1 DFM         0.0474
     47 H14        18.0778   31.8676   10.3694 H         1 DFM         0.0474
     48 H15        18.1617   29.4281   11.5128 H         1 DFM         0.0557
     49 H16        19.5300   27.2513   11.4042 H         1 DFM         0.0599
     50 H17        21.9311   27.3883   10.5891 H         1 DFM         0.0559
     51 H18        23.0011   29.5649    9.8776 H         1 DFM         0.0599
     52 H19        21.6145   31.7401    9.9712 H         1 DFM         0.0557
     53 H20        15.5740   35.2853   13.8210 H         1 DFM         0.0467
     54 H21        16.2679   35.7490   12.2304 H         1 DFM         0.0467
     55 H22        17.2517   35.9196   13.7236 H         1 DFM         0.0467
@<TRIPOS>BOND
     1    1    5 1  
     2    1   31 1  
     3    1   32 1  
     4    1   33 1  
     5   33    2 ar 
     6   33    3 ar 
     7   33    4 ar 
     8    5    6 ar 
     9    5   10 ar 
    10    6    7 ar 
    11    7    8 ar 
    12    8    9 ar 
    13    8   11 1  
    14    9   10 ar 
    15   11   12 1  
    16   12   13 1  
    17   12   16 1  
    18   13   14 2  
    19   13   15 am 
    20   16   17 am 
    21   17   18 1  
    22   17   19 2  
    23   18   20 1  
    24   18   21 1  
    25   20   28 am 
    26   21   22 1  
    27   22   23 ar 
    28   22   27 ar 
    29   23   24 ar 
    30   24   25 ar 
    31   25   26 ar 
    32   26   27 ar 
    33   28   29 2  
    34   28   30 1  
    35    6   34 1  
    36    7   35 1  
    37    9   36 1  
    38   10   37 1  
    39   11   38 1  
    40   11   39 1  
    41   12   40 1  
    42   15   41 1  
    43   15   42 1  
    44   16   43 1  
    45   18   44 1  
    46   20   45 1  
    47   21   46 1  
    48   21   47 1  
    49   23   48 1  
    50   24   49 1  
    51   25   50 1  
    52   26   51 1  
    53   27   52 1  
    54   30   53 1  
    55   30   54 1  
    56   30   55 1  
@<TRIPOS>SUBSTRUCTURE
     1 DFM         1

