1siv_ligand
  -I-interpret- 

 89 89  0  0  0  0  0  0  0  0999 V2000
    6.3210   16.3470   32.3890 N   0  3  0  0  0
    6.1780   15.1570   33.2190 C   0  0  0  0  0
    7.4680   14.8260   33.9450 C   0  0  0  0  0
    5.1000   15.4110   34.2600 C   0  0  0  0  0
    4.7450   16.5620   34.5420 O   0  0  0  0  0
    4.5530   14.3870   34.8220 N   0  0  0  0  0
    3.5220   14.5460   35.8010 C   0  0  0  0  0
    2.2050   14.3110   35.1050 C   0  0  0  0  0
    3.7600   13.5250   36.9140 C   0  0  0  0  0
    3.5460   12.3220   36.7610 O   0  0  0  0  0
    4.2150   13.9480   38.0820 N   0  0  0  0  0
    4.4520   13.0110   39.1770 C   0  0  0  0  0
    5.8220   13.3150   39.7520 C   0  0  0  0  0
    6.9110   13.0670   38.7320 C   0  0  0  0  0
    7.5420   14.1430   38.1310 C   0  0  0  0  0
    7.2680   11.7740   38.4250 C   0  0  0  0  0
    8.5410   13.9490   37.2100 C   0  0  0  0  0
    8.2690   11.5820   37.5010 C   0  0  0  0  0
    8.8990   12.6610   36.8980 C   0  0  0  0  0
    3.3430   13.1250   40.2330 C   0  0  0  0  0
    3.2270   14.4600   40.7050 O   0  0  0  0  0
    1.9690   12.7550   39.7840 C   0  0  0  0  0
    1.1170   12.3780   40.9510 C   0  0  0  0  0
    1.5270   11.0000   41.4510 C   0  0  0  0  0
    1.8450   10.1220   40.6350 O   0  0  0  0  0
    1.5240   10.7800   42.7580 N   0  0  0  0  0
    1.8820    9.4760   43.2270 C   0  0  0  0  0
    3.2720    9.3430   43.9190 C   0  0  0  0  0
    3.5120    7.8660   44.2020 C   0  0  0  0  0
    4.4250    9.8050   43.0380 C   0  0  0  0  0
    0.8310    9.2020   44.2720 C   0  0  0  0  0
    0.5940    9.9730   45.2060 O   0  0  0  0  0
    0.1870    8.0630   44.1370 N   0  0  0  0  0
   -0.8350    7.6230   45.0770 C   0  0  0  0  0
   -2.2130    7.4720   44.3940 C   0  0  0  0  0
   -2.6520    8.8320   43.8880 C   0  0  0  0  0
   -2.1560    6.4120   43.3150 C   0  0  0  0  0
   -0.3580    6.2630   45.6270 C   0  0  0  0  0
    0.6610    5.6870   45.2290 O   0  0  0  0  0
   -1.0360    5.6020   46.6760 O   0  0  0  0  0
   -0.1460    5.0100   47.6450 C   0  0  0  0  0
    5.4373   16.5392   31.9173 H   0  0  0  0  0
    6.5740   17.1415   32.9765 H   0  0  0  0  0
    7.0514   16.1899   31.6945 H   0  0  0  0  0
    5.9166   14.3212   32.5699 H   0  0  0  0  0
    7.7507   15.6645   34.5814 H   0  0  0  0  0
    7.3207   13.9366   34.5577 H   0  0  0  0  0
    8.2564   14.6398   33.2157 H   0  0  0  0  0
    4.8603   13.4491   34.5644 H   0  0  0  0  0
    3.5188   15.5411   36.2459 H   0  0  0  0  0
    2.2010   13.3138   34.6648 H   0  0  0  0  0
    1.3936   14.3937   35.8281 H   0  0  0  0  0
    2.0719   15.0562   34.3208 H   0  0  0  0  0
    4.4027   14.9411   38.2196 H   0  0  0  0  0
    4.4308   11.9811   38.8206 H   0  0  0  0  0
    5.9924   12.6625   40.6083 H   0  0  0  0  0
    5.8515   14.3647   40.0440 H   0  0  0  0  0
    7.2414   15.1575   38.3927 H   0  0  0  0  0
    6.7725   10.9272   38.8998 H   0  0  0  0  0
    9.0378   14.7967   36.7380 H   0  0  0  0  0
    8.5713   10.5681   37.2390 H   0  0  0  0  0
    9.6882   12.4838   36.1673 H   0  0  0  0  0
    3.6667   12.4119   40.9911 H   0  0  0  0  0
    2.5291   14.5062   41.3626 H   0  0  0  0  0
    2.0365   11.9035   39.1069 H   0  0  0  0  0
    1.5196   13.6114   39.2813 H   0  0  0  0  0
    0.0705   12.3587   40.6469 H   0  0  0  0  0
    1.2480   13.1089   41.7489 H   0  0  0  0  0
    1.2731   11.5208   43.4127 H   0  0  0  0  0
    1.9404    8.7985   42.3751 H   0  0  0  0  0
    3.2476    9.9646   44.8140 H   0  0  0  0  0
    2.7256    7.4903   44.8566 H   0  0  0  0  0
    3.5014    7.3112   43.2638 H   0  0  0  0  0
    4.4802    7.7430   44.6874 H   0  0  0  0  0
    4.4493    9.2041   42.1289 H   0  0  0  0  0
    4.2841   10.8541   42.7779 H   0  0  0  0  0
    5.3639    9.6863   43.5788 H   0  0  0  0  0
    0.4122    7.4642   43.3426 H   0  0  0  0  0
   -0.9644    8.3587   45.8708 H   0  0  0  0  0
   -2.9643    7.1262   45.1040 H   0  0  0  0  0
   -2.7263    9.5238   44.7270 H   0  0  0  0  0
   -1.9203    9.2052   43.1714 H   0  0  0  0  0
   -3.6239    8.7414   43.4030 H   0  0  0  0  0
   -1.4179    6.6976   42.5655 H   0  0  0  0  0
   -1.8738    5.4576   43.7596 H   0  0  0  0  0
   -3.1355    6.3201   42.8456 H   0  0  0  0  0
    0.4912    4.2766   47.1508 H   0  0  0  0  0
    0.4726    5.7885   48.0915 H   0  0  0  0  0
   -0.7318    4.5192   48.4222 H   0  0  0  0  0
  1  2  1  0  0  0
  2  4  1  0  0  0
  2  3  1  0  0  0
  4  6  1  0  0  0
  4  5  2  0  0  0
  6  7  1  0  0  0
  7  9  1  0  0  0
  7  8  1  0  0  0
  9 11  1  0  0  0
  9 10  2  0  0  0
 11 12  1  0  0  0
 12 20  1  0  0  0
 12 13  1  0  0  0
 13 14  1  0  0  0
 14 16  4  0  0  0
 14 15  4  0  0  0
 15 17  4  0  0  0
 17 19  4  0  0  0
 19 18  4  0  0  0
 18 16  4  0  0  0
 20 22  1  0  0  0
 20 21  1  0  0  0
 22 23  1  0  0  0
 23 24  1  0  0  0
 24 26  1  0  0  0
 24 25  2  0  0  0
 26 27  1  0  0  0
 27 31  1  0  0  0
 27 28  1  0  0  0
 28 30  1  0  0  0
 28 29  1  0  0  0
 31 33  1  0  0  0
 31 32  2  0  0  0
 33 34  1  0  0  0
 34 38  1  0  0  0
 34 35  1  0  0  0
 35 37  1  0  0  0
 35 36  1  0  0  0
 38 40  1  0  0  0
 38 39  2  0  0  0
 40 41  1  0  0  0
  1 42  1  0  0  0
  1 43  1  0  0  0
  1 44  1  0  0  0
  2 45  1  0  0  0
  3 46  1  0  0  0
  3 47  1  0  0  0
  3 48  1  0  0  0
  6 49  1  0  0  0
  7 50  1  0  0  0
  8 51  1  0  0  0
  8 52  1  0  0  0
  8 53  1  0  0  0
 11 54  1  0  0  0
 12 55  1  0  0  0
 13 56  1  0  0  0
 13 57  1  0  0  0
 15 58  1  0  0  0
 16 59  1  0  0  0
 17 60  1  0  0  0
 18 61  1  0  0  0
 19 62  1  0  0  0
 20 63  1  0  0  0
 21 64  1  0  0  0
 22 65  1  0  0  0
 22 66  1  0  0  0
 23 67  1  0  0  0
 23 68  1  0  0  0
 26 69  1  0  0  0
 27 70  1  0  0  0
 28 71  1  0  0  0
 29 72  1  0  0  0
 29 73  1  0  0  0
 29 74  1  0  0  0
 30 75  1  0  0  0
 30 76  1  0  0  0
 30 77  1  0  0  0
 33 78  1  0  0  0
 34 79  1  0  0  0
 35 80  1  0  0  0
 36 81  1  0  0  0
 36 82  1  0  0  0
 36 83  1  0  0  0
 37 84  1  0  0  0
 37 85  1  0  0  0
 37 86  1  0  0  0
 41 87  1  0  0  0
 41 88  1  0  0  0
 41 89  1  0  0  0
M  END
$$$$
