1pzp_ligand
  -I-interpret- 

 37 39  0  0  0  0  0  0  0  0999 V2000
    1.4740   11.1940   20.3890 N   0  0  0  0  0
    2.2840   10.2420   21.0790 C   0  0  0  0  0
    3.6520   10.2270   20.9430 C   0  0  0  0  0
    4.3610    9.1780   21.4970 C   0  0  0  0  0
    3.7480    8.1610   22.2090 C   0  0  0  0  0
    2.3900    8.1850   22.3840 C   0  0  0  0  0
    1.6690    9.2440   21.8210 C   0  0  0  0  0
    1.9590   12.2360   19.5580 C   0  0  0  0  0
    1.3260   12.6180   18.3780 C   0  0  0  0  0
    1.6910   13.7760   17.6780 C   0  0  0  0  0
    2.9970   13.0220   20.0260 C   0  0  0  0  0
    3.3650   14.1810   19.3540 C   0  0  0  0  0
    2.7210   14.5700   18.1760 C   0  0  0  0  0
    2.9960   15.8650   17.6580 N   0  0  0  0  0
    4.2140   16.3070   17.2900 C   0  0  0  0  0
    4.3000   17.3120   16.3960 C   0  0  0  0  0
    5.0840   18.4900   16.6990 C   0  0  0  0  0
    5.7030   19.4010   17.1010 N   0  0  0  0  0
    3.5990   17.1930   15.0970 C   0  0  0  0  0
    4.0740   17.6320   13.8630 N   0  0  0  0  0
    3.0900   17.3690   12.9190 N   0  0  0  0  0
    2.0050   16.7740   13.5460 N   0  0  0  0  0
    2.3230   16.6540   14.8950 N   0  0  0  0  0
    0.4632   11.1185   20.5031 H   0  0  0  0  0
    4.1668   11.0259   20.4093 H   0  0  0  0  0
    5.4431    9.1503   21.3686 H   0  0  0  0  0
    4.3415    7.3478   22.6269 H   0  0  0  0  0
    1.8843    7.4003   22.9467 H   0  0  0  0  0
    0.5901    9.2861   21.9702 H   0  0  0  0  0
    0.5208   11.9965   17.9862 H   0  0  0  0  0
    1.1763   14.0511   16.7574 H   0  0  0  0  0
    3.5309   12.7293   20.9301 H   0  0  0  0  0
    4.1703   14.7980   19.7526 H   0  0  0  0  0
    2.2111   16.5086   17.5573 H   0  0  0  0  0
    4.6870   15.4549   16.8019 H   0  0  0  0  0
    4.6571   16.7041   18.2033 H   0  0  0  0  0
    3.9320   18.2718   16.7586 H   0  0  0  0  0
  1  2  1  0  0  0
  1  8  1  0  0  0
  2  3  4  0  0  0
  2  7  4  0  0  0
  3  4  4  0  0  0
  4  5  4  0  0  0
  5  6  4  0  0  0
  6  7  4  0  0  0
  8  9  4  0  0  0
  8 11  4  0  0  0
  9 10  4  0  0  0
 10 13  4  0  0  0
 11 12  4  0  0  0
 12 13  4  0  0  0
 13 14  1  0  0  0
 14 15  1  0  0  0
 15 16  1  0  0  0
 16 17  1  0  0  0
 16 19  1  0  0  0
 17 18  3  0  0  0
 19 20  4  0  0  0
 19 23  4  0  0  0
 20 21  4  0  0  0
 21 22  4  0  0  0
 22 23  4  0  0  0
  1 24  1  0  0  0
  3 25  1  0  0  0
  4 26  1  0  0  0
  5 27  1  0  0  0
  6 28  1  0  0  0
  7 29  1  0  0  0
  9 30  1  0  0  0
 10 31  1  0  0  0
 11 32  1  0  0  0
 12 33  1  0  0  0
 14 34  1  0  0  0
 15 35  1  0  0  0
 15 36  1  0  0  0
 16 37  1  0  0  0
M  END
$$$$
