4knm_ligand
  -I-interpret- 

 37 38  0  0  0  0  0  0  0  0999 V2000
   11.0490   -4.4560    9.5910 C   0  0  0  0  0
   12.3570   -3.6650    7.6950 C   0  0  0  0  0
   13.0170   -4.9180    7.6180 C   0  0  0  0  0
   10.5470   -1.9080    8.7600 Cl  0  0  0  0  0
   11.3920   -3.4210    8.6820 C   0  0  0  0  0
   12.8400   -2.3510    6.5730 S   0  0  0  0  0
   13.4660   -1.3080    7.4800 O   0  0  0  0  0
   14.2340   -2.9820    5.5590 N   0  0  0  0  0
   11.5740   -1.7730    5.6610 O   0  0  0  0  0
   11.6930   -5.6720    9.5270 C   0  0  0  0  0
   12.6850   -5.9120    8.5320 C   0  0  0  0  0
   11.2820   -6.7050   10.5330 C   0  0  0  0  0
   11.0530   -6.3360   11.7110 O   0  0  0  0  0
   11.1480   -8.1430   10.1050 C   0  0  0  0  0
   10.8090   -9.1620   11.5730 S   0  0  0  0  0
    9.0210   -9.0990   11.4790 C   0  0  0  0  0
    8.2910   -8.4150   10.5220 N   0  0  0  0  0
    6.9200   -8.4750   10.5540 C   0  0  0  0  0
    6.1220   -7.7390    9.5320 C   0  0  0  0  0
    6.2670   -9.2400   11.5530 C   0  0  0  0  0
    7.0500   -9.9230   12.5030 C   0  0  0  0  0
    8.4000   -9.8210   12.4450 N   0  0  0  0  0
    6.4990  -10.7670   13.6070 C   0  0  0  0  0
   10.2753   -4.2884   10.3403 H   0  0  0  0  0
   13.7730   -5.0991    6.8540 H   0  0  0  0  0
   15.1736   -2.6091    5.6954 H   0  0  0  0  0
   14.0690   -3.7055    4.8592 H   0  0  0  0  0
   13.1857   -6.8792    8.4873 H   0  0  0  0  0
   12.0714   -8.4747    9.6302 H   0  0  0  0  0
   10.3308   -8.2412    9.3904 H   0  0  0  0  0
    6.3434   -6.6738    9.5981 H   0  0  0  0  0
    6.3812   -8.1043    8.5383 H   0  0  0  0  0
    5.0600   -7.9027    9.7151 H   0  0  0  0  0
    5.1790   -9.2983   11.5850 H   0  0  0  0  0
    5.8634  -10.1555   14.2475 H   0  0  0  0  0
    5.9124  -11.5814   13.1819 H   0  0  0  0  0
    7.3209  -11.1772   14.1938 H   0  0  0  0  0
  5  1  4  0  0  0
  1 10  4  0  0  0
  2  3  4  0  0  0
  2  5  4  0  0  0
  2  6  1  0  0  0
  3 11  4  0  0  0
  5  4  1  0  0  0
  6  7  2  0  0  0
  6  8  1  0  0  0
  6  9  2  0  0  0
 10 11  4  0  0  0
 10 12  1  0  0  0
 12 13  2  0  0  0
 12 14  1  0  0  0
 14 15  1  0  0  0
 15 16  1  0  0  0
 16 17  4  0  0  0
 16 22  4  0  0  0
 17 18  4  0  0  0
 18 19  1  0  0  0
 18 20  4  0  0  0
 20 21  4  0  0  0
 21 22  4  0  0  0
 21 23  1  0  0  0
  1 24  1  0  0  0
  3 25  1  0  0  0
  8 26  1  0  0  0
  8 27  1  0  0  0
 11 28  1  0  0  0
 14 29  1  0  0  0
 14 30  1  0  0  0
 19 31  1  0  0  0
 19 32  1  0  0  0
 19 33  1  0  0  0
 20 34  1  0  0  0
 23 35  1  0  0  0
 23 36  1  0  0  0
 23 37  1  0  0  0
M  END
$$$$
