4txs_ligand
  -I-interpret- 

 17 17  0  0  0  0  0  0  0  0999 V2000
   -2.7260  -22.4590   19.9390 C   0  0  0  0  0
   -2.6970  -24.7910   18.3650 C   0  0  0  0  0
   -3.7440  -24.5300   19.2390 C   0  0  0  0  0
   -1.6700  -22.7230   19.0740 C   0  0  0  0  0
   -4.9800  -23.2400   20.9410 C   0  0  0  0  0
   -5.3170  -21.8460   21.3190 C   0  0  0  0  0
   -0.6220  -24.1920   17.3910 O   0  0  0  0  0
   -5.4720  -20.7580   21.6180 N   0  0  0  0  0
   -1.6490  -23.8890   18.2780 C   0  0  0  0  0
   -3.7820  -23.3720   20.0240 C   0  0  0  0  0
   -2.7308  -21.5519   20.5433 H   0  0  0  0  0
   -2.6996  -25.6943   17.7550 H   0  0  0  0  0
   -4.5603  -25.2482   19.3159 H   0  0  0  0  0
   -0.8426  -22.0164   19.0091 H   0  0  0  0  0
   -5.8389  -23.6402   20.4022 H   0  0  0  0  0
   -4.7357  -23.7693   21.8620 H   0  0  0  0  0
    0.0400  -23.4974   17.4204 H   0  0  0  0  0
  1  4  4  0  0  0
 10  1  4  0  0  0
  3  2  4  0  0  0
  2  9  4  0  0  0
 10  3  4  0  0  0
  4  9  4  0  0  0
  5  6  1  0  0  0
  5 10  1  0  0  0
  6  8  3  0  0  0
  9  7  1  0  0  0
  1 11  1  0  0  0
  2 12  1  0  0  0
  3 13  1  0  0  0
  4 14  1  0  0  0
  5 15  1  0  0  0
  5 16  1  0  0  0
  7 17  1  0  0  0
M  END
$$$$
