2c92_ligand
  -I-interpret- 

 56 57  0  0  0  0  0  0  0  0999 V2000
  -18.1910    3.9620   -1.2500 O   0  0  0  0  0
  -18.4370    3.9900    0.2530 P   0  0  0  0  0
  -17.1510    3.9580    1.0510 O   0  0  0  0  0
  -19.3770    5.0550    0.7340 O   0  0  0  0  0
  -19.1890    2.5880    0.4800 O   0  0  0  0  0
  -19.3670    2.1280    1.8460 C   0  0  0  0  0
  -19.3620    0.8180    2.0640 C   0  0  0  0  0
  -19.4970    0.3650    3.4420 C   0  0  0  0  0
  -20.6690    0.2970    4.0640 C   0  0  0  0  0
  -21.9780    0.6070    3.3900 C   0  0  0  0  0
  -22.9560    0.3330    4.4390 N   0  0  0  0  0
  -23.3910   -0.8410    4.9170 C   0  0  0  0  0
  -23.0860   -2.2390    4.5680 C   0  0  0  0  0
  -22.2870   -2.5260    3.6620 O   0  0  0  0  0
  -23.7270   -3.2060    5.2660 N   0  0  0  0  0
  -23.6040    1.2120    5.1890 C   0  0  0  0  0
  -23.4790    2.4780    5.0610 O   0  0  0  0  0
  -24.4150    0.7220    6.1220 N   0  0  0  0  0
  -24.3540   -0.5950    6.0000 C   0  0  0  0  0
  -24.9270   -1.6560    6.6150 N   0  0  0  0  0
  -24.6070   -2.9160    6.2650 C   0  0  0  0  0
  -25.1580   -3.8500    6.8580 O   0  0  0  0  0
  -25.2130    1.5690    6.9860 C   0  0  0  0  0
  -25.6670    0.9650    8.2910 C   0  0  0  0  0
  -24.8620   -0.0700    8.9060 O   0  0  0  0  0
  -26.3120    1.9450    9.2510 C   0  0  0  0  0
  -27.6320    1.5470    8.9280 O   0  0  0  0  0
  -26.1580    3.4500    9.0130 C   0  0  0  0  0
  -24.8150    3.8680    9.3060 O   0  0  0  0  0
  -27.0850    4.2170    9.9590 C   0  0  0  0  0
  -26.8070    3.8260   11.3150 O   0  0  0  0  0
  -17.5804    3.2516   -1.4600 H   0  0  0  0  0
  -16.5814    3.2644    0.7102 H   0  0  0  0  0
  -20.3599    2.4680    2.1403 H   0  0  0  0  0
  -18.5118    2.5179    2.3980 H   0  0  0  0  0
  -18.3829    0.4696    1.7352 H   0  0  0  0  0
  -20.2360    0.4301    1.5407 H   0  0  0  0  0
  -18.9563    1.1229    4.0089 H   0  0  0  0  0
  -19.1772   -0.6760    3.3959 H   0  0  0  0  0
  -20.5914    1.0760    4.8225 H   0  0  0  0  0
  -20.7599   -0.7623    4.3041 H   0  0  0  0  0
  -22.1430    0.0131    2.4910 H   0  0  0  0  0
  -22.0312    1.6300    3.0176 H   0  0  0  0  0
  -23.5453   -4.1831    5.0366 H   0  0  0  0  0
  -25.6115   -1.4985    7.3547 H   0  0  0  0  0
  -26.1210    1.7978    6.4281 H   0  0  0  0  0
  -24.5769    2.4138    7.2504 H   0  0  0  0  0
  -26.4811    0.3378    7.9277 H   0  0  0  0  0
  -25.2769   -0.3527    9.7242 H   0  0  0  0  0
  -25.9082    1.8901   10.2620 H   0  0  0  0  0
  -28.2558    2.0622    9.4447 H   0  0  0  0  0
  -26.4018    3.6534    7.9703 H   0  0  0  0  0
  -24.7342    4.8122    9.1523 H   0  0  0  0  0
  -28.1232    3.9884    9.7183 H   0  0  0  0  0
  -26.9176    5.2881    9.8459 H   0  0  0  0  0
  -27.3873    4.3058   11.9106 H   0  0  0  0  0
  1  2  1  0  0  0
  2  3  1  0  0  0
  2  4  2  0  0  0
  2  5  1  0  0  0
  5  6  1  0  0  0
  6  7  1  0  0  0
  7  8  1  0  0  0
  8  9  1  0  0  0
  9 10  1  0  0  0
 10 11  1  0  0  0
 11 12  1  0  0  0
 11 16  1  0  0  0
 12 13  1  0  0  0
 12 19  2  0  0  0
 13 14  2  0  0  0
 13 15  1  0  0  0
 15 21  1  0  0  0
 16 17  2  0  0  0
 16 18  1  0  0  0
 18 19  1  0  0  0
 18 23  1  0  0  0
 19 20  1  0  0  0
 20 21  1  0  0  0
 21 22  2  0  0  0
 23 24  1  0  0  0
 24 25  1  0  0  0
 24 26  1  0  0  0
 26 27  1  0  0  0
 26 28  1  0  0  0
 28 29  1  0  0  0
 28 30  1  0  0  0
 30 31  1  0  0  0
  1 32  1  0  0  0
  3 33  1  0  0  0
  6 34  1  0  0  0
  6 35  1  0  0  0
  7 36  1  0  0  0
  7 37  1  0  0  0
  8 38  1  0  0  0
  8 39  1  0  0  0
  9 40  1  0  0  0
  9 41  1  0  0  0
 10 42  1  0  0  0
 10 43  1  0  0  0
 15 44  1  0  0  0
 20 45  1  0  0  0
 23 46  1  0  0  0
 23 47  1  0  0  0
 24 48  1  0  0  0
 25 49  1  0  0  0
 26 50  1  0  0  0
 27 51  1  0  0  0
 28 52  1  0  0  0
 29 53  1  0  0  0
 30 54  1  0  0  0
 30 55  1  0  0  0
 31 56  1  0  0  0
M  END
$$$$
