### 
### Created by X-TOOL on Mon Sep 10 21:12:59 2018
### 

@<TRIPOS>MOLECULE
2z4r_ligand
   39    41     1     0     0
SMALL
GAST_HUCK


@<TRIPOS>ATOM
      1 PB         40.0800    4.0400   23.3400 P.3       1 ADP         0.2069
      2 O1B        41.5550    3.8800   23.4130 O.co2     1 ADP        -0.5891
      3 O2B        39.4050    3.4830   24.6670 O.co2     1 ADP        -0.5891
      4 O3B        39.4860    3.2590   22.0380 O.co2     1 ADP        -0.5891
      5 PA         40.2260    6.3700   21.9900 P.3       1 ADP         0.3276
      6 O1A        41.6920    6.3120   21.8600 O.co2     1 ADP        -0.5556
      7 O2A        39.5890    5.7240   20.6620 O.co2     1 ADP        -0.5556
      8 O3A        39.6630    5.5750   23.2960 O.3       1 ADP        -0.1548
      9 O5'        39.6510    7.8560   22.2100 O.3       1 ADP        -0.2436
     10 C5'        40.1180    8.6140   21.1420 C.3       1 ADP         0.1132
     11 C4'        39.5830   10.0240   21.2120 C.3       1 ADP         0.1189
     12 O4'        39.8820   10.6790   22.4620 O.3       1 ADP        -0.3364
     13 C3'        40.1980   10.7690   20.0420 C.3       1 ADP         0.1149
     14 O3'        39.1880   11.2530   19.1430 O.3       1 ADP        -0.3864
     15 C2'        41.0370   11.8830   20.6580 C.3       1 ADP         0.1385
     16 O2'        40.6130   13.1860   20.1540 O.3       1 ADP        -0.3836
     17 C1'        40.8340   11.7420   22.2020 C.3       1 ADP         0.2010
     18 N9         42.1040   11.4810   22.9180 N.pl3     1 ADP        -0.1919
     19 C8         42.4980   10.3090   23.4940 C.2       1 ADP         0.1123
     20 N7         43.6660   10.4410   24.0490 N.2       1 ADP        -0.2958
     21 C5         44.0990   11.6990   23.8680 C.ar      1 ADP         0.1045
     22 C6         45.2670   12.4300   24.2410 C.ar      1 ADP         0.1298
     23 N6         46.2760   11.8220   24.9670 N.pl3     1 ADP        -0.3152
     24 N1         45.3660   13.7300   23.8720 N.ar      1 ADP        -0.2698
     25 C2         44.3940   14.3290   23.1740 C.ar      1 ADP         0.0533
     26 N3         43.2860   13.6750   22.8130 N.ar      1 ADP        -0.2714
     27 C4         43.1000   12.3860   23.1340 C.ar      1 ADP         0.1613
     28 H1         39.7904    8.1502   20.1999 H         1 ADP         0.0648
     29 H2         41.2171    8.6432   21.1736 H         1 ADP         0.0648
     30 H3         38.4897    9.9984   21.0941 H         1 ADP         0.0651
     31 H4         40.8569   10.0906   19.4802 H         1 ADP         0.0648
     32 H5         38.6088   11.8451   19.6083 H         1 ADP         0.2100
     33 H6         42.0986   11.7384   20.4089 H         1 ADP         0.0676
     34 H7         39.7006   13.3288   20.3766 H         1 ADP         0.2101
     35 H8         40.4182   12.6869   22.5817 H         1 ADP         0.0996
     36 H9         41.9145    9.3895   23.4895 H         1 ADP         0.1349
     37 H10        47.1149   12.3579   25.2314 H         1 ADP         0.1820
     38 H11        46.1881   10.8336   25.2430 H         1 ADP         0.1820
     39 H12        44.5082   15.3701   22.8946 H         1 ADP         0.0996
@<TRIPOS>BOND
     1    1    2 ar 
     2    1    3 ar 
     3    1    4 ar 
     4    8    1 1  
     5    5    6 ar 
     6    5    7 ar 
     7    5    8 1  
     8    5    9 1  
     9    9   10 1  
    10   10   11 1  
    11   11   12 1  
    12   11   13 1  
    13   12   17 1  
    14   13   14 1  
    15   13   15 1  
    16   15   16 1  
    17   15   17 1  
    18   17   18 1  
    19   18   19 1  
    20   18   27 1  
    21   19   20 2  
    22   20   21 1  
    23   21   22 ar 
    24   21   27 ar 
    25   22   23 1  
    26   22   24 ar 
    27   24   25 ar 
    28   25   26 ar 
    29   26   27 ar 
    30   10   28 1  
    31   10   29 1  
    32   11   30 1  
    33   13   31 1  
    34   14   32 1  
    35   15   33 1  
    36   16   34 1  
    37   17   35 1  
    38   19   36 1  
    39   23   37 1  
    40   23   38 1  
    41   25   39 1  
@<TRIPOS>SUBSTRUCTURE
     1 ADP         1

