2z4r_ligand
  -I-interpret- 

 42 44  0  0  0  0  0  0  0  0999 V2000
   40.0800    4.0400   23.3400 P   0  0  0  0  0
   41.5550    3.8800   23.4130 O   0  0  0  0  0
   39.4050    3.4830   24.6670 O   0  0  0  0  0
   39.4860    3.2590   22.0380 O   0  0  0  0  0
   40.2260    6.3700   21.9900 P   0  0  0  0  0
   41.6920    6.3120   21.8600 O   0  0  0  0  0
   39.5890    5.7240   20.6620 O   0  0  0  0  0
   39.6630    5.5750   23.2960 O   0  0  0  0  0
   39.6510    7.8560   22.2100 O   0  0  0  0  0
   40.1180    8.6140   21.1420 C   0  0  0  0  0
   39.5830   10.0240   21.2120 C   0  0  0  0  0
   39.8820   10.6790   22.4620 O   0  0  0  0  0
   40.1980   10.7690   20.0420 C   0  0  0  0  0
   39.1880   11.2530   19.1430 O   0  0  0  0  0
   41.0370   11.8830   20.6580 C   0  0  0  0  0
   40.6130   13.1860   20.1540 O   0  0  0  0  0
   40.8340   11.7420   22.2020 C   0  0  0  0  0
   42.1040   11.4810   22.9180 N   0  0  0  0  0
   42.4980   10.3090   23.4940 C   0  0  0  0  0
   43.6660   10.4410   24.0490 N   0  0  0  0  0
   44.0990   11.6990   23.8680 C   0  0  0  0  0
   45.2670   12.4300   24.2410 C   0  0  0  0  0
   46.2760   11.8220   24.9670 N   0  0  0  0  0
   45.3660   13.7300   23.8720 N   0  0  0  0  0
   44.3940   14.3290   23.1740 C   0  0  0  0  0
   43.2860   13.6750   22.8130 N   0  0  0  0  0
   43.1000   12.3860   23.1340 C   0  0  0  0  0
   38.4528    3.5909   24.6099 H   0  0  0  0  0
   38.5332    3.3721   22.0055 H   0  0  0  0  0
   38.6313    5.7501   20.7225 H   0  0  0  0  0
   39.7817    8.1559   20.2118 H   0  0  0  0  0
   41.2066    8.6483   21.1844 H   0  0  0  0  0
   38.4945   10.0115   21.1568 H   0  0  0  0  0
   40.8237   10.1227   19.4265 H   0  0  0  0  0
   39.6058   11.7187   18.4149 H   0  0  0  0  0
   42.0929   11.8051   20.3989 H   0  0  0  0  0
   41.1521   13.8730   20.5528 H   0  0  0  0  0
   40.4507   12.6905   22.5781 H   0  0  0  0  0
   41.9140    9.3887   23.4895 H   0  0  0  0  0
   46.1889   10.8432   25.2403 H   0  0  0  0  0
   47.1068   12.3527   25.2288 H   0  0  0  0  0
   44.5089   15.3759   22.8931 H   0  0  0  0  0
  1  2  2  0  0  0
  1  3  1  0  0  0
  1  4  1  0  0  0
  8  1  1  0  0  0
  5  6  2  0  0  0
  5  7  1  0  0  0
  5  8  1  0  0  0
  5  9  1  0  0  0
  9 10  1  0  0  0
 10 11  1  0  0  0
 11 12  1  0  0  0
 11 13  1  0  0  0
 12 17  1  0  0  0
 13 14  1  0  0  0
 13 15  1  0  0  0
 15 16  1  0  0  0
 15 17  1  0  0  0
 17 18  1  0  0  0
 18 19  4  0  0  0
 18 27  4  0  0  0
 19 20  4  0  0  0
 20 21  4  0  0  0
 21 22  4  0  0  0
 21 27  4  0  0  0
 22 23  1  0  0  0
 22 24  4  0  0  0
 24 25  4  0  0  0
 25 26  4  0  0  0
 26 27  4  0  0  0
  3 28  1  0  0  0
  4 29  1  0  0  0
  7 30  1  0  0  0
 10 31  1  0  0  0
 10 32  1  0  0  0
 11 33  1  0  0  0
 13 34  1  0  0  0
 14 35  1  0  0  0
 15 36  1  0  0  0
 16 37  1  0  0  0
 17 38  1  0  0  0
 19 39  1  0  0  0
 23 40  1  0  0  0
 23 41  1  0  0  0
 25 42  1  0  0  0
M  END
$$$$
