2x95_ligand
  -I-interpret- 

 71 73  0  0  0  0  0  0  0  0999 V2000
   26.7300   -1.3200  -23.1370 C   0  0  0  0  0
   27.2250   -1.9440  -25.4550 N   0  3  0  0  0
   25.4960   -1.4890  -23.2390 O   0  0  0  0  0
   27.4940   -0.9560  -24.4020 C   0  0  0  0  0
   27.0770    0.4350  -24.8920 C   0  0  0  0  0
   27.4410   -7.9580  -29.3290 N   0  3  0  0  0
   31.1390   -4.9550  -27.0220 O   0  0  0  0  0
   29.8300   -2.7260  -25.5920 O   0  0  0  0  0
   32.8260   -4.6080  -25.6230 O   0  0  0  0  0
   26.9290    5.5780  -25.2900 C   0  0  0  0  0
   27.7820    5.3050  -24.2180 C   0  0  0  0  0
   26.4150    4.5300  -26.0540 C   0  0  0  0  0
   27.4900   -9.5700  -23.5590 C   0  0  0  0  0
   28.1970   -9.0640  -24.6480 C   0  0  0  0  0
   28.1210    3.9870  -23.9140 C   0  0  0  0  0
   26.7610    3.2110  -25.7530 C   0  0  0  0  0
   27.7730   -9.1020  -22.2760 C   0  0  0  0  0
   29.1810   -8.0950  -24.4520 C   0  0  0  0  0
   30.1700   -6.6540  -21.3330 C   0  0  0  0  0
   27.5680   -7.5520  -27.9160 C   0  0  0  0  0
   27.1690   -6.0840  -27.7660 C   0  0  0  0  0
   27.2550   -5.6260  -26.3040 C   0  0  0  0  0
   28.0100    1.4990  -24.3180 C   0  0  0  0  0
   26.8240   -4.1660  -26.1730 C   0  0  0  0  0
   31.3750   -5.8060  -23.4180 C   0  0  0  0  0
   29.4260   -4.7940  -24.6990 N   0  0  0  0  0
   31.6610   -4.9540  -25.8920 C   0  0  0  0  0
   29.0680   -3.5900  -25.1600 C   0  0  0  0  0
   27.6120    2.9350  -24.6800 C   0  0  0  0  0
   30.3650   -6.6830  -22.6500 C   0  0  0  0  0
   28.7570   -8.1280  -22.0850 C   0  0  0  0  0
   29.4640   -7.6210  -23.1680 C   0  0  0  0  0
   27.5480   -3.3350  -25.0970 C   0  0  0  0  0
   30.7430   -5.4950  -24.7820 C   0  0  0  0  0
   27.4050   -1.4350  -22.0930 O   0  0  0  0  0
   29.2130   -7.5200  -20.9930 N   0  0  0  0  0
   27.8168   -1.6983  -26.2486 H   0  0  0  0  0
   26.2226   -1.9121  -25.6407 H   0  0  0  0  0
   25.2278   -1.3395  -24.1486 H   0  0  0  0  0
   28.5597   -0.9513  -24.1732 H   0  0  0  0  0
   26.0583    0.6386  -24.5620 H   0  0  0  0  0
   27.1332    0.4612  -25.9802 H   0  0  0  0  0
   27.7079   -8.9377  -29.4253 H   0  0  0  0  0
   26.4743   -7.8365  -29.6308 H   0  0  0  0  0
   28.0533   -7.3794  -29.9041 H   0  0  0  0  0
   30.2333   -5.2662  -26.9546 H   0  0  0  0  0
   26.6654    6.6083  -25.5292 H   0  0  0  0  0
   28.1828    6.1226  -23.6189 H   0  0  0  0  0
   25.7432    4.7408  -26.8861 H   0  0  0  0  0
   26.7203  -10.3271  -23.7090 H   0  0  0  0  0
   27.9810   -9.4255  -25.6534 H   0  0  0  0  0
   28.7854    3.7766  -23.0759 H   0  0  0  0  0
   26.3659    2.3943  -26.3571 H   0  0  0  0  0
   27.2254   -9.4968  -21.4202 H   0  0  0  0  0
   29.7334   -7.7045  -25.3067 H   0  0  0  0  0
   30.7125   -6.0164  -20.6349 H   0  0  0  0  0
   28.6012   -7.6811  -27.5937 H   0  0  0  0  0
   26.9131   -8.1698  -27.3015 H   0  0  0  0  0
   26.1392   -5.9692  -28.1043 H   0  0  0  0  0
   27.8532   -5.4773  -28.3592 H   0  0  0  0  0
   28.2859   -5.7224  -25.9633 H   0  0  0  0  0
   26.5927   -6.2459  -25.6997 H   0  0  0  0  0
   29.0005    1.3217  -24.7369 H   0  0  0  0  0
   27.9683    1.4150  -23.2320 H   0  0  0  0  0
   25.7726   -4.1843  -25.8861 H   0  0  0  0  0
   27.0556   -3.6942  -27.1279 H   0  0  0  0  0
   32.3256   -6.3252  -23.5401 H   0  0  0  0  0
   31.5869   -4.8878  -22.8701 H   0  0  0  0  0
   28.6893   -5.3109  -24.2188 H   0  0  0  0  0
   27.2419   -3.5833  -24.0807 H   0  0  0  0  0
   30.5362   -6.5019  -25.1447 H   0  0  0  0  0
  1  3  1  0  0  0
  4  1  1  0  0  0
  1 35  2  0  0  0
  2  4  1  0  0  0
 33  2  1  0  0  0
  4  5  1  0  0  0
  5 23  1  0  0  0
 20  6  1  0  0  0
 27  7  1  0  0  0
 28  8  2  0  0  0
 27  9  2  0  0  0
 11 10  4  0  0  0
 12 10  4  0  0  0
 15 11  4  0  0  0
 16 12  4  0  0  0
 14 13  4  0  0  0
 13 17  4  0  0  0
 18 14  4  0  0  0
 29 15  4  0  0  0
 29 16  4  0  0  0
 17 31  4  0  0  0
 32 18  4  0  0  0
 30 19  4  0  0  0
 19 36  4  0  0  0
 21 20  1  0  0  0
 22 21  1  0  0  0
 24 22  1  0  0  0
 23 29  1  0  0  0
 33 24  1  0  0  0
 30 25  1  0  0  0
 25 34  1  0  0  0
 26 28  1  0  0  0
 34 26  1  0  0  0
 34 27  1  0  0  0
 28 33  1  0  0  0
 30 32  4  0  0  0
 31 32  4  0  0  0
 31 36  4  0  0  0
  2 37  1  0  0  0
  2 38  1  0  0  0
  3 39  1  0  0  0
  4 40  1  0  0  0
  5 41  1  0  0  0
  5 42  1  0  0  0
  6 43  1  0  0  0
  6 44  1  0  0  0
  6 45  1  0  0  0
  7 46  1  0  0  0
 10 47  1  0  0  0
 11 48  1  0  0  0
 12 49  1  0  0  0
 13 50  1  0  0  0
 14 51  1  0  0  0
 15 52  1  0  0  0
 16 53  1  0  0  0
 17 54  1  0  0  0
 18 55  1  0  0  0
 19 56  1  0  0  0
 20 57  1  0  0  0
 20 58  1  0  0  0
 21 59  1  0  0  0
 21 60  1  0  0  0
 22 61  1  0  0  0
 22 62  1  0  0  0
 23 63  1  0  0  0
 23 64  1  0  0  0
 24 65  1  0  0  0
 24 66  1  0  0  0
 25 67  1  0  0  0
 25 68  1  0  0  0
 26 69  1  0  0  0
 33 70  1  0  0  0
 34 71  1  0  0  0
M  END
$$$$
