6eis_ligand
  -I-interpret- 

 42 46  0  0  0  0  0  0  0  0999 V2000
    0.3380  -29.7920  -12.8260 F   0  0  0  0  0
    1.2230  -29.0400  -13.4700 C   0  0  0  0  0
    0.9200  -29.0450  -14.7550 F   0  0  0  0  0
    2.4380  -29.5470  -13.3080 F   0  0  0  0  0
    1.1740  -27.7240  -12.9940 C   0  0  0  0  0
    0.7250  -26.7300  -13.8560 C   0  0  0  0  0
    0.6580  -25.4090  -13.4330 C   0  0  0  0  0
    0.2190  -24.4490  -14.2850 F   0  0  0  0  0
    1.0390  -25.0750  -12.1390 C   0  0  0  0  0
    1.4860  -26.0640  -11.2700 C   0  0  0  0  0
    1.5630  -27.3890  -11.6920 C   0  0  0  0  0
    2.0000  -28.3350  -10.8390 N   0  0  0  0  0
    3.3120  -28.7060  -10.6510 C   0  0  0  0  0
    4.4540  -28.1670  -11.3140 C   0  0  0  0  0
    4.4060  -27.1530  -12.2770 C   0  0  0  0  0
    1.0020  -28.9200  -10.1480 C   0  0  0  0  0
   -0.1560  -28.5550  -10.3520 O   0  0  0  0  0
    1.2310  -29.9230   -9.2240 C   0  0  0  0  0
    2.5310  -30.3260   -9.0060 C   0  0  0  0  0
    3.5570  -29.7210   -9.7150 C   0  0  0  0  0
    4.8390  -30.1730   -9.4500 C   0  0  0  0  0
    5.9220  -29.6210  -10.1120 N   0  0  0  0  0
    5.7330  -28.6550  -11.0120 C   0  0  0  0  0
    6.8700  -28.1500  -11.6370 C   0  0  0  0  0
    6.7850  -27.1440  -12.5850 C   0  0  0  0  0
    5.5350  -26.6430  -12.9070 C   0  0  0  0  0
    5.4260  -25.6730  -13.8120 C   0  0  0  0  0
    4.3000  -25.2380  -14.3540 C   0  0  0  0  0
    4.6540  -24.2640  -15.1950 N   0  0  0  0  0
    5.8920  -24.1100  -15.1670 N   0  0  0  0  0
    6.4350  -24.9740  -14.3080 C   0  0  0  0  0
    0.4235  -26.9893  -14.8709 H   0  0  0  0  0
    0.9875  -24.0385  -11.8056 H   0  0  0  0  0
    1.7777  -25.8010  -10.2532 H   0  0  0  0  0
    3.4332  -26.7420  -12.5469 H   0  0  0  0  0
    0.4048  -30.3831   -8.6820 H   0  0  0  0  0
    2.7499  -31.1123   -8.2836 H   0  0  0  0  0
    4.9955  -30.9655   -8.7182 H   0  0  0  0  0
    7.8474  -28.5549  -11.3747 H   0  0  0  0  0
    7.6821  -26.7553  -13.0669 H   0  0  0  0  0
    3.2915  -25.6003  -14.1548 H   0  0  0  0  0
    7.4919  -25.0822  -14.0645 H   0  0  0  0  0
  1  2  1  0  0  0
  2  3  1  0  0  0
  2  4  1  0  0  0
  2  5  1  0  0  0
  5  6  4  0  0  0
  5 11  4  0  0  0
  6  7  4  0  0  0
  7  8  1  0  0  0
  7  9  4  0  0  0
  9 10  4  0  0  0
 10 11  4  0  0  0
 11 12  1  0  0  0
 12 13  1  0  0  0
 12 16  1  0  0  0
 13 14  4  0  0  0
 13 20  4  0  0  0
 14 15  4  0  0  0
 14 23  4  0  0  0
 15 26  4  0  0  0
 16 17  2  0  0  0
 16 18  1  0  0  0
 18 19  2  0  0  0
 19 20  1  0  0  0
 20 21  4  0  0  0
 21 22  4  0  0  0
 22 23  4  0  0  0
 23 24  4  0  0  0
 24 25  4  0  0  0
 25 26  4  0  0  0
 26 27  1  0  0  0
 27 28  4  0  0  0
 27 31  4  0  0  0
 28 29  4  0  0  0
 29 30  4  0  0  0
 30 31  4  0  0  0
  6 32  1  0  0  0
  9 33  1  0  0  0
 10 34  1  0  0  0
 15 35  1  0  0  0
 18 36  1  0  0  0
 19 37  1  0  0  0
 21 38  1  0  0  0
 24 39  1  0  0  0
 25 40  1  0  0  0
 28 41  1  0  0  0
 31 42  1  0  0  0
M  END
$$$$
