4x1r_ligand
  -I-interpret- 

143146  0  0  0  0  0  0  0  0999 V2000
  -43.7780  -14.3490  -13.7730 N   0  3  0  0  0
  -42.3570  -14.5810  -13.3970 C   0  0  0  0  0
  -41.4540  -13.5450  -14.0510 C   0  0  0  0  0
  -41.4950  -13.3930  -15.2720 O   0  0  0  0  0
  -41.9180  -15.9840  -13.8230 C   0  0  0  0  0
  -42.4110  -17.2820  -12.6590 S   0  0  0  0  0
  -40.6290  -12.8370  -13.2470 N   0  0  0  0  0
  -39.5860  -11.9690  -13.8100 C   0  0  0  0  0
  -38.6660  -12.7300  -14.7450 C   0  0  0  0  0
  -38.4010  -13.9200  -14.5220 O   0  0  0  0  0
  -38.8110  -11.5010  -12.5790 C   0  0  0  0  0
  -39.8080  -11.5520  -11.4820 C   0  0  0  0  0
  -40.6790  -12.7360  -11.7770 C   0  0  0  0  0
  -38.1850  -12.0450  -15.7800 N   0  0  0  0  0
  -37.4100  -12.6890  -16.8460 C   0  0  0  0  0
  -36.0910  -13.2900  -16.3470 C   0  0  0  0  0
  -35.5870  -14.2550  -16.9340 O   0  0  0  0  0
  -37.1450  -11.7060  -17.9880 C   0  0  0  0  0
  -35.5920  -12.7470  -15.2600 N   0  0  0  0  0
  -34.3460  -13.1760  -14.6900 C   0  0  0  0  0
  -34.4770  -14.0020  -13.3950 C   0  0  0  0  0
  -33.5060  -14.2040  -12.7070 O   0  0  0  0  0
  -33.4950  -11.9590  -14.4410 C   0  0  0  0  0
  -33.0770  -11.1880  -15.6620 C   0  0  0  0  0
  -33.0550  -11.7660  -16.9120 C   0  0  0  0  0
  -32.6580   -9.8820  -15.5450 C   0  0  0  0  0
  -32.6430  -11.0550  -18.0120 C   0  0  0  0  0
  -32.2340   -9.1710  -16.6340 C   0  0  0  0  0
  -32.2360   -9.7540  -17.8670 C   0  0  0  0  0
  -31.8200   -9.0230  -18.9410 O   0  0  0  0  0
  -35.6790  -14.4470  -13.0640 N   0  0  0  0  0
  -35.9090  -15.2470  -11.8800 C   0  0  0  0  0
  -35.0250  -16.4730  -11.8810 C   0  0  0  0  0
  -34.8540  -17.0860  -12.9140 O   0  0  0  0  0
  -37.3620  -15.6800  -11.8060 C   0  0  0  0  0
  -37.6530  -16.3160  -10.5870 O   0  0  0  0  0
  -34.4730  -16.8770  -10.8030 N   0  0  0  0  0
  -33.9070  -18.1880  -10.6400 C   0  0  0  0  0
  -34.8240  -18.9800  -10.0010 C   0  0  0  0  0
  -34.3280  -20.1030   -9.8790 O   0  0  0  0  0
  -32.6280  -18.1100   -9.8240 C   0  0  0  0  0
  -36.0650  -19.0610   -9.4790 N   0  0  0  0  0
  -37.1330  -19.8640   -8.9520 C   0  0  0  0  0
  -37.4150  -21.0070   -9.8910 C   0  0  0  0  0
  -37.6540  -20.8280  -11.0640 O   0  0  0  0  0
  -38.3410  -19.0580   -8.7770 C   0  0  0  0  0
  -39.4440  -19.7890   -8.0550 C   0  0  0  0  0
  -39.1790  -20.7840   -7.1580 C   0  0  0  0  0
  -40.7490  -19.4650   -8.2800 C   0  0  0  0  0
  -40.1960  -21.4230   -6.4900 C   0  0  0  0  0
  -41.7590  -20.0940   -7.6270 C   0  0  0  0  0
  -41.4830  -21.0710   -6.7340 C   0  0  0  0  0
  -42.5150  -21.6750   -6.0930 O   0  0  0  0  0
  -37.4190  -22.2000   -9.3430 N   0  0  0  0  0
  -37.5270  -23.3970  -10.1430 C   0  0  0  0  0
  -38.8230  -23.5010  -10.9230 C   0  0  0  0  0
  -38.8480  -24.0760  -11.9840 O   0  0  0  0  0
  -37.2290  -24.6440   -9.3130 C   0  0  0  0  0
  -38.2730  -25.5570   -8.6900 C   0  0  0  0  0
  -39.6420  -24.9280   -8.5910 C   0  0  0  0  0
  -38.3580  -26.8370   -9.4780 C   0  0  0  0  0
  -39.8950  -22.9700  -10.3590 N   0  0  0  0  0
  -41.2620  -23.0610  -10.9120 C   0  0  0  0  0
  -41.5630  -22.0830  -12.0560 C   0  0  0  0  0
  -42.6590  -22.1170  -12.6100 O   0  0  0  0  0
  -42.3070  -22.8440   -9.7990 C   0  0  0  0  0
  -43.0680  -24.1170   -9.4310 C   0  0  0  0  0
  -42.4590  -25.2190   -9.4150 O   0  0  0  0  0
  -44.2840  -24.0030   -9.1430 O   0  0  0  0  0
  -40.6140  -21.2110  -12.3910 N   0  0  0  0  0
  -40.8020  -20.2360  -13.4600 C   0  0  0  0  0
  -40.4400  -20.8210  -14.8130 C   0  0  0  0  0
  -39.4030  -21.4620  -14.9470 O   0  0  0  0  0
  -39.9610  -18.9900  -13.1890 C   0  0  0  0  0
  -40.6480  -17.9620  -11.8700 S   0  0  0  0  0
  -41.1840  -20.6530  -15.7730 O   0  0  0  0  0
  -44.0564  -13.4114  -13.4834 H   0  0  0  0  0
  -43.8798  -14.4381  -14.7840 H   0  0  0  0  0
  -44.3684  -15.0390  -13.3085 H   0  0  0  0  0
  -42.2727  -14.4907  -12.3140 H   0  0  0  0  0
  -40.8291  -15.9852  -13.8722 H   0  0  0  0  0
  -42.3977  -16.2011  -14.7774 H   0  0  0  0  0
  -40.0040  -11.1551  -14.4023 H   0  0  0  0  0
  -38.3937  -10.5026  -12.7101 H   0  0  0  0  0
  -37.9429  -12.1281  -12.3760 H   0  0  0  0  0
  -40.3915  -10.6326  -11.4332 H   0  0  0  0  0
  -39.3239  -11.6480  -10.5101 H   0  0  0  0  0
  -40.3340  -13.6440  -11.2823 H   0  0  0  0  0
  -41.6942  -12.6142  -11.3993 H   0  0  0  0  0
  -38.3607  -11.0417  -15.8335 H   0  0  0  0  0
  -38.0167  -13.5168  -17.2131 H   0  0  0  0  0
  -38.0948  -11.3635  -18.3986 H   0  0  0  0  0
  -36.5831  -10.8527  -17.6082 H   0  0  0  0  0
  -36.5689  -12.2039  -18.7680 H   0  0  0  0  0
  -36.1079  -11.9940  -14.8048 H   0  0  0  0  0
  -33.8868  -13.8526  -15.4107 H   0  0  0  0  0
  -32.5769  -12.3169  -13.9751 H   0  0  0  0  0
  -34.1002  -11.2791  -13.8413 H   0  0  0  0  0
  -33.3693  -12.8031  -17.0297 H   0  0  0  0  0
  -32.6642   -9.4049  -14.5650 H   0  0  0  0  0
  -32.6396  -11.5230  -18.9964 H   0  0  0  0  0
  -31.8955   -8.1415  -16.5167 H   0  0  0  0  0
  -31.5752   -8.1412  -18.6510 H   0  0  0  0  0
  -36.4710  -14.2180  -13.6646 H   0  0  0  0  0
  -35.6683  -14.6338  -11.0116 H   0  0  0  0  0
  -37.5521  -16.3850  -12.6153 H   0  0  0  0  0
  -37.9896  -14.7927  -11.8890 H   0  0  0  0  0
  -38.5772  -16.5753  -10.5753 H   0  0  0  0  0
  -34.4313  -16.2331  -10.0130 H   0  0  0  0  0
  -33.6646  -18.6102  -11.6152 H   0  0  0  0  0
  -31.9091  -17.4719  -10.3378 H   0  0  0  0  0
  -32.8499  -17.6921   -8.8421 H   0  0  0  0  0
  -32.2105  -19.1103   -9.7087 H   0  0  0  0  0
  -36.4050  -18.1001   -9.4402 H   0  0  0  0  0
  -36.8322  -20.2557   -7.9803 H   0  0  0  0  0
  -38.7112  -18.7985   -9.7688 H   0  0  0  0  0
  -38.0734  -18.1883   -8.1768 H   0  0  0  0  0
  -38.1459  -21.0756   -6.9691 H   0  0  0  0  0
  -40.9867  -18.6828   -9.0009 H   0  0  0  0  0
  -39.9697  -22.2080   -5.7684 H   0  0  0  0  0
  -42.7934  -19.8113   -7.8226 H   0  0  0  0  0
  -43.3436  -21.2954   -6.3945 H   0  0  0  0  0
  -37.3441  -22.2831   -8.3292 H   0  0  0  0  0
  -36.7569  -23.3233  -10.9108 H   0  0  0  0  0
  -36.7387  -24.2235   -8.4350 H   0  0  0  0  0
  -36.7582  -25.2999  -10.0453 H   0  0  0  0  0
  -37.9474  -25.7535   -7.6685 H   0  0  0  0  0
  -39.5843  -24.0301   -7.9757 H   0  0  0  0  0
  -39.9923  -24.6643   -9.5889 H   0  0  0  0  0
  -40.3343  -25.6371   -8.1371 H   0  0  0  0  0
  -38.6403  -26.6111  -10.5063 H   0  0  0  0  0
  -37.3880  -27.3340   -9.4671 H   0  0  0  0  0
  -39.1070  -27.4894   -9.0292 H   0  0  0  0  0
  -39.7695  -22.4632   -9.4827 H   0  0  0  0  0
  -41.3236  -24.0651  -11.3315 H   0  0  0  0  0
  -43.0338  -22.1190  -10.1653 H   0  0  0  0  0
  -41.7760  -22.5076   -8.9085 H   0  0  0  0  0
  -41.5429  -25.0807   -9.6664 H   0  0  0  0  0
  -39.7286  -21.2251  -11.8848 H   0  0  0  0  0
  -41.8569  -19.9625  -13.4815 H   0  0  0  0  0
  -38.9403  -21.4992  -14.1067 H   0  0  0  0  0
  -39.9392  -18.3946  -14.1018 H   0  0  0  0  0
  -38.9685  -19.3160  -12.8781 H   0  0  0  0  0
  1  2  1  0  0  0
  2  3  1  0  0  0
  2  5  1  0  0  0
  3  4  2  0  0  0
  3  7  1  0  0  0
  5  6  1  0  0  0
  6 75  1  0  0  0
  7  8  1  0  0  0
  7 13  1  0  0  0
  8  9  1  0  0  0
  8 11  1  0  0  0
  9 10  2  0  0  0
  9 14  1  0  0  0
 11 12  1  0  0  0
 12 13  1  0  0  0
 14 15  1  0  0  0
 15 16  1  0  0  0
 15 18  1  0  0  0
 16 17  2  0  0  0
 16 19  1  0  0  0
 19 20  1  0  0  0
 20 21  1  0  0  0
 20 23  1  0  0  0
 21 22  2  0  0  0
 21 31  1  0  0  0
 23 24  1  0  0  0
 24 25  4  0  0  0
 24 26  4  0  0  0
 25 27  4  0  0  0
 26 28  4  0  0  0
 27 29  4  0  0  0
 28 29  4  0  0  0
 29 30  1  0  0  0
 31 32  1  0  0  0
 32 33  1  0  0  0
 32 35  1  0  0  0
 33 34  2  0  0  0
 33 37  1  0  0  0
 35 36  1  0  0  0
 37 38  1  0  0  0
 38 39  1  0  0  0
 38 41  1  0  0  0
 39 40  2  0  0  0
 39 42  1  0  0  0
 42 43  1  0  0  0
 43 44  1  0  0  0
 43 46  1  0  0  0
 44 45  2  0  0  0
 44 54  1  0  0  0
 46 47  1  0  0  0
 47 48  4  0  0  0
 47 49  4  0  0  0
 48 50  4  0  0  0
 49 51  4  0  0  0
 50 52  4  0  0  0
 51 52  4  0  0  0
 52 53  1  0  0  0
 54 55  1  0  0  0
 55 56  1  0  0  0
 55 58  1  0  0  0
 56 57  2  0  0  0
 56 62  1  0  0  0
 58 59  1  0  0  0
 59 60  1  0  0  0
 59 61  1  0  0  0
 62 63  1  0  0  0
 63 64  1  0  0  0
 63 66  1  0  0  0
 64 65  2  0  0  0
 64 70  1  0  0  0
 66 67  1  0  0  0
 67 68  1  0  0  0
 67 69  2  0  0  0
 70 71  1  0  0  0
 71 72  1  0  0  0
 71 74  1  0  0  0
 72 73  1  0  0  0
 72 76  2  0  0  0
 74 75  1  0  0  0
  1 77  1  0  0  0
  1 78  1  0  0  0
  1 79  1  0  0  0
  2 80  1  0  0  0
  5 81  1  0  0  0
  5 82  1  0  0  0
  8 83  1  0  0  0
 11 84  1  0  0  0
 11 85  1  0  0  0
 12 86  1  0  0  0
 12 87  1  0  0  0
 13 88  1  0  0  0
 13 89  1  0  0  0
 14 90  1  0  0  0
 15 91  1  0  0  0
 18 92  1  0  0  0
 18 93  1  0  0  0
 18 94  1  0  0  0
 19 95  1  0  0  0
 20 96  1  0  0  0
 23 97  1  0  0  0
 23 98  1  0  0  0
 25 99  1  0  0  0
 26100  1  0  0  0
 27101  1  0  0  0
 28102  1  0  0  0
 30103  1  0  0  0
 31104  1  0  0  0
 32105  1  0  0  0
 35106  1  0  0  0
 35107  1  0  0  0
 36108  1  0  0  0
 37109  1  0  0  0
 38110  1  0  0  0
 41111  1  0  0  0
 41112  1  0  0  0
 41113  1  0  0  0
 42114  1  0  0  0
 43115  1  0  0  0
 46116  1  0  0  0
 46117  1  0  0  0
 48118  1  0  0  0
 49119  1  0  0  0
 50120  1  0  0  0
 51121  1  0  0  0
 53122  1  0  0  0
 54123  1  0  0  0
 55124  1  0  0  0
 58125  1  0  0  0
 58126  1  0  0  0
 59127  1  0  0  0
 60128  1  0  0  0
 60129  1  0  0  0
 60130  1  0  0  0
 61131  1  0  0  0
 61132  1  0  0  0
 61133  1  0  0  0
 62134  1  0  0  0
 63135  1  0  0  0
 66136  1  0  0  0
 66137  1  0  0  0
 68138  1  0  0  0
 70139  1  0  0  0
 71140  1  0  0  0
 73141  1  0  0  0
 74142  1  0  0  0
 74143  1  0  0  0
M  END
$$$$
