### 
### Created by X-TOOL on Mon Sep 10 21:13:25 2018
### 

@<TRIPOS>MOLECULE
4x1r_ligand
  141   144     1     0     0
SMALL
GAST_HUCK


@<TRIPOS>ATOM
      1 N         -43.7780  -14.3490  -13.7730 N.4       1 CYS         0.2385
      2 CA        -42.3570  -14.5810  -13.3970 C.3       1 CYS         0.0751
      3 C         -41.4540  -13.5450  -14.0510 C.2       1 CYS         0.2300
      4 O         -41.4950  -13.3930  -15.2720 O.2       1 CYS        -0.3905
      5 CB        -41.9180  -15.9840  -13.8230 C.3       1 CYS         0.0643
      6 SG        -42.4110  -17.2820  -12.6590 S.3       1 CYS        -0.0848
      7 N         -40.6290  -12.8370  -13.2470 N.am      1 PRO        -0.2471
      8 CA        -39.5860  -11.9690  -13.8100 C.3       1 PRO         0.1339
      9 C         -38.6660  -12.7300  -14.7450 C.2       1 PRO         0.2041
     10 O         -38.4010  -13.9200  -14.5220 O.2       1 PRO        -0.3944
     11 CB        -38.8110  -11.5010  -12.5790 C.3       1 PRO        -0.0104
     12 CG        -39.8080  -11.5520  -11.4820 C.3       1 PRO        -0.0281
     13 CD        -40.6790  -12.7360  -11.7770 C.3       1 PRO         0.0371
     14 N         -38.1850  -12.0450  -15.7800 N.am      1 ALA        -0.2640
     15 CA        -37.4100  -12.6890  -16.8460 C.3       1 ALA         0.1282
     16 C         -36.0910  -13.2900  -16.3470 C.2       1 ALA         0.2037
     17 O         -35.5870  -14.2550  -16.9340 O.2       1 ALA        -0.3944
     18 CB        -37.1450  -11.7060  -17.9880 C.3       1 ALA        -0.0244
     19 N         -35.5920  -12.7470  -15.2600 N.am      1 TYR        -0.2621
     20 CA        -34.3460  -13.1760  -14.6900 C.3       1 TYR         0.1390
     21 C         -34.4770  -14.0020  -13.3950 C.2       1 TYR         0.2058
     22 O         -33.5060  -14.2040  -12.7070 O.2       1 TYR        -0.3942
     23 CB        -33.4950  -11.9590  -14.4410 C.3       1 TYR         0.0163
     24 CG        -33.0770  -11.1880  -15.6620 C.ar      1 TYR        -0.0493
     25 CD1       -33.0550  -11.7660  -16.9120 C.ar      1 TYR        -0.0685
     26 CD2       -32.6580   -9.8820  -15.5450 C.ar      1 TYR        -0.0685
     27 CE1       -32.6430  -11.0550  -18.0120 C.ar      1 TYR        -0.0398
     28 CE2       -32.2340   -9.1710  -16.6340 C.ar      1 TYR        -0.0398
     29 CZ        -32.2360   -9.7540  -17.8670 C.ar      1 TYR         0.0805
     30 OH        -31.8200   -9.0230  -18.9410 O.3       1 TYR        -0.3376
     31 N         -35.6790  -14.4470  -13.0640 N.am      1 SER        -0.2614
     32 CA        -35.9090  -15.2470  -11.8800 C.3       1 SER         0.1539
     33 C         -35.0250  -16.4730  -11.8810 C.2       1 SER         0.2062
     34 O         -34.8540  -17.0860  -12.9140 O.2       1 SER        -0.3943
     35 CB        -37.3620  -15.6800  -11.8060 C.3       1 SER         0.0843
     36 OG        -37.6530  -16.3160  -10.5870 O.3       1 SER        -0.3903
     37 N         -34.4730  -16.8770  -10.8030 N.am      1 ALA        -0.2639
     38 CA        -33.9070  -18.1880  -10.6400 C.3       1 ALA         0.1282
     39 C         -34.8240  -18.9800  -10.0010 C.2       1 ALA         0.2037
     40 O         -34.3280  -20.1030   -9.8790 O.2       1 ALA        -0.3944
     41 CB        -32.6280  -18.1100   -9.8240 C.3       1 ALA        -0.0244
     42 N         -36.0650  -19.0610   -9.4790 N.am      1 TYR        -0.2621
     43 CA        -37.1330  -19.8640   -8.9520 C.3       1 TYR         0.1390
     44 C         -37.4150  -21.0070   -9.8910 C.2       1 TYR         0.2057
     45 O         -37.6540  -20.8280  -11.0640 O.2       1 TYR        -0.3942
     46 CB        -38.3410  -19.0580   -8.7770 C.3       1 TYR         0.0163
     47 CG        -39.4440  -19.7890   -8.0550 C.ar      1 TYR        -0.0493
     48 CD1       -39.1790  -20.7840   -7.1580 C.ar      1 TYR        -0.0685
     49 CD2       -40.7490  -19.4650   -8.2800 C.ar      1 TYR        -0.0685
     50 CE1       -40.1960  -21.4230   -6.4900 C.ar      1 TYR        -0.0398
     51 CE2       -41.7590  -20.0940   -7.6270 C.ar      1 TYR        -0.0398
     52 CZ        -41.4830  -21.0710   -6.7340 C.ar      1 TYR         0.0805
     53 OH        -42.5150  -21.6750   -6.0930 O.3       1 TYR        -0.3376
     54 N         -37.4190  -22.2000   -9.3430 N.am      1 LEU        -0.2636
     55 CA        -37.5270  -23.3970  -10.1430 C.3       1 LEU         0.1312
     56 C         -38.8230  -23.5010  -10.9230 C.2       1 LEU         0.2040
     57 O         -38.8480  -24.0760  -11.9840 O.2       1 LEU        -0.3944
     58 CB        -37.2290  -24.6440   -9.3130 C.3       1 LEU        -0.0101
     59 CG        -38.2730  -25.5570   -8.6900 C.3       1 LEU        -0.0425
     60 CD1       -39.6420  -24.9280   -8.5910 C.3       1 LEU        -0.0625
     61 CD2       -38.3580  -26.8370   -9.4780 C.3       1 LEU        -0.0625
     62 N         -39.8950  -22.9700  -10.3590 N.am      1 ASP        -0.2622
     63 CA        -41.2620  -23.0610  -10.9120 C.3       1 ASP         0.1423
     64 C         -41.5630  -22.0830  -12.0560 C.2       1 ASP         0.2051
     65 O         -42.6590  -22.1170  -12.6100 O.2       1 ASP        -0.3943
     66 CB        -42.3070  -22.8440   -9.7990 C.3       1 ASP         0.0406
     67 CG        -43.0680  -24.1170   -9.4310 C.2       1 ASP         0.0393
     68 OD1       -42.4590  -25.2190   -9.4150 O.co2     1 ASP        -0.5688
     69 OD2       -44.2840  -24.0030   -9.1430 O.co2     1 ASP        -0.5688
     70 N         -40.6140  -21.2110  -12.3910 N.am      1 CYS        -0.2686
     71 CA        -40.8020  -20.2360  -13.4600 C.3       1 CYS         0.1041
     72 C         -40.4400  -20.8210  -14.8130 C.2       1 CYS         0.0609
     73 O         -39.4030  -21.4620  -14.9470 O.co2     1 CYS        -0.5666
     74 CB        -39.9610  -18.9900  -13.1890 C.3       1 CYS         0.0388
     75 SG        -40.6480  -17.9620  -11.8700 S.3       1 CYS        -0.0887
     76 OXT       -41.1840  -20.6530  -15.7730 O.co2     1 CYS        -0.5666
     77 H1        -44.3601  -15.0434  -13.3314 H         1 CYS         0.2015
     78 H2        -43.8759  -14.4159  -14.7740 H         1 CYS         0.2015
     79 H3        -44.0606  -13.4307  -13.4683 H         1 CYS         0.2015
     80 H4        -42.2630  -14.4948  -12.3044 H         1 CYS         0.1107
     81 H5        -40.8216  -15.9938  -13.9110 H         1 CYS         0.0466
     82 H6        -42.3665  -16.2065  -14.8025 H         1 CYS         0.0466
     83 H7        -40.0324  -11.1182  -14.3456 H         1 PRO         0.0802
     84 H8        -38.4372  -10.4760  -12.7194 H         1 PRO         0.0313
     85 H9        -37.9663  -12.1740  -12.3703 H         1 PRO         0.0313
     86 H10       -40.4075  -10.6299  -11.4660 H         1 PRO         0.0287
     87 H11       -39.3045  -11.6789  -10.5123 H         1 PRO         0.0287
     88 H12       -40.2794  -13.6461  -11.3058 H         1 PRO         0.0524
     89 H13       -41.7082  -12.5644  -11.4287 H         1 PRO         0.0524
     90 H14       -38.3572  -11.0613  -15.8324 H         1 ALA         0.1883
     91 H15       -38.0194  -13.5139  -17.2435 H         1 ALA         0.0797
     92 H16       -36.5637  -12.2074  -18.7758 H         1 ALA         0.0277
     93 H17       -36.5779  -10.8443  -17.6060 H         1 ALA         0.0277
     94 H18       -38.1028  -11.3596  -18.4034 H         1 ALA         0.0277
     95 H19       -36.0978  -12.0088  -14.8137 H         1 TYR         0.1885
     96 H20       -33.8410  -13.8108  -15.4330 H         1 TYR         0.0821
     97 H21       -32.5828  -12.2865  -13.9208 H         1 TYR         0.0453
     98 H22       -34.0634  -11.2778  -13.7908 H         1 TYR         0.0453
     99 H23       -33.3675  -12.7973  -17.0291 H         1 TYR         0.0530
    100 H24       -32.6642   -9.4075  -14.5704 H         1 TYR         0.0530
    101 H25       -32.6396  -11.5205  -18.9910 H         1 TYR         0.0525
    102 H26       -31.8974   -8.1472  -16.5173 H         1 TYR         0.0525
    103 H27       -31.8757   -9.5555  -19.7258 H         1 TYR         0.2458
    104 H28       -36.4555  -14.2225  -13.6528 H         1 SER         0.1884
    105 H29       -35.6726  -14.6390  -10.9943 H         1 SER         0.0823
    106 H30       -37.5685  -16.3782  -12.6306 H         1 SER         0.0606
    107 H31       -38.0041  -14.7927  -11.9073 H         1 SER         0.0606
    108 H32       -37.4819  -15.7169   -9.8698 H         1 SER         0.2097
    109 H33       -34.4322  -16.2458  -10.0285 H         1 ALA         0.1883
    110 H34       -33.6790  -18.6142  -11.6281 H         1 ALA         0.0797
    111 H35       -32.2057  -19.1189   -9.7069 H         1 ALA         0.0277
    112 H36       -32.8506  -17.6884   -8.8327 H         1 ALA         0.0277
    113 H37       -31.9015  -17.4663  -10.3415 H         1 ALA         0.0277
    114 H38       -36.3983  -18.1190   -9.4410 H         1 TYR         0.1885
    115 H39       -36.8286  -20.2673   -7.9749 H         1 TYR         0.0821
    116 H40       -38.7100  -18.7613   -9.7698 H         1 TYR         0.0453
    117 H41       -38.0807  -18.1592   -8.1988 H         1 TYR         0.0453
    118 H42       -38.1516  -21.0740   -6.9701 H         1 TYR         0.0530
    119 H43       -40.9854  -18.6871   -8.9970 H         1 TYR         0.0530
    120 H44       -39.9709  -22.2037   -5.7724 H         1 TYR         0.0525
    121 H45       -42.7877  -19.8129   -7.8215 H         1 TYR         0.0525
    122 H46       -43.0030  -21.0263   -5.5995 H         1 TYR         0.2458
    123 H47       -37.3456  -22.2815   -8.3490 H         1 LEU         0.1883
    124 H48       -36.7295  -23.3317  -10.8977 H         1 LEU         0.0800
    125 H49       -36.6097  -24.2944   -8.4738 H         1 LEU         0.0315
    126 H50       -36.6278  -25.2926   -9.9671 H         1 LEU         0.0315
    127 H51       -37.9411  -25.7974   -7.6692 H         1 LEU         0.0298
    128 H52       -40.3416  -25.6427   -8.1331 H         1 LEU         0.0232
    129 H53       -39.9967  -24.6614   -9.5975 H         1 LEU         0.0232
    130 H54       -39.5851  -24.0217   -7.9702 H         1 LEU         0.0232
    131 H55       -37.3588  -27.2917   -9.5476 H         1 LEU         0.0232
    132 H56       -38.7337  -26.6210  -10.4890 H         1 LEU         0.0232
    133 H57       -39.0434  -27.5336   -8.9731 H         1 LEU         0.0232
    134 H58       -39.7719  -22.4732   -9.4999 H         1 ASP         0.1884
    135 H59       -41.3834  -24.0800  -11.3080 H         1 ASP         0.0819
    136 H60       -43.0314  -22.0905  -10.1417 H         1 ASP         0.0478
    137 H61       -41.7900  -22.4740   -8.9013 H         1 ASP         0.0478
    138 H62       -39.7459  -21.2248  -11.8947 H         1 CYS         0.1876
    139 H63       -41.8628  -19.9457  -13.4807 H         1 CYS         0.0734
    140 H64       -39.9093  -18.3923  -14.1110 H         1 CYS         0.0425
    141 H65       -38.9478  -19.3049  -12.8989 H         1 CYS         0.0425
@<TRIPOS>BOND
     1    1    2 1  
     2    2    3 1  
     3    2    5 1  
     4    3    4 2  
     5    3    7 am 
     6    5    6 1  
     7    6   75 1  
     8    7    8 1  
     9    7   13 1  
    10    8    9 1  
    11    8   11 1  
    12    9   10 2  
    13    9   14 am 
    14   11   12 1  
    15   12   13 1  
    16   14   15 1  
    17   15   16 1  
    18   15   18 1  
    19   16   17 2  
    20   16   19 am 
    21   19   20 1  
    22   20   21 1  
    23   20   23 1  
    24   21   22 2  
    25   21   31 am 
    26   23   24 1  
    27   24   25 ar 
    28   24   26 ar 
    29   25   27 ar 
    30   26   28 ar 
    31   27   29 ar 
    32   28   29 ar 
    33   29   30 1  
    34   31   32 1  
    35   32   33 1  
    36   32   35 1  
    37   33   34 2  
    38   33   37 am 
    39   35   36 1  
    40   37   38 1  
    41   38   39 1  
    42   38   41 1  
    43   39   40 2  
    44   39   42 am 
    45   42   43 1  
    46   43   44 1  
    47   43   46 1  
    48   44   45 2  
    49   44   54 am 
    50   46   47 1  
    51   47   48 ar 
    52   47   49 ar 
    53   48   50 ar 
    54   49   51 ar 
    55   50   52 ar 
    56   51   52 ar 
    57   52   53 1  
    58   54   55 1  
    59   55   56 1  
    60   55   58 1  
    61   56   57 2  
    62   56   62 am 
    63   58   59 1  
    64   59   60 1  
    65   59   61 1  
    66   62   63 1  
    67   63   64 1  
    68   63   66 1  
    69   64   65 2  
    70   64   70 am 
    71   66   67 1  
    72   67   68 ar 
    73   67   69 ar 
    74   70   71 1  
    75   71   72 1  
    76   71   74 1  
    77   72   73 ar 
    78   72   76 ar 
    79   74   75 1  
    80    1   77 1  
    81    1   78 1  
    82    1   79 1  
    83    2   80 1  
    84    5   81 1  
    85    5   82 1  
    86    8   83 1  
    87   11   84 1  
    88   11   85 1  
    89   12   86 1  
    90   12   87 1  
    91   13   88 1  
    92   13   89 1  
    93   14   90 1  
    94   15   91 1  
    95   18   92 1  
    96   18   93 1  
    97   18   94 1  
    98   19   95 1  
    99   20   96 1  
   100   23   97 1  
   101   23   98 1  
   102   25   99 1  
   103   26  100 1  
   104   27  101 1  
   105   28  102 1  
   106   30  103 1  
   107   31  104 1  
   108   32  105 1  
   109   35  106 1  
   110   35  107 1  
   111   36  108 1  
   112   37  109 1  
   113   38  110 1  
   114   41  111 1  
   115   41  112 1  
   116   41  113 1  
   117   42  114 1  
   118   43  115 1  
   119   46  116 1  
   120   46  117 1  
   121   48  118 1  
   122   49  119 1  
   123   50  120 1  
   124   51  121 1  
   125   53  122 1  
   126   54  123 1  
   127   55  124 1  
   128   58  125 1  
   129   58  126 1  
   130   59  127 1  
   131   60  128 1  
   132   60  129 1  
   133   60  130 1  
   134   61  131 1  
   135   61  132 1  
   136   61  133 1  
   137   62  134 1  
   138   63  135 1  
   139   66  136 1  
   140   66  137 1  
   141   70  138 1  
   142   71  139 1  
   143   74  140 1  
   144   74  141 1  
@<TRIPOS>SUBSTRUCTURE
     1 CYS         1

