3vqh_ligand
  -I-interpret- 

 48 50  0  0  0  0  0  0  0  0999 V2000
   -7.0620    9.9490   -3.0380 C   0  0  0  0  0
   -7.2650   10.0170   -1.6590 C   0  0  0  0  0
   -6.1870    9.9860   -0.7770 C   0  0  0  0  0
   -4.8830    9.8960   -1.2680 C   0  0  0  0  0
   -4.6660    9.8390   -2.6520 C   0  0  0  0  0
   -3.3680    9.7470   -3.1630 C   0  0  0  0  0
   -3.1480    9.6910   -4.4750 N   0  0  0  0  0
   -4.1530    9.7200   -5.3400 C   0  0  0  0  0
   -5.4780    9.8060   -4.9020 C   0  0  0  0  0
   -5.7500    9.8660   -3.5310 C   0  0  0  0  0
   -8.4890    9.9930   -4.1080 S   0  0  0  0  0
   -8.2180   10.8510   -5.2860 O   0  0  0  0  0
   -9.6110   10.6030   -3.3390 O   0  0  0  0  0
   -8.9110    8.4930   -4.6080 N   0  0  0  0  0
   -9.1830    7.5200   -3.5110 C   0  0  0  0  0
  -10.6680    7.5000   -3.0950 C   0  0  0  0  0
  -11.5640    7.6010   -4.2570 N   0  3  0  0  0
  -11.9320    9.0140   -4.4740 C   0  0  0  0  0
  -12.6050    9.5440   -3.3690 C   0  0  0  0  0
  -12.3610   10.8670   -2.9990 C   0  0  0  0  0
  -12.9890   11.4870   -1.9120 C   0  0  0  0  0
  -13.9060   10.7960   -1.1260 C   0  0  0  0  0
  -14.5130   11.4300   -0.0450 C   0  0  0  0  0
  -14.2100   12.7570    0.2590 C   0  0  0  0  0
  -15.0760   13.6160    1.7250 Br  0  0  0  0  0
  -13.2910   13.4490   -0.5310 C   0  0  0  0  0
  -12.6930   12.8100   -1.6130 C   0  0  0  0  0
   -8.2792   10.0953   -1.2673 H   0  0  0  0  0
   -6.3618   10.0321    0.2979 H   0  0  0  0  0
   -4.0386    9.8702   -0.5793 H   0  0  0  0  0
   -2.5221    9.7207   -2.4761 H   0  0  0  0  0
   -3.9428    9.6761   -6.4086 H   0  0  0  0  0
   -6.2941    9.8262   -5.6243 H   0  0  0  0  0
   -8.9825    8.2428   -5.5942 H   0  0  0  0  0
   -8.5944    7.8179   -2.6433 H   0  0  0  0  0
   -8.9209    6.5251   -3.8709 H   0  0  0  0  0
  -10.8527    8.3556   -2.4454 H   0  0  0  0  0
  -10.8688    6.5554   -2.5894 H   0  0  0  0  0
  -12.4068    7.0529   -4.0848 H   0  0  0  0  0
  -11.0882    7.2427   -5.0851 H   0  0  0  0  0
  -12.5922    9.0697   -5.3396 H   0  0  0  0  0
  -11.0189    9.5884   -4.6301 H   0  0  0  0  0
  -13.3097    8.9328   -2.8051 H   0  0  0  0  0
  -11.6469   11.4460   -3.5846 H   0  0  0  0  0
  -14.1491    9.7587   -1.3564 H   0  0  0  0  0
  -15.2305   10.8850    0.5684 H   0  0  0  0  0
  -13.0427   14.4853   -0.3016 H   0  0  0  0  0
  -11.9826   13.3556   -2.2341 H   0  0  0  0  0
  1  2  4  0  0  0
  1 10  4  0  0  0
  1 11  1  0  0  0
  2  3  4  0  0  0
  3  4  4  0  0  0
  4  5  4  0  0  0
  5  6  4  0  0  0
  5 10  4  0  0  0
  6  7  4  0  0  0
  7  8  4  0  0  0
  8  9  4  0  0  0
  9 10  4  0  0  0
 11 12  2  0  0  0
 11 13  2  0  0  0
 11 14  1  0  0  0
 14 15  1  0  0  0
 15 16  1  0  0  0
 16 17  1  0  0  0
 17 18  1  0  0  0
 18 19  1  0  0  0
 19 20  2  0  0  0
 20 21  1  0  0  0
 21 22  4  0  0  0
 21 27  4  0  0  0
 22 23  4  0  0  0
 23 24  4  0  0  0
 24 25  1  0  0  0
 24 26  4  0  0  0
 26 27  4  0  0  0
  2 28  1  0  0  0
  3 29  1  0  0  0
  4 30  1  0  0  0
  6 31  1  0  0  0
  8 32  1  0  0  0
  9 33  1  0  0  0
 14 34  1  0  0  0
 15 35  1  0  0  0
 15 36  1  0  0  0
 16 37  1  0  0  0
 16 38  1  0  0  0
 17 39  1  0  0  0
 17 40  1  0  0  0
 18 41  1  0  0  0
 18 42  1  0  0  0
 19 43  1  0  0  0
 20 44  1  0  0  0
 22 45  1  0  0  0
 23 46  1  0  0  0
 26 47  1  0  0  0
 27 48  1  0  0  0
M  END
$$$$
