6jsn_ligand
  -I-interpret- 

 57 60  0  0  0  0  0  0  0  0999 V2000
  -16.9080  -36.9920   -9.1870 C   0  0  0  0  0
  -17.1890  -38.4280   -8.7220 C   0  0  0  0  0
  -15.7020  -39.5900   -7.1670 C   0  0  0  0  0
  -16.7930  -40.8640   -9.4640 C   0  0  0  0  0
  -16.6970  -39.3450   -9.8780 C   0  0  0  0  0
  -15.1720  -39.2700  -10.3360 C   0  0  0  0  0
  -14.5800  -40.1910  -11.4130 C   0  0  0  0  0
  -16.2890  -38.5620   -7.5640 N   0  0  0  0  0
  -14.8290  -39.5110   -6.0250 N   0  0  0  0  0
  -15.6020  -38.6910  -13.2980 O   0  0  0  0  0
  -17.3860  -40.3350  -12.3180 C   0  0  0  0  0
  -15.2430  -41.1100  -13.7120 O   0  0  0  0  0
  -20.3970  -40.4950   -5.5420 N   0  0  0  0  0
  -17.7090  -39.4580  -11.1000 C   0  0  0  0  0
  -18.6690  -38.6470   -8.3010 C   0  0  0  0  0
  -18.9720  -39.4390   -7.1800 C   0  0  0  0  0
  -20.2780  -39.6780   -6.7590 C   0  0  0  0  0
  -21.6250  -40.9520   -4.8780 C   0  0  0  0  0
  -21.3990  -41.7460   -3.5700 C   0  0  0  0  0
  -19.9700  -42.2660   -1.8170 C   0  0  0  0  0
  -19.5780  -37.2900  -10.0710 F   0  0  0  0  0
  -19.7520  -38.0680   -8.9810 C   0  0  0  0  0
  -15.6910  -40.0650  -12.7840 S   0  0  0  0  0
  -15.8640  -41.1910   -7.9530 S   0  0  0  0  0
  -21.0590  -38.2930   -8.5510 C   0  0  0  0  0
  -21.3340  -39.0900   -7.4290 C   0  0  0  0  0
  -22.7190  -40.7330   -5.2530 O   0  0  0  0  0
  -22.3890  -42.5550   -3.0130 C   0  0  0  0  0
  -22.1220  -43.1900   -1.8700 N   0  0  0  0  0
  -20.9410  -43.0690   -1.2570 C   0  0  0  0  0
  -20.2320  -41.6050   -2.9460 N   0  0  0  0  0
  -20.6230  -43.7290   -0.0480 O   0  0  0  0  0
  -21.7180  -44.3630    0.5950 C   0  0  0  0  0
  -22.6390  -43.4420    1.0290 F   0  0  0  0  0
  -17.1448  -36.2975   -8.3809 H   0  0  0  0  0
  -15.8551  -36.8969   -9.4526 H   0  0  0  0  0
  -17.5253  -36.7656  -10.0564 H   0  0  0  0  0
  -16.3737  -41.4698  -10.2672 H   0  0  0  0  0
  -17.8401  -41.1102   -9.2878 H   0  0  0  0  0
  -14.6269  -39.5555   -9.4363 H   0  0  0  0  0
  -15.0945  -38.2796  -10.7845 H   0  0  0  0  0
  -14.4884  -41.2183  -11.0603 H   0  0  0  0  0
  -13.5669  -39.8950  -11.6854 H   0  0  0  0  0
  -16.1257  -37.7138   -7.0216 H   0  0  0  0  0
  -14.3378  -40.3438   -5.6999 H   0  0  0  0  0
  -18.0435  -40.0731  -13.1469 H   0  0  0  0  0
  -17.5380  -41.3851  -12.0682 H   0  0  0  0  0
  -19.5198  -40.7790   -5.1058 H   0  0  0  0  0
  -17.7466  -38.4470  -11.5056 H   0  0  0  0  0
  -18.5942  -39.9238  -10.6670 H   0  0  0  0  0
  -18.1515  -39.8843   -6.6173 H   0  0  0  0  0
  -18.9943  -42.1718   -1.3403 H   0  0  0  0  0
  -21.8856  -37.8399   -9.0983 H   0  0  0  0  0
  -22.3597  -39.2421   -7.0929 H   0  0  0  0  0
  -23.3580  -42.6660   -3.4997 H   0  0  0  0  0
  -21.3436  -44.9142    1.4576 H   0  0  0  0  0
  -22.2021  -45.0299   -0.1184 H   0  0  0  0  0
  2  1  1  0  0  0
  2  5  1  0  0  0
  2  8  1  0  0  0
 15  2  1  0  0  0
  8  3  1  0  0  0
  3  9  2  0  0  0
  3 24  1  0  0  0
  5  4  1  0  0  0
  4 24  1  0  0  0
  5  6  1  0  0  0
  5 14  1  0  0  0
  6  7  1  0  0  0
  7 23  1  0  0  0
 23 10  2  0  0  0
 14 11  1  0  0  0
 11 23  1  0  0  0
 23 12  2  0  0  0
 13 17  1  0  0  0
 18 13  1  0  0  0
 16 15  4  0  0  0
 15 22  4  0  0  0
 17 16  4  0  0  0
 17 26  4  0  0  0
 19 18  1  0  0  0
 18 27  2  0  0  0
 19 28  4  0  0  0
 31 19  4  0  0  0
 20 30  4  0  0  0
 20 31  4  0  0  0
 22 21  1  0  0  0
 22 25  4  0  0  0
 25 26  4  0  0  0
 28 29  4  0  0  0
 29 30  4  0  0  0
 30 32  1  0  0  0
 32 33  1  0  0  0
 33 34  1  0  0  0
  1 35  1  0  0  0
  1 36  1  0  0  0
  1 37  1  0  0  0
  4 38  1  0  0  0
  4 39  1  0  0  0
  6 40  1  0  0  0
  6 41  1  0  0  0
  7 42  1  0  0  0
  7 43  1  0  0  0
  8 44  1  0  0  0
  9 45  1  0  0  0
 11 46  1  0  0  0
 11 47  1  0  0  0
 13 48  1  0  0  0
 14 49  1  0  0  0
 14 50  1  0  0  0
 16 51  1  0  0  0
 20 52  1  0  0  0
 25 53  1  0  0  0
 26 54  1  0  0  0
 28 55  1  0  0  0
 33 56  1  0  0  0
 33 57  1  0  0  0
M  END
$$$$
