6qgf_ligand
  -I-interpret- 

 65 69  0  0  0  0  0  0  0  0999 V2000
  -13.1850    8.5630   -0.0550 C   0  0  0  0  0
  -11.9410    8.7720   -0.6720 C   0  0  0  0  0
  -10.7730    9.0140    1.4570 C   0  0  0  0  0
  -12.0160    8.7790    2.0390 C   0  0  0  0  0
  -14.3620    8.3150   -0.8040 C   0  0  0  0  0
  -15.7010    8.2810   -0.4270 C   0  0  0  0  0
  -18.3720    6.5730   -0.8440 C   0  0  0  0  0
  -17.8720    7.7960   -1.6490 C   0  0  0  0  0
  -18.6890    9.0550   -1.2550 C   0  0  0  0  0
  -22.7660    9.6360   -1.1750 C   0  0  0  0  0
  -28.7850    9.3050    3.0000 C   0  0  0  0  0
  -30.7820    9.7520    4.3250 C   0  0  0  0  0
  -29.4980    7.8530    4.8480 C   0  0  0  0  0
  -13.1970    8.5260    1.3390 C   0  0  0  0  0
  -10.7710    8.9970    0.0610 C   0  0  0  0  0
  -19.8820    6.4400   -1.0910 C   0  0  0  0  0
  -20.1590    8.7600   -1.4810 C   0  0  0  0  0
  -20.4150    5.2950   -0.1920 C   0  0  0  0  0
  -23.7490    9.9280   -0.0530 C   0  0  0  0  0
  -25.1190    9.3770   -0.5030 C   0  0  0  0  0
  -27.8510    9.6370    1.9200 C   0  0  0  0  0
  -26.8070    8.9250    1.3520 C   0  0  0  0  0
  -29.9120   10.0930    3.2900 C   0  0  0  0  0
  -30.6160    8.6240    5.1370 C   0  0  0  0  0
  -28.6190    8.1810    3.8070 C   0  0  0  0  0
  -12.0430    8.7270    3.3860 F   0  0  0  0  0
  -31.8410   10.5370    4.5560 F   0  0  0  0  0
  -14.3660    7.9710   -2.1580 N   0  0  0  0  0
  -15.5550    7.7840   -2.5830 N   0  0  0  0  0
  -16.4330    7.9540   -1.5500 N   0  0  0  0  0
  -26.2420    9.7250    0.3480 N   0  0  0  0  0
  -26.9560   10.8860    0.3050 N   0  0  0  0  0
  -27.8640   10.8490    1.2110 N   0  0  0  0  0
  -20.5090    7.6390   -0.6770 O   0  0  0  0  0
  -18.1400    6.8070    0.5500 O   0  0  0  0  0
  -21.7760    5.1290   -0.5070 O   0  0  0  0  0
  -18.2190   10.0440   -2.1340 O   0  0  0  0  0
  -23.3570    9.2370    1.1030 O   0  0  0  0  0
  -21.0930   10.1620   -0.8260 S   0  0  0  0  0
  -11.8851    8.7584   -1.7605 H   0  0  0  0  0
   -9.8733    9.1967    2.0445 H   0  0  0  0  0
  -16.0976    8.4762    0.5694 H   0  0  0  0  0
  -17.8509    5.6657   -1.1496 H   0  0  0  0  0
  -18.0511    7.6323   -2.7116 H   0  0  0  0  0
  -18.5795    9.3600   -0.2143 H   0  0  0  0  0
  -23.1029   10.1868   -2.0532 H   0  0  0  0  0
  -22.7440    8.5551   -1.3141 H   0  0  0  0  0
  -29.2980    6.9659    5.4489 H   0  0  0  0  0
  -14.1186    8.3020    1.8762 H   0  0  0  0  0
   -9.8343    9.1632   -0.4711 H   0  0  0  0  0
  -20.0820    6.2409   -2.1438 H   0  0  0  0  0
  -20.3619    8.5809   -2.5369 H   0  0  0  0  0
  -20.2890    5.5403    0.8625 H   0  0  0  0  0
  -19.8613    4.3732   -0.3704 H   0  0  0  0  0
  -23.7887   10.9967    0.1578 H   0  0  0  0  0
  -25.0387    8.2902   -0.4822 H   0  0  0  0  0
  -25.3233    9.8134   -1.4807 H   0  0  0  0  0
  -26.4830    7.9233    1.6345 H   0  0  0  0  0
  -30.1093   10.9854    2.6961 H   0  0  0  0  0
  -31.3122    8.3699    5.9363 H   0  0  0  0  0
  -27.7669    7.5274    3.6200 H   0  0  0  0  0
  -18.4481    6.0515    1.0558 H   0  0  0  0  0
  -22.1444    4.4249    0.0317 H   0  0  0  0  0
  -18.6766   10.8696   -1.9592 H   0  0  0  0  0
  -23.9783    9.4219    1.8111 H   0  0  0  0  0
  1  2  4  0  0  0
  5  1  1  0  0  0
  1 14  4  0  0  0
  2 15  4  0  0  0
  4  3  4  0  0  0
 15  3  4  0  0  0
 14  4  4  0  0  0
  4 26  1  0  0  0
  6  5  4  0  0  0
  5 28  4  0  0  0
 30  6  4  0  0  0
  8  7  1  0  0  0
 16  7  1  0  0  0
  7 35  1  0  0  0
  9  8  1  0  0  0
  8 30  1  0  0  0
 17  9  1  0  0  0
  9 37  1  0  0  0
 19 10  1  0  0  0
 10 39  1  0  0  0
 21 11  1  0  0  0
 11 23  4  0  0  0
 11 25  4  0  0  0
 23 12  4  0  0  0
 12 24  4  0  0  0
 12 27  1  0  0  0
 13 24  4  0  0  0
 25 13  4  0  0  0
 16 18  1  0  0  0
 34 16  1  0  0  0
 17 34  1  0  0  0
 39 17  1  0  0  0
 18 36  1  0  0  0
 20 19  1  0  0  0
 19 38  1  0  0  0
 31 20  1  0  0  0
 22 21  4  0  0  0
 21 33  4  0  0  0
 22 31  4  0  0  0
 28 29  4  0  0  0
 29 30  4  0  0  0
 31 32  4  0  0  0
 32 33  4  0  0  0
  2 40  1  0  0  0
  3 41  1  0  0  0
  6 42  1  0  0  0
  7 43  1  0  0  0
  8 44  1  0  0  0
  9 45  1  0  0  0
 10 46  1  0  0  0
 10 47  1  0  0  0
 13 48  1  0  0  0
 14 49  1  0  0  0
 15 50  1  0  0  0
 16 51  1  0  0  0
 17 52  1  0  0  0
 18 53  1  0  0  0
 18 54  1  0  0  0
 19 55  1  0  0  0
 20 56  1  0  0  0
 20 57  1  0  0  0
 22 58  1  0  0  0
 23 59  1  0  0  0
 24 60  1  0  0  0
 25 61  1  0  0  0
 35 62  1  0  0  0
 36 63  1  0  0  0
 37 64  1  0  0  0
 38 65  1  0  0  0
M  END
$$$$
