3srv_ligand
  -I-interpret- 

 48 50  0  0  0  0  0  0  0  0999 V2000
    4.8430    0.2070  -30.6880 C   0  0  0  0  0
    3.3970    0.1540  -30.2790 C   0  0  0  0  0
    2.5310    1.0880  -30.7940 C   0  0  0  0  0
    1.2010    1.0520  -30.4280 C   0  0  0  0  0
    0.6930    0.1020  -29.5660 C   0  0  0  0  0
   -0.6960    0.1850  -29.2900 N   0  0  0  0  0
   -1.4430   -0.5240  -28.3420 C   0  0  0  0  0
   -0.9250   -1.5090  -27.5990 N   0  0  0  0  0
   -1.6980   -2.1410  -26.7120 C   0  0  0  0  0
   -1.0960   -3.1310  -26.0010 N   0  0  0  0  0
    0.3150   -3.4290  -25.9960 C   0  0  0  0  0
    0.5380   -4.8960  -25.6640 C   0  0  0  0  0
    2.0160   -5.1280  -25.7400 C   0  0  0  0  0
    2.6610   -4.3960  -24.7270 O   0  0  0  0  0
    2.5690   -2.9760  -24.9730 C   0  0  0  0  0
    1.1170   -2.5310  -25.0570 C   0  0  0  0  0
    0.5730   -2.5640  -23.7160 N   0  3  0  0  0
   -2.9850   -1.8560  -26.5120 N   0  0  0  0  0
   -3.5100   -0.8760  -27.2630 C   0  0  0  0  0
   -2.8130   -0.1580  -28.2110 C   0  0  0  0  0
   -3.4040    0.9270  -29.0160 C   0  0  0  0  0
   -4.7600    1.0480  -28.9520 N   0  0  0  0  0
   -2.6970    1.6670  -29.6880 O   0  0  0  0  0
    1.5700   -0.8380  -29.0600 C   0  0  0  0  0
    2.9170   -0.8040  -29.4130 C   0  0  0  0  0
    4.9181    0.0881  -31.7689 H   0  0  0  0  0
    5.2667    1.1681  -30.3965 H   0  0  0  0  0
    5.3887   -0.5969  -30.1940 H   0  0  0  0  0
    2.8911    1.8501  -31.4851 H   0  0  0  0  0
    0.5252    1.8036  -30.8359 H   0  0  0  0  0
   -1.2205    0.8502  -29.8582 H   0  0  0  0  0
   -1.6960   -3.7154  -25.4189 H   0  0  0  0  0
    0.6859   -3.2233  -27.0001 H   0  0  0  0  0
    0.0049   -5.5403  -26.3631 H   0  0  0  0  0
    0.1555   -5.1345  -24.6716 H   0  0  0  0  0
    2.3843   -4.8022  -26.7128 H   0  0  0  0  0
    2.2233   -6.1899  -25.6076 H   0  0  0  0  0
    3.0589   -2.7526  -25.9207 H   0  0  0  0  0
    3.0503   -2.4465  -24.1507 H   0  0  0  0  0
    1.0572   -1.5225  -25.4663 H   0  0  0  0  0
    1.1261   -1.9571  -23.1110 H   0  0  0  0  0
   -0.3934   -2.2384  -23.7343 H   0  0  0  0  0
    0.6043   -3.5198  -23.3611 H   0  0  0  0  0
   -4.5613   -0.6304  -27.1130 H   0  0  0  0  0
   -5.2320    1.7821  -29.4800 H   0  0  0  0  0
   -5.3028    0.4045  -28.3761 H   0  0  0  0  0
    1.2062   -1.6097  -28.3815 H   0  0  0  0  0
    3.6004   -1.5452  -28.9986 H   0  0  0  0  0
  1  2  1  0  0  0
  2  3  4  0  0  0
  2 25  4  0  0  0
  3  4  4  0  0  0
  4  5  4  0  0  0
  5  6  1  0  0  0
  5 24  4  0  0  0
  6  7  1  0  0  0
  7  8  4  0  0  0
  7 20  4  0  0  0
  8  9  4  0  0  0
  9 10  1  0  0  0
  9 18  4  0  0  0
 10 11  1  0  0  0
 11 12  1  0  0  0
 11 16  1  0  0  0
 12 13  1  0  0  0
 13 14  1  0  0  0
 14 15  1  0  0  0
 15 16  1  0  0  0
 16 17  1  0  0  0
 18 19  4  0  0  0
 19 20  4  0  0  0
 20 21  1  0  0  0
 21 22  1  0  0  0
 21 23  2  0  0  0
 24 25  4  0  0  0
  1 26  1  0  0  0
  1 27  1  0  0  0
  1 28  1  0  0  0
  3 29  1  0  0  0
  4 30  1  0  0  0
  6 31  1  0  0  0
 10 32  1  0  0  0
 11 33  1  0  0  0
 12 34  1  0  0  0
 12 35  1  0  0  0
 13 36  1  0  0  0
 13 37  1  0  0  0
 15 38  1  0  0  0
 15 39  1  0  0  0
 16 40  1  0  0  0
 17 41  1  0  0  0
 17 42  1  0  0  0
 17 43  1  0  0  0
 19 44  1  0  0  0
 22 45  1  0  0  0
 22 46  1  0  0  0
 24 47  1  0  0  0
 25 48  1  0  0  0
M  END
$$$$
