4y6p_ligand
  -I-interpret- 

 46 46  0  0  0  0  0  0  0  0999 V2000
   -1.8900   15.3690   22.0120 O   0  0  0  0  0
   -0.8050   15.8870   21.0720 P   0  0  0  0  0
   -1.1430   15.7410   19.6110 O   0  0  0  0  0
   -0.3720   17.2860   21.3980 O   0  0  0  0  0
    0.6270   14.8330   21.4120 C   0  0  0  0  0
    0.7190   13.5820   20.5430 C   0  0  0  0  0
    2.0840   12.9420   20.7550 C   0  0  0  0  0
    3.2010   13.6930   20.0610 C   0  0  0  0  0
    3.6670   13.2370   18.8980 N   0  0  0  0  0
    4.6200   14.0340   18.2350 O   0  0  0  0  0
    3.2770   11.9870   18.2580 C   0  0  0  0  0
    3.6730   14.6770   20.5940 O   0  0  0  0  0
   -0.3440   12.5740   20.9660 C   0  0  0  0  0
   -0.3810   11.3480   20.0550 C   0  0  0  0  0
   -1.1310   11.6330   18.7550 C   0  0  0  0  0
   -1.0750   10.4640   17.7620 C   0  0  0  0  0
    0.1940   10.3760   16.9240 C   0  0  0  0  0
    0.4780   11.2920   15.9160 C   0  0  0  0  0
    1.6440   11.1700   15.1590 C   0  0  0  0  0
    2.5220   10.1170   15.3860 C   0  0  0  0  0
    2.2270    9.1870   16.3770 C   0  0  0  0  0
    1.0700    9.3240   17.1350 C   0  0  0  0  0
   -2.1293   14.4740   21.7603 H   0  0  0  0  0
   -1.4155   14.8374   19.4355 H   0  0  0  0  0
    0.5347   14.4959   22.4444 H   0  0  0  0  0
    1.5158   15.4290   21.2050 H   0  0  0  0  0
    0.5717   13.8590   19.4991 H   0  0  0  0  0
    2.0488   11.9362   20.3365 H   0  0  0  0  0
    2.2925   12.9491   21.8248 H   0  0  0  0  0
    4.8790   13.6061   17.4156 H   0  0  0  0  0
    2.8466   12.2001   17.2795 H   0  0  0  0  0
    4.1547   11.3516   18.1397 H   0  0  0  0  0
    2.5390   11.4777   18.8778 H   0  0  0  0  0
   -1.3154   13.0651   20.9094 H   0  0  0  0  0
   -0.1061   12.2369   21.9749 H   0  0  0  0  0
   -0.8975   10.5448   20.5806 H   0  0  0  0  0
    0.6442   11.0732   19.8070 H   0  0  0  0  0
   -0.6594   12.4940   18.2814 H   0  0  0  0  0
   -2.1775   11.8055   19.0063 H   0  0  0  0  0
   -1.8988   10.6103   17.0634 H   0  0  0  0  0
   -1.1194    9.5505   18.3550 H   0  0  0  0  0
   -0.2144   12.1098   15.7164 H   0  0  0  0  0
    1.8673   11.9047   14.3854 H   0  0  0  0  0
    3.4320   10.0210   14.7937 H   0  0  0  0  0
    2.9026    8.3513   16.5592 H   0  0  0  0  0
    0.8479    8.5901   17.9097 H   0  0  0  0  0
  1  2  1  0  0  0
  2  3  1  0  0  0
  2  4  2  0  0  0
  2  5  1  0  0  0
  5  6  1  0  0  0
  6  7  1  0  0  0
  6 13  1  0  0  0
  7  8  1  0  0  0
  8  9  1  0  0  0
  8 12  2  0  0  0
  9 10  1  0  0  0
  9 11  1  0  0  0
 13 14  1  0  0  0
 14 15  1  0  0  0
 15 16  1  0  0  0
 16 17  1  0  0  0
 17 18  4  0  0  0
 17 22  4  0  0  0
 18 19  4  0  0  0
 19 20  4  0  0  0
 20 21  4  0  0  0
 21 22  4  0  0  0
  1 23  1  0  0  0
  3 24  1  0  0  0
  5 25  1  0  0  0
  5 26  1  0  0  0
  6 27  1  0  0  0
  7 28  1  0  0  0
  7 29  1  0  0  0
 10 30  1  0  0  0
 11 31  1  0  0  0
 11 32  1  0  0  0
 11 33  1  0  0  0
 13 34  1  0  0  0
 13 35  1  0  0  0
 14 36  1  0  0  0
 14 37  1  0  0  0
 15 38  1  0  0  0
 15 39  1  0  0  0
 16 40  1  0  0  0
 16 41  1  0  0  0
 18 42  1  0  0  0
 19 43  1  0  0  0
 20 44  1  0  0  0
 21 45  1  0  0  0
 22 46  1  0  0  0
M  END
$$$$
