### 
### Created by X-TOOL on Mon Sep 10 21:13:21 2018
### 

@<TRIPOS>MOLECULE
4y6p_ligand
   44    44     1     0     0
SMALL
GAST_HUCK


@<TRIPOS>ATOM
      1 O6         -1.8900   15.3690   22.0120 O.co2     1 R77        -0.5622
      2 P4         -0.8050   15.8870   21.0720 P.3       1 R77         0.0583
      3 O5         -1.1430   15.7410   19.6110 O.co2     1 R77        -0.5622
      4 O7         -0.3720   17.2860   21.3980 O.co2     1 R77        -0.5622
      5 C1          0.6270   14.8330   21.4120 C.3       1 R77         0.0245
      6 C2          0.7190   13.5820   20.5430 C.3       1 R77        -0.0092
      7 C3          2.0840   12.9420   20.7550 C.3       1 R77         0.0432
      8 C8          3.2010   13.6930   20.0610 C.2       1 R77         0.2014
      9 N9          3.6670   13.2370   18.8980 N.am      1 R77        -0.1538
     10 O10         4.6200   14.0340   18.2350 O.3       1 R77        -0.2694
     11 C11         3.2770   11.9870   18.2580 C.3       1 R77         0.0516
     12 O12         3.6730   14.6770   20.5940 O.2       1 R77        -0.3968
     13 C13        -0.3440   12.5740   20.9660 C.3       1 R77        -0.0467
     14 C14        -0.3810   11.3480   20.0550 C.3       1 R77        -0.0508
     15 C15        -1.1310   11.6330   18.7550 C.3       1 R77        -0.0433
     16 C16        -1.0750   10.4640   17.7620 C.3       1 R77        -0.0192
     17 C17         0.1940   10.3760   16.9240 C.ar      1 R77        -0.0430
     18 C19         0.4780   11.2920   15.9160 C.ar      1 R77        -0.0603
     19 C21         1.6440   11.1700   15.1590 C.ar      1 R77        -0.0686
     20 C22         2.5220   10.1170   15.3860 C.ar      1 R77        -0.0687
     21 C20         2.2270    9.1870   16.3770 C.ar      1 R77        -0.0686
     22 C18         1.0700    9.3240   17.1350 C.ar      1 R77        -0.0603
     23 H1          0.5771   14.5162   22.4642 H         1 R77         0.0455
     24 H2          1.5372   15.4294   21.2513 H         1 R77         0.0455
     25 H3          0.5836   13.8505   19.4849 H         1 R77         0.0339
     26 H4          2.0549   11.9148   20.3625 H         1 R77         0.0505
     27 H5          2.2959   12.9163   21.8341 H         1 R77         0.0505
     28 H6          5.3823   14.1429   18.7914 H         1 R77         0.2492
     29 H7          3.8240   11.8740   17.3104 H         1 R77         0.0514
     30 H8          2.1955   11.9994   18.0578 H         1 R77         0.0514
     31 H9          3.5172   11.1441   18.9227 H         1 R77         0.0514
     32 H10        -1.3278   13.0652   20.9369 H         1 R77         0.0270
     33 H11        -0.1290   12.2442   21.9931 H         1 R77         0.0270
     34 H12        -0.8846   10.5256   20.5842 H         1 R77         0.0267
     35 H13         0.6505   11.0517   19.8139 H         1 R77         0.0267
     36 H14        -0.6843   12.5186   18.2794 H         1 R77         0.0287
     37 H15        -2.1845   11.8382   18.9958 H         1 R77         0.0287
     38 H16        -1.9286   10.5615   17.0751 H         1 R77         0.0426
     39 H17        -1.1692    9.5289   18.3336 H         1 R77         0.0426
     40 H18        -0.2106   12.1053   15.7175 H         1 R77         0.0557
     41 H19         1.8661   11.9007   14.3897 H         1 R77         0.0599
     42 H20         3.4270   10.0216   14.7970 H         1 R77         0.0559
     43 H21         2.8989    8.3559   16.5582 H         1 R77         0.0599
     44 H22         0.8492    8.5941   17.9054 H         1 R77         0.0557
@<TRIPOS>BOND
     1    1    2 ar 
     2    2    3 ar 
     3    2    4 ar 
     4    2    5 1  
     5    5    6 1  
     6    6    7 1  
     7    6   13 1  
     8    7    8 1  
     9    8    9 am 
    10    8   12 2  
    11    9   10 1  
    12    9   11 1  
    13   13   14 1  
    14   14   15 1  
    15   15   16 1  
    16   16   17 1  
    17   17   18 ar 
    18   17   22 ar 
    19   18   19 ar 
    20   19   20 ar 
    21   20   21 ar 
    22   21   22 ar 
    23    5   23 1  
    24    5   24 1  
    25    6   25 1  
    26    7   26 1  
    27    7   27 1  
    28   10   28 1  
    29   11   29 1  
    30   11   30 1  
    31   11   31 1  
    32   13   32 1  
    33   13   33 1  
    34   14   34 1  
    35   14   35 1  
    36   15   36 1  
    37   15   37 1  
    38   16   38 1  
    39   16   39 1  
    40   18   40 1  
    41   19   41 1  
    42   20   42 1  
    43   21   43 1  
    44   22   44 1  
@<TRIPOS>SUBSTRUCTURE
     1 R77         1

