6jno_ligand
  -I-interpret- 

 56 59  0  0  0  0  0  0  0  0999 V2000
   -8.6540  -13.0890   22.3090 O   0  0  0  0  0
   -7.7900  -13.0460   21.4680 C   0  0  0  0  0
   -7.9150  -12.5750   20.0950 C   0  0  0  0  0
   -9.2210  -12.0670   19.5840 C   0  0  0  0  0
   -9.8390  -11.2490   20.2870 O   0  0  0  0  0
   -9.6090  -12.4770   18.4770 O   0  0  0  0  0
   -6.5470  -13.4980   21.8660 O   0  0  0  0  0
   -5.4600  -13.5090   21.0260 C   0  0  0  0  0
   -4.2660  -13.9810   21.5410 C   0  0  0  0  0
   -3.1400  -13.9970   20.7070 C   0  0  0  0  0
   -1.9500  -14.4470   21.1770 O   0  0  0  0  0
   -3.2220  -13.5620   19.3740 C   0  0  0  0  0
   -4.4170  -13.0990   18.9000 C   0  0  0  0  0
   -5.5790  -13.0620   19.7170 C   0  0  0  0  0
   -6.8460  -12.5960   19.2740 C   0  0  0  0  0
   -2.0460  -13.5460   18.4630 C   0  0  0  0  0
   -0.8390  -12.9900   18.8810 C   0  0  0  0  0
    0.2590  -12.9310   18.0170 C   0  0  0  0  0
    1.5720  -12.3370   18.5340 C   0  0  0  0  0
    1.2890  -11.0870   19.3770 C   0  0  0  0  0
    2.3100  -13.3670   19.4040 C   0  0  0  0  0
    2.4780  -11.9380   17.3630 C   0  0  0  0  0
    2.6050  -13.0540   16.3490 C   0  0  0  0  0
    1.2620  -13.3940   15.6880 C   0  0  0  0  0
    1.3910  -14.7560   14.9890 C   0  0  0  0  0
    0.9300  -12.3110   14.6510 C   0  0  0  0  0
    0.1280  -13.4380   16.7100 C   0  0  0  0  0
   -1.0970  -13.9610   16.2970 C   0  0  0  0  0
   -2.1890  -14.0200   17.1490 C   0  0  0  0  0
   -3.4940  -14.6050   16.6720 C   0  0  0  0  0
   -9.3458  -11.0856   21.0943 H   0  0  0  0  0
   -4.2026  -14.3321   22.5710 H   0  0  0  0  0
   -1.2905  -14.3901   20.4817 H   0  0  0  0  0
   -4.4805  -12.7494   17.8696 H   0  0  0  0  0
   -6.9561  -12.2476   18.2471 H   0  0  0  0  0
   -0.7494  -12.5963   19.8935 H   0  0  0  0  0
    0.7768  -10.3453   18.7641 H   0  0  0  0  0
    0.6594  -11.3570   20.2248 H   0  0  0  0  0
    2.2304  -10.6737   19.7390 H   0  0  0  0  0
    1.6820  -13.6413   20.2516 H   0  0  0  0  0
    2.5273  -14.2541   18.8091 H   0  0  0  0  0
    3.2422  -12.9335   19.7661 H   0  0  0  0  0
    3.4702  -11.7163   17.7561 H   0  0  0  0  0
    2.0384  -11.0722   16.8679 H   0  0  0  0  0
    2.9622  -13.9438   16.8675 H   0  0  0  0  0
    3.2930  -12.7267   15.5695 H   0  0  0  0  0
    2.1744  -14.7022   14.2330 H   0  0  0  0  0
    1.6465  -15.5181   15.7253 H   0  0  0  0  0
    0.4433  -15.0106   14.5145 H   0  0  0  0  0
    0.8625  -11.3429   15.1474 H   0  0  0  0  0
    1.7156  -12.2797   13.8960 H   0  0  0  0  0
   -0.0229  -12.5444   14.1761 H   0  0  0  0  0
   -1.1986  -14.3332   15.2775 H   0  0  0  0  0
   -3.7476  -15.4710   17.2835 H   0  0  0  0  0
   -4.2801  -13.8549   16.7584 H   0  0  0  0  0
   -3.3946  -14.9106   15.6305 H   0  0  0  0  0
  1  2  2  0  0  0
  2  3  1  0  0  0
  2  7  1  0  0  0
  3  4  1  0  0  0
  3 15  2  0  0  0
  4  5  1  0  0  0
  4  6  2  0  0  0
  7  8  1  0  0  0
  8  9  4  0  0  0
  8 14  4  0  0  0
  9 10  4  0  0  0
 10 11  1  0  0  0
 10 12  4  0  0  0
 12 13  4  0  0  0
 12 16  1  0  0  0
 13 14  4  0  0  0
 14 15  1  0  0  0
 16 17  4  0  0  0
 16 29  4  0  0  0
 17 18  4  0  0  0
 18 19  1  0  0  0
 18 27  4  0  0  0
 19 20  1  0  0  0
 19 21  1  0  0  0
 19 22  1  0  0  0
 22 23  1  0  0  0
 23 24  1  0  0  0
 24 25  1  0  0  0
 24 26  1  0  0  0
 24 27  1  0  0  0
 27 28  4  0  0  0
 28 29  4  0  0  0
 29 30  1  0  0  0
  5 31  1  0  0  0
  9 32  1  0  0  0
 11 33  1  0  0  0
 13 34  1  0  0  0
 15 35  1  0  0  0
 17 36  1  0  0  0
 20 37  1  0  0  0
 20 38  1  0  0  0
 20 39  1  0  0  0
 21 40  1  0  0  0
 21 41  1  0  0  0
 21 42  1  0  0  0
 22 43  1  0  0  0
 22 44  1  0  0  0
 23 45  1  0  0  0
 23 46  1  0  0  0
 25 47  1  0  0  0
 25 48  1  0  0  0
 25 49  1  0  0  0
 26 50  1  0  0  0
 26 51  1  0  0  0
 26 52  1  0  0  0
 28 53  1  0  0  0
 30 54  1  0  0  0
 30 55  1  0  0  0
 30 56  1  0  0  0
M  END
$$$$
