4c71_ligand
  -I-interpret- 

 39 39  0  0  0  0  0  0  0  0999 V2000
   -4.2910  -28.9980    9.7810 N   0  0  0  0  0
   -4.9200  -28.0670    9.5950 N   0  0  0  0  0
   -5.4680  -27.0200    9.3080 N   0  0  0  0  0
   -5.1130  -26.4880    8.0250 C   0  0  0  0  0
   -6.3740  -25.7460    7.6630 C   0  0  0  0  0
   -6.2750  -25.1960    6.2980 C   0  0  0  0  0
   -4.9330  -24.4960    6.1860 C   0  0  0  0  0
   -4.8750  -23.1530    6.8630 C   0  0  0  0  0
   -3.9810  -22.8900    7.9520 C   0  0  0  0  0
   -3.2320  -23.6050    8.5510 O   0  0  0  0  0
   -4.0820  -21.1100    8.4080 S   0  0  0  0  0
   -5.5110  -22.0400    6.3920 C   0  0  0  0  0
   -6.4360  -22.0330    5.4140 O   0  0  0  0  0
   -5.2520  -20.6870    6.9980 C   0  0  0  0  0
   -4.4960  -19.8610    5.9380 C   0  0  0  0  0
   -6.5070  -20.0030    7.4890 C   0  0  0  0  0
   -6.6130  -18.8940    8.2000 C   0  0  0  0  0
   -5.3750  -18.1180    8.5840 C   0  0  0  0  0
   -7.9340  -18.3720    8.6210 C   0  0  0  0  0
   -8.0830  -17.1840    9.2620 C   0  0  0  0  0
   -4.8231  -27.2464    7.2977 H   0  0  0  0  0
   -4.2210  -25.8617    8.0385 H   0  0  0  0  0
   -6.5167  -24.9255    8.3662 H   0  0  0  0  0
   -7.2164  -26.4363    7.7067 H   0  0  0  0  0
   -7.0881  -24.4951    6.1090 H   0  0  0  0  0
   -6.3526  -25.9932    5.5587 H   0  0  0  0  0
   -4.7469  -24.3282    5.1252 H   0  0  0  0  0
   -4.1973  -25.1337    6.6761 H   0  0  0  0  0
   -6.7334  -21.1328    5.2628 H   0  0  0  0  0
   -4.1242  -18.9425    6.3922 H   0  0  0  0  0
   -3.6580  -20.4435    5.5551 H   0  0  0  0  0
   -5.1732  -19.6151    5.1200 H   0  0  0  0  0
   -7.4465  -20.4870    7.2222 H   0  0  0  0  0
   -4.7212  -18.7524    9.1825 H   0  0  0  0  0
   -4.8510  -17.8026    7.6817 H   0  0  0  0  0
   -5.6627  -17.2410    9.1639 H   0  0  0  0  0
   -8.8228  -18.9658    8.4075 H   0  0  0  0  0
   -7.2091  -16.5725    9.4865 H   0  0  0  0  0
   -9.0765  -16.8421    9.5520 H   0  0  0  0  0
  1  2  3  0  0  0
  2  3  2  0  0  0
  3  4  1  0  0  0
  4  5  1  0  0  0
  5  6  1  0  0  0
  6  7  1  0  0  0
  7  8  1  0  0  0
  8  9  1  0  0  0
  8 12  2  0  0  0
  9 10  2  0  0  0
  9 11  1  0  0  0
 11 14  1  0  0  0
 12 13  1  0  0  0
 12 14  1  0  0  0
 14 15  1  0  0  0
 14 16  1  0  0  0
 16 17  2  0  0  0
 17 18  1  0  0  0
 17 19  1  0  0  0
 19 20  2  0  0  0
  4 21  1  0  0  0
  4 22  1  0  0  0
  5 23  1  0  0  0
  5 24  1  0  0  0
  6 25  1  0  0  0
  6 26  1  0  0  0
  7 27  1  0  0  0
  7 28  1  0  0  0
 13 29  1  0  0  0
 15 30  1  0  0  0
 15 31  1  0  0  0
 15 32  1  0  0  0
 16 33  1  0  0  0
 18 34  1  0  0  0
 18 35  1  0  0  0
 18 36  1  0  0  0
 19 37  1  0  0  0
 20 38  1  0  0  0
 20 39  1  0  0  0
M  END
$$$$
