### 
### Created by X-TOOL on Mon Aug  2 16:17:06 2021
### 

@<TRIPOS>MOLECULE
6o7g_ligand
  103   103     1     0     0
SMALL
GAST_HUCK


@<TRIPOS>ATOM
      1 CA         46.5490    5.8180  -14.9920 C.3       1 LYS         0.0258
      2 C          47.9460    5.3970  -15.3880 C.2       1 LYS         0.1749
      3 O          48.9190    5.8380  -14.7810 O.2       1 LYS        -0.3972
      4 N          48.0430    4.5600  -16.4230 N.am      1 LYS        -0.2685
      5 CA         49.3160    4.1570  -17.0390 C.3       1 LYS         0.1200
      6 C          50.0620    3.0120  -16.3350 C.2       1 LYS         0.2005
      7 O          51.2430    2.7930  -16.6120 O.2       1 LYS        -0.3947
      8 N          49.4100    2.2750  -15.4270 N.am      1 LYS        -0.2666
      9 CA         49.9350    1.0490  -14.7960 C.3       1 LYS         0.1201
     10 C          50.9220    1.2690  -13.6410 C.2       1 LYS         0.2007
     11 O          50.8310    0.5720  -12.6310 O.2       1 LYS        -0.3947
     12 N          51.8240    2.2480  -13.7630 N.am      1 LYS        -0.2642
     13 CA         52.8810    2.5780  -12.8030 C.3       1 LYS         0.1282
     14 C          52.9420    4.0920  -12.5060 C.2       1 LYS         0.2036
     15 O          52.6680    4.9160  -13.3820 O.2       1 LYS        -0.3944
     16 CB         54.2120    2.0670  -13.3660 C.3       1 LYS        -0.0244
     17 OH         47.3000    9.9610  -10.1290 O.2       1 LYS        -0.3974
     18 CH         46.9170    8.8070   -9.9540 C.2       1 LYS         0.1729
     19 CH3        45.4640    8.5320   -9.6480 C.3       1 LYS         0.0256
     20 NZ         47.7070    7.7390  -10.0200 N.am      1 LYS        -0.2872
     21 CE         49.1240    7.7580  -10.3720 C.3       1 LYS         0.0309
     22 CD         49.9990    7.4840   -9.1380 C.3       1 LYS        -0.0325
     23 CG         51.4920    7.3700   -9.5020 C.3       1 LYS        -0.0470
     24 CB         51.7970    6.0170  -10.1630 C.3       1 LYS        -0.0123
     25 CA         53.2060    5.8410  -10.7520 C.3       1 LYS         0.1310
     26 N          53.2950    4.4620  -11.2680 N.am      1 LYS        -0.2637
     27 C          54.3040    6.1690   -9.7260 C.2       1 LYS         0.2039
     28 O          54.5500    5.3910   -8.8050 O.2       1 LYS        -0.3944
     29 N          54.9390    7.3410   -9.8600 N.am      1 LYS        -0.2637
     30 CA         55.9350    7.8710   -8.9070 C.3       1 LYS         0.1311
     31 C          55.9050    9.4050   -8.8840 C.2       1 LYS         0.2040
     32 O          55.9750   10.0490   -9.9330 O.2       1 LYS        -0.3944
     33 CB         57.3250    7.3220   -9.2870 C.3       1 LYS        -0.0092
     34 CG         58.3900    7.6070   -8.2170 C.3       1 LYS        -0.0156
     35 CD         59.7180    6.9570   -8.6130 C.3       1 LYS         0.0627
     36 NE         60.7440    7.1230   -7.5680 N.pl3     1 LYS        -0.2723
     37 CZ         61.9900    6.6880   -7.6240 C.cat     1 LYS         0.2882
     38 NH1        62.4520    6.0420   -8.6560 N.pl3     1 LYS        -0.2849
     39 NH2        62.8030    6.8950   -6.6300 N.pl3     1 LYS        -0.2849
     40 N          55.7830    9.9830   -7.6890 N.am      1 LYS        -0.2625
     41 CA         55.6940   11.4330   -7.4560 C.3       1 LYS         0.1367
     42 C          57.0540   12.1430   -7.5830 C.2       1 LYS         0.2029
     43 O          58.1110   11.5250   -7.4110 O.2       1 LYS        -0.3944
     44 CB         55.0580   11.6850   -6.0790 C.3       1 LYS         0.0145
     45 CG         53.6860   11.0640   -5.9230 C.2       1 LYS        -0.0027
     46 ND1        53.4150    9.7070   -5.7150 N.2       1 LYS        -0.3252
     47 CD2        52.5010   11.7350   -6.0190 C.2       1 LYS         0.0291
     48 CE1        52.0760    9.5970   -5.6820 C.2       1 LYS         0.0907
     49 NE2        51.5030   10.7980   -5.8620 N.pl3     1 LYS        -0.2752
     50 N          57.0260   13.4520   -7.8610 N.am      1 LYS        -0.2880
     51 CA         58.2150   14.2950   -7.9960 C.3       1 LYS         0.0196
     52 H1         45.8172    5.3218  -15.6464 H         1 LYS         0.0467
     53 H2         46.4519    6.9089  -15.0944 H         1 LYS         0.0467
     54 H3         46.3614    5.5296  -13.9472 H         1 LYS         0.0467
     55 H4         47.1980    4.1838  -16.8030 H         1 LYS         0.1880
     56 H5         49.9786    5.0350  -17.0519 H         1 LYS         0.0763
     57 H6         49.1070    3.8402  -18.0714 H         1 LYS         0.0763
     58 H7         48.4968    2.5790  -15.1556 H         1 LYS         0.1881
     59 H8         50.4475    0.4615  -15.5720 H         1 LYS         0.0763
     60 H9         49.0806    0.4760  -14.4067 H         1 LYS         0.0763
     61 H10        51.7726    2.8093  -14.5890 H         1 LYS         0.1883
     62 H11        52.6727    2.0548  -11.8581 H         1 LYS         0.0797
     63 H12        55.0230    2.3034  -12.6615 H         1 LYS         0.0277
     64 H13        54.4123    2.5532  -14.3322 H         1 LYS         0.0277
     65 H14        54.1559    0.9777  -13.5083 H         1 LYS         0.0277
     66 H15        45.3139    7.4493   -9.5244 H         1 LYS         0.0467
     67 H16        44.8394    8.8965  -10.4768 H         1 LYS         0.0467
     68 H17        45.1804    9.0498   -8.7199 H         1 LYS         0.0467
     69 H18        47.2973    6.8509   -9.8116 H         1 LYS         0.1850
     70 H19        49.3799    8.7458  -10.7829 H         1 LYS         0.0520
     71 H20        49.3174    6.9844  -11.1297 H         1 LYS         0.0520
     72 H21        49.6737    6.5410   -8.6744 H         1 LYS         0.0285
     73 H22        49.8703    8.3085   -8.4214 H         1 LYS         0.0285
     74 H23        52.0937    7.4664   -8.5862 H         1 LYS         0.0268
     75 H24        51.7546    8.1785  -10.2002 H         1 LYS         0.0268
     76 H25        51.0738    5.8737  -10.9793 H         1 LYS         0.0312
     77 H26        51.6526    5.2344   -9.4036 H         1 LYS         0.0312
     78 H27        53.3234    6.5365  -11.5961 H         1 LYS         0.0800
     79 H28        53.6425    3.7553  -10.6517 H         1 LYS         0.1883
     80 H29        54.7231    7.8968  -10.6628 H         1 LYS         0.1883
     81 H30        55.6836    7.5111   -7.8984 H         1 LYS         0.0800
     82 H31        57.6415    7.7893  -10.2312 H         1 LYS         0.0313
     83 H32        57.2475    6.2334   -9.4246 H         1 LYS         0.0313
     84 H33        58.0566    7.1958   -7.2528 H         1 LYS         0.0301
     85 H34        58.5303    8.6940   -8.1233 H         1 LYS         0.0301
     86 H35        60.0785    7.4221   -9.5424 H         1 LYS         0.0689
     87 H36        59.5520    5.8827   -8.7810 H         1 LYS         0.0689
     88 H37        60.4631    7.6254   -6.7138 H         1 LYS         0.2642
     89 H38        63.4295    5.7174   -8.6651 H         1 LYS         0.2615
     90 H39        61.8399    5.8556   -9.4632 H         1 LYS         0.2615
     91 H40        62.4768    7.4020   -5.7949 H         1 LYS         0.2615
     92 H41        63.7730    6.5519   -6.6780 H         1 LYS         0.2615
     93 H42        55.7494    9.3845   -6.8886 H         1 LYS         0.1885
     94 H43        55.0288   11.8569   -8.2227 H         1 LYS         0.0817
     95 H44        54.9670   12.7712   -5.9313 H         1 LYS         0.0420
     96 H45        55.7200   11.2643   -5.3078 H         1 LYS         0.0420
     97 H46        52.3700   12.8030   -6.1870 H         1 LYS         0.0729
     98 H47        51.5325    8.6655   -5.5307 H         1 LYS         0.1199
     99 H48        50.4906   10.9866   -5.8797 H         1 LYS         0.2361
    100 H49        56.1323   13.8832   -7.9849 H         1 LYS         0.1848
    101 H50        57.9091   15.3264   -8.2254 H         1 LYS         0.0484
    102 H51        58.8467   13.9103   -8.8102 H         1 LYS         0.0484
    103 H52        58.7827   14.2819   -7.0539 H         1 LYS         0.0484
@<TRIPOS>BOND
     1    2    1 1  
     2    2    3 2  
     3    4    2 am 
     4    5    4 1  
     5    6    5 1  
     6    6    7 2  
     7    8    6 am 
     8    9    8 1  
     9   10    9 1  
    10   10   11 2  
    11   12   10 am 
    12   13   12 1  
    13   14   13 1  
    14   13   16 1  
    15   14   15 2  
    16   26   14 am 
    17   18   17 2  
    18   18   19 1  
    19   20   18 am 
    20   21   20 1  
    21   22   21 1  
    22   23   22 1  
    23   24   23 1  
    24   25   24 1  
    25   25   26 1  
    26   25   27 1  
    27   27   28 2  
    28   27   29 am 
    29   29   30 1  
    30   30   31 1  
    31   30   33 1  
    32   31   32 2  
    33   31   40 am 
    34   33   34 1  
    35   34   35 1  
    36   35   36 1  
    37   36   37 ar 
    38   37   38 ar 
    39   37   39 ar 
    40   40   41 1  
    41   41   42 1  
    42   41   44 1  
    43   42   43 2  
    44   42   50 am 
    45   44   45 1  
    46   45   46 1  
    47   45   47 2  
    48   46   48 2  
    49   47   49 1  
    50   48   49 1  
    51   50   51 1  
    52    1   52 1  
    53    1   53 1  
    54    1   54 1  
    55    4   55 1  
    56    5   56 1  
    57    5   57 1  
    58    8   58 1  
    59    9   59 1  
    60    9   60 1  
    61   12   61 1  
    62   13   62 1  
    63   16   63 1  
    64   16   64 1  
    65   16   65 1  
    66   19   66 1  
    67   19   67 1  
    68   19   68 1  
    69   20   69 1  
    70   21   70 1  
    71   21   71 1  
    72   22   72 1  
    73   22   73 1  
    74   23   74 1  
    75   23   75 1  
    76   24   76 1  
    77   24   77 1  
    78   25   78 1  
    79   26   79 1  
    80   29   80 1  
    81   30   81 1  
    82   33   82 1  
    83   33   83 1  
    84   34   84 1  
    85   34   85 1  
    86   35   86 1  
    87   35   87 1  
    88   36   88 1  
    89   38   89 1  
    90   38   90 1  
    91   39   91 1  
    92   39   92 1  
    93   40   93 1  
    94   41   94 1  
    95   44   95 1  
    96   44   96 1  
    97   47   97 1  
    98   48   98 1  
    99   49   99 1  
   100   50  100 1  
   101   51  101 1  
   102   51  102 1  
   103   51  103 1  
@<TRIPOS>SUBSTRUCTURE
     1 LYS         1

