6o7g_ligand
  -I-interpret- 

101101  0  0  0  0  0  0  0  0999 V2000
   46.5490    5.8180  -14.9920 C   0  0  0  0  0
   47.9460    5.3970  -15.3880 C   0  0  0  0  0
   48.9190    5.8380  -14.7810 O   0  0  0  0  0
   48.0430    4.5600  -16.4230 N   0  0  0  0  0
   49.3160    4.1570  -17.0390 C   0  0  0  0  0
   50.0620    3.0120  -16.3350 C   0  0  0  0  0
   51.2430    2.7930  -16.6120 O   0  0  0  0  0
   49.4100    2.2750  -15.4270 N   0  0  0  0  0
   49.9350    1.0490  -14.7960 C   0  0  0  0  0
   50.9220    1.2690  -13.6410 C   0  0  0  0  0
   50.8310    0.5720  -12.6310 O   0  0  0  0  0
   51.8240    2.2480  -13.7630 N   0  0  0  0  0
   52.8810    2.5780  -12.8030 C   0  0  0  0  0
   52.9420    4.0920  -12.5060 C   0  0  0  0  0
   52.6680    4.9160  -13.3820 O   0  0  0  0  0
   54.2120    2.0670  -13.3660 C   0  0  0  0  0
   47.3000    9.9610  -10.1290 O   0  0  0  0  0
   46.9170    8.8070   -9.9540 C   0  0  0  0  0
   45.4640    8.5320   -9.6480 C   0  0  0  0  0
   47.7070    7.7390  -10.0200 N   0  0  0  0  0
   49.1240    7.7580  -10.3720 C   0  0  0  0  0
   49.9990    7.4840   -9.1380 C   0  0  0  0  0
   51.4920    7.3700   -9.5020 C   0  0  0  0  0
   51.7970    6.0170  -10.1630 C   0  0  0  0  0
   53.2060    5.8410  -10.7520 C   0  0  0  0  0
   53.2950    4.4620  -11.2680 N   0  0  0  0  0
   54.3040    6.1690   -9.7260 C   0  0  0  0  0
   54.5500    5.3910   -8.8050 O   0  0  0  0  0
   54.9390    7.3410   -9.8600 N   0  0  0  0  0
   55.9350    7.8710   -8.9070 C   0  0  0  0  0
   55.9050    9.4050   -8.8840 C   0  0  0  0  0
   55.9750   10.0490   -9.9330 O   0  0  0  0  0
   57.3250    7.3220   -9.2870 C   0  0  0  0  0
   58.3900    7.6070   -8.2170 C   0  0  0  0  0
   59.7180    6.9570   -8.6130 C   0  0  0  0  0
   60.7440    7.1230   -7.5680 N   0  0  0  0  0
   61.9900    6.6880   -7.6240 C   0  0  0  0  0
   62.4520    6.0420   -8.6560 N   0  0  0  0  0
   62.8030    6.8950   -6.6300 N   0  0  0  0  0
   55.7830    9.9830   -7.6890 N   0  0  0  0  0
   55.6940   11.4330   -7.4560 C   0  0  0  0  0
   57.0540   12.1430   -7.5830 C   0  0  0  0  0
   58.1110   11.5250   -7.4110 O   0  0  0  0  0
   55.0580   11.6850   -6.0790 C   0  0  0  0  0
   53.6860   11.0640   -5.9230 C   0  0  0  0  0
   53.4150    9.7070   -5.7150 N   0  0  0  0  0
   52.5010   11.7350   -6.0190 C   0  0  0  0  0
   52.0760    9.5970   -5.6820 C   0  0  0  0  0
   51.5030   10.7980   -5.8620 N   0  0  0  0  0
   57.0260   13.4520   -7.8610 N   0  0  0  0  0
   58.2150   14.2950   -7.9960 C   0  0  0  0  0
   46.3644    5.5317  -13.9566 H   0  0  0  0  0
   46.4541    6.8991  -15.0938 H   0  0  0  0  0
   45.8248    5.3257  -15.6411 H   0  0  0  0  0
   47.1811    4.1762  -16.8106 H   0  0  0  0  0
   49.9709    5.0271  -16.9933 H   0  0  0  0  0
   49.0757    3.8000  -18.0405 H   0  0  0  0  0
   48.4785    2.5850  -15.1502 H   0  0  0  0  0
   50.4802    0.5106  -15.5712 H   0  0  0  0  0
   49.0768    0.5254  -14.3747 H   0  0  0  0  0
   51.7715    2.8206  -14.6055 H   0  0  0  0  0
   52.6668    2.0936  -11.8503 H   0  0  0  0  0
   54.1551    0.9876  -13.5066 H   0  0  0  0  0
   54.4093    2.5495  -14.3233 H   0  0  0  0  0
   55.0148    2.3019  -12.6671 H   0  0  0  0  0
   45.1842    9.0456   -8.7282 H   0  0  0  0  0
   44.8462    8.8937  -10.4699 H   0  0  0  0  0
   45.3165    7.4590   -9.5258 H   0  0  0  0  0
   47.2891    6.8331   -9.8075 H   0  0  0  0  0
   49.3739    8.7425  -10.7675 H   0  0  0  0  0
   49.3114    6.9820  -11.1141 H   0  0  0  0  0
   49.6822    6.5379   -8.6991 H   0  0  0  0  0
   49.8801    8.3165   -8.4445 H   0  0  0  0  0
   52.0815    7.4535   -8.5890 H   0  0  0  0  0
   51.7422    8.1658  -10.2036 H   0  0  0  0  0
   51.1068    5.9295  -11.0021 H   0  0  0  0  0
   51.7045    5.2694   -9.3752 H   0  0  0  0  0
   53.3715    6.5467  -11.5661 H   0  0  0  0  0
   53.6494    3.7412  -10.6393 H   0  0  0  0  0
   54.7188    7.9079  -10.6789 H   0  0  0  0  0
   55.6957    7.5425   -7.8956 H   0  0  0  0  0
   57.6376    7.8132  -10.2085 H   0  0  0  0  0
   57.2393    6.2406   -9.3933 H   0  0  0  0  0
   58.0595    7.1947   -7.2637 H   0  0  0  0  0
   58.5305    8.6843   -8.1292 H   0  0  0  0  0
   60.0761    7.4381   -9.5232 H   0  0  0  0  0
   59.5468    5.8903   -8.7576 H   0  0  0  0  0
   60.4658    7.6205   -6.7221 H   0  0  0  0  0
   63.4194    5.7188   -8.6641 H   0  0  0  0  0
   61.8465    5.8592   -9.4562 H   0  0  0  0  0
   62.4794    7.3953   -5.8021 H   0  0  0  0  0
   55.7487    9.3725   -6.8726 H   0  0  0  0  0
   55.0632   11.8617   -8.2347 H   0  0  0  0  0
   54.9442   12.7629   -5.9636 H   0  0  0  0  0
   55.7087   11.2328   -5.3305 H   0  0  0  0  0
   52.3698   12.8039   -6.1871 H   0  0  0  0  0
   51.5320    8.6647   -5.5305 H   0  0  0  0  0
   56.1144   13.8919   -7.9873 H   0  0  0  0  0
   58.7766   14.2811   -7.0619 H   0  0  0  0  0
   58.8401   13.9127   -8.8030 H   0  0  0  0  0
   57.9106   15.3166   -8.2233 H   0  0  0  0  0
  2  1  1  0  0  0
  2  3  2  0  0  0
  4  2  1  0  0  0
  5  4  1  0  0  0
  6  5  1  0  0  0
  6  7  2  0  0  0
  8  6  1  0  0  0
  9  8  1  0  0  0
 10  9  1  0  0  0
 10 11  2  0  0  0
 12 10  1  0  0  0
 13 12  1  0  0  0
 14 13  1  0  0  0
 13 16  1  0  0  0
 14 15  2  0  0  0
 26 14  1  0  0  0
 18 17  2  0  0  0
 18 19  1  0  0  0
 20 18  1  0  0  0
 21 20  1  0  0  0
 22 21  1  0  0  0
 23 22  1  0  0  0
 24 23  1  0  0  0
 25 24  1  0  0  0
 25 26  1  0  0  0
 25 27  1  0  0  0
 27 28  2  0  0  0
 27 29  1  0  0  0
 29 30  1  0  0  0
 30 31  1  0  0  0
 30 33  1  0  0  0
 31 32  2  0  0  0
 31 40  1  0  0  0
 33 34  1  0  0  0
 34 35  1  0  0  0
 35 36  1  0  0  0
 36 37  1  0  0  0
 37 38  1  0  0  0
 37 39  2  0  0  0
 40 41  1  0  0  0
 41 42  1  0  0  0
 41 44  1  0  0  0
 42 43  2  0  0  0
 42 50  1  0  0  0
 44 45  1  0  0  0
 45 46  4  0  0  0
 45 47  4  0  0  0
 46 48  4  0  0  0
 47 49  4  0  0  0
 48 49  4  0  0  0
 50 51  1  0  0  0
  1 52  1  0  0  0
  1 53  1  0  0  0
  1 54  1  0  0  0
  4 55  1  0  0  0
  5 56  1  0  0  0
  5 57  1  0  0  0
  8 58  1  0  0  0
  9 59  1  0  0  0
  9 60  1  0  0  0
 12 61  1  0  0  0
 13 62  1  0  0  0
 16 63  1  0  0  0
 16 64  1  0  0  0
 16 65  1  0  0  0
 19 66  1  0  0  0
 19 67  1  0  0  0
 19 68  1  0  0  0
 20 69  1  0  0  0
 21 70  1  0  0  0
 21 71  1  0  0  0
 22 72  1  0  0  0
 22 73  1  0  0  0
 23 74  1  0  0  0
 23 75  1  0  0  0
 24 76  1  0  0  0
 24 77  1  0  0  0
 25 78  1  0  0  0
 26 79  1  0  0  0
 29 80  1  0  0  0
 30 81  1  0  0  0
 33 82  1  0  0  0
 33 83  1  0  0  0
 34 84  1  0  0  0
 34 85  1  0  0  0
 35 86  1  0  0  0
 35 87  1  0  0  0
 36 88  1  0  0  0
 38 89  1  0  0  0
 38 90  1  0  0  0
 39 91  1  0  0  0
 40 92  1  0  0  0
 41 93  1  0  0  0
 44 94  1  0  0  0
 44 95  1  0  0  0
 47 96  1  0  0  0
 48 97  1  0  0  0
 50 98  1  0  0  0
 51 99  1  0  0  0
 51100  1  0  0  0
 51101  1  0  0  0
M  END
$$$$
