3wd1_ligand
  -I-interpret- 

 92 96  0  0  0  0  0  0  0  0999 V2000
  -20.3200   -7.0560  -31.0620 C   0  0  0  0  0
  -20.8840   -5.9640  -30.2460 N   0  0  0  0  0
  -20.2680   -4.8010  -30.0990 C   0  0  0  0  0
  -19.1700   -4.5550  -30.6080 O   0  0  0  0  0
  -20.8510   -3.9450  -29.2160 N   0  0  0  0  0
  -20.4890   -2.6710  -28.9630 C   0  0  0  0  0
  -19.3120   -2.1350  -29.4270 N   0  0  0  0  0
  -21.2470   -2.0340  -28.0480 N   0  0  0  0  0
  -21.0750   -0.5940  -27.6280 C   0  0  0  0  0
  -21.7870    0.2050  -28.7310 C   0  0  0  0  0
  -22.0960    1.6790  -28.4200 C   0  0  0  0  0
  -22.3310    2.4290  -29.6860 C   0  0  0  0  0
  -23.5910    2.0260  -30.4470 C   0  0  0  0  0
  -24.6480    1.7430  -29.8810 O   0  0  0  0  0
  -23.5840    2.2310  -31.7320 N   0  0  0  0  0
  -24.9010    2.1660  -32.3970 C   0  0  0  0  0
  -24.9020    1.1350  -33.4850 C   0  0  0  0  0
  -24.9610   -0.1940  -33.0700 C   0  0  0  0  0
  -25.0230   -1.1320  -34.0810 C   0  0  0  0  0
  -24.9310   -0.7130  -35.4210 C   0  0  0  0  0
  -24.8350    0.6230  -35.8340 C   0  0  0  0  0
  -24.8240    1.5640  -34.8280 C   0  0  0  0  0
  -22.3810    2.5900  -32.5370 C   0  0  0  0  0
  -21.2210    1.6390  -32.4340 C   0  0  0  0  0
  -21.4100    0.2380  -32.4600 C   0  0  0  0  0
  -20.2540   -0.5420  -32.3470 C   0  0  0  0  0
  -18.9490   -0.0130  -32.2350 C   0  0  0  0  0
  -18.7880    1.3860  -32.2340 C   0  0  0  0  0
  -19.9270    2.1840  -32.3380 C   0  0  0  0  0
  -22.6070    3.9320  -29.4650 N   0  0  0  0  0
  -21.7300    4.8790  -29.3350 C   0  0  0  0  0
  -20.5270    4.6120  -29.1930 O   0  0  0  0  0
  -22.3190    6.3510  -29.3500 C   0  0  0  0  0
  -21.4070    7.1550  -28.5460 N   0  0  0  0  0
  -20.2760    7.5320  -28.9490 N   0  0  0  0  0
  -19.6720    8.0930  -28.0370 N   0  0  0  0  0
  -20.4880    8.0920  -26.9340 C   0  0  0  0  0
  -21.6180    7.4700  -27.2720 C   0  0  0  0  0
  -22.8580    7.1490  -26.4130 C   0  0  0  0  0
  -22.8940    5.7280  -26.0970 O   0  0  0  0  0
  -21.9360    5.1400  -25.2600 N   0  0  0  0  0
  -21.9220    3.8070  -25.0780 C   0  0  0  0  0
  -20.9890    3.0910  -24.3040 C   0  0  0  0  0
  -20.7180    3.3910  -22.9770 C   0  0  0  0  0
  -21.3900    4.4600  -22.3690 C   0  0  0  0  0
  -21.1080    4.7070  -21.0520 C   0  0  0  0  0
  -20.1740    3.9460  -20.3570 C   0  0  0  0  0
  -19.4900    2.9020  -20.9500 C   0  0  0  0  0
  -19.7570    2.6050  -22.2830 C   0  0  0  0  0
  -19.0810    1.5710  -22.8750 N   0  0  0  0  0
  -19.3350    1.2830  -24.1220 C   0  0  0  0  0
  -20.2680    2.0330  -24.8320 C   0  0  0  0  0
  -20.1997   -6.7147  -32.0902 H   0  0  0  0  0
  -19.3499   -7.3458  -30.6582 H   0  0  0  0  0
  -20.9951   -7.9115  -31.0384 H   0  0  0  0  0
  -21.7791   -6.1098  -29.7791 H   0  0  0  0  0
  -18.6765   -2.7058  -29.9844 H   0  0  0  0  0
  -21.9954   -2.5667  -27.6047 H   0  0  0  0  0
  -20.0257   -0.3158  -27.5293 H   0  0  0  0  0
  -21.4951   -0.3993  -26.6412 H   0  0  0  0  0
  -22.7514   -0.2805  -28.8806 H   0  0  0  0  0
  -21.1086    0.2124  -29.5841 H   0  0  0  0  0
  -21.2489    2.1196  -27.8943 H   0  0  0  0  0
  -22.9902    1.7345  -27.7992 H   0  0  0  0  0
  -21.4097    2.2048  -30.2236 H   0  0  0  0  0
  -25.1195    3.1391  -32.8367 H   0  0  0  0  0
  -25.6538    1.8946  -31.6569 H   0  0  0  0  0
  -24.9584   -0.4744  -32.0167 H   0  0  0  0  0
  -25.1423   -2.1890  -33.8430 H   0  0  0  0  0
  -24.9346   -1.4823  -36.1931 H   0  0  0  0  0
  -24.7729    0.9003  -36.8863 H   0  0  0  0  0
  -24.7560    2.6256  -35.0656 H   0  0  0  0  0
  -22.0292    3.5488  -32.1561 H   0  0  0  0  0
  -22.6945    2.5830  -33.5809 H   0  0  0  0  0
  -22.3991   -0.2085  -32.5622 H   0  0  0  0  0
  -20.3675   -1.6261  -32.3453 H   0  0  0  0  0
  -18.0857   -0.6731  -32.1512 H   0  0  0  0  0
  -17.7976    1.8341  -32.1539 H   0  0  0  0  0
  -19.8110    3.2678  -32.3452 H   0  0  0  0  0
  -23.5869    4.2110  -29.4158 H   0  0  0  0  0
  -23.3305    6.3763  -28.9448 H   0  0  0  0  0
  -22.3944    6.7364  -30.3668 H   0  0  0  0  0
  -20.2551    8.5212  -25.9595 H   0  0  0  0  0
  -23.7569    7.4145  -26.9694 H   0  0  0  0  0
  -22.8085    7.7203  -25.4860 H   0  0  0  0  0
  -22.7025    3.2300  -25.5740 H   0  0  0  0  0
  -22.1064    5.0687  -22.9208 H   0  0  0  0  0
  -21.6261    5.5165  -20.5378 H   0  0  0  0  0
  -19.9753    4.1806  -19.3113 H   0  0  0  0  0
  -18.7577    2.3241  -20.3862 H   0  0  0  0  0
  -18.8170    0.4558  -24.6072 H   0  0  0  0  0
  -20.4432    1.7696  -25.8751 H   0  0  0  0  0
  1  2  1  0  0  0
  2  3  1  0  0  0
  3  4  2  0  0  0
  3  5  1  0  0  0
  5  6  4  0  0  0
  6  7  2  0  0  0
  6  8  1  0  0  0
  8  9  1  0  0  0
  9 10  1  0  0  0
 10 11  1  0  0  0
 11 12  1  0  0  0
 12 13  1  0  0  0
 12 30  1  0  0  0
 13 14  2  0  0  0
 13 15  1  0  0  0
 15 16  1  0  0  0
 15 23  1  0  0  0
 16 17  1  0  0  0
 17 18  4  0  0  0
 17 22  4  0  0  0
 18 19  4  0  0  0
 19 20  4  0  0  0
 20 21  4  0  0  0
 21 22  4  0  0  0
 23 24  1  0  0  0
 24 25  4  0  0  0
 24 29  4  0  0  0
 25 26  4  0  0  0
 26 27  4  0  0  0
 27 28  4  0  0  0
 28 29  4  0  0  0
 30 31  1  0  0  0
 31 32  2  0  0  0
 31 33  1  0  0  0
 33 34  1  0  0  0
 34 35  4  0  0  0
 34 38  4  0  0  0
 35 36  4  0  0  0
 36 37  4  0  0  0
 37 38  4  0  0  0
 38 39  1  0  0  0
 39 40  1  0  0  0
 40 41  1  0  0  0
 41 42  2  0  0  0
 42 43  1  0  0  0
 43 44  4  0  0  0
 43 52  4  0  0  0
 44 45  4  0  0  0
 44 49  4  0  0  0
 45 46  4  0  0  0
 46 47  4  0  0  0
 47 48  4  0  0  0
 48 49  4  0  0  0
 49 50  4  0  0  0
 50 51  4  0  0  0
 51 52  4  0  0  0
  1 53  1  0  0  0
  1 54  1  0  0  0
  1 55  1  0  0  0
  2 56  1  0  0  0
  7 57  1  0  0  0
  8 58  1  0  0  0
  9 59  1  0  0  0
  9 60  1  0  0  0
 10 61  1  0  0  0
 10 62  1  0  0  0
 11 63  1  0  0  0
 11 64  1  0  0  0
 12 65  1  0  0  0
 16 66  1  0  0  0
 16 67  1  0  0  0
 18 68  1  0  0  0
 19 69  1  0  0  0
 20 70  1  0  0  0
 21 71  1  0  0  0
 22 72  1  0  0  0
 23 73  1  0  0  0
 23 74  1  0  0  0
 25 75  1  0  0  0
 26 76  1  0  0  0
 27 77  1  0  0  0
 28 78  1  0  0  0
 29 79  1  0  0  0
 30 80  1  0  0  0
 33 81  1  0  0  0
 33 82  1  0  0  0
 37 83  1  0  0  0
 39 84  1  0  0  0
 39 85  1  0  0  0
 42 86  1  0  0  0
 45 87  1  0  0  0
 46 88  1  0  0  0
 47 89  1  0  0  0
 48 90  1  0  0  0
 51 91  1  0  0  0
 52 92  1  0  0  0
M  END
$$$$
