5lkr_ligand
  -I-interpret- 

 55 57  0  0  0  0  0  0  0  0999 V2000
  -39.6510   50.0760  -14.2050 C   0  0  0  0  0
  -39.1140   50.2240  -15.4830 C   0  0  0  0  0
  -38.5020   49.1390  -16.1060 C   0  0  0  0  0
  -37.9520   49.2980  -17.3710 C   0  0  0  0  0
  -38.0260   50.5230  -18.0310 C   0  0  0  0  0
  -38.6420   51.6040  -17.4130 C   0  0  0  0  0
  -39.1830   51.4520  -16.1410 C   0  0  0  0  0
  -39.7940   52.5360  -15.5300 C   0  0  0  0  0
  -40.3320   52.3860  -14.2590 C   0  0  0  0  0
  -40.2730   51.1640  -13.5940 C   0  0  0  0  0
  -40.8480   51.1190  -12.3240 C   0  0  0  0  0
  -40.2330   51.5600  -11.3490 O   0  0  0  0  0
  -42.1200   50.6610  -12.2630 N   0  0  0  0  0
  -42.8620   50.1530  -13.4470 C   0  0  0  0  0
  -43.8960   49.0990  -13.0260 C   0  0  0  0  0
  -43.4850   47.7890  -13.4440 O   0  0  0  0  0
  -42.3880   47.3130  -12.6560 C   0  0  0  0  0
  -42.8590   50.6680  -10.9920 C   0  0  0  0  0
  -43.1800   52.1370  -10.6500 C   0  0  0  0  0
  -44.0030   52.2150   -9.3820 C   0  0  0  0  0
  -43.9540   52.8150  -11.7770 C   0  0  0  0  0
  -44.2460   54.2490  -11.3910 C   0  0  0  0  0
  -45.0580   54.2500  -10.1090 C   0  0  0  0  0
  -44.3070   53.6110   -9.0180 N   0  3  0  0  0
  -43.0800   54.3850   -8.7570 C   0  0  0  0  0
  -42.1490   53.6390   -7.9290 C   0  0  0  0  0
  -41.4330   53.0540   -7.2990 C   0  0  0  0  0
  -39.5852   49.1185  -13.6882 H   0  0  0  0  0
  -38.4552   48.1724  -15.6043 H   0  0  0  0  0
  -37.4568   48.4551  -17.8532 H   0  0  0  0  0
  -37.6019   50.6327  -19.0291 H   0  0  0  0  0
  -38.7009   52.5659  -17.9223 H   0  0  0  0  0
  -39.8514   53.4964  -16.0423 H   0  0  0  0  0
  -40.8081   53.2382  -13.7740 H   0  0  0  0  0
  -42.1537   49.6962  -14.1382 H   0  0  0  0  0
  -43.3802   50.9856  -13.9227 H   0  0  0  0  0
  -44.8508   49.3351  -13.4958 H   0  0  0  0  0
  -43.9874   49.1095  -11.9399 H   0  0  0  0  0
  -41.5432   47.9933  -12.7632 H   0  0  0  0  0
  -42.6878   47.2660  -11.6091 H   0  0  0  0  0
  -42.1011   46.3187  -12.9981 H   0  0  0  0  0
  -42.2613   50.2145  -10.2013 H   0  0  0  0  0
  -43.7776   50.0883  -11.0822 H   0  0  0  0  0
  -42.2295   52.6522  -10.5117 H   0  0  0  0  0
  -43.4305   51.7644   -8.5713 H   0  0  0  0  0
  -44.9434   51.6897   -9.5487 H   0  0  0  0  0
  -44.8911   52.2847  -11.9466 H   0  0  0  0  0
  -43.3594   52.7968  -12.6904 H   0  0  0  0  0
  -44.8071   54.7402  -12.1859 H   0  0  0  0  0
  -43.3119   54.7898  -11.2389 H   0  0  0  0  0
  -45.9802   53.6933  -10.2754 H   0  0  0  0  0
  -45.2757   55.2811   -9.8304 H   0  0  0  0  0
  -44.8631   53.5976   -8.1630 H   0  0  0  0  0
  -43.3533   55.3004   -8.2321 H   0  0  0  0  0
  -42.5982   54.6019   -9.7104 H   0  0  0  0  0
  1  2  4  0  0  0
  1 10  4  0  0  0
  2  3  4  0  0  0
  2  7  4  0  0  0
  3  4  4  0  0  0
  4  5  4  0  0  0
  5  6  4  0  0  0
  6  7  4  0  0  0
  7  8  4  0  0  0
  8  9  4  0  0  0
  9 10  4  0  0  0
 10 11  1  0  0  0
 11 12  2  0  0  0
 11 13  1  0  0  0
 13 14  1  0  0  0
 13 18  1  0  0  0
 14 15  1  0  0  0
 15 16  1  0  0  0
 16 17  1  0  0  0
 18 19  1  0  0  0
 19 20  1  0  0  0
 19 21  1  0  0  0
 20 24  1  0  0  0
 21 22  1  0  0  0
 22 23  1  0  0  0
 23 24  1  0  0  0
 24 25  1  0  0  0
 25 26  1  0  0  0
 26 27  3  0  0  0
  1 28  1  0  0  0
  3 29  1  0  0  0
  4 30  1  0  0  0
  5 31  1  0  0  0
  6 32  1  0  0  0
  8 33  1  0  0  0
  9 34  1  0  0  0
 14 35  1  0  0  0
 14 36  1  0  0  0
 15 37  1  0  0  0
 15 38  1  0  0  0
 17 39  1  0  0  0
 17 40  1  0  0  0
 17 41  1  0  0  0
 18 42  1  0  0  0
 18 43  1  0  0  0
 19 44  1  0  0  0
 20 45  1  0  0  0
 20 46  1  0  0  0
 21 47  1  0  0  0
 21 48  1  0  0  0
 22 49  1  0  0  0
 22 50  1  0  0  0
 23 51  1  0  0  0
 23 52  1  0  0  0
 24 53  1  0  0  0
 25 54  1  0  0  0
 25 55  1  0  0  0
M  END
$$$$
