4eh4_ligand
  -I-interpret- 

 29 30  0  0  0  0  0  0  0  0999 V2000
    2.0420   -0.4240   21.9530 C   0  0  0  0  0
    1.3370    0.7370   22.7150 C   0  0  0  0  0
    2.1730    2.0310   22.7960 C   0  0  0  0  0
    2.5070    2.5040   21.3730 C   0  0  0  0  0
    3.2540    1.4290   20.5250 C   0  0  0  0  0
    2.8790   -0.0170   20.7460 N   0  0  0  0  0
    3.3360   -1.0150   19.8870 C   0  0  0  0  0
    2.9850   -2.1820   20.0790 O   0  0  0  0  0
    4.2060   -0.7650   18.6270 C   0  0  0  0  0
    3.6610   -0.9630   17.3530 C   0  0  0  0  0
    4.4320   -0.7120   16.2050 C   0  0  0  0  0
    5.7540   -0.2840   16.3010 C   0  0  0  0  0
    6.2990   -0.1050   17.5710 C   0  0  0  0  0
    5.5440   -0.3560   18.7280 C   0  0  0  0  0
    1.2488   -1.0680   21.5733 H   0  0  0  0  0
    2.7300   -0.8836   22.6626 H   0  0  0  0  0
    1.1661    0.3973   23.7365 H   0  0  0  0  0
    0.4238    0.9750   22.1696 H   0  0  0  0  0
    3.0952    1.8379   23.3440 H   0  0  0  0  0
    1.6045    2.8028   23.3148 H   0  0  0  0  0
    3.1633    3.3700   21.4592 H   0  0  0  0  0
    1.5657    2.7248   20.8698 H   0  0  0  0  0
    4.3031    1.5071   20.8104 H   0  0  0  0  0
    2.9976    1.6434   19.4875 H   0  0  0  0  0
    2.6339   -1.3135   17.2508 H   0  0  0  0  0
    3.9868   -0.8551   15.2204 H   0  0  0  0  0
    6.3467   -0.0940   15.4062 H   0  0  0  0  0
    7.3298    0.2359   17.6680 H   0  0  0  0  0
    6.0002   -0.2323   19.7102 H   0  0  0  0  0
  1  2  1  0  0  0
  1  6  1  0  0  0
  2  3  1  0  0  0
  3  4  1  0  0  0
  4  5  1  0  0  0
  5  6  1  0  0  0
  6  7  1  0  0  0
  7  8  2  0  0  0
  7  9  1  0  0  0
  9 10  4  0  0  0
  9 14  4  0  0  0
 10 11  4  0  0  0
 11 12  4  0  0  0
 12 13  4  0  0  0
 13 14  4  0  0  0
  1 15  1  0  0  0
  1 16  1  0  0  0
  2 17  1  0  0  0
  2 18  1  0  0  0
  3 19  1  0  0  0
  3 20  1  0  0  0
  4 21  1  0  0  0
  4 22  1  0  0  0
  5 23  1  0  0  0
  5 24  1  0  0  0
 10 25  1  0  0  0
 11 26  1  0  0  0
 12 27  1  0  0  0
 13 28  1  0  0  0
 14 29  1  0  0  0
M  END
$$$$
