### 
### Created by X-TOOL on Mon Sep 10 21:13:14 2018
### 

@<TRIPOS>MOLECULE
3zhz_ligand
   54    56     1     0     0
SMALL
GAST_HUCK


@<TRIPOS>ATOM
      1 F1         20.2010   29.2330  -12.7640 F         1 FM7        -0.2207
      2 C3         20.6640   20.3590  -15.6610 C.3       1 FM7        -0.0022
      3 C30        19.3450   28.2330  -12.8570 C.3       1 FM7         0.3736
      4 F2         18.1380   28.6610  -13.2280 F         1 FM7        -0.2207
      5 F3         19.2700   27.6650  -11.6610 F         1 FM7        -0.2207
      6 C20        19.8040   27.2860  -13.9360 C.ar      1 FM7         0.0371
      7 C21        21.0810   27.3390  -14.5050 C.ar      1 FM7        -0.0422
      8 C22        21.4240   26.4290  -15.5180 C.ar      1 FM7        -0.0404
      9 C23        20.5040   25.4730  -15.9680 C.ar      1 FM7        -0.0097
     10 C19        18.9010   26.3350  -14.3870 C.ar      1 FM7        -0.0102
     11 C18        19.2250   25.4460  -15.4010 C.ar      1 FM7         0.0891
     12 N2         18.3070   24.5250  -15.7920 N.pl3     1 FM7        -0.2655
     13 C13        18.3190   23.9740  -17.0390 C.ar      1 FM7         0.0795
     14 C14        18.7290   24.7240  -18.1470 C.ar      1 FM7        -0.0338
     15 C15        18.7350   24.1480  -19.4200 C.ar      1 FM7        -0.0679
     16 C16        18.2950   22.8340  -19.6020 C.ar      1 FM7        -0.0684
     17 C17        17.8640   22.0980  -18.4960 C.ar      1 FM7        -0.0522
     18 C12        17.8670   22.6680  -17.2140 C.ar      1 FM7         0.0730
     19 C4         17.4280   21.8090  -16.0380 C.2       1 FM7         0.2229
     20 O1         16.2750   21.5770  -15.7980 O.2       1 FM7        -0.3916
     21 N1         18.3300   21.2360  -15.2450 N.am      1 FM7        -0.1517
     22 O2         17.9140   20.4240  -14.1560 O.3       1 FM7        -0.2697
     23 C2         19.7360   21.5550  -15.5300 C.3       1 FM7         0.0654
     24 C1         21.2800   20.2300  -17.0560 C.3       1 FM7         0.0661
     25 PA1        22.5180   18.8790  -17.1690 P.3       1 FM7         0.0732
     26 OP3        23.9160   19.2360  -17.6550 O.co2     1 FM7        -0.5605
     27 OP2        21.9190   18.0100  -18.2410 O.co2     1 FM7        -0.5605
     28 OP1        22.6350   18.1280  -15.8540 O.co2     1 FM7        -0.5605
     29 C6         21.8300   21.4110  -17.7960 C.ar      1 FM7        -0.0229
     30 C11        21.5800   21.5220  -19.1530 C.ar      1 FM7        -0.0580
     31 C10        22.0670   22.5650  -19.8920 C.ar      1 FM7        -0.0541
     32 C9         22.8370   23.5330  -19.2740 C.ar      1 FM7         0.0469
     33 CL2        23.4600   24.8630  -20.2280 Cl        1 FM7        -0.0764
     34 C8         23.1140   23.4590  -17.9040 C.ar      1 FM7         0.0478
     35 CL1        24.1140   24.7420  -17.1830 Cl        1 FM7        -0.0718
     36 C7         22.6040   22.3820  -17.1410 C.ar      1 FM7        -0.0443
     37 H1         20.0908   19.4453  -15.4451 H         1 FM7         0.0324
     38 H2         21.4768   20.4640  -14.9273 H         1 FM7         0.0324
     39 H3         21.7998   28.0765  -14.1667 H         1 FM7         0.0764
     40 H4         22.4141   26.4667  -15.9578 H         1 FM7         0.0671
     41 H5         20.7784   24.7660  -16.7425 H         1 FM7         0.0784
     42 H6         17.9168   26.2852  -13.9354 H         1 FM7         0.0745
     43 H7         17.5782   24.2333  -15.1251 H         1 FM7         0.2108
     44 H8         19.0425   25.7536  -18.0175 H         1 FM7         0.0542
     45 H9         19.0826   24.7231  -20.2706 H         1 FM7         0.0620
     46 H10        18.2883   22.3907  -20.5912 H         1 FM7         0.0526
     47 H11        17.5242   21.0773  -18.6293 H         1 FM7         0.0636
     48 H12        17.4027   19.6937  -14.4842 H         1 FM7         0.2493
     49 H13        19.7713   22.1166  -16.4752 H         1 FM7         0.0552
     50 H14        20.1122   22.1882  -14.7130 H         1 FM7         0.0552
     51 H15        20.4279   19.9062  -17.6717 H         1 FM7         0.0651
     52 H16        20.9823   20.7620  -19.6431 H         1 FM7         0.0559
     53 H17        21.8513   22.6320  -20.9522 H         1 FM7         0.0606
     54 H18        22.8057   22.3086  -16.0785 H         1 FM7         0.0563
@<TRIPOS>BOND
     1    3    1 1  
     2   23    2 1  
     3    2   24 1  
     4    3    4 1  
     5    3    5 1  
     6    6    3 1  
     7    6    7 ar 
     8   10    6 ar 
     9    8    7 ar 
    10    9    8 ar 
    11   11    9 ar 
    12   11   10 ar 
    13   12   11 1  
    14   13   12 1  
    15   13   14 ar 
    16   18   13 ar 
    17   14   15 ar 
    18   16   15 ar 
    19   17   16 ar 
    20   18   17 ar 
    21   19   18 1  
    22   19   20 2  
    23   21   19 am 
    24   21   22 1  
    25   21   23 1  
    26   24   25 1  
    27   24   29 1  
    28   25   26 ar 
    29   25   27 ar 
    30   25   28 ar 
    31   29   30 ar 
    32   29   36 ar 
    33   30   31 ar 
    34   31   32 ar 
    35   32   33 1  
    36   32   34 ar 
    37   34   35 1  
    38   34   36 ar 
    39    2   37 1  
    40    2   38 1  
    41    7   39 1  
    42    8   40 1  
    43    9   41 1  
    44   10   42 1  
    45   12   43 1  
    46   14   44 1  
    47   15   45 1  
    48   16   46 1  
    49   17   47 1  
    50   22   48 1  
    51   23   49 1  
    52   23   50 1  
    53   24   51 1  
    54   30   52 1  
    55   31   53 1  
    56   36   54 1  
@<TRIPOS>SUBSTRUCTURE
     1 FM7         1

