3zhz_ligand
  -I-interpret- 

 56 58  0  0  0  0  0  0  0  0999 V2000
   20.2010   29.2330  -12.7640 F   0  0  0  0  0
   20.6640   20.3590  -15.6610 C   0  0  0  0  0
   19.3450   28.2330  -12.8570 C   0  0  0  0  0
   18.1380   28.6610  -13.2280 F   0  0  0  0  0
   19.2700   27.6650  -11.6610 F   0  0  0  0  0
   19.8040   27.2860  -13.9360 C   0  0  0  0  0
   21.0810   27.3390  -14.5050 C   0  0  0  0  0
   21.4240   26.4290  -15.5180 C   0  0  0  0  0
   20.5040   25.4730  -15.9680 C   0  0  0  0  0
   18.9010   26.3350  -14.3870 C   0  0  0  0  0
   19.2250   25.4460  -15.4010 C   0  0  0  0  0
   18.3070   24.5250  -15.7920 N   0  0  0  0  0
   18.3190   23.9740  -17.0390 C   0  0  0  0  0
   18.7290   24.7240  -18.1470 C   0  0  0  0  0
   18.7350   24.1480  -19.4200 C   0  0  0  0  0
   18.2950   22.8340  -19.6020 C   0  0  0  0  0
   17.8640   22.0980  -18.4960 C   0  0  0  0  0
   17.8670   22.6680  -17.2140 C   0  0  0  0  0
   17.4280   21.8090  -16.0380 C   0  0  0  0  0
   16.2750   21.5770  -15.7980 O   0  0  0  0  0
   18.3300   21.2360  -15.2450 N   0  0  0  0  0
   17.9140   20.4240  -14.1560 O   0  0  0  0  0
   19.7360   21.5550  -15.5300 C   0  0  0  0  0
   21.2800   20.2300  -17.0560 C   0  0  0  0  0
   22.5180   18.8790  -17.1690 P   0  0  0  0  0
   23.9160   19.2360  -17.6550 O   0  0  0  0  0
   21.9190   18.0100  -18.2410 O   0  0  0  0  0
   22.6350   18.1280  -15.8540 O   0  0  0  0  0
   21.8300   21.4110  -17.7960 C   0  0  0  0  0
   21.5800   21.5220  -19.1530 C   0  0  0  0  0
   22.0670   22.5650  -19.8920 C   0  0  0  0  0
   22.8370   23.5330  -19.2740 C   0  0  0  0  0
   23.4600   24.8630  -20.2280 Cl  0  0  0  0  0
   23.1140   23.4590  -17.9040 C   0  0  0  0  0
   24.1140   24.7420  -17.1830 Cl  0  0  0  0  0
   22.6040   22.3820  -17.1410 C   0  0  0  0  0
   20.0762   19.4605  -15.4732 H   0  0  0  0  0
   21.4788   20.4914  -14.9492 H   0  0  0  0  0
   21.8038   28.0806  -14.1648 H   0  0  0  0  0
   22.4195   26.4669  -15.9602 H   0  0  0  0  0
   20.7799   24.7621  -16.7468 H   0  0  0  0  0
   17.9113   26.2849  -13.9330 H   0  0  0  0  0
   17.5853   24.2361  -15.1316 H   0  0  0  0  0
   19.0442   25.7593  -18.0168 H   0  0  0  0  0
   19.0845   24.7263  -20.2753 H   0  0  0  0  0
   18.2883   22.3883  -20.5967 H   0  0  0  0  0
   17.5223   21.0717  -18.6300 H   0  0  0  0  0
   18.6864   20.0925  -13.6921 H   0  0  0  0  0
   19.7496   22.0656  -16.4929 H   0  0  0  0  0
   20.0995   22.1390  -14.6845 H   0  0  0  0  0
   20.3441   20.0298  -17.5776 H   0  0  0  0  0
   24.3471   19.7942  -17.0037 H   0  0  0  0  0
   23.0193   18.7053  -15.1902 H   0  0  0  0  0
   20.9790   20.7578  -19.6458 H   0  0  0  0  0
   21.8501   22.6324  -20.9581 H   0  0  0  0  0
   22.8068   22.3082  -16.0726 H   0  0  0  0  0
  3  1  1  0  0  0
 23  2  1  0  0  0
  2 24  1  0  0  0
  3  4  1  0  0  0
  3  5  1  0  0  0
  6  3  1  0  0  0
  6  7  4  0  0  0
 10  6  4  0  0  0
  8  7  4  0  0  0
  9  8  4  0  0  0
 11  9  4  0  0  0
 11 10  4  0  0  0
 12 11  1  0  0  0
 13 12  1  0  0  0
 13 14  4  0  0  0
 18 13  4  0  0  0
 14 15  4  0  0  0
 16 15  4  0  0  0
 17 16  4  0  0  0
 18 17  4  0  0  0
 19 18  1  0  0  0
 19 20  2  0  0  0
 21 19  1  0  0  0
 21 22  1  0  0  0
 21 23  1  0  0  0
 24 25  1  0  0  0
 24 29  1  0  0  0
 25 26  1  0  0  0
 25 27  2  0  0  0
 25 28  1  0  0  0
 29 30  4  0  0  0
 29 36  4  0  0  0
 30 31  4  0  0  0
 31 32  4  0  0  0
 32 33  1  0  0  0
 32 34  4  0  0  0
 34 35  1  0  0  0
 34 36  4  0  0  0
  2 37  1  0  0  0
  2 38  1  0  0  0
  7 39  1  0  0  0
  8 40  1  0  0  0
  9 41  1  0  0  0
 10 42  1  0  0  0
 12 43  1  0  0  0
 14 44  1  0  0  0
 15 45  1  0  0  0
 16 46  1  0  0  0
 17 47  1  0  0  0
 22 48  1  0  0  0
 23 49  1  0  0  0
 23 50  1  0  0  0
 24 51  1  0  0  0
 26 52  1  0  0  0
 28 53  1  0  0  0
 30 54  1  0  0  0
 31 55  1  0  0  0
 36 56  1  0  0  0
M  END
$$$$
