5mge_ligand
  -I-interpret- 

 26 26  0  0  0  0  0  0  0  0999 V2000
  -30.9930  -11.8920    0.1160 C   0  0  0  0  0
  -30.3260  -10.6490    0.6630 C   0  0  0  0  0
  -29.0790  -10.5030    0.0280 O   0  0  0  0  0
  -28.6350   -9.1840   -0.1150 C   0  0  0  0  0
  -29.3880   -8.3460   -0.5750 O   0  0  0  0  0
  -27.1960   -8.8640    0.2400 C   0  0  0  0  0
  -26.2420  -10.0220    0.3860 C   0  0  0  0  0
  -24.8430   -9.7750    0.7080 N   0  0  0  0  0
  -23.9420  -10.8720    0.8460 C   0  0  0  0  0
  -24.3540   -8.4170    0.8860 C   0  0  0  0  0
  -23.1830   -8.2380    1.1490 O   0  0  0  0  0
  -25.2910   -7.2400    0.7350 C   0  0  0  0  0
  -26.7030   -7.4840    0.4120 C   0  0  0  0  0
  -27.7720   -6.1160    0.2490 Cl  0  0  0  0  0
  -31.1303  -11.7855   -0.9601 H   0  0  0  0  0
  -30.3648  -12.7593    0.3193 H   0  0  0  0  0
  -31.9627  -12.0236    0.5960 H   0  0  0  0  0
  -30.1891  -10.7407    1.7405 H   0  0  0  0  0
  -30.9484   -9.7749    0.4715 H   0  0  0  0  0
  -26.2177  -10.4820   -0.6019 H   0  0  0  0  0
  -26.6233  -10.5841    1.2385 H   0  0  0  0  0
  -24.2875  -11.5258    1.6468 H   0  0  0  0  0
  -23.9048  -11.4299   -0.0897 H   0  0  0  0  0
  -22.9475  -10.4958    1.0860 H   0  0  0  0  0
  -24.9025   -6.6818   -0.1168 H   0  0  0  0  0
  -25.3072   -6.7686    1.7177 H   0  0  0  0  0
  1  2  1  0  0  0
  2  3  1  0  0  0
  3  4  1  0  0  0
  4  5  2  0  0  0
  4  6  1  0  0  0
  6  7  1  0  0  0
  6 13  2  0  0  0
  7  8  1  0  0  0
  8  9  1  0  0  0
  8 10  1  0  0  0
 10 11  2  0  0  0
 10 12  1  0  0  0
 12 13  1  0  0  0
 13 14  1  0  0  0
  1 15  1  0  0  0
  1 16  1  0  0  0
  1 17  1  0  0  0
  2 18  1  0  0  0
  2 19  1  0  0  0
  7 20  1  0  0  0
  7 21  1  0  0  0
  9 22  1  0  0  0
  9 23  1  0  0  0
  9 24  1  0  0  0
 12 25  1  0  0  0
 12 26  1  0  0  0
M  END
$$$$
