### 
### Created by X-TOOL on Mon Sep 10 21:13:32 2018
### 

@<TRIPOS>MOLECULE
5v4b_ligand
  140   144     1     0     0
SMALL
GAST_HUCK


@<TRIPOS>ATOM
      1 N         -58.3620  -37.7330  -18.3100 N.4       1 PRO         0.2646
      2 CA        -59.8240  -37.8930  -18.0310 C.3       1 PRO         0.0850
      3 C         -60.7130  -37.3420  -19.1840 C.2       1 PRO         0.2348
      4 O         -61.5830  -38.0400  -19.6920 O.2       1 PRO        -0.3882
      5 CB        -60.0280  -37.0570  -16.7640 C.2       1 PRO        -0.0271
      6 CG        -58.7190  -37.1140  -16.0580 C.2       1 PRO        -0.0461
      7 CD        -57.8360  -37.9580  -16.9240 C.3       1 PRO        -0.0127
      8 N         -60.4450  -36.1100  -19.6190 N.am      1 GLU        -0.2595
      9 CA        -61.3370  -35.3570  -20.5260 C.3       1 GLU         0.1327
     10 C         -60.8790  -35.3640  -22.0050 C.2       1 GLU         0.2040
     11 O         -59.7050  -35.1040  -22.3030 O.2       1 GLU        -0.3944
     12 CB        -61.5000  -33.9060  -20.0040 C.3       1 GLU        -0.0008
     13 CG        -60.2550  -32.9830  -20.0560 C.3       1 GLU         0.0044
     14 CD        -59.2880  -33.0760  -18.8570 C.2       1 GLU         0.0350
     15 OE1       -59.0600  -32.0380  -18.1770 O.co2     1 GLU        -0.5690
     16 OE2       -58.7270  -34.1770  -18.6110 O.co2     1 GLU        -0.5690
     17 N         -61.8090  -35.6680  -22.9240 N.am      1 VAL        -0.2635
     18 CA        -61.5060  -35.6670  -24.3870 C.3       1 VAL         0.1334
     19 C         -61.9310  -34.3650  -25.0810 C.2       1 VAL         0.2066
     20 O         -62.7640  -33.6200  -24.5710 O.2       1 VAL        -0.3942
     21 CB        -62.1580  -36.8630  -25.1560 C.3       1 VAL        -0.0062
     22 CG1       -61.6840  -38.1930  -24.5870 C.3       1 VAL        -0.0584
     23 CG2       -63.6910  -36.7620  -25.1890 C.3       1 VAL        -0.0584
     24 N         -61.3870  -34.1050  -26.2760 N.am      1 PRO        -0.2498
     25 CA        -61.7540  -32.8500  -26.9330 C.3       1 PRO         0.1340
     26 C         -63.1950  -32.8120  -27.4810 C.2       1 PRO         0.2066
     27 O         -63.9070  -33.8670  -27.5140 O.2       1 PRO        -0.3942
     28 CB        -60.7380  -32.7360  -28.0820 C.3       1 PRO        -0.0104
     29 CG        -59.6730  -33.7590  -27.8080 C.3       1 PRO        -0.0281
     30 CD        -60.3720  -34.8480  -27.0400 C.3       1 PRO         0.0369
     31 N         -63.6380  -31.6050  -27.9100 N.am      1 PRO        -0.2498
     32 CA        -64.9590  -31.5860  -28.5550 C.3       1 PRO         0.1338
     33 C         -64.9780  -32.5530  -29.7560 C.2       1 PRO         0.2042
     34 O         -63.9480  -32.8710  -30.3300 O.2       1 PRO        -0.3944
     35 CB        -65.1730  -30.1140  -28.9280 C.3       1 PRO        -0.0104
     36 CG        -64.2180  -29.3520  -28.0380 C.3       1 PRO        -0.0281
     37 CD        -63.0270  -30.2630  -27.8520 C.3       1 PRO         0.0369
     38 N         -66.1400  -33.1210  -30.0160 N.am      1 TPO        -0.2611
     39 CA        -66.2900  -34.0590  -31.0950 C.3       1 TPO         0.1614
     40 CB        -66.0410  -35.4920  -30.6550 C.3       1 TPO         0.1262
     41 CG2       -67.1630  -36.0470  -29.7500 C.3       1 TPO        -0.0298
     42 OG1       -65.9680  -36.2810  -31.8230 O.3       1 TPO        -0.2685
     43 P         -64.6840  -37.1270  -32.1230 P.3       1 TPO         0.2014
     44 O1P       -64.9920  -37.5400  -33.5580 O.co2     1 TPO        -0.5537
     45 O2P       -64.7540  -38.2950  -31.1780 O.co2     1 TPO        -0.5537
     46 O3P       -63.6120  -36.1260  -31.9280 O.co2     1 TPO        -0.5537
     47 C         -67.6980  -33.8330  -31.5730 C.2       1 TPO         0.2093
     48 O         -68.5640  -33.3960  -30.7910 O.2       1 TPO        -0.3941
     49 N         -67.9470  -34.0930  -32.8720 N.am      1 PRO        -0.2497
     50 CA        -69.3010  -33.8090  -33.3550 C.3       1 PRO         0.1340
     51 C         -70.3190  -34.7120  -32.7050 C.2       1 PRO         0.2066
     52 O         -69.9800  -35.8100  -32.2930 O.2       1 PRO        -0.3942
     53 CB        -69.2170  -34.0770  -34.8640 C.3       1 PRO        -0.0104
     54 CG        -67.7740  -34.0370  -35.1980 C.3       1 PRO        -0.0281
     55 CD        -67.0270  -34.4510  -33.9730 C.3       1 PRO         0.0369
     56 N         -71.5580  -34.2390  -32.5950 N.am      1 PRO        -0.2498
     57 CA        -72.6250  -35.1240  -32.1060 C.3       1 PRO         0.1338
     58 C         -72.8410  -36.3210  -33.0330 C.2       1 PRO         0.2039
     59 O         -72.6500  -36.1960  -34.2750 O.2       1 PRO        -0.3944
     60 CB        -73.8770  -34.2390  -32.1110 C.3       1 PRO        -0.0104
     61 CG        -73.4030  -32.8410  -32.3810 C.3       1 PRO        -0.0281
     62 CD        -72.0490  -32.9180  -33.0120 C.3       1 PRO         0.0369
     63 N         -73.2140  -37.4500  -32.4180 N.am      1 GLY        -0.2664
     64 CA        -73.6420  -38.6640  -33.1170 C.3       1 GLY         0.1201
     65 C         -75.0080  -38.4960  -33.7730 C.2       1 GLY         0.2003
     66 O         -75.6280  -37.4230  -33.6870 O.2       1 GLY        -0.3947
     67 N         -75.4810  -39.5750  -34.4110 N.am      1 SEP        -0.2671
     68 CA        -76.6730  -39.5600  -35.3010 C.3       1 SEP         0.1219
     69 CB        -76.2980  -40.1080  -36.7130 C.3       1 SEP         0.1129
     70 OG        -74.8590  -40.2800  -36.8840 O.3       1 SEP        -0.2720
     71 C         -77.7920  -40.2970  -34.6000 C.2       1 SEP         0.0627
     72 O         -78.5490  -41.0660  -35.2060 O.co2     1 SEP        -0.5665
     73 P         -73.8640  -39.7410  -38.0830 P.3       1 SEP         0.2009
     74 O1P       -73.7890  -40.9480  -39.0080 O.co2     1 SEP        -0.5537
     75 O2P       -72.5330  -39.2210  -37.4480 O.co2     1 SEP        -0.5537
     76 O3P       -74.7100  -38.6740  -38.7380 O.co2     1 SEP        -0.5537
     77 OXT       -78.0030  -40.1660  -33.3880 O.co2     1 SEP        -0.5665
     78 H1        -58.1409  -36.8116  -18.6537 H         1 PRO         0.2059
     79 H2        -58.0229  -38.4245  -18.9603 H         1 PRO         0.2059
     80 H3        -60.0722  -38.9499  -17.8538 H         1 PRO         0.1219
     81 H4        -60.9311  -36.5361  -16.4493 H         1 PRO         0.0528
     82 H5        -58.4586  -36.6418  -15.1119 H         1 PRO         0.0516
     83 H6        -56.7877  -37.6338  -16.8465 H         1 PRO         0.0942
     84 H7        -57.9133  -39.0190  -16.6442 H         1 PRO         0.0942
     85 H8        -59.5977  -35.6735  -19.3163 H         1 GLU         0.1886
     86 H9        -62.3238  -35.8418  -20.4918 H         1 GLU         0.0801
     87 H10       -61.8209  -33.9676  -18.9537 H         1 GLU         0.0330
     88 H11       -62.2901  -33.4276  -20.6014 H         1 GLU         0.0330
     89 H12       -60.6099  -31.9439  -20.1211 H         1 GLU         0.0433
     90 H13       -59.6883  -33.2346  -20.9646 H         1 GLU         0.0433
     91 H14       -62.7325  -35.9022  -22.6202 H         1 VAL         0.1883
     92 H15       -60.4145  -35.7607  -24.4859 H         1 VAL         0.0803
     93 H16       -61.8094  -36.8105  -26.1980 H         1 VAL         0.0343
     94 H17       -62.1546  -39.0178  -25.1422 H         1 VAL         0.0234
     95 H18       -61.9646  -38.2585  -23.5254 H         1 VAL         0.0234
     96 H19       -60.5904  -38.2638  -24.6823 H         1 VAL         0.0234
     97 H20       -63.9853  -35.7877  -25.6062 H         1 VAL         0.0234
     98 H21       -64.0869  -36.8580  -24.1672 H         1 VAL         0.0234
     99 H22       -64.0982  -37.5679  -25.8172 H         1 VAL         0.0234
    100 H23       -61.6315  -32.0148  -26.2277 H         1 PRO         0.0802
    101 H24       -60.3000  -31.7272  -28.1041 H         1 PRO         0.0313
    102 H25       -61.2273  -32.9445  -29.0449 H         1 PRO         0.0313
    103 H26       -58.8614  -33.3218  -27.2079 H         1 PRO         0.0287
    104 H27       -59.2621  -34.1519  -28.7497 H         1 PRO         0.0287
    105 H28       -60.8406  -35.5747  -27.7199 H         1 PRO         0.0524
    106 H29       -59.6744  -35.3706  -26.3690 H         1 PRO         0.0524
    107 H30       -65.7367  -31.9016  -27.8440 H         1 PRO         0.0802
    108 H31       -66.2121  -29.8109  -28.7319 H         1 PRO         0.0313
    109 H32       -64.9352  -29.9436  -29.9884 H         1 PRO         0.0313
    110 H33       -64.6886  -29.1315  -27.0685 H         1 PRO         0.0287
    111 H34       -63.9113  -28.4115  -28.5191 H         1 PRO         0.0287
    112 H35       -62.2920  -30.1258  -28.6588 H         1 PRO         0.0524
    113 H36       -62.5416  -30.0890  -26.8803 H         1 PRO         0.0524
    114 H37       -66.9331  -32.8943  -29.4506 H         1 TPO         0.1884
    115 H38       -65.5800  -33.8198  -31.9004 H         1 TPO         0.0830
    116 H39       -65.0876  -35.5407  -30.1086 H         1 TPO         0.0695
    117 H40       -66.9263  -37.0830  -29.4661 H         1 TPO         0.0260
    118 H41       -68.1182  -36.0254  -30.2951 H         1 TPO         0.0260
    119 H42       -67.2435  -35.4279  -28.8443 H         1 TPO         0.0260
    120 H43       -69.5698  -32.7603  -33.1601 H         1 PRO         0.0802
    121 H44       -69.7616  -33.3013  -35.4223 H         1 PRO         0.0313
    122 H45       -69.6387  -35.0646  -35.1023 H         1 PRO         0.0313
    123 H46       -67.4828  -33.0175  -35.4907 H         1 PRO         0.0287
    124 H47       -67.5586  -34.7312  -36.0236 H         1 PRO         0.0287
    125 H48       -66.8257  -35.5324  -33.9816 H         1 PRO         0.0524
    126 H49       -66.0777  -33.9020  -33.8868 H         1 PRO         0.0524
    127 H50       -72.3969  -35.4811  -31.0909 H         1 PRO         0.0802
    128 H51       -74.3822  -34.2881  -31.1351 H         1 PRO         0.0313
    129 H52       -74.5708  -34.5650  -32.8999 H         1 PRO         0.0313
    130 H53       -73.3419  -32.2800  -31.4368 H         1 PRO         0.0287
    131 H54       -74.1030  -32.3361  -33.0629 H         1 PRO         0.0287
    132 H55       -72.1203  -32.8516  -34.1077 H         1 PRO         0.0524
    133 H56       -71.3936  -32.1176  -32.6380 H         1 PRO         0.0524
    134 H57       -73.1995  -37.4656  -31.4182 H         1 GLY         0.1881
    135 H58       -73.6954  -39.4902  -32.3928 H         1 GLY         0.0763
    136 H59       -72.9023  -38.9052  -33.8946 H         1 GLY         0.0763
    137 H60       -75.0034  -40.4439  -34.2809 H         1 SEP         0.1876
    138 H61       -76.9964  -38.5171  -35.4342 H         1 SEP         0.0753
    139 H62       -76.6611  -39.4008  -37.4733 H         1 SEP         0.0654
    140 H63       -76.7885  -41.0823  -36.8545 H         1 SEP         0.0654
@<TRIPOS>BOND
     1    1    2 1  
     2    1    7 1  
     3    2    3 1  
     4    2    5 1  
     5    3    4 2  
     6    3    8 am 
     7    5    6 2  
     8    6    7 1  
     9    8    9 1  
    10    9   10 1  
    11    9   12 1  
    12   10   11 2  
    13   10   17 am 
    14   12   13 1  
    15   13   14 1  
    16   14   15 ar 
    17   14   16 ar 
    18   17   18 1  
    19   18   19 1  
    20   18   21 1  
    21   19   20 2  
    22   19   24 am 
    23   21   22 1  
    24   21   23 1  
    25   24   25 1  
    26   24   30 1  
    27   25   26 1  
    28   25   28 1  
    29   26   27 2  
    30   26   31 am 
    31   28   29 1  
    32   29   30 1  
    33   31   32 1  
    34   31   37 1  
    35   32   33 1  
    36   32   35 1  
    37   33   34 2  
    38   33   38 am 
    39   35   36 1  
    40   36   37 1  
    41   38   39 1  
    42   39   40 1  
    43   39   47 1  
    44   40   41 1  
    45   40   42 1  
    46   42   43 1  
    47   43   44 ar 
    48   43   45 ar 
    49   43   46 ar 
    50   47   48 2  
    51   47   49 am 
    52   49   50 1  
    53   49   55 1  
    54   50   51 1  
    55   50   53 1  
    56   51   52 2  
    57   51   56 am 
    58   53   54 1  
    59   54   55 1  
    60   56   57 1  
    61   56   62 1  
    62   57   58 1  
    63   57   60 1  
    64   58   59 2  
    65   58   63 am 
    66   60   61 1  
    67   61   62 1  
    68   63   64 1  
    69   64   65 1  
    70   65   66 2  
    71   65   67 am 
    72   67   68 1  
    73   68   69 1  
    74   68   71 1  
    75   69   70 1  
    76   70   73 1  
    77   71   72 ar 
    78   71   77 ar 
    79   73   74 ar 
    80   73   75 ar 
    81   73   76 ar 
    82    1   78 1  
    83    1   79 1  
    84    2   80 1  
    85    5   81 1  
    86    6   82 1  
    87    7   83 1  
    88    7   84 1  
    89    8   85 1  
    90    9   86 1  
    91   12   87 1  
    92   12   88 1  
    93   13   89 1  
    94   13   90 1  
    95   17   91 1  
    96   18   92 1  
    97   21   93 1  
    98   22   94 1  
    99   22   95 1  
   100   22   96 1  
   101   23   97 1  
   102   23   98 1  
   103   23   99 1  
   104   25  100 1  
   105   28  101 1  
   106   28  102 1  
   107   29  103 1  
   108   29  104 1  
   109   30  105 1  
   110   30  106 1  
   111   32  107 1  
   112   35  108 1  
   113   35  109 1  
   114   36  110 1  
   115   36  111 1  
   116   37  112 1  
   117   37  113 1  
   118   38  114 1  
   119   39  115 1  
   120   40  116 1  
   121   41  117 1  
   122   41  118 1  
   123   41  119 1  
   124   50  120 1  
   125   53  121 1  
   126   53  122 1  
   127   54  123 1  
   128   54  124 1  
   129   55  125 1  
   130   55  126 1  
   131   57  127 1  
   132   60  128 1  
   133   60  129 1  
   134   61  130 1  
   135   61  131 1  
   136   62  132 1  
   137   62  133 1  
   138   63  134 1  
   139   64  135 1  
   140   64  136 1  
   141   67  137 1  
   142   68  138 1  
   143   69  139 1  
   144   69  140 1  
@<TRIPOS>SUBSTRUCTURE
     1 PRO         1

