5v4b_ligand
  -I-interpret- 

146150  0  0  0  0  0  0  0  0999 V2000
  -58.3620  -37.7330  -18.3100 N   0  3  0  0  0
  -59.8240  -37.8930  -18.0310 C   0  0  0  0  0
  -60.7130  -37.3420  -19.1840 C   0  0  0  0  0
  -61.5830  -38.0400  -19.6920 O   0  0  0  0  0
  -60.0280  -37.0570  -16.7640 C   0  0  0  0  0
  -58.7190  -37.1140  -16.0580 C   0  0  0  0  0
  -57.8360  -37.9580  -16.9240 C   0  0  0  0  0
  -60.4450  -36.1100  -19.6190 N   0  0  0  0  0
  -61.3370  -35.3570  -20.5260 C   0  0  0  0  0
  -60.8790  -35.3640  -22.0050 C   0  0  0  0  0
  -59.7050  -35.1040  -22.3030 O   0  0  0  0  0
  -61.5000  -33.9060  -20.0040 C   0  0  0  0  0
  -60.2550  -32.9830  -20.0560 C   0  0  0  0  0
  -59.2880  -33.0760  -18.8570 C   0  0  0  0  0
  -59.0600  -32.0380  -18.1770 O   0  0  0  0  0
  -58.7270  -34.1770  -18.6110 O   0  0  0  0  0
  -61.8090  -35.6680  -22.9240 N   0  0  0  0  0
  -61.5060  -35.6670  -24.3870 C   0  0  0  0  0
  -61.9310  -34.3650  -25.0810 C   0  0  0  0  0
  -62.7640  -33.6200  -24.5710 O   0  0  0  0  0
  -62.1580  -36.8630  -25.1560 C   0  0  0  0  0
  -61.6840  -38.1930  -24.5870 C   0  0  0  0  0
  -63.6910  -36.7620  -25.1890 C   0  0  0  0  0
  -61.3870  -34.1050  -26.2760 N   0  0  0  0  0
  -61.7540  -32.8500  -26.9330 C   0  0  0  0  0
  -63.1950  -32.8120  -27.4810 C   0  0  0  0  0
  -63.9070  -33.8670  -27.5140 O   0  0  0  0  0
  -60.7380  -32.7360  -28.0820 C   0  0  0  0  0
  -59.6730  -33.7590  -27.8080 C   0  0  0  0  0
  -60.3720  -34.8480  -27.0400 C   0  0  0  0  0
  -63.6380  -31.6050  -27.9100 N   0  0  0  0  0
  -64.9590  -31.5860  -28.5550 C   0  0  0  0  0
  -64.9780  -32.5530  -29.7560 C   0  0  0  0  0
  -63.9480  -32.8710  -30.3300 O   0  0  0  0  0
  -65.1730  -30.1140  -28.9280 C   0  0  0  0  0
  -64.2180  -29.3520  -28.0380 C   0  0  0  0  0
  -63.0270  -30.2630  -27.8520 C   0  0  0  0  0
  -66.1400  -33.1210  -30.0160 N   0  0  0  0  0
  -66.2900  -34.0590  -31.0950 C   0  0  0  0  0
  -66.0410  -35.4920  -30.6550 C   0  0  0  0  0
  -67.1630  -36.0470  -29.7500 C   0  0  0  0  0
  -65.9680  -36.2810  -31.8230 O   0  0  0  0  0
  -64.6840  -37.1270  -32.1230 P   0  0  0  0  0
  -64.9920  -37.5400  -33.5580 O   0  0  0  0  0
  -64.7540  -38.2950  -31.1780 O   0  0  0  0  0
  -63.6120  -36.1260  -31.9280 O   0  0  0  0  0
  -67.6980  -33.8330  -31.5730 C   0  0  0  0  0
  -68.5640  -33.3960  -30.7910 O   0  0  0  0  0
  -67.9470  -34.0930  -32.8720 N   0  0  0  0  0
  -69.3010  -33.8090  -33.3550 C   0  0  0  0  0
  -70.3190  -34.7120  -32.7050 C   0  0  0  0  0
  -69.9800  -35.8100  -32.2930 O   0  0  0  0  0
  -69.2170  -34.0770  -34.8640 C   0  0  0  0  0
  -67.7740  -34.0370  -35.1980 C   0  0  0  0  0
  -67.0270  -34.4510  -33.9730 C   0  0  0  0  0
  -71.5580  -34.2390  -32.5950 N   0  0  0  0  0
  -72.6250  -35.1240  -32.1060 C   0  0  0  0  0
  -72.8410  -36.3210  -33.0330 C   0  0  0  0  0
  -72.6500  -36.1960  -34.2750 O   0  0  0  0  0
  -73.8770  -34.2390  -32.1110 C   0  0  0  0  0
  -73.4030  -32.8410  -32.3810 C   0  0  0  0  0
  -72.0490  -32.9180  -33.0120 C   0  0  0  0  0
  -73.2140  -37.4500  -32.4180 N   0  0  0  0  0
  -73.6420  -38.6640  -33.1170 C   0  0  0  0  0
  -75.0080  -38.4960  -33.7730 C   0  0  0  0  0
  -75.6280  -37.4230  -33.6870 O   0  0  0  0  0
  -75.4810  -39.5750  -34.4110 N   0  0  0  0  0
  -76.6730  -39.5600  -35.3010 C   0  0  0  0  0
  -76.2980  -40.1080  -36.7130 C   0  0  0  0  0
  -74.8590  -40.2800  -36.8840 O   0  0  0  0  0
  -77.7920  -40.2970  -34.6000 C   0  0  0  0  0
  -78.5490  -41.0660  -35.2060 O   0  0  0  0  0
  -73.8640  -39.7410  -38.0830 P   0  0  0  0  0
  -73.7890  -40.9480  -39.0080 O   0  0  0  0  0
  -72.5330  -39.2210  -37.4480 O   0  0  0  0  0
  -74.7100  -38.6740  -38.7380 O   0  0  0  0  0
  -78.0030  -40.1660  -33.3880 O   0  0  0  0  0
  -58.0984  -36.8427  -18.7321 H   0  0  0  0  0
  -57.9873  -38.3613  -19.0208 H   0  0  0  0  0
  -60.1074  -38.9404  -17.9272 H   0  0  0  0  0
  -60.9319  -36.5356  -16.4490 H   0  0  0  0  0
  -58.4583  -36.6414  -15.1110 H   0  0  0  0  0
  -56.7849  -37.6843  -16.8322 H   0  0  0  0  0
  -57.8619  -39.0097  -16.6387 H   0  0  0  0  0
  -59.5808  -35.6648  -19.3102 H   0  0  0  0  0
  -62.2996  -35.8684  -20.5199 H   0  0  0  0  0
  -61.7515  -34.0005  -18.9476 H   0  0  0  0  0
  -62.2382  -33.4403  -20.6569 H   0  0  0  0  0
  -60.6337  -31.9609  -20.0633 H   0  0  0  0  0
  -59.6842  -33.2906  -20.9322 H   0  0  0  0  0
  -59.5821  -31.3099  -18.5217 H   0  0  0  0  0
  -62.7510  -35.9069  -22.6142 H   0  0  0  0  0
  -60.4215  -35.7671  -24.4301 H   0  0  0  0  0
  -61.8269  -36.8097  -26.1931 H   0  0  0  0  0
  -60.6003  -38.2618  -24.6820 H   0  0  0  0  0
  -61.9626  -38.2567  -23.5351 H   0  0  0  0  0
  -62.1509  -39.0095  -25.1379 H   0  0  0  0  0
  -64.0759  -36.7630  -24.1692 H   0  0  0  0  0
  -63.9823  -35.8376  -25.6878 H   0  0  0  0  0
  -64.0983  -37.6140  -25.7333 H   0  0  0  0  0
  -61.7290  -32.0242  -26.2219 H   0  0  0  0  0
  -60.3140  -31.7331  -28.1316 H   0  0  0  0  0
  -61.2149  -32.9157  -29.0455 H   0  0  0  0  0
  -58.8406  -33.3365  -27.2451 H   0  0  0  0  0
  -59.2261  -34.1351  -28.7283 H   0  0  0  0  0
  -60.8020  -35.6143  -27.6850 H   0  0  0  0  0
  -59.6966  -35.4208  -26.4046 H   0  0  0  0  0
  -65.7728  -31.9346  -27.9192 H   0  0  0  0  0
  -66.2065  -29.8019  -28.7781 H   0  0  0  0  0
  -64.9802  -29.9294  -29.9848 H   0  0  0  0  0
  -64.6786  -29.0964  -27.0838 H   0  0  0  0  0
  -63.9279  -28.4010  -28.4846 H   0  0  0  0  0
  -62.2536  -30.1134  -28.6054 H   0  0  0  0  0
  -62.4899  -30.0786  -26.9216 H   0  0  0  0  0
  -66.9489  -32.8898  -29.4393 H   0  0  0  0  0
  -65.5574  -33.9051  -31.8873 H   0  0  0  0  0
  -65.1205  -35.5191  -30.0719 H   0  0  0  0  0
  -67.2418  -35.4327  -28.8530 H   0  0  0  0  0
  -68.1089  -36.0250  -30.2912 H   0  0  0  0  0
  -66.9273  -37.0735  -29.4694 H   0  0  0  0  0
  -65.6995  -38.1889  -33.5582 H   0  0  0  0  0
  -65.4921  -38.8584  -31.4215 H   0  0  0  0  0
  -69.6199  -32.7932  -33.1213 H   0  0  0  0  0
  -69.7774  -33.3342  -35.4317 H   0  0  0  0  0
  -69.6585  -35.0396  -35.1222 H   0  0  0  0  0
  -67.4788  -33.0345  -35.5077 H   0  0  0  0  0
  -67.5529  -34.7079  -36.0281 H   0  0  0  0  0
  -66.7716  -35.5107  -33.9769 H   0  0  0  0  0
  -66.0590  -33.9574  -33.8865 H   0  0  0  0  0
  -72.3838  -35.5364  -31.1263 H   0  0  0  0  0
  -74.4026  -34.2977  -31.1579 H   0  0  0  0  0
  -74.5858  -34.5666  -32.8715 H   0  0  0  0  0
  -73.3499  -32.2777  -31.4494 H   0  0  0  0  0
  -74.0985  -32.3328  -33.0489 H   0  0  0  0  0
  -72.0834  -32.8053  -34.0956 H   0  0  0  0  0
  -71.3921  -32.1070  -32.6975 H   0  0  0  0  0
  -73.1992  -37.4659  -31.3982 H   0  0  0  0  0
  -73.7121  -39.4702  -32.3868 H   0  0  0  0  0
  -72.9138  -38.8813  -33.8984 H   0  0  0  0  0
  -74.9939  -40.4613  -34.2783 H   0  0  0  0  0
  -77.0326  -38.5482  -35.4880 H   0  0  0  0  0
  -76.6401  -39.3862  -37.4547 H   0  0  0  0  0
  -76.7688  -41.0841  -36.8299 H   0  0  0  0  0
  -78.2997  -41.0944  -36.1326 H   0  0  0  0  0
  -73.2527  -41.6308  -38.5984 H   0  0  0  0  0
  -72.0580  -39.9572  -37.0556 H   0  0  0  0  0
  1  2  1  0  0  0
  1  7  1  0  0  0
  2  3  1  0  0  0
  2  5  1  0  0  0
  3  4  2  0  0  0
  3  8  1  0  0  0
  5  6  2  0  0  0
  6  7  1  0  0  0
  8  9  1  0  0  0
  9 10  1  0  0  0
  9 12  1  0  0  0
 10 11  2  0  0  0
 10 17  1  0  0  0
 12 13  1  0  0  0
 13 14  1  0  0  0
 14 15  1  0  0  0
 14 16  2  0  0  0
 17 18  1  0  0  0
 18 19  1  0  0  0
 18 21  1  0  0  0
 19 20  2  0  0  0
 19 24  1  0  0  0
 21 22  1  0  0  0
 21 23  1  0  0  0
 24 25  1  0  0  0
 24 30  1  0  0  0
 25 26  1  0  0  0
 25 28  1  0  0  0
 26 27  2  0  0  0
 26 31  1  0  0  0
 28 29  1  0  0  0
 29 30  1  0  0  0
 31 32  1  0  0  0
 31 37  1  0  0  0
 32 33  1  0  0  0
 32 35  1  0  0  0
 33 34  2  0  0  0
 33 38  1  0  0  0
 35 36  1  0  0  0
 36 37  1  0  0  0
 38 39  1  0  0  0
 39 40  1  0  0  0
 39 47  1  0  0  0
 40 41  1  0  0  0
 40 42  1  0  0  0
 42 43  1  0  0  0
 43 44  1  0  0  0
 43 45  1  0  0  0
 43 46  2  0  0  0
 47 48  2  0  0  0
 47 49  1  0  0  0
 49 50  1  0  0  0
 49 55  1  0  0  0
 50 51  1  0  0  0
 50 53  1  0  0  0
 51 52  2  0  0  0
 51 56  1  0  0  0
 53 54  1  0  0  0
 54 55  1  0  0  0
 56 57  1  0  0  0
 56 62  1  0  0  0
 57 58  1  0  0  0
 57 60  1  0  0  0
 58 59  2  0  0  0
 58 63  1  0  0  0
 60 61  1  0  0  0
 61 62  1  0  0  0
 63 64  1  0  0  0
 64 65  1  0  0  0
 65 66  2  0  0  0
 65 67  1  0  0  0
 67 68  1  0  0  0
 68 69  1  0  0  0
 68 71  1  0  0  0
 69 70  1  0  0  0
 70 73  1  0  0  0
 71 72  1  0  0  0
 71 77  2  0  0  0
 73 74  1  0  0  0
 73 75  1  0  0  0
 73 76  2  0  0  0
  1 78  1  0  0  0
  1 79  1  0  0  0
  2 80  1  0  0  0
  5 81  1  0  0  0
  6 82  1  0  0  0
  7 83  1  0  0  0
  7 84  1  0  0  0
  8 85  1  0  0  0
  9 86  1  0  0  0
 12 87  1  0  0  0
 12 88  1  0  0  0
 13 89  1  0  0  0
 13 90  1  0  0  0
 15 91  1  0  0  0
 17 92  1  0  0  0
 18 93  1  0  0  0
 21 94  1  0  0  0
 22 95  1  0  0  0
 22 96  1  0  0  0
 22 97  1  0  0  0
 23 98  1  0  0  0
 23 99  1  0  0  0
 23100  1  0  0  0
 25101  1  0  0  0
 28102  1  0  0  0
 28103  1  0  0  0
 29104  1  0  0  0
 29105  1  0  0  0
 30106  1  0  0  0
 30107  1  0  0  0
 32108  1  0  0  0
 35109  1  0  0  0
 35110  1  0  0  0
 36111  1  0  0  0
 36112  1  0  0  0
 37113  1  0  0  0
 37114  1  0  0  0
 38115  1  0  0  0
 39116  1  0  0  0
 40117  1  0  0  0
 41118  1  0  0  0
 41119  1  0  0  0
 41120  1  0  0  0
 44121  1  0  0  0
 45122  1  0  0  0
 50123  1  0  0  0
 53124  1  0  0  0
 53125  1  0  0  0
 54126  1  0  0  0
 54127  1  0  0  0
 55128  1  0  0  0
 55129  1  0  0  0
 57130  1  0  0  0
 60131  1  0  0  0
 60132  1  0  0  0
 61133  1  0  0  0
 61134  1  0  0  0
 62135  1  0  0  0
 62136  1  0  0  0
 63137  1  0  0  0
 64138  1  0  0  0
 64139  1  0  0  0
 67140  1  0  0  0
 68141  1  0  0  0
 69142  1  0  0  0
 69143  1  0  0  0
 72144  1  0  0  0
 74145  1  0  0  0
 75146  1  0  0  0
M  END
$$$$
