### 
### Created by X-TOOL on Mon Sep 10 21:13:32 2018
### 

@<TRIPOS>MOLECULE
5v2p_ligand
  304   309     1     0     0
SMALL
GAST_HUCK


@<TRIPOS>ATOM
      1 N          35.8560   -9.0880  142.9500 N.4       1 CYS         0.2385
      2 CA         35.2580   -8.5240  144.1950 C.3       1 CYS         0.0743
      3 C          33.8260   -8.0590  143.9490 C.2       1 CYS         0.2276
      4 O          33.3720   -8.0030  142.8080 O.2       1 CYS        -0.3907
      5 CB         36.1000   -7.3570  144.6880 C.3       1 CYS         0.0561
      6 SG         36.2700   -6.0600  143.4470 S.3       1 CYS        -0.1390
      7 N          33.1230   -7.7030  145.0190 N.am      1 SER        -0.2588
      8 CA         31.7030   -7.3850  144.9200 C.3       1 SER         0.1542
      9 C          31.4440   -6.0580  144.2140 C.2       1 SER         0.2087
     10 O          32.2890   -5.1660  144.2270 O.2       1 SER        -0.3941
     11 CB         31.0510   -7.3480  146.3060 C.3       1 SER         0.0843
     12 OG         31.3460   -6.1450  146.9930 O.3       1 SER        -0.3903
     13 N          30.2600   -5.9310  143.5940 N.am      1 PRO        -0.2498
     14 CA         29.7590   -4.6530  143.0780 C.3       1 PRO         0.1338
     15 C          29.7390   -3.5170  144.1120 C.2       1 PRO         0.2041
     16 O          29.9020   -2.3530  143.7500 O.2       1 PRO        -0.3944
     17 CB         28.3280   -4.9920  142.6510 C.3       1 PRO        -0.0104
     18 CG         28.3820   -6.4370  142.2880 C.3       1 PRO        -0.0281
     19 CD         29.4150   -7.0670  143.1730 C.3       1 PRO         0.0369
     20 N          29.5290   -3.8470  145.3800 N.am      1 LEU        -0.2637
     21 CA         29.4220   -2.8270  146.4170 C.3       1 LEU         0.1312
     22 C          30.7780   -2.1940  146.7420 C.2       1 LEU         0.2039
     23 O          30.8680   -0.9820  146.8920 O.2       1 LEU        -0.3944
     24 CB         28.7610   -3.4100  147.6700 C.3       1 LEU        -0.0101
     25 CG         27.2320   -3.6480  147.6560 C.3       1 LEU        -0.0425
     26 CD1        26.5450   -2.7040  148.6250 C.3       1 LEU        -0.0625
     27 CD2        26.5580   -3.5620  146.2840 C.3       1 LEU        -0.0625
     28 N          31.8310   -3.0020  146.8320 N.am      1 GLU        -0.2636
     29 CA         33.1860   -2.4820  147.0860 C.3       1 GLU         0.1325
     30 C          33.6710   -1.6040  145.9350 C.2       1 GLU         0.2040
     31 O          34.3840   -0.6240  146.1330 O.2       1 GLU        -0.3944
     32 CB         34.1760   -3.6300  147.2860 C.3       1 GLU        -0.0008
     33 CG         33.9110   -4.4640  148.5350 C.3       1 GLU         0.0044
     34 CD         34.2850   -5.9290  148.3660 C.2       1 GLU         0.0350
     35 OE1        33.9320   -6.5260  147.3200 O.co2     1 GLU        -0.5690
     36 OE2        34.9220   -6.4920  149.2860 O.co2     1 GLU        -0.5690
     37 N          33.2880   -1.9920  144.7270 N.am      1 CYS        -0.2629
     38 CA         33.6120   -1.2570  143.5240 C.3       1 CYS         0.1400
     39 C          32.9210    0.1210  143.5210 C.2       1 CYS         0.2048
     40 O          33.6000    1.1500  143.4320 O.2       1 CYS        -0.3944
     41 CB         33.2010   -2.1020  142.3200 C.3       1 CYS         0.0361
     42 SG         33.5580   -1.3890  140.7120 S.3       1 CYS        -0.1424
     43 N          31.5910    0.1460  143.6610 N.am      1 ASP        -0.2621
     44 CA         30.8600    1.4170  143.7720 C.3       1 ASP         0.1423
     45 C          31.5150    2.3250  144.8120 C.2       1 ASP         0.2056
     46 O          31.7710    3.5110  144.5600 O.2       1 ASP        -0.3943
     47 CB         29.4000    1.2010  144.1950 C.3       1 ASP         0.0406
     48 CG         28.5350    0.6330  143.0960 C.2       1 ASP         0.0393
     49 OD1        29.0520    0.2580  142.0300 O.co2     1 ASP        -0.5688
     50 OD2        27.3150    0.5460  143.3210 O.co2     1 ASP        -0.5688
     51 N          31.7810    1.7500  145.9820 N.am      1 LEU        -0.2636
     52 CA         32.3120    2.4990  147.1140 C.3       1 LEU         0.1312
     53 C          33.5930    3.2320  146.7520 C.2       1 LEU         0.2039
     54 O          33.7820    4.3890  147.1410 O.2       1 LEU        -0.3944
     55 CB         32.5810    1.5600  148.2990 C.3       1 LEU        -0.0101
     56 CG         33.0300    2.2200  149.6050 C.3       1 LEU        -0.0425
     57 CD1        31.9680    3.1920  150.0940 C.3       1 LEU        -0.0625
     58 CD2        33.3450    1.1770  150.6660 C.3       1 LEU        -0.0625
     59 N          34.4780    2.5470  146.0230 N.am      1 LYS        -0.2637
     60 CA         35.7780    3.1150  145.7060 C.3       1 LYS         0.1310
     61 C          35.6040    4.2030  144.6510 C.2       1 LYS         0.2037
     62 O          36.2500    5.2320  144.7260 O.2       1 LYS        -0.3944
     63 CB         36.7790    2.0400  145.2530 C.3       1 LYS        -0.0122
     64 CG         38.0360    1.9790  146.1190 C.3       1 LYS        -0.0440
     65 CD         38.8290    3.2880  146.1130 C.3       1 LYS        -0.0124
     66 CE         39.8800    3.3190  147.2170 C.3       1 LYS        -0.0354
     67 NZ         40.2410    4.7260  147.5790 N.4       1 LYS         0.2185
     68 N          34.7180    3.9690  143.6860 N.am      1 GLY        -0.2664
     69 CA         34.2900    5.0000  142.7470 C.3       1 GLY         0.1201
     70 C          33.9110    6.2980  143.4430 C.2       1 GLY         0.2009
     71 O          34.4300    7.3620  143.1010 O.2       1 GLY        -0.3947
     72 N          33.0310    6.2050  144.4380 N.am      1 TYR        -0.2624
     73 CA         32.5380    7.3790  145.1790 C.3       1 TYR         0.1390
     74 C          33.5450    7.9490  146.1770 C.2       1 TYR         0.2057
     75 O          33.5170    9.1330  146.4790 O.2       1 TYR        -0.3942
     76 CB         31.2310    7.0530  145.9310 C.3       1 TYR         0.0163
     77 CG         30.0370    6.8010  145.0410 C.ar      1 TYR        -0.0493
     78 CD1        29.5670    7.7880  144.1770 C.ar      1 TYR        -0.0685
     79 CD2        29.3600    5.5750  145.0710 C.ar      1 TYR        -0.0685
     80 CE1        28.4830    7.5530  143.3570 C.ar      1 TYR        -0.0398
     81 CE2        28.2650    5.3360  144.2520 C.ar      1 TYR        -0.0398
     82 CZ         27.8280    6.3270  143.4040 C.ar      1 TYR         0.0805
     83 OH         26.7490    6.0920  142.5910 O.3       1 TYR        -0.3376
     84 N          34.4120    7.1080  146.7240 N.am      1 LEU        -0.2636
     85 CA         35.4950    7.6180  147.5580 C.3       1 LEU         0.1312
     86 C          36.4480    8.4690  146.7180 C.2       1 LEU         0.2040
     87 O          36.8870    9.5080  147.1800 O.2       1 LEU        -0.3944
     88 CB         36.2550    6.4790  148.2550 C.3       1 LEU        -0.0101
     89 CG         35.6230    5.8570  149.5100 C.3       1 LEU        -0.0425
     90 CD1        36.3210    4.5470  149.8510 C.3       1 LEU        -0.0625
     91 CD2        35.7030    6.8220  150.6820 C.3       1 LEU        -0.0625
     92 N          36.7620    8.0310  145.4980 N.am      1 ASP        -0.2622
     93 CA         37.5930    8.8100  144.5730 C.3       1 ASP         0.1423
     94 C          36.8980   10.1120  144.1400 C.2       1 ASP         0.2057
     95 O          37.5390   11.1670  144.0070 O.2       1 ASP        -0.3943
     96 CB         37.9060    8.0030  143.3140 C.3       1 ASP         0.0406
     97 CG         39.0470    7.0460  143.4960 C.2       1 ASP         0.0393
     98 OD1        39.8830    7.2760  144.4060 O.co2     1 ASP        -0.5688
     99 OD2        39.1240    6.0790  142.7050 O.co2     1 ASP        -0.5688
    100 N          35.5960   10.0110  143.8730 N.am      1 TRP        -0.2626
    101 CA         34.7640   11.1690  143.5490 C.3       1 TRP         0.1352
    102 C          34.9340   12.2280  144.6430 C.2       1 TRP         0.2052
    103 O          35.1940   13.3970  144.3610 O.2       1 TRP        -0.3942
    104 CB         33.3150   10.7010  143.4280 C.3       1 TRP         0.0042
    105 CG         32.2490   11.7050  143.0070 C.2       1 TRP        -0.0418
    106 CD1        32.1680   13.0280  143.3280 C.2       1 TRP         0.0167
    107 CD2        31.0660   11.4060  142.2580 C.ar      1 TRP        -0.0214
    108 NE1        31.0300   13.5720  142.7990 N.pl3     1 TRP        -0.2890
    109 CE2        30.3300   12.5960  142.1440 C.ar      1 TRP         0.0603
    110 CE3        30.5690   10.2440  141.6570 C.ar      1 TRP        -0.0747
    111 CZ2        29.1210   12.6640  141.4550 C.ar      1 TRP        -0.0443
    112 CZ3        29.3680   10.3040  140.9790 C.ar      1 TRP        -0.0792
    113 CH2        28.6530   11.5120  140.8810 C.ar      1 TRP        -0.0768
    114 N          34.8240   11.7890  145.8930 N.am      1 ILE        -0.2634
    115 CA         34.8830   12.6890  147.0450 C.3       1 ILE         0.1335
    116 C          36.2640   13.3070  147.2220 C.2       1 ILE         0.2042
    117 O          36.3740   14.4810  147.5650 O.2       1 ILE        -0.3944
    118 CB         34.4260   11.9710  148.3270 C.3       1 ILE        -0.0037
    119 CG1        32.9190   11.7960  148.2920 C.3       1 ILE        -0.0491
    120 CG2        34.7970   12.7640  149.5680 C.3       1 ILE        -0.0582
    121 CD1        32.3940   10.8450  149.3360 C.3       1 ILE        -0.0648
    122 N          37.3170   12.5370  146.9680 N.am      1 THR        -0.2613
    123 CA         38.6810   13.0720  147.0860 C.3       1 THR         0.1565
    124 C          38.9240   14.2390  146.1240 C.2       1 THR         0.2065
    125 O          39.6840   15.1570  146.4450 O.2       1 THR        -0.3943
    126 CB         39.7630   11.9920  146.8810 C.3       1 THR         0.0924
    127 OG1        39.6310   11.4130  145.5820 O.3       1 THR        -0.3874
    128 CG2        39.6420   10.9060  147.9110 C.3       1 THR        -0.0346
    129 N          38.2590   14.2370  144.9710 N.am      1 GLN        -0.2635
    130 CA         38.4310   15.3310  144.0160 C.3       1 GLN         0.1330
    131 C          37.9210   16.6710  144.5140 C.2       1 GLN         0.2040
    132 O          38.3840   17.7130  144.0580 O.2       1 GLN        -0.3944
    133 CB         37.7790   15.0110  142.6730 C.3       1 GLN         0.0045
    134 CG         38.5210   13.9610  141.8760 C.3       1 GLN         0.0412
    135 CD         39.9890   14.3030  141.6490 C.2       1 GLN         0.1737
    136 OE1        40.3920   15.4700  141.7110 O.2       1 GLN        -0.3973
    137 NE2        40.8000   13.2780  141.3850 N.am      1 GLN        -0.3009
    138 N          36.9710   16.6380  145.4400 N.am      1 ALA        -0.2640
    139 CA         36.4420   17.8400  146.0430 C.3       1 ALA         0.1282
    140 C          37.3170   18.3660  147.1760 C.2       1 ALA         0.2031
    141 O          37.1530   19.5050  147.5870 O.2       1 ALA        -0.3944
    142 CB         35.0350   17.5740  146.5530 C.3       1 ALA        -0.0244
    143 N          38.2350   17.5440  147.6830 N.am      1 GLU        -0.2698
    144 CA         39.0660   17.9100  148.8370 C.3       1 GLU         0.0916
    145 C          39.9820   19.0940  148.5480 C.2       1 GLU         0.0598
    146 O          40.5080   19.2300  147.4460 O.co2     1 GLU        -0.5666
    147 CB         39.9180   16.7190  149.2850 C.3       1 GLU        -0.0300
    148 OXT        40.2140   19.9370  149.4110 O.co2     1 GLU        -0.5666
    149 C1         37.1200   -4.8340  141.2960 C.ar      1 8VY        -0.0400
    150 C2         36.5350   -3.5780  141.4150 C.ar      1 8VY        -0.0576
    151 C3         35.9760   -2.9630  140.3000 C.ar      1 8VY        -0.0400
    152 C4         36.0000   -3.6010  139.0660 C.ar      1 8VY        -0.0665
    153 C5         36.5820   -4.8580  138.9450 C.ar      1 8VY        -0.0752
    154 C6         37.1430   -5.4740  140.0590 C.ar      1 8VY        -0.0665
    155 C1'        37.7210   -5.5060  142.5070 C.3       1 8VY         0.0262
    156 C3'        35.3380   -1.6030  140.4220 C.3       1 8VY         0.0260
    157 H1         36.8001   -9.3878  143.1367 H         1 CYS         0.2015
    158 H2         35.8638   -8.3815  142.2311 H         1 CYS         0.2015
    159 H3         35.3082   -9.8757  142.6411 H         1 CYS         0.2015
    160 H4         35.2469   -9.3073  144.9672 H         1 CYS         0.1107
    161 H5         37.1015   -7.7294  144.9493 H         1 CYS         0.0460
    162 H6         35.6227   -6.9299  145.5823 H         1 CYS         0.0460
    163 H7         33.5762   -7.6522  145.9090 H         1 SER         0.1885
    164 H8         31.2234   -8.1819  144.3327 H         1 SER         0.0823
    165 H9         31.4239   -8.1969  146.8979 H         1 SER         0.0606
    166 H10        29.9606   -7.4333  146.1892 H         1 SER         0.0606
    167 H11        32.2864   -6.0666  147.1026 H         1 SER         0.2097
    168 H12        30.3616   -4.3334  142.2150 H         1 PRO         0.0802
    169 H13        28.0257   -4.3843  141.7854 H         1 PRO         0.0313
    170 H14        27.6245   -4.8250  143.4799 H         1 PRO         0.0313
    171 H15        28.6672   -6.5519  141.2318 H         1 PRO         0.0287
    172 H16        27.4017   -6.9067  142.4563 H         1 PRO         0.0287
    173 H17        28.9444   -7.5486  144.0428 H         1 PRO         0.0524
    174 H18        30.0060   -7.8101  142.6176 H         1 PRO         0.0524
    175 H19        29.4426   -4.8117  145.6289 H         1 LEU         0.1883
    176 H20        28.7693   -2.0289  146.0338 H         1 LEU         0.0800
    177 H21        28.9746   -2.7208  148.5003 H         1 LEU         0.0315
    178 H22        29.2388   -4.3810  147.8672 H         1 LEU         0.0315
    179 H23        27.0727   -4.6738  148.0198 H         1 LEU         0.0298
    180 H24        25.4600   -2.8838  148.6050 H         1 LEU         0.0232
    181 H25        26.7498   -1.6640  148.3311 H         1 LEU         0.0232
    182 H26        26.9271   -2.8799  149.6414 H         1 LEU         0.0232
    183 H27        27.0595   -4.2479  145.5855 H         1 LEU         0.0232
    184 H28        26.6315   -2.5326  145.9032 H         1 LEU         0.0232
    185 H29        25.4988   -3.8437  146.3775 H         1 LEU         0.0232
    186 H30        31.6995   -3.9875  146.7245 H         1 GLU         0.1883
    187 H31        33.1570   -1.8753  148.0031 H         1 GLU         0.0801
    188 H32        35.1880   -3.2055  147.3613 H         1 GLU         0.0330
    189 H33        34.1204   -4.2920  146.4093 H         1 GLU         0.0330
    190 H34        32.8396   -4.4020  148.7763 H         1 GLU         0.0433
    191 H35        34.4988   -4.0465  149.3658 H         1 GLU         0.0433
    192 H36        32.7505   -2.8311  144.6434 H         1 CYS         0.1884
    193 H37        34.6995   -1.0960  143.4868 H         1 CYS         0.0808
    194 H38        32.1160   -2.2724  142.3810 H         1 CYS         0.0426
    195 H39        33.7278   -3.0653  142.3872 H         1 CYS         0.0426
    196 H40        31.0844   -0.7157  143.6907 H         1 ASP         0.1884
    197 H41        30.8788    1.9157  142.7918 H         1 ASP         0.0819
    198 H42        28.9797    2.1694  144.5042 H         1 ASP         0.0478
    199 H43        29.3831    0.5052  145.0468 H         1 ASP         0.0478
    200 H44        31.6108    0.7703  146.0883 H         1 LEU         0.1883
    201 H45        31.5601    3.2424  147.4173 H         1 LEU         0.0800
    202 H46        33.3672    0.8537  147.9940 H         1 LEU         0.0315
    203 H47        31.6522    1.0080  148.5056 H         1 LEU         0.0315
    204 H48        33.9497    2.7888  149.4036 H         1 LEU         0.0298
    205 H49        32.3025    3.6590  151.0321 H         1 LEU         0.0232
    206 H50        31.0273    2.6495  150.2696 H         1 LEU         0.0232
    207 H51        31.8059    3.9707  149.3342 H         1 LEU         0.0232
    208 H52        34.1144    0.4886  150.2864 H         1 LEU         0.0232
    209 H53        32.4329    0.6110  150.9060 H         1 LEU         0.0232
    210 H54        33.7156    1.6769  151.5730 H         1 LEU         0.0232
    211 H55        34.2437    1.6331  145.6915 H         1 LYS         0.1883
    212 H56        36.1796    3.5815  146.6176 H         1 LYS         0.0800
    213 H57        37.0792    2.2572  144.2173 H         1 LYS         0.0312
    214 H58        36.2804    1.0603  145.2925 H         1 LYS         0.0312
    215 H59        38.6840    1.1747  145.7406 H         1 LYS         0.0269
    216 H60        37.7385    1.7540  147.1538 H         1 LYS         0.0269
    217 H61        38.1328    4.1267  146.2608 H         1 LYS         0.0317
    218 H62        39.3313    3.3954  145.1403 H         1 LYS         0.0317
    219 H63        40.7823    2.7951  146.8687 H         1 LYS         0.0813
    220 H64        39.4811    2.8103  148.1070 H         1 LYS         0.0813
    221 H65        40.9358    4.7173  148.3092 H         1 LYS         0.1994
    222 H66        39.4190    5.2110  147.9032 H         1 LYS         0.1994
    223 H67        40.6113    5.1970  146.7684 H         1 LYS         0.1994
    224 H68        34.3307    3.0509  143.6013 H         1 GLY         0.1881
    225 H69        33.4165    4.6299  142.1902 H         1 GLY         0.0763
    226 H70        35.1129    5.2026  142.0458 H         1 GLY         0.0763
    227 H71        32.6904    5.3000  144.6930 H         1 TYR         0.1885
    228 H72        32.3220    8.1631  144.4384 H         1 TYR         0.0821
    229 H73        30.9941    7.9012  146.5900 H         1 TYR         0.0453
    230 H74        31.4011    6.1524  146.5392 H         1 TYR         0.0453
    231 H75        30.0597    8.7532  144.1489 H         1 TYR         0.0530
    232 H76        29.6978    4.7978  145.7469 H         1 TYR         0.0530
    233 H77        28.1416    8.3240  142.6758 H         1 TYR         0.0525
    234 H78        27.7592    4.3777  144.2804 H         1 TYR         0.0525
    235 H79        26.5722    6.8662  142.0696 H         1 TYR         0.2458
    236 H80        34.3236    6.1247  146.5650 H         1 LEU         0.1883
    237 H81        35.0548    8.2588  148.3362 H         1 LEU         0.0800
    238 H82        37.2408    6.8718  148.5448 H         1 LEU         0.0315
    239 H83        36.3838    5.6721  147.5186 H         1 LEU         0.0315
    240 H84        34.5635    5.6469  149.3021 H         1 LEU         0.0298
    241 H85        35.8617    4.1100  150.7500 H         1 LEU         0.0232
    242 H86        37.3876    4.7382  150.0402 H         1 LEU         0.0232
    243 H87        36.2178    3.8465  149.0092 H         1 LEU         0.0232
    244 H88        35.1947    7.7614  150.4188 H         1 LEU         0.0232
    245 H89        36.7579    7.0288  150.9153 H         1 LEU         0.0232
    246 H90        35.2143    6.3741  151.5598 H         1 LEU         0.0232
    247 H91        36.4186    7.1393  145.2030 H         1 ASP         0.1884
    248 H92        38.5349    9.0615  145.0824 H         1 ASP         0.0819
    249 H93        38.1618    8.7025  142.5045 H         1 ASP         0.0478
    250 H94        37.0099    7.4298  143.0339 H         1 ASP         0.0478
    251 H95        35.1708    9.1062  143.8952 H         1 TRP         0.1884
    252 H96        35.0842   11.5961  142.5872 H         1 TRP         0.0815
    253 H97        33.0189   10.3098  144.4125 H         1 TRP         0.0397
    254 H98        33.2998    9.8857  142.6898 H         1 TRP         0.0397
    255 H99        32.9027   13.5723  143.9196 H         1 TRP         0.0795
    256 H100       30.7456   14.5586  142.8807 H         1 TRP         0.2216
    257 H101       31.1183    9.3118  141.7228 H         1 TRP         0.0540
    258 H102       28.5709   13.5947  141.3761 H         1 TRP         0.0541
    259 H103       28.9703    9.4083  140.5158 H         1 TRP         0.0510
    260 H104       27.7135   11.5311  140.3406 H         1 TRP         0.0530
    261 H105       34.6965   10.8099  146.0513 H         1 ILE         0.1883
    262 H106       34.1778   13.5117  146.8558 H         1 ILE         0.0803
    263 H107       34.9086   10.9837  148.3747 H         1 ILE         0.0345
    264 H108       32.6371   11.4126  147.3003 H         1 ILE         0.0267
    265 H109       32.4517   12.7789  148.4516 H         1 ILE         0.0267
    266 H110       35.8882   12.8978  149.6050 H         1 ILE         0.0235
    267 H111       34.4638   12.2199  150.4641 H         1 ILE         0.0235
    268 H112       34.3079   13.7487  149.5338 H         1 ILE         0.0235
    269 H113       31.3001   10.7710  149.2476 H         1 ILE         0.0230
    270 H114       32.6566   11.2180  150.3370 H         1 ILE         0.0230
    271 H115       32.8420    9.8517  149.1856 H         1 ILE         0.0230
    272 H116       37.1801   11.5850  146.6941 H         1 THR         0.1884
    273 H117       38.7889   13.4572  148.1107 H         1 THR         0.0826
    274 H118       40.7539   12.4612  146.9698 H         1 THR         0.0639
    275 H119       38.7717   11.0165  145.4991 H         1 THR         0.2101
    276 H120       40.4239   10.1511  147.7415 H         1 THR         0.0257
    277 H121       38.6522   10.4330  147.8306 H         1 THR         0.0257
    278 H122       39.7613   11.3383  148.9154 H         1 THR         0.0257
    279 H123       37.6381   13.4830  144.7566 H         1 GLN         0.1883
    280 H124       39.5126   15.4370  143.8460 H         1 GLN         0.0801
    281 H125       37.7373   15.9349  142.0774 H         1 GLN         0.0337
    282 H126       36.7573   14.6486  142.8597 H         1 GLN         0.0337
    283 H127       38.0316   13.8553  140.8966 H         1 GLN         0.0504
    284 H128       38.4648   13.0060  142.4189 H         1 GLN         0.0504
    285 H129       41.7742   13.4391  141.2268 H         1 GLN         0.1814
    286 H130       40.4340   12.3482  141.3452 H         1 GLN         0.1814
    287 H131       36.6092   15.7520  145.7301 H         1 ALA         0.1883
    288 H132       36.3917   18.6168  145.2658 H         1 ALA         0.0797
    289 H133       34.6323   18.4890  147.0120 H         1 ALA         0.0277
    290 H134       35.0626   16.7694  147.3025 H         1 ALA         0.0277
    291 H135       34.3918   17.2713  145.7136 H         1 ALA         0.0277
    292 H136       38.3626   16.6457  147.2626 H         1 GLU         0.1875
    293 H137       38.3938   18.1898  149.6615 H         1 GLU         0.0723
    294 H138       40.5325   17.0122  150.1490 H         1 GLU         0.0270
    295 H139       40.5729   16.4053  148.4588 H         1 GLU         0.0270
    296 H140       39.2606   15.8841  149.5691 H         1 GLU         0.0270
    297 H141       36.5147   -3.0784  142.3768 H         1 CYS         0.0495
    298 H142       35.5652   -3.1190  138.1979 H         1 CYS         0.0500
    299 H143       36.5986   -5.3576  137.9832 H         1 CYS         0.0582
    300 H144       37.5985   -6.4531  139.9643 H         1 CYS         0.0500
    301 H145       38.3481   -6.3602  142.2120 H         1 CYS         0.0537
    302 H146       38.3217   -4.7953  143.0935 H         1 CYS         0.0537
    303 H147       35.8473   -1.0993  141.2568 H         1 CYS         0.0537
    304 H148       35.5614   -1.0744  139.4836 H         1 CYS         0.0537
@<TRIPOS>BOND
     1    2    1 1  
     2    2    3 1  
     3    5    2 1  
     4    3    4 2  
     5    3    7 am 
     6    6    5 1  
     7  155    6 1  
     8    7    8 1  
     9    8    9 1  
    10    8   11 1  
    11    9   10 2  
    12    9   13 am 
    13   11   12 1  
    14   13   14 1  
    15   13   19 1  
    16   14   15 1  
    17   14   17 1  
    18   15   16 2  
    19   15   20 am 
    20   18   17 1  
    21   19   18 1  
    22   20   21 1  
    23   21   22 1  
    24   21   24 1  
    25   22   23 2  
    26   22   28 am 
    27   24   25 1  
    28   25   26 1  
    29   25   27 1  
    30   28   29 1  
    31   29   30 1  
    32   29   32 1  
    33   30   31 2  
    34   30   37 am 
    35   32   33 1  
    36   33   34 1  
    37   34   35 ar 
    38   34   36 ar 
    39   37   38 1  
    40   38   39 1  
    41   38   41 1  
    42   39   40 2  
    43   39   43 am 
    44   41   42 1  
    45   42  156 1  
    46   43   44 1  
    47   44   45 1  
    48   44   47 1  
    49   45   46 2  
    50   45   51 am 
    51   47   48 1  
    52   48   49 ar 
    53   48   50 ar 
    54   51   52 1  
    55   52   53 1  
    56   52   55 1  
    57   53   54 2  
    58   53   59 am 
    59   55   56 1  
    60   56   57 1  
    61   56   58 1  
    62   59   60 1  
    63   60   61 1  
    64   60   63 1  
    65   61   62 2  
    66   61   68 am 
    67   63   64 1  
    68   64   65 1  
    69   65   66 1  
    70   66   67 1  
    71   68   69 1  
    72   69   70 1  
    73   70   71 2  
    74   70   72 am 
    75   72   73 1  
    76   73   74 1  
    77   73   76 1  
    78   74   75 2  
    79   74   84 am 
    80   76   77 1  
    81   77   78 ar 
    82   77   79 ar 
    83   78   80 ar 
    84   79   81 ar 
    85   80   82 ar 
    86   81   82 ar 
    87   82   83 1  
    88   84   85 1  
    89   85   86 1  
    90   85   88 1  
    91   86   87 2  
    92   86   92 am 
    93   88   89 1  
    94   89   90 1  
    95   89   91 1  
    96   92   93 1  
    97   93   94 1  
    98   93   96 1  
    99   94   95 2  
   100   94  100 am 
   101   96   97 1  
   102   97   98 ar 
   103   97   99 ar 
   104  100  101 1  
   105  101  102 1  
   106  101  104 1  
   107  102  103 2  
   108  102  114 am 
   109  104  105 1  
   110  105  106 2  
   111  105  107 1  
   112  106  108 1  
   113  107  109 ar 
   114  107  110 ar 
   115  109  108 1  
   116  109  111 ar 
   117  110  112 ar 
   118  111  113 ar 
   119  112  113 ar 
   120  114  115 1  
   121  115  116 1  
   122  115  118 1  
   123  116  117 2  
   124  116  122 am 
   125  118  119 1  
   126  118  120 1  
   127  119  121 1  
   128  122  123 1  
   129  123  124 1  
   130  123  126 1  
   131  124  125 2  
   132  124  129 am 
   133  126  127 1  
   134  126  128 1  
   135  129  130 1  
   136  130  131 1  
   137  130  133 1  
   138  131  132 2  
   139  131  138 am 
   140  133  134 1  
   141  134  135 1  
   142  135  136 2  
   143  135  137 am 
   144  138  139 1  
   145  139  140 1  
   146  139  142 1  
   147  140  141 2  
   148  140  143 am 
   149  143  144 1  
   150  144  145 1  
   151  144  147 1  
   152  145  146 ar 
   153  145  148 ar 
   154  149  150 ar 
   155  149  154 ar 
   156  149  155 1  
   157  150  151 ar 
   158  151  152 ar 
   159  151  156 1  
   160  152  153 ar 
   161  153  154 ar 
   162    1  157 1  
   163    1  158 1  
   164    1  159 1  
   165    2  160 1  
   166    5  161 1  
   167    5  162 1  
   168    7  163 1  
   169    8  164 1  
   170   11  165 1  
   171   11  166 1  
   172   12  167 1  
   173   14  168 1  
   174   17  169 1  
   175   17  170 1  
   176   18  171 1  
   177   18  172 1  
   178   19  173 1  
   179   19  174 1  
   180   20  175 1  
   181   21  176 1  
   182   24  177 1  
   183   24  178 1  
   184   25  179 1  
   185   26  180 1  
   186   26  181 1  
   187   26  182 1  
   188   27  183 1  
   189   27  184 1  
   190   27  185 1  
   191   28  186 1  
   192   29  187 1  
   193   32  188 1  
   194   32  189 1  
   195   33  190 1  
   196   33  191 1  
   197   37  192 1  
   198   38  193 1  
   199   41  194 1  
   200   41  195 1  
   201   43  196 1  
   202   44  197 1  
   203   47  198 1  
   204   47  199 1  
   205   51  200 1  
   206   52  201 1  
   207   55  202 1  
   208   55  203 1  
   209   56  204 1  
   210   57  205 1  
   211   57  206 1  
   212   57  207 1  
   213   58  208 1  
   214   58  209 1  
   215   58  210 1  
   216   59  211 1  
   217   60  212 1  
   218   63  213 1  
   219   63  214 1  
   220   64  215 1  
   221   64  216 1  
   222   65  217 1  
   223   65  218 1  
   224   66  219 1  
   225   66  220 1  
   226   67  221 1  
   227   67  222 1  
   228   67  223 1  
   229   68  224 1  
   230   69  225 1  
   231   69  226 1  
   232   72  227 1  
   233   73  228 1  
   234   76  229 1  
   235   76  230 1  
   236   78  231 1  
   237   79  232 1  
   238   80  233 1  
   239   81  234 1  
   240   83  235 1  
   241   84  236 1  
   242   85  237 1  
   243   88  238 1  
   244   88  239 1  
   245   89  240 1  
   246   90  241 1  
   247   90  242 1  
   248   90  243 1  
   249   91  244 1  
   250   91  245 1  
   251   91  246 1  
   252   92  247 1  
   253   93  248 1  
   254   96  249 1  
   255   96  250 1  
   256  100  251 1  
   257  101  252 1  
   258  104  253 1  
   259  104  254 1  
   260  106  255 1  
   261  108  256 1  
   262  110  257 1  
   263  111  258 1  
   264  112  259 1  
   265  113  260 1  
   266  114  261 1  
   267  115  262 1  
   268  118  263 1  
   269  119  264 1  
   270  119  265 1  
   271  120  266 1  
   272  120  267 1  
   273  120  268 1  
   274  121  269 1  
   275  121  270 1  
   276  121  271 1  
   277  122  272 1  
   278  123  273 1  
   279  126  274 1  
   280  127  275 1  
   281  128  276 1  
   282  128  277 1  
   283  128  278 1  
   284  129  279 1  
   285  130  280 1  
   286  133  281 1  
   287  133  282 1  
   288  134  283 1  
   289  134  284 1  
   290  137  285 1  
   291  137  286 1  
   292  138  287 1  
   293  139  288 1  
   294  142  289 1  
   295  142  290 1  
   296  142  291 1  
   297  143  292 1  
   298  144  293 1  
   299  147  294 1  
   300  147  295 1  
   301  147  296 1  
   302  150  297 1  
   303  152  298 1  
   304  153  299 1  
   305  154  300 1  
   306  155  301 1  
   307  155  302 1  
   308  156  303 1  
   309  156  304 1  
@<TRIPOS>SUBSTRUCTURE
     1 CYS         1

