5v2p_ligand
  -I-interpret- 

307312  0  0  0  0  0  0  0  0999 V2000
   35.8560   -9.0880  142.9500 N   0  3  0  0  0
   35.2580   -8.5240  144.1950 C   0  0  0  0  0
   33.8260   -8.0590  143.9490 C   0  0  0  0  0
   33.3720   -8.0030  142.8080 O   0  0  0  0  0
   36.1000   -7.3570  144.6880 C   0  0  0  0  0
   36.2700   -6.0600  143.4470 S   0  0  0  0  0
   33.1230   -7.7030  145.0190 N   0  0  0  0  0
   31.7030   -7.3850  144.9200 C   0  0  0  0  0
   31.4440   -6.0580  144.2140 C   0  0  0  0  0
   32.2890   -5.1660  144.2270 O   0  0  0  0  0
   31.0510   -7.3480  146.3060 C   0  0  0  0  0
   31.3460   -6.1450  146.9930 O   0  0  0  0  0
   30.2600   -5.9310  143.5940 N   0  0  0  0  0
   29.7590   -4.6530  143.0780 C   0  0  0  0  0
   29.7390   -3.5170  144.1120 C   0  0  0  0  0
   29.9020   -2.3530  143.7500 O   0  0  0  0  0
   28.3280   -4.9920  142.6510 C   0  0  0  0  0
   28.3820   -6.4370  142.2880 C   0  0  0  0  0
   29.4150   -7.0670  143.1730 C   0  0  0  0  0
   29.5290   -3.8470  145.3800 N   0  0  0  0  0
   29.4220   -2.8270  146.4170 C   0  0  0  0  0
   30.7780   -2.1940  146.7420 C   0  0  0  0  0
   30.8680   -0.9820  146.8920 O   0  0  0  0  0
   28.7610   -3.4100  147.6700 C   0  0  0  0  0
   27.2320   -3.6480  147.6560 C   0  0  0  0  0
   26.5450   -2.7040  148.6250 C   0  0  0  0  0
   26.5580   -3.5620  146.2840 C   0  0  0  0  0
   31.8310   -3.0020  146.8320 N   0  0  0  0  0
   33.1860   -2.4820  147.0860 C   0  0  0  0  0
   33.6710   -1.6040  145.9350 C   0  0  0  0  0
   34.3840   -0.6240  146.1330 O   0  0  0  0  0
   34.1760   -3.6300  147.2860 C   0  0  0  0  0
   33.9110   -4.4640  148.5350 C   0  0  0  0  0
   34.2850   -5.9290  148.3660 C   0  0  0  0  0
   33.9320   -6.5260  147.3200 O   0  0  0  0  0
   34.9220   -6.4920  149.2860 O   0  0  0  0  0
   33.2880   -1.9920  144.7270 N   0  0  0  0  0
   33.6120   -1.2570  143.5240 C   0  0  0  0  0
   32.9210    0.1210  143.5210 C   0  0  0  0  0
   33.6000    1.1500  143.4320 O   0  0  0  0  0
   33.2010   -2.1020  142.3200 C   0  0  0  0  0
   33.5580   -1.3890  140.7120 S   0  0  0  0  0
   31.5910    0.1460  143.6610 N   0  0  0  0  0
   30.8600    1.4170  143.7720 C   0  0  0  0  0
   31.5150    2.3250  144.8120 C   0  0  0  0  0
   31.7710    3.5110  144.5600 O   0  0  0  0  0
   29.4000    1.2010  144.1950 C   0  0  0  0  0
   28.5350    0.6330  143.0960 C   0  0  0  0  0
   29.0520    0.2580  142.0300 O   0  0  0  0  0
   27.3150    0.5460  143.3210 O   0  0  0  0  0
   31.7810    1.7500  145.9820 N   0  0  0  0  0
   32.3120    2.4990  147.1140 C   0  0  0  0  0
   33.5930    3.2320  146.7520 C   0  0  0  0  0
   33.7820    4.3890  147.1410 O   0  0  0  0  0
   32.5810    1.5600  148.2990 C   0  0  0  0  0
   33.0300    2.2200  149.6050 C   0  0  0  0  0
   31.9680    3.1920  150.0940 C   0  0  0  0  0
   33.3450    1.1770  150.6660 C   0  0  0  0  0
   34.4780    2.5470  146.0230 N   0  0  0  0  0
   35.7780    3.1150  145.7060 C   0  0  0  0  0
   35.6040    4.2030  144.6510 C   0  0  0  0  0
   36.2500    5.2320  144.7260 O   0  0  0  0  0
   36.7790    2.0400  145.2530 C   0  0  0  0  0
   38.0360    1.9790  146.1190 C   0  0  0  0  0
   38.8290    3.2880  146.1130 C   0  0  0  0  0
   39.8800    3.3190  147.2170 C   0  0  0  0  0
   40.2410    4.7260  147.5790 N   0  3  0  0  0
   34.7180    3.9690  143.6860 N   0  0  0  0  0
   34.2900    5.0000  142.7470 C   0  0  0  0  0
   33.9110    6.2980  143.4430 C   0  0  0  0  0
   34.4300    7.3620  143.1010 O   0  0  0  0  0
   33.0310    6.2050  144.4380 N   0  0  0  0  0
   32.5380    7.3790  145.1790 C   0  0  0  0  0
   33.5450    7.9490  146.1770 C   0  0  0  0  0
   33.5170    9.1330  146.4790 O   0  0  0  0  0
   31.2310    7.0530  145.9310 C   0  0  0  0  0
   30.0370    6.8010  145.0410 C   0  0  0  0  0
   29.5670    7.7880  144.1770 C   0  0  0  0  0
   29.3600    5.5750  145.0710 C   0  0  0  0  0
   28.4830    7.5530  143.3570 C   0  0  0  0  0
   28.2650    5.3360  144.2520 C   0  0  0  0  0
   27.8280    6.3270  143.4040 C   0  0  0  0  0
   26.7490    6.0920  142.5910 O   0  0  0  0  0
   34.4120    7.1080  146.7240 N   0  0  0  0  0
   35.4950    7.6180  147.5580 C   0  0  0  0  0
   36.4480    8.4690  146.7180 C   0  0  0  0  0
   36.8870    9.5080  147.1800 O   0  0  0  0  0
   36.2550    6.4790  148.2550 C   0  0  0  0  0
   35.6230    5.8570  149.5100 C   0  0  0  0  0
   36.3210    4.5470  149.8510 C   0  0  0  0  0
   35.7030    6.8220  150.6820 C   0  0  0  0  0
   36.7620    8.0310  145.4980 N   0  0  0  0  0
   37.5930    8.8100  144.5730 C   0  0  0  0  0
   36.8980   10.1120  144.1400 C   0  0  0  0  0
   37.5390   11.1670  144.0070 O   0  0  0  0  0
   37.9060    8.0030  143.3140 C   0  0  0  0  0
   39.0470    7.0460  143.4960 C   0  0  0  0  0
   39.8830    7.2760  144.4060 O   0  0  0  0  0
   39.1240    6.0790  142.7050 O   0  0  0  0  0
   35.5960   10.0110  143.8730 N   0  0  0  0  0
   34.7640   11.1690  143.5490 C   0  0  0  0  0
   34.9340   12.2280  144.6430 C   0  0  0  0  0
   35.1940   13.3970  144.3610 O   0  0  0  0  0
   33.3150   10.7010  143.4280 C   0  0  0  0  0
   32.2490   11.7050  143.0070 C   0  0  0  0  0
   32.1680   13.0280  143.3280 C   0  0  0  0  0
   31.0660   11.4060  142.2580 C   0  0  0  0  0
   31.0300   13.5720  142.7990 N   0  0  0  0  0
   30.3300   12.5960  142.1440 C   0  0  0  0  0
   30.5690   10.2440  141.6570 C   0  0  0  0  0
   29.1210   12.6640  141.4550 C   0  0  0  0  0
   29.3680   10.3040  140.9790 C   0  0  0  0  0
   28.6530   11.5120  140.8810 C   0  0  0  0  0
   34.8240   11.7890  145.8930 N   0  0  0  0  0
   34.8830   12.6890  147.0450 C   0  0  0  0  0
   36.2640   13.3070  147.2220 C   0  0  0  0  0
   36.3740   14.4810  147.5650 O   0  0  0  0  0
   34.4260   11.9710  148.3270 C   0  0  0  0  0
   32.9190   11.7960  148.2920 C   0  0  0  0  0
   34.7970   12.7640  149.5680 C   0  0  0  0  0
   32.3940   10.8450  149.3360 C   0  0  0  0  0
   37.3170   12.5370  146.9680 N   0  0  0  0  0
   38.6810   13.0720  147.0860 C   0  0  0  0  0
   38.9240   14.2390  146.1240 C   0  0  0  0  0
   39.6840   15.1570  146.4450 O   0  0  0  0  0
   39.7630   11.9920  146.8810 C   0  0  0  0  0
   39.6310   11.4130  145.5820 O   0  0  0  0  0
   39.6420   10.9060  147.9110 C   0  0  0  0  0
   38.2590   14.2370  144.9710 N   0  0  0  0  0
   38.4310   15.3310  144.0160 C   0  0  0  0  0
   37.9210   16.6710  144.5140 C   0  0  0  0  0
   38.3840   17.7130  144.0580 O   0  0  0  0  0
   37.7790   15.0110  142.6730 C   0  0  0  0  0
   38.5210   13.9610  141.8760 C   0  0  0  0  0
   39.9890   14.3030  141.6490 C   0  0  0  0  0
   40.3920   15.4700  141.7110 O   0  0  0  0  0
   40.8000   13.2780  141.3850 N   0  0  0  0  0
   36.9710   16.6380  145.4400 N   0  0  0  0  0
   36.4420   17.8400  146.0430 C   0  0  0  0  0
   37.3170   18.3660  147.1760 C   0  0  0  0  0
   37.1530   19.5050  147.5870 O   0  0  0  0  0
   35.0350   17.5740  146.5530 C   0  0  0  0  0
   38.2350   17.5440  147.6830 N   0  0  0  0  0
   39.0660   17.9100  148.8370 C   0  0  0  0  0
   39.9820   19.0940  148.5480 C   0  0  0  0  0
   40.5080   19.2300  147.4460 O   0  0  0  0  0
   39.9180   16.7190  149.2850 C   0  0  0  0  0
   40.2140   19.9370  149.4110 O   0  0  0  0  0
   37.1200   -4.8340  141.2960 C   0  0  0  0  0
   36.5350   -3.5780  141.4150 C   0  0  0  0  0
   35.9760   -2.9630  140.3000 C   0  0  0  0  0
   36.0000   -3.6010  139.0660 C   0  0  0  0  0
   36.5820   -4.8580  138.9450 C   0  0  0  0  0
   37.1430   -5.4740  140.0590 C   0  0  0  0  0
   37.7210   -5.5060  142.5070 C   0  0  0  0  0
   35.3380   -1.6030  140.4220 C   0  0  0  0  0
   35.2870   -9.8696  142.6248 H   0  0  0  0  0
   35.8858   -8.3652  142.2309 H   0  0  0  0  0
   36.8026   -9.4134  143.1461 H   0  0  0  0  0
   35.2403   -9.3071  144.9530 H   0  0  0  0  0
   37.0959   -7.7340  144.9205 H   0  0  0  0  0
   35.6047   -6.9278  145.5589 H   0  0  0  0  0
   33.5852   -7.6511  145.9268 H   0  0  0  0  0
   31.2584   -8.1797  144.3210 H   0  0  0  0  0
   31.4406   -8.1813  146.8907 H   0  0  0  0  0
   29.9705   -7.4141  146.1786 H   0  0  0  0  0
   30.9223   -6.1575  147.8543 H   0  0  0  0  0
   30.4039   -4.2768  142.2838 H   0  0  0  0  0
   27.9913   -4.3731  141.8193 H   0  0  0  0  0
   27.6066   -4.7957  143.4442 H   0  0  0  0  0
   28.6425   -6.5633  141.2372 H   0  0  0  0  0
   27.4098   -6.9090  142.4299 H   0  0  0  0  0
   28.9717   -7.5903  144.0202 H   0  0  0  0  0
   29.9859   -7.8401  142.6586 H   0  0  0  0  0
   29.4409   -4.8310  145.6338 H   0  0  0  0  0
   28.7888   -2.0267  146.0338 H   0  0  0  0  0
   28.9265   -2.6677  148.4509 H   0  0  0  0  0
   29.2021   -4.3994  147.7905 H   0  0  0  0  0
   27.1134   -4.6863  147.9660 H   0  0  0  0  0
   26.9245   -2.8793  149.6317 H   0  0  0  0  0
   26.7487   -1.6739  148.3328 H   0  0  0  0  0
   25.4700   -2.8831  148.6042 H   0  0  0  0  0
   26.7166   -2.5686  145.8643 H   0  0  0  0  0
   26.9901   -4.3113  145.6207 H   0  0  0  0  0
   25.4891   -3.7451  146.3936 H   0  0  0  0  0
   31.6969   -4.0072  146.7224 H   0  0  0  0  0
   33.1341   -1.8794  147.9928 H   0  0  0  0  0
   35.1666   -3.1885  147.3952 H   0  0  0  0  0
   34.0805   -4.2938  146.4267 H   0  0  0  0  0
   32.8421   -4.4173  148.7434 H   0  0  0  0  0
   34.5225   -4.0572  149.3404 H   0  0  0  0  0
   33.4586   -5.9163  146.7492 H   0  0  0  0  0
   32.7398   -2.8479  144.6417 H   0  0  0  0  0
   34.6841   -1.0662  143.4769 H   0  0  0  0  0
   32.1181   -2.2128  142.3754 H   0  0  0  0  0
   33.7738   -3.0273  142.3818 H   0  0  0  0  0
   31.0743   -0.7329  143.6913 H   0  0  0  0  0
   30.8882    1.8777  142.7846 H   0  0  0  0  0
   28.9894    2.1735  144.4667 H   0  0  0  0  0
   29.3986    0.4853  145.0171 H   0  0  0  0  0
   27.1271    0.8898  144.1974 H   0  0  0  0  0
   31.6074    0.7508  146.0905 H   0  0  0  0  0
   31.5608    3.2377  147.3934 H   0  0  0  0  0
   33.4015    0.9121  147.9905 H   0  0  0  0  0
   31.6317    1.0714  148.5185 H   0  0  0  0  0
   33.9462    2.7778  149.4111 H   0  0  0  0  0
   31.8083    3.9630  149.3403 H   0  0  0  0  0
   31.0365    2.6533  150.2675 H   0  0  0  0  0
   32.3006    3.6541  151.0235 H   0  0  0  0  0
   32.4538    0.5815  150.8642 H   0  0  0  0  0
   34.1451    0.5282  150.3096 H   0  0  0  0  0
   33.6610    1.6763  151.5819 H   0  0  0  0  0
   34.2390    1.6148  145.6849 H   0  0  0  0  0
   36.1979    3.5580  146.6091 H   0  0  0  0  0
   37.0905    2.2876  144.2382 H   0  0  0  0  0
   36.2804    1.0737  145.3286 H   0  0  0  0  0
   38.6804    1.1981  145.7152 H   0  0  0  0  0
   37.7238    1.7841  147.1450 H   0  0  0  0  0
   38.1334    4.1105  146.2793 H   0  0  0  0  0
   39.3380    3.3756  145.1531 H   0  0  0  0  0
   40.7755    2.8102  146.8601 H   0  0  0  0  0
   39.4731    2.8255  148.0996 H   0  0  0  0  0
   40.9441    4.7160  148.3179 H   0  0  0  0  0
   40.6156    5.2016  146.7581 H   0  0  0  0  0
   39.4085    5.2157  147.9068 H   0  0  0  0  0
   34.3229    3.0326  143.5996 H   0  0  0  0  0
   33.4103    4.6312  142.2196 H   0  0  0  0  0
   35.1215    5.2089  142.0739 H   0  0  0  0  0
   32.6836    5.2820  144.6981 H   0  0  0  0  0
   32.3629    8.1383  144.4168 H   0  0  0  0  0
   30.9922    7.9223  146.5438 H   0  0  0  0  0
   31.4080    6.1353  146.4918 H   0  0  0  0  0
   30.0624    8.7585  144.1487 H   0  0  0  0  0
   29.6997    4.7935  145.7507 H   0  0  0  0  0
   28.1397    8.3283  142.6721 H   0  0  0  0  0
   27.7564    4.3724  144.2806 H   0  0  0  0  0
   26.4183    5.2047  142.7486 H   0  0  0  0  0
   34.3218    6.1050  146.5618 H   0  0  0  0  0
   35.0566    8.2417  148.3370 H   0  0  0  0  0
   37.1941    6.9191  148.5904 H   0  0  0  0  0
   36.3034    5.6721  147.5238 H   0  0  0  0  0
   34.5718    5.6525  149.3070 H   0  0  0  0  0
   36.2180    3.8539  149.0161 H   0  0  0  0  0
   37.3777    4.7378  150.0382 H   0  0  0  0  0
   35.8651    4.1150  150.7419 H   0  0  0  0  0
   36.7477    7.0540  150.8893 H   0  0  0  0  0
   35.1683    7.7387  150.4333 H   0  0  0  0  0
   35.2502    6.3627  151.5607 H   0  0  0  0  0
   36.4118    7.1215  145.1971 H   0  0  0  0  0
   38.5111    9.0500  145.1093 H   0  0  0  0  0
   38.1864    8.7072  142.5307 H   0  0  0  0  0
   37.0199    7.4183  143.0669 H   0  0  0  0  0
   39.6230    8.0659  144.8856 H   0  0  0  0  0
   35.1622    9.0881  143.8956 H   0  0  0  0  0
   35.0611   11.6192  142.6018 H   0  0  0  0  0
   33.0325   10.3966  144.4358 H   0  0  0  0  0
   33.3261    9.9532  142.6350 H   0  0  0  0  0
   32.9033   13.5728  143.9201 H   0  0  0  0  0
   31.1213    9.3066  141.7232 H   0  0  0  0  0
   28.5678   13.5998  141.3757 H   0  0  0  0  0
   28.9681    9.4033  140.5132 H   0  0  0  0  0
   27.7083   11.5312  140.3377 H   0  0  0  0  0
   34.6940   10.7903  146.0545 H   0  0  0  0  0
   34.1924   13.5091  146.8486 H   0  0  0  0  0
   34.9264   11.0036  148.3703 H   0  0  0  0  0
   32.6619   11.3828  147.3167 H   0  0  0  0  0
   32.4735   12.7715  148.4869 H   0  0  0  0  0
   35.8791   12.8891  149.6077 H   0  0  0  0  0
   34.3181   13.7424  149.5291 H   0  0  0  0  0
   34.4592   12.2277  150.4548 H   0  0  0  0  0
   32.8386    9.8612  149.1859 H   0  0  0  0  0
   32.6548   11.2156  150.3273 H   0  0  0  0  0
   31.3100   10.7726  149.2474 H   0  0  0  0  0
   37.1774   11.5660  146.6886 H   0  0  0  0  0
   38.7635   13.4396  148.1088 H   0  0  0  0  0
   40.7376   12.4695  146.9820 H   0  0  0  0  0
   40.3072   10.7422  145.4616 H   0  0  0  0  0
   39.7604   11.3356  148.9057 H   0  0  0  0  0
   38.6608   10.4382  147.8303 H   0  0  0  0  0
   40.4173   10.1587  147.7420 H   0  0  0  0  0
   37.6257   13.4679  144.7523 H   0  0  0  0  0
   39.5100   15.4227  143.8916 H   0  0  0  0  0
   37.7764   15.9280  142.0837 H   0  0  0  0  0
   36.7815   14.6222  142.8778 H   0  0  0  0  0
   38.0439   13.8909  140.8985 H   0  0  0  0  0
   38.4830   13.0300  142.4415 H   0  0  0  0  0
   41.7939   13.4421  141.2251 H   0  0  0  0  0
   40.4264   12.3298  141.3429 H   0  0  0  0  0
   36.6020   15.7343  145.7359 H   0  0  0  0  0
   36.4255   18.6111  145.2728 H   0  0  0  0  0
   34.3987   17.2741  145.7203 H   0  0  0  0  0
   35.0638   16.7766  147.2955 H   0  0  0  0  0
   34.6371   18.4813  147.0076 H   0  0  0  0  0
   38.3652   16.6277  147.2542 H   0  0  0  0  0
   38.3785   18.2012  149.6311 H   0  0  0  0  0
   40.2421   18.5061  146.8742 H   0  0  0  0  0
   39.2654   15.8924  149.5662 H   0  0  0  0  0
   40.5664   16.4091  148.4655 H   0  0  0  0  0
   40.5264   17.0107  150.1411 H   0  0  0  0  0
   36.5146   -3.0756  142.3821 H   0  0  0  0  0
   35.5628   -3.1163  138.1931 H   0  0  0  0  0
   36.5987   -5.3604  137.9778 H   0  0  0  0  0
   37.6010   -6.4585  139.9638 H   0  0  0  0  0
   38.3861   -6.3279  142.2420 H   0  0  0  0  0
   38.3610   -4.8367  143.0820 H   0  0  0  0  0
   35.7934   -1.1887  141.3215 H   0  0  0  0  0
   35.4895   -1.1622  139.4367 H   0  0  0  0  0
  2  1  1  0  0  0
  2  3  1  0  0  0
  5  2  1  0  0  0
  3  4  2  0  0  0
  3  7  1  0  0  0
  6  5  1  0  0  0
155  6  1  0  0  0
  7  8  1  0  0  0
  8  9  1  0  0  0
  8 11  1  0  0  0
  9 10  2  0  0  0
  9 13  1  0  0  0
 11 12  1  0  0  0
 13 14  1  0  0  0
 13 19  1  0  0  0
 14 15  1  0  0  0
 14 17  1  0  0  0
 15 16  2  0  0  0
 15 20  1  0  0  0
 18 17  1  0  0  0
 19 18  1  0  0  0
 20 21  1  0  0  0
 21 22  1  0  0  0
 21 24  1  0  0  0
 22 23  2  0  0  0
 22 28  1  0  0  0
 24 25  1  0  0  0
 25 26  1  0  0  0
 25 27  1  0  0  0
 28 29  1  0  0  0
 29 30  1  0  0  0
 29 32  1  0  0  0
 30 31  2  0  0  0
 30 37  1  0  0  0
 32 33  1  0  0  0
 33 34  1  0  0  0
 34 35  1  0  0  0
 34 36  2  0  0  0
 37 38  1  0  0  0
 38 39  1  0  0  0
 38 41  1  0  0  0
 39 40  2  0  0  0
 39 43  1  0  0  0
 41 42  1  0  0  0
 42156  1  0  0  0
 43 44  1  0  0  0
 44 45  1  0  0  0
 44 47  1  0  0  0
 45 46  2  0  0  0
 45 51  1  0  0  0
 47 48  1  0  0  0
 48 49  2  0  0  0
 48 50  1  0  0  0
 51 52  1  0  0  0
 52 53  1  0  0  0
 52 55  1  0  0  0
 53 54  2  0  0  0
 53 59  1  0  0  0
 55 56  1  0  0  0
 56 57  1  0  0  0
 56 58  1  0  0  0
 59 60  1  0  0  0
 60 61  1  0  0  0
 60 63  1  0  0  0
 61 62  2  0  0  0
 61 68  1  0  0  0
 63 64  1  0  0  0
 64 65  1  0  0  0
 65 66  1  0  0  0
 66 67  1  0  0  0
 68 69  1  0  0  0
 69 70  1  0  0  0
 70 71  2  0  0  0
 70 72  1  0  0  0
 72 73  1  0  0  0
 73 74  1  0  0  0
 73 76  1  0  0  0
 74 75  2  0  0  0
 74 84  1  0  0  0
 76 77  1  0  0  0
 77 78  4  0  0  0
 77 79  4  0  0  0
 78 80  4  0  0  0
 79 81  4  0  0  0
 80 82  4  0  0  0
 81 82  4  0  0  0
 82 83  1  0  0  0
 84 85  1  0  0  0
 85 86  1  0  0  0
 85 88  1  0  0  0
 86 87  2  0  0  0
 86 92  1  0  0  0
 88 89  1  0  0  0
 89 90  1  0  0  0
 89 91  1  0  0  0
 92 93  1  0  0  0
 93 94  1  0  0  0
 93 96  1  0  0  0
 94 95  2  0  0  0
 94100  1  0  0  0
 96 97  1  0  0  0
 97 98  1  0  0  0
 97 99  2  0  0  0
100101  1  0  0  0
101102  1  0  0  0
101104  1  0  0  0
102103  2  0  0  0
102114  1  0  0  0
104105  1  0  0  0
105106  4  0  0  0
105107  4  0  0  0
106108  4  0  0  0
107109  4  0  0  0
107110  4  0  0  0
109108  4  0  0  0
109111  4  0  0  0
110112  4  0  0  0
111113  4  0  0  0
112113  4  0  0  0
114115  1  0  0  0
115116  1  0  0  0
115118  1  0  0  0
116117  2  0  0  0
116122  1  0  0  0
118119  1  0  0  0
118120  1  0  0  0
119121  1  0  0  0
122123  1  0  0  0
123124  1  0  0  0
123126  1  0  0  0
124125  2  0  0  0
124129  1  0  0  0
126127  1  0  0  0
126128  1  0  0  0
129130  1  0  0  0
130131  1  0  0  0
130133  1  0  0  0
131132  2  0  0  0
131138  1  0  0  0
133134  1  0  0  0
134135  1  0  0  0
135136  2  0  0  0
135137  1  0  0  0
138139  1  0  0  0
139140  1  0  0  0
139142  1  0  0  0
140141  2  0  0  0
140143  1  0  0  0
143144  1  0  0  0
144145  1  0  0  0
144147  1  0  0  0
145146  1  0  0  0
145148  2  0  0  0
149150  4  0  0  0
149154  4  0  0  0
149155  1  0  0  0
150151  4  0  0  0
151152  4  0  0  0
151156  1  0  0  0
152153  4  0  0  0
153154  4  0  0  0
  1157  1  0  0  0
  1158  1  0  0  0
  1159  1  0  0  0
  2160  1  0  0  0
  5161  1  0  0  0
  5162  1  0  0  0
  7163  1  0  0  0
  8164  1  0  0  0
 11165  1  0  0  0
 11166  1  0  0  0
 12167  1  0  0  0
 14168  1  0  0  0
 17169  1  0  0  0
 17170  1  0  0  0
 18171  1  0  0  0
 18172  1  0  0  0
 19173  1  0  0  0
 19174  1  0  0  0
 20175  1  0  0  0
 21176  1  0  0  0
 24177  1  0  0  0
 24178  1  0  0  0
 25179  1  0  0  0
 26180  1  0  0  0
 26181  1  0  0  0
 26182  1  0  0  0
 27183  1  0  0  0
 27184  1  0  0  0
 27185  1  0  0  0
 28186  1  0  0  0
 29187  1  0  0  0
 32188  1  0  0  0
 32189  1  0  0  0
 33190  1  0  0  0
 33191  1  0  0  0
 35192  1  0  0  0
 37193  1  0  0  0
 38194  1  0  0  0
 41195  1  0  0  0
 41196  1  0  0  0
 43197  1  0  0  0
 44198  1  0  0  0
 47199  1  0  0  0
 47200  1  0  0  0
 50201  1  0  0  0
 51202  1  0  0  0
 52203  1  0  0  0
 55204  1  0  0  0
 55205  1  0  0  0
 56206  1  0  0  0
 57207  1  0  0  0
 57208  1  0  0  0
 57209  1  0  0  0
 58210  1  0  0  0
 58211  1  0  0  0
 58212  1  0  0  0
 59213  1  0  0  0
 60214  1  0  0  0
 63215  1  0  0  0
 63216  1  0  0  0
 64217  1  0  0  0
 64218  1  0  0  0
 65219  1  0  0  0
 65220  1  0  0  0
 66221  1  0  0  0
 66222  1  0  0  0
 67223  1  0  0  0
 67224  1  0  0  0
 67225  1  0  0  0
 68226  1  0  0  0
 69227  1  0  0  0
 69228  1  0  0  0
 72229  1  0  0  0
 73230  1  0  0  0
 76231  1  0  0  0
 76232  1  0  0  0
 78233  1  0  0  0
 79234  1  0  0  0
 80235  1  0  0  0
 81236  1  0  0  0
 83237  1  0  0  0
 84238  1  0  0  0
 85239  1  0  0  0
 88240  1  0  0  0
 88241  1  0  0  0
 89242  1  0  0  0
 90243  1  0  0  0
 90244  1  0  0  0
 90245  1  0  0  0
 91246  1  0  0  0
 91247  1  0  0  0
 91248  1  0  0  0
 92249  1  0  0  0
 93250  1  0  0  0
 96251  1  0  0  0
 96252  1  0  0  0
 98253  1  0  0  0
100254  1  0  0  0
101255  1  0  0  0
104256  1  0  0  0
104257  1  0  0  0
106258  1  0  0  0
110259  1  0  0  0
111260  1  0  0  0
112261  1  0  0  0
113262  1  0  0  0
114263  1  0  0  0
115264  1  0  0  0
118265  1  0  0  0
119266  1  0  0  0
119267  1  0  0  0
120268  1  0  0  0
120269  1  0  0  0
120270  1  0  0  0
121271  1  0  0  0
121272  1  0  0  0
121273  1  0  0  0
122274  1  0  0  0
123275  1  0  0  0
126276  1  0  0  0
127277  1  0  0  0
128278  1  0  0  0
128279  1  0  0  0
128280  1  0  0  0
129281  1  0  0  0
130282  1  0  0  0
133283  1  0  0  0
133284  1  0  0  0
134285  1  0  0  0
134286  1  0  0  0
137287  1  0  0  0
137288  1  0  0  0
138289  1  0  0  0
139290  1  0  0  0
142291  1  0  0  0
142292  1  0  0  0
142293  1  0  0  0
143294  1  0  0  0
144295  1  0  0  0
146296  1  0  0  0
147297  1  0  0  0
147298  1  0  0  0
147299  1  0  0  0
150300  1  0  0  0
152301  1  0  0  0
153302  1  0  0  0
154303  1  0  0  0
155304  1  0  0  0
155305  1  0  0  0
156306  1  0  0  0
156307  1  0  0  0
M  END
$$$$
