3nex_ligand
  -I-interpret- 

 52 54  0  0  0  0  0  0  0  0999 V2000
    0.0120    0.0710   10.9670 C   0  0  0  0  0
    0.7200    0.9110   11.8010 C   0  0  0  0  0
    0.9490    2.2340   11.4420 C   0  0  0  0  0
    0.4500    2.7640   10.2670 C   0  0  0  0  0
   -0.2740    1.9280    9.4300 C   0  0  0  0  0
   -0.4910    0.5960    9.7830 C   0  0  0  0  0
   -1.2860   -0.3190    8.8450 C   0  0  0  0  0
   -0.4130   -0.6430    7.6340 C   0  0  0  0  0
   -0.6710    0.0230    6.4590 C   0  0  0  0  0
    0.6280   -1.5570    7.6830 C   0  0  0  0  0
    0.8380   -2.1820    8.8660 O   0  0  0  0  0
    1.4030   -1.8000    6.5430 C   0  0  0  0  0
    1.1170   -1.1240    5.3450 C   0  0  0  0  0
    0.0720   -0.1970    5.3250 C   0  0  0  0  0
   -0.3690    0.6270    4.1260 C   0  0  0  0  0
   -0.0130    0.0930    2.7330 C   0  0  0  0  0
   -0.7840   -0.8530    2.0640 C   0  0  0  0  0
   -2.0230   -1.4490    2.7310 C   0  0  0  0  0
   -0.4410   -1.2920    0.7890 C   0  0  0  0  0
    1.0890    0.6100    2.0630 C   0  0  0  0  0
    1.9510    1.6620    2.7530 C   0  0  0  0  0
    1.4470    0.1900    0.7870 C   0  0  0  0  0
    0.6780   -0.7710    0.1470 C   0  0  0  0  0
    1.0310   -1.2010   -1.1010 O   0  0  0  0  0
    0.0850   -2.1740   -1.6200 C   0  0  0  0  0
   -1.2790   -1.6070   -2.0590 C   0  0  0  0  0
   -1.3580   -0.4010   -2.3860 O   0  0  0  0  0
   -2.2690   -2.3710   -2.0330 O   0  0  0  0  0
   -0.1483   -0.9748   11.2293 H   0  0  0  0  0
    1.1030    0.5342   12.7494 H   0  0  0  0  0
    1.5371    2.8698   12.1039 H   0  0  0  0  0
    0.6205    3.8084   10.0058 H   0  0  0  0  0
   -0.6751    2.3134    8.4926 H   0  0  0  0  0
   -2.2001    0.1800    8.5232 H   0  0  0  0  0
   -1.5602   -1.2376    9.3638 H   0  0  0  0  0
   -1.4870    0.7449    6.4267 H   0  0  0  0  0
    1.5785   -2.7868    8.7801 H   0  0  0  0  0
    2.2269   -2.5124    6.5846 H   0  0  0  0  0
    1.7010   -1.3197    4.4457 H   0  0  0  0  0
    0.1510    1.5806    4.2172 H   0  0  0  0  0
   -1.4582    0.6437    4.1651 H   0  0  0  0  0
   -1.7310   -1.9539    3.6518 H   0  0  0  0  0
   -2.7295   -0.6514    2.9608 H   0  0  0  0  0
   -2.4892   -2.1653    2.0545 H   0  0  0  0  0
   -1.0508   -2.0463    0.2917 H   0  0  0  0  0
    1.3402    2.5339    2.9869 H   0  0  0  0  0
    2.3615    1.2468    3.6735 H   0  0  0  0  0
    2.7653    1.9545    2.0901 H   0  0  0  0  0
    2.3232    0.6116    0.2943 H   0  0  0  0  0
   -0.1169   -2.8731   -0.8085 H   0  0  0  0  0
    0.5420   -2.6059   -2.5104 H   0  0  0  0  0
   -0.4871   -0.0000   -2.3385 H   0  0  0  0  0
  1  2  4  0  0  0
  1  6  4  0  0  0
  2  3  4  0  0  0
  3  4  4  0  0  0
  4  5  4  0  0  0
  5  6  4  0  0  0
  6  7  1  0  0  0
  7  8  1  0  0  0
  8  9  4  0  0  0
  8 10  4  0  0  0
  9 14  4  0  0  0
 10 11  1  0  0  0
 10 12  4  0  0  0
 12 13  4  0  0  0
 13 14  4  0  0  0
 14 15  1  0  0  0
 15 16  1  0  0  0
 16 17  4  0  0  0
 16 20  4  0  0  0
 17 18  1  0  0  0
 17 19  4  0  0  0
 19 23  4  0  0  0
 20 21  1  0  0  0
 20 22  4  0  0  0
 22 23  4  0  0  0
 23 24  1  0  0  0
 24 25  1  0  0  0
 25 26  1  0  0  0
 26 27  1  0  0  0
 26 28  2  0  0  0
  1 29  1  0  0  0
  2 30  1  0  0  0
  3 31  1  0  0  0
  4 32  1  0  0  0
  5 33  1  0  0  0
  7 34  1  0  0  0
  7 35  1  0  0  0
  9 36  1  0  0  0
 11 37  1  0  0  0
 12 38  1  0  0  0
 13 39  1  0  0  0
 15 40  1  0  0  0
 15 41  1  0  0  0
 18 42  1  0  0  0
 18 43  1  0  0  0
 18 44  1  0  0  0
 19 45  1  0  0  0
 21 46  1  0  0  0
 21 47  1  0  0  0
 21 48  1  0  0  0
 22 49  1  0  0  0
 25 50  1  0  0  0
 25 51  1  0  0  0
 27 52  1  0  0  0
M  END
$$$$
