4j4v_ligand
  -I-interpret- 

 49 51  0  0  0  0  0  0  0  0999 V2000
   30.7180   32.3400   20.8580 N   0  0  0  0  0
   31.8310   31.4640   20.4990 C   0  0  0  0  0
   33.0680   32.0230   20.1930 C   0  0  0  0  0
   31.6570   30.0860   20.4620 C   0  0  0  0  0
   30.3370   29.4720   20.7870 C   0  0  0  0  0
   32.7190   29.2610   20.1190 C   0  0  0  0  0
   33.9570   29.8060   19.8120 C   0  0  0  0  0
   34.1490   31.1880   19.8430 C   0  0  0  0  0
   35.4940   31.7940   19.5100 C   0  0  0  0  0
   35.6170   33.0080   19.5930 O   0  0  0  0  0
   36.5920   30.9160   19.1010 N   0  0  0  0  0
   37.9400   31.3310   18.7560 C   0  0  0  0  0
   38.5950   32.2010   19.6020 C   0  0  0  0  0
   39.8720   32.6350   19.3540 C   0  0  0  0  0
   40.5660   32.1990   18.2470 C   0  0  0  0  0
   42.2190   32.8080   17.9930 S   0  0  0  0  0
   42.3060   33.5470   16.7590 O   0  0  0  0  0
   42.6610   33.7950   18.9510 O   0  0  0  0  0
   43.1570   31.6760   17.9870 O   0  0  0  0  0
   38.6200   30.8550   17.5970 C   0  0  0  0  0
   39.9530   31.3170   17.3570 C   0  0  0  0  0
   40.6420   30.8700   16.2210 C   0  0  0  0  0
   38.0520   29.9550   16.6670 C   0  0  0  0  0
   36.4170   29.2920   16.8160 S   0  0  0  0  0
   36.0890   28.3860   15.7450 O   0  0  0  0  0
   35.4170   30.3240   16.6630 O   0  0  0  0  0
   36.2700   28.6140   18.1060 O   0  0  0  0  0
   38.7810   29.5480   15.5680 C   0  0  0  0  0
   40.0510   30.0000   15.3470 C   0  0  0  0  0
   40.9610   29.4620   13.9370 S   0  0  0  0  0
   40.0510   28.9680   12.8880 O   0  0  0  0  0
   41.8350   30.4930   13.4320 O   0  0  0  0  0
   41.9200   28.4510   14.3180 O   0  0  0  0  0
   30.8520   33.3509   20.8825 H   0  0  0  0  0
   29.8071   31.9406   21.0841 H   0  0  0  0  0
   33.2011   33.1044   20.2238 H   0  0  0  0  0
   30.0551   29.7377   21.8058 H   0  0  0  0  0
   29.5840   29.8432   20.0918 H   0  0  0  0  0
   30.4107   28.3880   20.7000 H   0  0  0  0  0
   32.5796   28.1803   20.0907 H   0  0  0  0  0
   34.7857   29.1503   19.5447 H   0  0  0  0  0
   36.3907   29.9172   19.0539 H   0  0  0  0  0
   38.0815   32.5549   20.4960 H   0  0  0  0  0
   40.3446   33.3351   20.0429 H   0  0  0  0  0
   43.0841   31.1971   18.8158 H   0  0  0  0  0
   41.6574   31.2188   16.0327 H   0  0  0  0  0
   36.4902   29.2240   18.8138 H   0  0  0  0  0
   38.3333   28.8502   14.8604 H   0  0  0  0  0
   39.4839   28.2851   13.2535 H   0  0  0  0  0
  1  2  1  0  0  0
  2  3  4  0  0  0
  2  4  4  0  0  0
  3  8  4  0  0  0
  4  5  1  0  0  0
  4  6  4  0  0  0
  6  7  4  0  0  0
  7  8  4  0  0  0
  8  9  1  0  0  0
  9 10  2  0  0  0
  9 11  1  0  0  0
 11 12  1  0  0  0
 12 13  4  0  0  0
 12 20  4  0  0  0
 13 14  4  0  0  0
 14 15  4  0  0  0
 15 16  1  0  0  0
 15 21  4  0  0  0
 16 17  2  0  0  0
 16 18  2  0  0  0
 16 19  1  0  0  0
 20 21  4  0  0  0
 20 23  4  0  0  0
 21 22  4  0  0  0
 22 29  4  0  0  0
 23 24  1  0  0  0
 23 28  4  0  0  0
 24 25  2  0  0  0
 24 26  2  0  0  0
 24 27  1  0  0  0
 28 29  4  0  0  0
 29 30  1  0  0  0
 30 31  1  0  0  0
 30 32  2  0  0  0
 30 33  2  0  0  0
  1 34  1  0  0  0
  1 35  1  0  0  0
  3 36  1  0  0  0
  5 37  1  0  0  0
  5 38  1  0  0  0
  5 39  1  0  0  0
  6 40  1  0  0  0
  7 41  1  0  0  0
 11 42  1  0  0  0
 13 43  1  0  0  0
 14 44  1  0  0  0
 19 45  1  0  0  0
 22 46  1  0  0  0
 27 47  1  0  0  0
 28 48  1  0  0  0
 31 49  1  0  0  0
M  END
$$$$
