4mwx_ligand
  -I-interpret- 

 45 45  0  0  0  0  0  0  0  0999 V2000
  -23.7730  -64.7420  -19.4470 C   0  0  0  0  0
  -24.4320  -65.0710  -20.4720 O   0  0  0  0  0
  -22.5160  -64.9190  -19.4420 O   0  0  0  0  0
  -24.5190  -64.1850  -18.2540 C   0  0  0  0  0
  -23.7590  -63.3620  -17.3810 C   0  0  0  0  0
  -24.4640  -62.4600  -16.5180 C   0  0  0  0  0
  -25.9450  -62.5670  -16.5640 C   0  0  0  0  0
  -26.5740  -61.4710  -15.8260 N   0  0  0  0  0
  -27.1950  -61.6480  -14.5640 C   0  0  0  0  0
  -27.2310  -62.7900  -14.0110 O   0  0  0  0  0
  -27.8120  -60.4320  -13.8890 C   0  0  0  0  0
  -26.5510  -62.5720  -17.9730 C   0  0  0  0  0
  -25.7800  -63.6120  -18.7750 O   0  0  0  0  0
  -27.9290  -62.8380  -18.0680 C   0  0  0  0  0
  -28.2260  -64.1040  -17.6010 O   0  0  0  0  0
  -28.3050  -62.7950  -19.5540 C   0  0  0  0  0
  -27.9060  -61.6000  -20.1210 O   0  0  0  0  0
  -29.7700  -62.9070  -19.7500 C   0  0  0  0  0
  -30.5840  -61.8900  -19.1890 O   0  0  0  0  0
  -24.0960  -62.7500  -15.0600 N   0  0  0  0  0
  -23.9050  -61.7440  -14.0340 C   0  0  0  0  0
  -23.9990  -60.4710  -14.3200 N   0  0  0  0  0
  -23.6220  -62.1080  -12.7950 N   0  0  0  0  0
  -22.1558  -64.6240  -18.6025 H   0  0  0  0  0
  -24.7541  -64.9847  -17.5517 H   0  0  0  0  0
  -23.1592  -62.7271  -18.0331 H   0  0  0  0  0
  -23.2395  -64.0510  -16.7150 H   0  0  0  0  0
  -24.1701  -61.4719  -16.8721 H   0  0  0  0  0
  -26.1489  -63.5365  -16.1095 H   0  0  0  0  0
  -26.5652  -60.5380  -16.2381 H   0  0  0  0  0
  -28.8766  -60.6059  -13.7328 H   0  0  0  0  0
  -27.3250  -60.2652  -12.9282 H   0  0  0  0  0
  -27.6748  -59.5568  -14.5241 H   0  0  0  0  0
  -26.4593  -61.5545  -18.3530 H   0  0  0  0  0
  -28.4748  -62.1034  -17.4759 H   0  0  0  0  0
  -29.1704  -64.2586  -17.6773 H   0  0  0  0  0
  -27.8016  -63.6385  -20.0264 H   0  0  0  0  0
  -28.1491  -61.5908  -21.0497 H   0  0  0  0  0
  -30.0640  -63.8289  -19.2483 H   0  0  0  0  0
  -29.9277  -62.8490  -20.8270 H   0  0  0  0  0
  -31.5056  -62.0755  -19.3837 H   0  0  0  0  0
  -23.9761  -63.7263  -14.7901 H   0  0  0  0  0
  -24.2088  -60.1767  -15.2738 H   0  0  0  0  0
  -23.4798  -61.3995  -12.0752 H   0  0  0  0  0
  -23.5459  -63.0974  -12.5589 H   0  0  0  0  0
  1  2  2  0  0  0
  1  3  1  0  0  0
  1  4  1  0  0  0
  4  5  1  0  0  0
  4 13  1  0  0  0
  5  6  1  0  0  0
  6  7  1  0  0  0
  6 20  1  0  0  0
  7  8  1  0  0  0
  7 12  1  0  0  0
  8  9  1  0  0  0
  9 10  2  0  0  0
  9 11  1  0  0  0
 12 13  1  0  0  0
 12 14  1  0  0  0
 14 15  1  0  0  0
 14 16  1  0  0  0
 16 17  1  0  0  0
 16 18  1  0  0  0
 18 19  1  0  0  0
 20 21  1  0  0  0
 21 22  2  0  0  0
 21 23  1  0  0  0
  3 24  1  0  0  0
  4 25  1  0  0  0
  5 26  1  0  0  0
  5 27  1  0  0  0
  6 28  1  0  0  0
  7 29  1  0  0  0
  8 30  1  0  0  0
 11 31  1  0  0  0
 11 32  1  0  0  0
 11 33  1  0  0  0
 12 34  1  0  0  0
 14 35  1  0  0  0
 15 36  1  0  0  0
 16 37  1  0  0  0
 17 38  1  0  0  0
 18 39  1  0  0  0
 18 40  1  0  0  0
 19 41  1  0  0  0
 20 42  1  0  0  0
 22 43  1  0  0  0
 23 44  1  0  0  0
 23 45  1  0  0  0
M  END
$$$$
