4rhy_ligand
  -I-interpret- 

 65 66  0  0  0  0  0  0  0  0999 V2000
  -36.4950   12.2640  -17.7800 O   0  0  0  0  0
  -34.9600   12.6050  -17.4850 P   0  0  0  0  0
  -34.4120   11.5210  -16.4300 O   0  0  0  0  0
  -34.7330   13.9530  -16.9270 O   0  0  0  0  0
  -34.0060   12.2810  -18.9880 C   0  0  0  0  0
  -32.4700   12.3410  -18.7830 C   0  0  0  0  0
  -31.5610   12.0930  -19.9270 N   0  3  0  0  0
  -32.1240   11.2170  -20.9800 C   0  0  0  0  0
  -32.0000    9.7080  -20.6860 C   0  0  0  0  0
  -32.1750    8.6930  -22.1830 P   0  0  0  0  0
  -32.5180    7.2480  -21.5860 O   0  0  0  0  0
  -33.5400    9.1880  -22.8740 O   0  0  0  0  0
  -30.9860    8.7090  -23.0720 O   0  0  0  0  0
  -30.9900   13.3790  -20.3970 C   0  0  0  0  0
  -31.1220   13.8080  -21.8760 C   0  0  0  0  0
  -31.9630   14.9970  -22.0610 N   0  3  0  0  0
  -31.2280   16.1490  -21.5170 C   0  0  0  0  0
  -30.0260   16.5850  -22.3690 C   0  0  0  0  0
  -29.5530   18.2080  -21.7410 P   0  0  0  0  0
  -28.5860   18.8610  -22.8390 O   0  0  0  0  0
  -30.9270   19.0360  -21.6700 O   0  0  0  0  0
  -28.9060   18.0560  -20.4190 O   0  0  0  0  0
  -32.3420   15.1670  -23.4790 C   0  0  0  0  0
  -33.8450   15.4620  -23.5480 C   0  0  0  0  0
  -34.3010   16.0740  -24.8090 N   0  0  0  0  0
  -34.8850   15.3840  -25.7850 C   0  0  0  0  0
  -35.1680   14.0610  -25.8750 N   0  0  0  0  0
  -35.7940   13.5320  -27.0290 C   0  0  0  0  0
  -36.0950   14.3820  -28.0140 N   0  0  0  0  0
  -35.7910   15.7640  -27.8860 C   0  0  0  0  0
  -36.0910   16.5060  -28.8240 O   0  0  0  0  0
  -35.1870   16.2380  -26.7720 C   0  0  0  0  0
  -34.7850   17.4560  -26.3870 N   0  0  0  0  0
  -34.2430   17.3470  -25.1690 C   0  0  0  0  0
  -36.5611   11.3761  -18.1389 H   0  0  0  0  0
  -34.5524   10.6376  -16.7785 H   0  0  0  0  0
  -34.2669   13.0544  -19.7104 H   0  0  0  0  0
  -34.2500   11.2703  -19.3151 H   0  0  0  0  0
  -32.2560   11.5325  -18.0840 H   0  0  0  0  0
  -32.2729   13.3741  -18.4966 H   0  0  0  0  0
  -30.7801   11.5250  -19.5986 H   0  0  0  0  0
  -31.5620   11.4124  -21.8933 H   0  0  0  0  0
  -33.1880   11.4432  -21.0495 H   0  0  0  0  0
  -32.7981    9.4323  -19.9967 H   0  0  0  0  0
  -31.0093    9.5261  -20.2695 H   0  0  0  0  0
  -33.2935    7.3112  -21.0236 H   0  0  0  0  0
  -34.2545    9.1467  -22.2342 H   0  0  0  0  0
  -29.9164   13.2644  -20.2475 H   0  0  0  0  0
  -31.5510   14.1359  -19.8488 H   0  0  0  0  0
  -31.5892   12.9856  -22.4178 H   0  0  0  0  0
  -30.1235   14.0501  -22.2399 H   0  0  0  0  0
  -32.8459   14.9014  -21.5592 H   0  0  0  0  0
  -30.8418   15.8537  -20.5414 H   0  0  0  0  0
  -31.9223   16.9887  -21.4850 H   0  0  0  0  0
  -30.2810   16.6255  -23.4280 H   0  0  0  0  0
  -29.2042   15.8729  -22.2940 H   0  0  0  0  0
  -29.0552   18.9356  -23.6732 H   0  0  0  0  0
  -31.3036   19.1050  -22.5504 H   0  0  0  0  0
  -32.1149   14.2584  -24.0366 H   0  0  0  0  0
  -31.7802   15.9913  -23.9183 H   0  0  0  0  0
  -34.0628   16.1764  -22.7541 H   0  0  0  0  0
  -34.3585   14.5047  -23.4585 H   0  0  0  0  0
  -34.9271   13.4401  -25.1025 H   0  0  0  0  0
  -36.0221   12.4693  -27.1107 H   0  0  0  0  0
  -33.8269   18.1623  -24.5771 H   0  0  0  0  0
  1  2  1  0  0  0
  2  3  1  0  0  0
  2  4  2  0  0  0
  2  5  1  0  0  0
  5  6  1  0  0  0
  6  7  1  0  0  0
  7  8  1  0  0  0
  7 14  1  0  0  0
  8  9  1  0  0  0
  9 10  1  0  0  0
 10 11  1  0  0  0
 10 12  1  0  0  0
 10 13  2  0  0  0
 14 15  1  0  0  0
 15 16  1  0  0  0
 16 17  1  0  0  0
 16 23  1  0  0  0
 17 18  1  0  0  0
 18 19  1  0  0  0
 19 20  1  0  0  0
 19 21  1  0  0  0
 19 22  2  0  0  0
 23 24  1  0  0  0
 24 25  1  0  0  0
 25 26  4  0  0  0
 25 34  4  0  0  0
 26 27  1  0  0  0
 26 32  4  0  0  0
 27 28  1  0  0  0
 28 29  2  0  0  0
 29 30  1  0  0  0
 30 31  2  0  0  0
 30 32  1  0  0  0
 32 33  4  0  0  0
 33 34  4  0  0  0
  1 35  1  0  0  0
  3 36  1  0  0  0
  5 37  1  0  0  0
  5 38  1  0  0  0
  6 39  1  0  0  0
  6 40  1  0  0  0
  7 41  1  0  0  0
  8 42  1  0  0  0
  8 43  1  0  0  0
  9 44  1  0  0  0
  9 45  1  0  0  0
 11 46  1  0  0  0
 12 47  1  0  0  0
 14 48  1  0  0  0
 14 49  1  0  0  0
 15 50  1  0  0  0
 15 51  1  0  0  0
 16 52  1  0  0  0
 17 53  1  0  0  0
 17 54  1  0  0  0
 18 55  1  0  0  0
 18 56  1  0  0  0
 20 57  1  0  0  0
 21 58  1  0  0  0
 23 59  1  0  0  0
 23 60  1  0  0  0
 24 61  1  0  0  0
 24 62  1  0  0  0
 27 63  1  0  0  0
 28 64  1  0  0  0
 34 65  1  0  0  0
M  END
$$$$
