### 
### Created by X-TOOL on Mon Sep 10 21:13:24 2018
### 

@<TRIPOS>MOLECULE
4rhy_ligand
   59    60     1     0     0
SMALL
GAST_HUCK


@<TRIPOS>ATOM
      1 OAG       -36.4950   12.2640  -17.7800 O.co2     1 3QG        -0.5621
      2 PBG       -34.9600   12.6050  -17.4850 P.3       1 3QG         0.0628
      3 OAH       -34.4120   11.5210  -16.4300 O.co2     1 3QG        -0.5621
      4 OAC       -34.7330   13.9530  -16.9270 O.co2     1 3QG        -0.5621
      5 CAU       -34.0060   12.2810  -18.9880 C.3       1 3QG         0.0596
      6 CAQ       -32.4700   12.3410  -18.7830 C.3       1 3QG        -0.0164
      7 NBD       -31.5610   12.0930  -19.9270 N.4       1 3QG         0.2409
      8 CAR       -32.1240   11.2170  -20.9800 C.3       1 3QG        -0.0164
      9 CAV       -32.0000    9.7080  -20.6860 C.3       1 3QG         0.0596
     10 PBH       -32.1750    8.6930  -22.1830 P.3       1 3QG         0.0628
     11 OAI       -32.5180    7.2480  -21.5860 O.co2     1 3QG        -0.5621
     12 OAJ       -33.5400    9.1880  -22.8740 O.co2     1 3QG        -0.5621
     13 OAD       -30.9860    8.7090  -23.0720 O.co2     1 3QG        -0.5621
     14 CAN       -30.9900   13.3790  -20.3970 C.3       1 3QG         0.0093
     15 CAM       -31.1220   13.8080  -21.8760 C.3       1 3QG         0.0094
     16 NBC       -31.9630   14.9970  -22.0610 N.4       1 3QG         0.2419
     17 CAP       -31.2280   16.1490  -21.5170 C.3       1 3QG        -0.0163
     18 CAT       -30.0260   16.5850  -22.3690 C.3       1 3QG         0.0596
     19 PBF       -29.5530   18.2080  -21.7410 P.3       1 3QG         0.0628
     20 OAE       -28.5860   18.8610  -22.8390 O.co2     1 3QG        -0.5621
     21 OAF       -30.9270   19.0360  -21.6700 O.co2     1 3QG        -0.5621
     22 OAB       -28.9060   18.0560  -20.4190 O.co2     1 3QG        -0.5621
     23 CAO       -32.3420   15.1670  -23.4790 C.3       1 3QG        -0.0030
     24 CAS       -33.8450   15.4620  -23.5480 C.3       1 3QG         0.1020
     25 N9        -34.3010   16.0740  -24.8090 N.pl3     1 3QG        -0.2081
     26 C4        -34.8850   15.3840  -25.7850 C.2       1 3QG         0.2122
     27 N3        -35.1680   14.0610  -25.8750 N.pl3     1 3QG        -0.2068
     28 C2        -35.7940   13.5320  -27.0290 C.2       1 3QG         0.1280
     29 N1        -36.0950   14.3820  -28.0140 N.2       1 3QG        -0.2575
     30 C6        -35.7910   15.7640  -27.8860 C.2       1 3QG         0.1461
     31 O6        -36.0910   16.5060  -28.8240 O.2       1 3QG        -0.4217
     32 C5        -35.1870   16.2380  -26.7720 C.2       1 3QG         0.1015
     33 N7        -34.7850   17.4560  -26.3870 N.2       1 3QG        -0.3233
     34 C8        -34.2430   17.3470  -25.1690 C.2       1 3QG         0.0967
     35 H1        -34.2841   13.0310  -19.7431 H         1 3QG         0.0504
     36 H2        -34.2674   11.2773  -19.3545 H         1 3QG         0.0504
     37 H3        -32.2227   11.5953  -18.0131 H         1 3QG         0.0828
     38 H4        -32.2387   13.3481  -18.4058 H         1 3QG         0.0828
     39 H5        -30.7833   11.5728  -19.5520 H         1 3QG         0.2036
     40 H6        -31.5968   11.4285  -21.9219 H         1 3QG         0.0828
     41 H7        -33.1910   11.4587  -21.0947 H         1 3QG         0.0828
     42 H8        -32.7858    9.4217  -19.9715 H         1 3QG         0.0504
     43 H9        -31.0124    9.5147  -20.2419 H         1 3QG         0.0504
     44 H10       -29.9132   13.3443  -20.1750 H         1 3QG         0.0868
     45 H11       -31.4628   14.1705  -19.7971 H         1 3QG         0.0868
     46 H12       -31.5640   12.9756  -22.4432 H         1 3QG         0.0868
     47 H13       -30.1175   14.0261  -22.2677 H         1 3QG         0.0868
     48 H14       -32.8113   14.8808  -21.5290 H         1 3QG         0.2037
     49 H15       -30.8624   15.8833  -20.5142 H         1 3QG         0.0828
     50 H16       -31.9234   16.9978  -21.4408 H         1 3QG         0.0828
     51 H17       -30.3104   16.6512  -23.4295 H         1 3QG         0.0504
     52 H18       -29.1959   15.8722  -22.2558 H         1 3QG         0.0504
     53 H19       -32.1188   14.2451  -24.0360 H         1 3QG         0.0842
     54 H20       -31.7789   16.0049  -23.9159 H         1 3QG         0.0842
     55 H21       -34.0967   16.1473  -22.7252 H         1 3QG         0.0673
     56 H22       -34.3857   14.5136  -23.4136 H         1 3QG         0.0673
     57 H23       -34.9247   13.4340  -25.0949 H         1 3QG         0.2411
     58 H24       -36.0219   12.4703  -27.1107 H         1 3QG         0.1570
     59 H25       -33.8273   18.1615  -24.5777 H         1 3QG         0.1177
@<TRIPOS>BOND
     1    1    2 ar 
     2    2    3 ar 
     3    2    4 ar 
     4    2    5 1  
     5    5    6 1  
     6    6    7 1  
     7    7    8 1  
     8    7   14 1  
     9    8    9 1  
    10    9   10 1  
    11   10   11 ar 
    12   10   12 ar 
    13   10   13 ar 
    14   14   15 1  
    15   15   16 1  
    16   16   17 1  
    17   16   23 1  
    18   17   18 1  
    19   18   19 1  
    20   19   20 ar 
    21   19   21 ar 
    22   19   22 ar 
    23   23   24 1  
    24   24   25 1  
    25   25   26 1  
    26   25   34 1  
    27   26   27 1  
    28   26   32 2  
    29   27   28 1  
    30   28   29 2  
    31   29   30 1  
    32   30   31 2  
    33   30   32 1  
    34   32   33 1  
    35   33   34 2  
    36    5   35 1  
    37    5   36 1  
    38    6   37 1  
    39    6   38 1  
    40    7   39 1  
    41    8   40 1  
    42    8   41 1  
    43    9   42 1  
    44    9   43 1  
    45   14   44 1  
    46   14   45 1  
    47   15   46 1  
    48   15   47 1  
    49   16   48 1  
    50   17   49 1  
    51   17   50 1  
    52   18   51 1  
    53   18   52 1  
    54   23   53 1  
    55   23   54 1  
    56   24   55 1  
    57   24   56 1  
    58   27   57 1  
    59   28   58 1  
    60   34   59 1  
@<TRIPOS>SUBSTRUCTURE
     1 3QG         1

