4rwj_ligand
  -I-interpret- 

 67 70  0  0  0  0  0  0  0  0999 V2000
  -28.8550   -8.8390   15.6140 C   0  0  0  0  0
  -25.6520   -6.8330   15.6470 N   0  0  0  0  0
  -19.8840   -8.0920   13.4130 O   0  0  0  0  0
  -27.9020   -7.6420   15.4940 C   0  0  0  0  0
  -28.4220   -6.4890   16.2480 N   0  3  0  0  0
  -12.2890   -5.3300    7.8540 O   0  0  0  0  0
  -26.4820   -7.9900   15.9910 C   0  0  0  0  0
  -19.3780   -6.1190   14.4150 N   0  0  0  0  0
  -10.2750   -8.5600   10.7840 O   0  0  0  0  0
  -26.1380   -5.5100   16.2200 C   0  0  0  0  0
  -16.1360   -5.0190   14.1100 N   0  0  0  0  0
  -27.6470   -5.2630   16.0060 C   0  0  0  0  0
  -17.3570   -4.9580   14.5280 N   0  0  0  0  0
  -28.1310   -4.0950   16.8910 C   0  0  0  0  0
  -24.3360   -6.8730   15.3070 C   0  0  0  0  0
  -23.3780   -6.0650   15.9510 C   0  0  0  0  0
  -22.0370   -6.1330   15.5680 C   0  0  0  0  0
  -21.6350   -6.9950   14.5500 C   0  0  0  0  0
  -22.6000   -7.7750   13.9330 C   0  0  0  0  0
  -23.9340   -7.7240   14.2990 C   0  0  0  0  0
  -20.2250   -7.1290   14.0720 C   0  0  0  0  0
  -18.0560   -6.0020   14.0910 C   0  0  0  0  0
  -17.2570   -6.7670   13.3580 C   0  0  0  0  0
  -16.0610   -6.1570   13.3690 C   0  0  0  0  0
  -14.7560   -6.5300   12.7280 C   0  0  0  0  0
  -14.9090   -7.3130   11.4450 C   0  0  0  0  0
  -13.6160   -7.1700   10.6740 C   0  0  0  0  0
  -12.5050   -7.9180   11.0510 C   0  0  0  0  0
  -11.3070   -7.8050   10.3590 C   0  0  0  0  0
  -11.2120   -6.9320    9.2720 C   0  0  0  0  0
  -12.3190   -6.1920    8.9000 C   0  0  0  0  0
  -13.5180   -6.3070    9.5940 C   0  0  0  0  0
  -11.0220   -5.1250    7.2100 C   0  0  0  0  0
   -8.9560   -8.2700   10.2940 C   0  0  0  0  0
  -28.4744   -9.6663   15.0149 H   0  0  0  0  0
  -28.9218   -9.1453   16.6579 H   0  0  0  0  0
  -29.8432   -8.5525   15.2541 H   0  0  0  0  0
  -27.8388   -7.3843   14.4368 H   0  0  0  0  0
  -28.3608   -6.7092   17.2421 H   0  0  0  0  0
  -29.3810   -6.3205   15.9441 H   0  0  0  0  0
  -26.4709   -8.1846   17.0634 H   0  0  0  0  0
  -26.1084   -8.9020   15.5254 H   0  0  0  0  0
  -19.7751   -5.3658   14.9766 H   0  0  0  0  0
  -25.5997   -4.7133   15.7066 H   0  0  0  0  0
  -25.9592   -5.5333   17.2950 H   0  0  0  0  0
  -27.8092   -4.9818   14.9655 H   0  0  0  0  0
  -27.9552   -4.3378   17.9390 H   0  0  0  0  0
  -27.5817   -3.1906   16.6292 H   0  0  0  0  0
  -29.1967   -3.9345   16.7277 H   0  0  0  0  0
  -23.6837   -5.3871   16.7479 H   0  0  0  0  0
  -21.2990   -5.5068   16.0693 H   0  0  0  0  0
  -22.2986   -8.4511   13.1329 H   0  0  0  0  0
  -24.6645   -8.3545   13.7921 H   0  0  0  0  0
  -17.5174   -7.6968   12.8523 H   0  0  0  0  0
  -14.2167   -7.1629   13.4328 H   0  0  0  0  0
  -14.2372   -5.6031   12.4834 H   0  0  0  0  0
  -15.7470   -6.9319   10.8614 H   0  0  0  0  0
  -15.1134   -8.3621   11.6587 H   0  0  0  0  0
  -12.5761   -8.5998   11.8985 H   0  0  0  0  0
  -10.2752   -6.8355    8.7233 H   0  0  0  0  0
  -14.3824   -5.7175    9.2883 H   0  0  0  0  0
  -10.3076   -4.7318    7.9333 H   0  0  0  0  0
  -10.6579   -6.0742    6.8169 H   0  0  0  0  0
  -11.1422   -4.4140    6.3926 H   0  0  0  0  0
   -8.9426   -8.3708    9.2088 H   0  0  0  0  0
   -8.6836   -7.2510   10.5689 H   0  0  0  0  0
   -8.2446   -8.9689   10.7339 H   0  0  0  0  0
  4  1  1  0  0  0
  2  7  1  0  0  0
  2 10  1  0  0  0
 15  2  1  0  0  0
 21  3  2  0  0  0
  4  5  1  0  0  0
  7  4  1  0  0  0
 12  5  1  0  0  0
 31  6  1  0  0  0
  6 33  1  0  0  0
  8 21  1  0  0  0
 22  8  1  0  0  0
 29  9  1  0  0  0
  9 34  1  0  0  0
 10 12  1  0  0  0
 11 13  4  0  0  0
 24 11  4  0  0  0
 12 14  1  0  0  0
 22 13  4  0  0  0
 16 15  4  0  0  0
 20 15  4  0  0  0
 17 16  4  0  0  0
 18 17  4  0  0  0
 18 19  4  0  0  0
 21 18  1  0  0  0
 19 20  4  0  0  0
 23 22  4  0  0  0
 24 23  4  0  0  0
 25 24  1  0  0  0
 26 25  1  0  0  0
 27 26  1  0  0  0
 28 27  4  0  0  0
 27 32  4  0  0  0
 29 28  4  0  0  0
 30 29  4  0  0  0
 30 31  4  0  0  0
 31 32  4  0  0  0
  1 35  1  0  0  0
  1 36  1  0  0  0
  1 37  1  0  0  0
  4 38  1  0  0  0
  5 39  1  0  0  0
  5 40  1  0  0  0
  7 41  1  0  0  0
  7 42  1  0  0  0
  8 43  1  0  0  0
 10 44  1  0  0  0
 10 45  1  0  0  0
 12 46  1  0  0  0
 14 47  1  0  0  0
 14 48  1  0  0  0
 14 49  1  0  0  0
 16 50  1  0  0  0
 17 51  1  0  0  0
 19 52  1  0  0  0
 20 53  1  0  0  0
 23 54  1  0  0  0
 25 55  1  0  0  0
 25 56  1  0  0  0
 26 57  1  0  0  0
 26 58  1  0  0  0
 28 59  1  0  0  0
 30 60  1  0  0  0
 32 61  1  0  0  0
 33 62  1  0  0  0
 33 63  1  0  0  0
 33 64  1  0  0  0
 34 65  1  0  0  0
 34 66  1  0  0  0
 34 67  1  0  0  0
M  END
$$$$
