### 
### Created by X-TOOL on Mon Sep 10 21:13:02 2018
### 

@<TRIPOS>MOLECULE
3dpf_ligand
   59    64     1     0     0
SMALL
GAST_HUCK


@<TRIPOS>ATOM
      1 N1         14.4250   31.5970   19.1950 N.2       1 AXB        -0.3315
      2 CAZ        13.6030   32.5630   18.7920 C.2       1 AXB         0.1718
      3 CBF        13.5700   34.0500   18.9400 C.2       1 AXB         0.2827
      4 OAD        14.3200   34.9200   19.5000 O.2       1 AXB        -0.3117
      5 CBG        12.2770   34.0960   18.2040 C.2       1 AXB         0.2735
      6 OAE        11.4860   34.9530   17.8120 O.2       1 AXB        -0.3399
      7 CBD        12.4120   32.5790   18.0690 C.3       1 AXB         0.1371
      8 N2         11.6950   31.6480   17.4430 N.4       1 AXB         0.2833
      9 CAM        10.2810   32.0410   17.3450 C.3       1 AXB        -0.0185
     10 CAK         9.6220   31.2170   16.2360 C.3       1 AXB         0.0160
     11 CAP        11.7980   30.3360   18.1000 C.3       1 AXB         0.0027
     12 CAY        11.0160   29.3360   17.2460 C.ar      1 AXB        -0.0027
     13 CAJ        11.3470   27.9880   17.3260 C.ar      1 AXB        -0.0584
     14 CAX        10.0000   29.7430   16.3870 C.ar      1 AXB        -0.0376
     15 CAI         9.3250   28.8000   15.6210 C.ar      1 AXB        -0.0729
     16 CAH         9.6570   27.4510   15.7010 C.ar      1 AXB        -0.0719
     17 CAW        10.6730   27.0460   16.5580 C.ar      1 AXB        -0.0343
     18 CAO        11.0650   25.5700   16.6760 C.3       1 AXB         0.0602
     19 N3         10.3380   24.7390   15.7050 N.am      1 AXB        -0.2677
     20 CAV        10.6780   24.6720   14.4210 C.2       1 AXB         0.2725
     21 OAB        11.5960   25.3120   13.9100 O.2       1 AXB        -0.3641
     22 CBB         9.8050   23.7350   13.5850 C.2       1 AXB         0.2375
     23 N4          8.8330   23.0350   14.1850 N.2       1 AXB        -0.2628
     24 CBH         8.0330   22.2130   13.4920 C.2       1 AXB         0.0846
     25 SAU         6.7280   21.2280   13.9980 S.3       1 AXB        -0.0296
     26 CBA         6.3350   20.5850   12.4610 C.2       1 AXB         0.0294
     27 CAQ         5.2300   19.5690   12.1590 C.3       1 AXB         0.1029
     28 SBK         4.8970   19.4910   10.3640 S.o2      1 AXB        -0.0212
     29 OAF         4.2750   18.1710   10.0130 O.2       1 AXB        -0.1722
     30 OAG         3.9910   20.6210    9.9730 O.2       1 AXB        -0.1722
     31 CAN         6.5350   19.6650    9.5730 C.3       1 AXB         0.0721
     32 CAL         7.2010   20.9640   10.0320 C.3       1 AXB        -0.0172
     33 CBC         7.2310   21.1560   11.5530 C.2       1 AXB        -0.0456
     34 CBI         8.1590   22.0360   12.1160 C.2       1 AXB         0.0462
     35 CBE         9.1670   22.7510   11.4770 C.2       1 AXB         0.2125
     36 OAC         9.3390   22.6390   10.2640 O.2       1 AXB        -0.4052
     37 N5         10.0000   23.6080   12.2060 N.am      1 AXB        -0.1955
     38 H1         15.2530   31.8270   19.7219 H         1 AXB         0.1203
     39 H2         11.7872   32.3665   18.9490 H         1 AXB         0.1362
     40 H3         12.0611   31.5573   16.5082 H         1 AXB         0.2095
     41 H4         10.2096   33.1118   17.1035 H         1 AXB         0.0836
     42 H5          9.7749   31.8464   18.3020 H         1 AXB         0.0836
     43 H6          9.9651   31.5829   15.2570 H         1 AXB         0.0451
     44 H7          8.5292   31.3219   16.3042 H         1 AXB         0.0451
     45 H8         11.3663   30.3862   19.1105 H         1 AXB         0.0965
     46 H9         12.8525   30.0302   18.1665 H         1 AXB         0.0965
     47 H10        12.1387   27.6686   17.9941 H         1 AXB         0.0480
     48 H11         8.5318   29.1186   14.9544 H         1 AXB         0.0521
     49 H12         9.1270   26.7216   15.0993 H         1 AXB         0.0483
     50 H13        10.8321   25.2186   17.6920 H         1 AXB         0.0670
     51 H14        12.1451   25.4714   16.4925 H         1 AXB         0.0670
     52 H15         9.5563   24.2025   16.0229 H         1 AXB         0.1880
     53 H16         4.3109   19.8684   12.6840 H         1 AXB         0.0653
     54 H17         5.5465   18.5760   12.5109 H         1 AXB         0.0653
     55 H18         6.4118   19.6850    8.4801 H         1 AXB         0.0516
     56 H19         7.1686   18.8112    9.8550 H         1 AXB         0.0516
     57 H20         6.6514   21.8078    9.5893 H         1 AXB         0.0368
     58 H21         8.2376   20.9681    9.6640 H         1 AXB         0.0368
     59 H22        10.7245   24.1223   11.7470 H         1 AXB         0.2538
@<TRIPOS>BOND
     1    1    2 2  
     2    2    3 1  
     3    2    7 1  
     4    3    4 2  
     5    3    5 1  
     6    5    6 2  
     7    5    7 1  
     8    7    8 1  
     9    8    9 1  
    10    8   11 1  
    11    9   10 1  
    12   10   14 1  
    13   11   12 1  
    14   12   13 ar 
    15   12   14 ar 
    16   13   17 ar 
    17   14   15 ar 
    18   15   16 ar 
    19   16   17 ar 
    20   17   18 1  
    21   18   19 1  
    22   19   20 am 
    23   20   21 2  
    24   20   22 1  
    25   22   23 2  
    26   22   37 1  
    27   23   24 1  
    28   24   25 1  
    29   24   34 2  
    30   25   26 1  
    31   26   27 1  
    32   26   33 2  
    33   27   28 1  
    34   28   29 2  
    35   28   30 2  
    36   28   31 1  
    37   31   32 1  
    38   32   33 1  
    39   33   34 1  
    40   34   35 1  
    41   35   36 2  
    42   35   37 am 
    43    1   38 1  
    44    7   39 1  
    45    8   40 1  
    46    9   41 1  
    47    9   42 1  
    48   10   43 1  
    49   10   44 1  
    50   11   45 1  
    51   11   46 1  
    52   13   47 1  
    53   15   48 1  
    54   16   49 1  
    55   18   50 1  
    56   18   51 1  
    57   19   52 1  
    58   27   53 1  
    59   27   54 1  
    60   31   55 1  
    61   31   56 1  
    62   32   57 1  
    63   32   58 1  
    64   37   59 1  
@<TRIPOS>SUBSTRUCTURE
     1 AXB         1

