3r21_ligand
  -I-interpret- 

 60 63  0  0  0  0  0  0  0  0999 V2000
    3.8050   34.6550    0.4860 S   0  0  0  0  0
    3.1210   35.8630   -0.4390 C   0  0  0  0  0
    2.7750   33.7570    1.1990 N   0  0  0  0  0
    4.7240   35.3070    1.4110 O   0  0  0  0  0
    1.6330   33.1370    0.4900 C   0  0  0  0  0
    1.5950   31.3110   -1.2840 N   0  3  0  0  0
    4.6400   33.8240   -0.3130 O   0  0  0  0  0
    2.0710   31.7210    0.0600 C   0  0  0  0  0
    3.2960   32.9040    6.6580 N   0  0  0  0  0
    2.9740   33.4980    2.5600 C   0  0  0  0  0
    4.7670   31.0750    6.8340 N   0  0  0  0  0
    3.9980   32.6040    3.0260 C   0  0  0  0  0
    6.2870   29.1630    7.2700 N   0  0  0  0  0
    4.1550   32.3740    4.4130 C   0  0  0  0  0
    6.7390   28.5080    8.4310 N   0  0  0  0  0
    3.2720   33.0160    5.3020 C   0  0  0  0  0
    3.8090   31.9770    8.7910 N   0  0  0  0  0
    3.9570   31.9880    7.4270 C   0  0  0  0  0
    2.1660   34.1140    3.4460 N   0  0  0  0  0
    5.4310   30.1550    7.5460 C   0  0  0  0  0
    6.8790   28.6170    6.0170 C   0  0  0  0  0
    7.9140   29.6720    5.5530 C   0  0  0  0  0
    7.7600   30.2560    4.1360 C   0  0  0  0  0
    8.0730   29.2710    3.0030 C   0  0  0  0  0
    6.7480   28.5410    2.6890 C   0  0  0  0  0
    6.3550   27.5440    3.8110 C   0  0  0  0  0
    5.7660   28.2610    5.0200 C   0  0  0  0  0
    6.1200   29.0930    9.4840 C   0  0  0  0  0
    5.3090   30.1340    8.9000 C   0  0  0  0  0
    4.4690   31.0760    9.5290 C   0  0  0  0  0
    2.2920   33.8700    4.7730 C   0  0  0  0  0
    2.5903   36.5595    0.2101 H   0  0  0  0  0
    3.9052   36.3934   -0.9792 H   0  0  0  0  0
    2.4221   35.4227   -1.1502 H   0  0  0  0  0
    1.3549   33.7317   -0.3801 H   0  0  0  0  0
    0.7608   33.0858    1.1417 H   0  0  0  0  0
    1.9272   30.3684   -1.4881 H   0  0  0  0  0
    0.5752   31.3245   -1.3010 H   0  0  0  0  0
    1.9565   31.9591   -1.9837 H   0  0  0  0  0
    1.6406   31.0224    0.7775 H   0  0  0  0  0
    3.1605   31.7207    0.0262 H   0  0  0  0  0
    2.7475   33.5961    7.1684 H   0  0  0  0  0
    4.6526   32.1040    2.3121 H   0  0  0  0  0
    4.9405   31.7158    4.7844 H   0  0  0  0  0
    7.4054   27.6707    6.1415 H   0  0  0  0  0
    8.8742   29.1561    5.5518 H   0  0  0  0  0
    7.7911   30.5170    6.2304 H   0  0  0  0  0
    8.4725   31.0765    4.0506 H   0  0  0  0  0
    6.7161   30.5489    4.0240 H   0  0  0  0  0
    8.8499   28.5659    3.2985 H   0  0  0  0  0
    8.4533   29.7910    2.1238 H   0  0  0  0  0
    6.8787   27.9795    1.7639 H   0  0  0  0  0
    5.9587   29.2879    2.6043 H   0  0  0  0  0
    7.2524   27.0136    4.1294 H   0  0  0  0  0
    5.6027   26.8612    3.4161 H   0  0  0  0  0
    5.2761   29.1767    4.6890 H   0  0  0  0  0
    5.0449   27.6055    5.5082 H   0  0  0  0  0
    6.2136   28.8348   10.5388 H   0  0  0  0  0
    4.3574   31.0705   10.6133 H   0  0  0  0  0
    1.6014   34.3588    5.4602 H   0  0  0  0  0
  1  2  1  0  0  0
  3  1  1  0  0  0
  1  4  2  0  0  0
  1  7  2  0  0  0
  3  5  1  0  0  0
 10  3  1  0  0  0
  5  8  1  0  0  0
  8  6  1  0  0  0
 16  9  1  0  0  0
  9 18  1  0  0  0
 12 10  4  0  0  0
 10 19  4  0  0  0
 18 11  4  0  0  0
 11 20  4  0  0  0
 14 12  4  0  0  0
 13 15  4  0  0  0
 20 13  4  0  0  0
 13 21  1  0  0  0
 14 16  4  0  0  0
 15 28  4  0  0  0
 16 31  4  0  0  0
 18 17  4  0  0  0
 17 30  4  0  0  0
 19 31  4  0  0  0
 20 29  4  0  0  0
 21 22  1  0  0  0
 21 27  1  0  0  0
 22 23  1  0  0  0
 23 24  1  0  0  0
 24 25  1  0  0  0
 25 26  1  0  0  0
 26 27  1  0  0  0
 28 29  4  0  0  0
 29 30  4  0  0  0
  2 32  1  0  0  0
  2 33  1  0  0  0
  2 34  1  0  0  0
  5 35  1  0  0  0
  5 36  1  0  0  0
  6 37  1  0  0  0
  6 38  1  0  0  0
  6 39  1  0  0  0
  8 40  1  0  0  0
  8 41  1  0  0  0
  9 42  1  0  0  0
 12 43  1  0  0  0
 14 44  1  0  0  0
 21 45  1  0  0  0
 22 46  1  0  0  0
 22 47  1  0  0  0
 23 48  1  0  0  0
 23 49  1  0  0  0
 24 50  1  0  0  0
 24 51  1  0  0  0
 25 52  1  0  0  0
 25 53  1  0  0  0
 26 54  1  0  0  0
 26 55  1  0  0  0
 27 56  1  0  0  0
 27 57  1  0  0  0
 28 58  1  0  0  0
 30 59  1  0  0  0
 31 60  1  0  0  0
M  END
$$$$
