2pja_ligand
  -I-interpret- 

 82 84  0  0  0  0  0  0  0  0999 V2000
   38.6150   18.6500   62.7230 C   0  0  0  0  0
   39.2120   19.0240   61.4920 C   0  0  0  0  0
   38.4880   19.8240   60.5720 C   0  0  0  0  0
   37.1710   20.2520   60.8830 C   0  0  0  0  0
   36.5720   19.8780   62.1130 C   0  0  0  0  0
   37.2930   19.0750   63.0330 C   0  0  0  0  0
   36.6920   18.6520   64.2160 C   0  0  0  0  0
   36.6780   17.2330   64.4840 O   0  0  0  0  0
   36.2220   16.8260   65.7200 C   0  0  0  0  0
   35.7640   17.6420   66.5300 O   0  0  0  0  0
   36.2440   15.5040   65.9630 N   0  0  0  0  0
   36.7060   14.5200   64.9480 C   0  0  0  0  0
   36.9430   13.1520   65.5970 C   0  0  0  0  0
   38.0730   13.2020   66.6370 C   0  0  0  0  0
   39.4280   13.2920   66.2200 C   0  0  0  0  0
   40.4670   13.3240   67.1840 C   0  0  0  0  0
   40.1550   13.2670   68.5670 C   0  0  0  0  0
   38.8030   13.1780   68.9880 C   0  0  0  0  0
   37.7610   13.1460   68.0210 C   0  0  0  0  0
   35.6220   14.3890   63.8690 C   0  0  0  0  0
   34.4360   14.2730   64.1940 O   0  0  0  0  0
   36.0590   14.4750   62.6060 N   0  0  0  0  0
   35.1310   14.3760   61.4610 C   0  0  0  0  0
   35.1290   15.6530   60.5720 C   0  0  0  0  0
   36.5270   16.1410   60.1890 C   0  0  0  0  0
   34.3790   16.7840   61.2860 C   0  0  0  0  0
   35.3390   12.7860   60.5610 P   0  0  0  0  0
   34.3460   12.7440   59.4610 O   0  0  0  0  0
   35.2660   11.7410   61.6140 O   0  0  0  0  0
   36.9980   12.7710   59.8450 C   0  0  0  0  0
   37.3210   11.3250   59.4110 C   0  0  0  0  0
   37.7640   10.4740   60.6340 C   0  0  0  0  0
   38.3810   11.0550   61.5600 O   0  0  0  0  0
   37.4200    9.2710   60.6330 O   0  0  0  0  0
   38.3740   11.2740   58.2440 C   0  0  0  0  0
   38.9010   10.0250   57.8250 C   0  0  0  0  0
   38.7300   12.4470   57.5110 C   0  0  0  0  0
   39.5880   12.3610   56.3860 C   0  0  0  0  0
   40.1060   11.1060   55.9740 C   0  0  0  0  0
   39.7650    9.9360   56.6890 C   0  0  0  0  0
   40.2380    8.7380   56.2920 N   0  0  0  0  0
   41.1140    8.0350   57.0370 C   0  0  0  0  0
   41.5800    8.5270   58.1910 N   0  0  0  0  0
   41.5400    6.8470   56.6080 N   0  0  0  0  0
   39.1698   18.0361   63.4326 H   0  0  0  0  0
   40.2243   18.6974   61.2539 H   0  0  0  0  0
   38.9437   20.1108   59.6243 H   0  0  0  0  0
   36.6186   20.8696   60.1749 H   0  0  0  0  0
   35.5603   20.2069   62.3505 H   0  0  0  0  0
   35.6456   18.9466   64.1361 H   0  0  0  0  0
   37.2786   19.0974   65.0195 H   0  0  0  0  0
   35.9336   15.1646   66.8734 H   0  0  0  0  0
   37.6430   14.8638   64.5100 H   0  0  0  0  0
   37.2271   12.4468   64.8159 H   0  0  0  0  0
   36.0258   12.8488   66.1019 H   0  0  0  0  0
   39.6691   13.3365   65.1579 H   0  0  0  0  0
   41.5063   13.3924   66.8625 H   0  0  0  0  0
   40.9550   13.2916   69.3069 H   0  0  0  0  0
   38.5636   13.1342   70.0505 H   0  0  0  0  0
   36.7217   13.0784   68.3425 H   0  0  0  0  0
   37.0545   14.6119   62.4309 H   0  0  0  0  0
   34.1145   14.3443   61.8533 H   0  0  0  0  0
   34.6268   15.3751   59.6453 H   0  0  0  0  0
   37.0886   16.3763   61.0930 H   0  0  0  0  0
   37.0434   15.3592   59.6321 H   0  0  0  0  0
   36.4418   17.0340   59.5699 H   0  0  0  0  0
   33.3510   16.4743   61.4743 H   0  0  0  0  0
   34.8725   17.0046   62.2325 H   0  0  0  0  0
   34.3823   17.6742   60.6570 H   0  0  0  0  0
   35.9627   11.8879   62.2579 H   0  0  0  0  0
   37.7268   13.1142   60.5792 H   0  0  0  0  0
   37.0419   13.4396   58.9853 H   0  0  0  0  0
   36.4063   10.8873   59.0111 H   0  0  0  0  0
   38.5260   11.9730   61.3196 H   0  0  0  0  0
   38.6437    9.1208   58.3767 H   0  0  0  0  0
   38.3386   13.4165   57.8193 H   0  0  0  0  0
   39.8512   13.2636   55.8346 H   0  0  0  0  0
   40.7653   11.0446   55.1082 H   0  0  0  0  0
   39.9238    8.3521   55.4016 H   0  0  0  0  0
   42.2570    7.9936   58.7365 H   0  0  0  0  0
   41.2582    9.4354   58.5251 H   0  0  0  0  0
   41.2031    6.4745   55.7202 H   0  0  0  0  0
  1  2  4  0  0  0
  1  6  4  0  0  0
  2  3  4  0  0  0
  3  4  4  0  0  0
  4  5  4  0  0  0
  5  6  4  0  0  0
  6  7  1  0  0  0
  7  8  1  0  0  0
  8  9  1  0  0  0
  9 10  2  0  0  0
  9 11  1  0  0  0
 11 12  1  0  0  0
 12 13  1  0  0  0
 12 20  1  0  0  0
 13 14  1  0  0  0
 14 15  4  0  0  0
 14 19  4  0  0  0
 15 16  4  0  0  0
 16 17  4  0  0  0
 17 18  4  0  0  0
 18 19  4  0  0  0
 20 21  2  0  0  0
 20 22  1  0  0  0
 22 23  1  0  0  0
 23 24  1  0  0  0
 23 27  1  0  0  0
 24 25  1  0  0  0
 24 26  1  0  0  0
 27 28  2  0  0  0
 27 29  1  0  0  0
 27 30  1  0  0  0
 30 31  1  0  0  0
 31 32  1  0  0  0
 31 35  1  0  0  0
 32 33  1  0  0  0
 32 34  2  0  0  0
 35 36  4  0  0  0
 35 37  4  0  0  0
 36 40  4  0  0  0
 37 38  4  0  0  0
 38 39  4  0  0  0
 39 40  4  0  0  0
 40 41  1  0  0  0
 41 42  1  0  0  0
 42 43  1  0  0  0
 42 44  2  0  0  0
  1 45  1  0  0  0
  2 46  1  0  0  0
  3 47  1  0  0  0
  4 48  1  0  0  0
  5 49  1  0  0  0
  7 50  1  0  0  0
  7 51  1  0  0  0
 11 52  1  0  0  0
 12 53  1  0  0  0
 13 54  1  0  0  0
 13 55  1  0  0  0
 15 56  1  0  0  0
 16 57  1  0  0  0
 17 58  1  0  0  0
 18 59  1  0  0  0
 19 60  1  0  0  0
 22 61  1  0  0  0
 23 62  1  0  0  0
 24 63  1  0  0  0
 25 64  1  0  0  0
 25 65  1  0  0  0
 25 66  1  0  0  0
 26 67  1  0  0  0
 26 68  1  0  0  0
 26 69  1  0  0  0
 29 70  1  0  0  0
 30 71  1  0  0  0
 30 72  1  0  0  0
 31 73  1  0  0  0
 33 74  1  0  0  0
 36 75  1  0  0  0
 37 76  1  0  0  0
 38 77  1  0  0  0
 39 78  1  0  0  0
 41 79  1  0  0  0
 43 80  1  0  0  0
 43 81  1  0  0  0
 44 82  1  0  0  0
M  END
$$$$
