### 
### Created by X-TOOL on Mon Sep 10 21:12:57 2018
### 

@<TRIPOS>MOLECULE
2pja_ligand
   81    83     1     0     0
SMALL
GAST_HUCK


@<TRIPOS>ATOM
      1 C49        38.6150   18.6500   62.7230 C.ar      1 33Z        -0.0578
      2 C50        39.2120   19.0240   61.4920 C.ar      1 33Z        -0.0685
      3 C51        38.4880   19.8240   60.5720 C.ar      1 33Z        -0.0687
      4 C52        37.1710   20.2520   60.8830 C.ar      1 33Z        -0.0685
      5 C53        36.5720   19.8780   62.1130 C.ar      1 33Z        -0.0578
      6 C48        37.2930   19.0750   63.0330 C.ar      1 33Z        -0.0130
      7 C47        36.6920   18.6520   64.2160 C.3       1 33Z         0.1113
      8 O46        36.6780   17.2330   64.4840 O.3       1 33Z        -0.2505
      9 C44        36.2220   16.8260   65.7200 C.2       1 33Z         0.3240
     10 O45        35.7640   17.6420   66.5300 O.2       1 33Z        -0.3773
     11 N43        36.2440   15.5040   65.9630 N.am      1 33Z        -0.2393
     12 C34        36.7060   14.5200   64.9480 C.3       1 33Z         0.1422
     13 C35        36.9430   13.1520   65.5970 C.3       1 33Z         0.0214
     14 C36        38.0730   13.2020   66.6370 C.ar      1 33Z        -0.0386
     15 C37        39.4280   13.2920   66.2200 C.ar      1 33Z        -0.0601
     16 C38        40.4670   13.3240   67.1840 C.ar      1 33Z        -0.0686
     17 C41        40.1550   13.2670   68.5670 C.ar      1 33Z        -0.0687
     18 C40        38.8030   13.1780   68.9880 C.ar      1 33Z        -0.0686
     19 C39        37.7610   13.1460   68.0210 C.ar      1 33Z        -0.0601
     20 C32        35.6220   14.3890   63.8690 C.2       1 33Z         0.2051
     21 O33        34.4360   14.2730   64.1940 O.2       1 33Z        -0.3943
     22 N31        36.0590   14.4750   62.6060 N.am      1 33Z        -0.2659
     23 C27        35.1310   14.3760   61.4610 C.3       1 33Z         0.1088
     24 C28        35.1290   15.6530   60.5720 C.3       1 33Z        -0.0071
     25 C30        36.5270   16.1410   60.1890 C.3       1 33Z        -0.0591
     26 C29        34.3790   16.7840   61.2860 C.3       1 33Z        -0.0591
     27 P24        35.3390   12.7860   60.5610 P.3       1 33Z         0.0149
     28 O25        34.3460   12.7440   59.4610 O.co2     1 33Z        -0.6174
     29 O26        35.2660   11.7410   61.6140 O.co2     1 33Z        -0.6174
     30 C23        36.9980   12.7710   59.8450 C.3       1 33Z         0.0441
     31 C1         37.3210   11.3250   59.4110 C.3       1 33Z         0.1184
     32 C2         37.7640   10.4740   60.6340 C.2       1 33Z         0.3610
     33 O14        38.3810   11.0550   61.5600 O.co2     1 33Z        -0.2593
     34 O13        37.4200    9.2710   60.6330 O.co2     1 33Z        -0.2593
     35 C3         38.3740   11.2740   58.2440 C.ar      1 33Z        -0.0295
     36 C8         38.9010   10.0250   57.8250 C.ar      1 33Z        -0.0357
     37 C4         38.7300   12.4470   57.5110 C.ar      1 33Z        -0.0689
     38 C5         39.5880   12.3610   56.3860 C.ar      1 33Z        -0.0769
     39 C6         40.1060   11.1060   55.9740 C.ar      1 33Z        -0.0455
     40 C7         39.7650    9.9360   56.6890 C.ar      1 33Z         0.0444
     41 N9         40.2380    8.7380   56.2920 N.pl3     1 33Z        -0.3025
     42 C10        41.1140    8.0350   57.0370 C.cat     1 33Z         0.1283
     43 N12        41.5800    8.5270   58.1910 N.pl3     1 33Z        -0.3577
     44 N11        41.5400    6.8470   56.6080 N.pl3     1 33Z        -0.3577
     45 H1         39.1667   18.0395   63.4287 H         1 33Z         0.0557
     46 H2         40.2187   18.6992   61.2552 H         1 33Z         0.0599
     47 H3         38.9412   20.1092   59.6295 H         1 33Z         0.0559
     48 H4         36.6216   20.8662   60.1787 H         1 33Z         0.0599
     49 H5         35.5659   20.2051   62.3492 H         1 33Z         0.0557
     50 H6         35.6468   18.9942   64.1958 H         1 33Z         0.0776
     51 H7         37.2215   19.1396   65.0478 H         1 33Z         0.0776
     52 H8         35.9397   15.1713   66.8556 H         1 33Z         0.1901
     53 H9         37.6425   14.8743   64.4926 H         1 33Z         0.0823
     54 H10        37.2118   12.4280   64.8137 H         1 33Z         0.0474
     55 H11        36.0164   12.8280   66.0934 H         1 33Z         0.0474
     56 H12        39.6677   13.3362   65.1638 H         1 33Z         0.0557
     57 H13        41.5005   13.3921   66.8643 H         1 33Z         0.0599
     58 H14        40.9506   13.2915   69.3029 H         1 33Z         0.0559
     59 H15        38.5649   13.1345   70.0446 H         1 33Z         0.0599
     60 H16        36.7274   13.0788   68.3408 H         1 33Z         0.0557
     61 H17        37.0350   14.6092   62.4343 H         1 33Z         0.1870
     62 H18        34.1221   14.3316   61.8971 H         1 33Z         0.0767
     63 H19        34.5927   15.4104   59.6428 H         1 33Z         0.0334
     64 H20        36.4423   17.0423   59.5641 H         1 33Z         0.0234
     65 H21        37.0493   15.3529   59.6268 H         1 33Z         0.0234
     66 H22        37.0949   16.3789   61.1005 H         1 33Z         0.0234
     67 H23        33.3724   16.4382   61.5638 H         1 33Z         0.0234
     68 H24        34.2964   17.6508   60.6138 H         1 33Z         0.0234
     69 H25        34.9301   17.0743   62.1926 H         1 33Z         0.0234
     70 H26        37.7301   13.1077   60.5937 H         1 33Z         0.0510
     71 H27        37.0331   13.4388   58.9716 H         1 33Z         0.0510
     72 H28        36.3905   10.8839   59.0243 H         1 33Z         0.0691
     73 H29        38.6451    9.1258   58.3736 H         1 33Z         0.0481
     74 H30        38.3408   13.4111   57.8176 H         1 33Z         0.0470
     75 H31        39.8497   13.2587   55.8376 H         1 33Z         0.0573
     76 H32        40.7617   11.0449   55.1129 H         1 33Z         0.0487
     77 H33        39.9207    8.3483   55.3929 H         1 33Z         0.1952
     78 H34        42.2491    7.9799   58.7513 H         1 33Z         0.1636
     79 H35        41.2695    9.4527   58.5189 H         1 33Z         0.1636
     80 H36        41.1854    6.4624   55.7207 H         1 33Z         0.1636
     81 H37        42.2237    6.3136   57.1638 H         1 33Z         0.1636
@<TRIPOS>BOND
     1    1    2 ar 
     2    1    6 ar 
     3    2    3 ar 
     4    3    4 ar 
     5    4    5 ar 
     6    5    6 ar 
     7    6    7 1  
     8    7    8 1  
     9    8    9 1  
    10    9   10 2  
    11    9   11 am 
    12   11   12 1  
    13   12   13 1  
    14   12   20 1  
    15   13   14 1  
    16   14   15 ar 
    17   14   19 ar 
    18   15   16 ar 
    19   16   17 ar 
    20   17   18 ar 
    21   18   19 ar 
    22   20   21 2  
    23   20   22 am 
    24   22   23 1  
    25   23   24 1  
    26   23   27 1  
    27   24   25 1  
    28   24   26 1  
    29   27   28 ar 
    30   27   29 ar 
    31   27   30 1  
    32   30   31 1  
    33   31   32 1  
    34   31   35 1  
    35   32   33 ar 
    36   32   34 ar 
    37   35   36 ar 
    38   35   37 ar 
    39   36   40 ar 
    40   37   38 ar 
    41   38   39 ar 
    42   39   40 ar 
    43   40   41 1  
    44   41   42 ar 
    45   42   43 ar 
    46   42   44 ar 
    47    1   45 1  
    48    2   46 1  
    49    3   47 1  
    50    4   48 1  
    51    5   49 1  
    52    7   50 1  
    53    7   51 1  
    54   11   52 1  
    55   12   53 1  
    56   13   54 1  
    57   13   55 1  
    58   15   56 1  
    59   16   57 1  
    60   17   58 1  
    61   18   59 1  
    62   19   60 1  
    63   22   61 1  
    64   23   62 1  
    65   24   63 1  
    66   25   64 1  
    67   25   65 1  
    68   25   66 1  
    69   26   67 1  
    70   26   68 1  
    71   26   69 1  
    72   30   70 1  
    73   30   71 1  
    74   31   72 1  
    75   36   73 1  
    76   37   74 1  
    77   38   75 1  
    78   39   76 1  
    79   41   77 1  
    80   43   78 1  
    81   43   79 1  
    82   44   80 1  
    83   44   81 1  
@<TRIPOS>SUBSTRUCTURE
     1 33Z         1

