3vvz_ligand
  -I-interpret- 

 65 68  0  0  0  0  0  0  0  0999 V2000
    5.0130   16.5430  -34.4700 C   0  0  0  0  0
    3.8310   16.4820  -35.1860 C   0  0  0  0  0
    2.9070   17.5230  -35.1160 C   0  0  0  0  0
    3.1700   18.6410  -34.3190 C   0  0  0  0  0
    4.3580   18.7110  -33.5990 C   0  0  0  0  0
    5.2670   17.6490  -33.6820 C   0  0  0  0  0
    5.9290   15.5080  -34.5140 O   0  0  0  0  0
    5.6940   14.3910  -35.2930 C   0  0  0  0  0
    4.5200   14.3100  -36.0340 C   0  0  0  0  0
    3.5740   15.3730  -35.9650 C   0  0  0  0  0
    6.6340   13.3700  -35.3120 C   0  0  0  0  0
    6.4210   12.2310  -36.0830 C   0  0  0  0  0
    5.2440   12.1310  -36.8240 C   0  0  0  0  0
    4.3020   13.1550  -36.8020 C   0  0  0  0  0
    7.3520   11.2400  -36.0940 N   0  0  0  0  0
    2.3000   15.3640  -36.7520 C   0  0  0  0  0
    1.2040   14.6930  -36.2310 C   0  0  0  0  0
    0.0050   14.6630  -36.9700 C   0  0  0  0  0
   -0.1090   15.2780  -38.2250 C   0  0  0  0  0
    0.9960   15.9520  -38.7410 C   0  0  0  0  0
    2.1910   16.0090  -38.0180 C   0  0  0  0  0
    4.9550   10.9230  -37.6830 C   0  0  0  0  0
    2.1970   19.8130  -34.2420 C   0  0  0  0  0
    8.3720   11.2100  -35.0120 C   0  0  0  0  0
    7.9630   10.7720  -33.6520 C   0  0  0  0  0
    4.5980   19.8600  -32.7860 N   0  0  0  0  0
    5.6350   19.5460  -31.6780 C   0  0  0  0  0
    5.7870   20.8020  -30.8430 C   0  0  0  0  0
    3.3050   16.7870  -38.7020 C   0  0  0  0  0
    4.4000   16.9820  -38.1680 O   0  0  0  0  0
    3.0680   17.3430  -40.0580 O   0  0  0  0  0
    4.1070   18.0100  -40.8050 C   0  0  0  0  0
    3.6930   18.1710  -42.2740 C   0  0  0  0  0
    1.9781   17.4654  -35.6834 H   0  0  0  0  0
    6.1952   17.6960  -33.1125 H   0  0  0  0  0
    3.5826   14.3000  -35.7737 H   0  0  0  0  0
    7.5444   13.4607  -34.7196 H   0  0  0  0  0
    3.3867   13.0596  -37.3862 H   0  0  0  0  0
    7.3509   10.5323  -36.8286 H   0  0  0  0  0
    1.2693   14.1957  -35.2632 H   0  0  0  0  0
   -0.8598   14.1463  -36.5538 H   0  0  0  0  0
   -1.0427   15.2298  -38.7853 H   0  0  0  0  0
    0.9282   16.4378  -39.7144 H   0  0  0  0  0
    5.7349   10.8203  -38.4375 H   0  0  0  0  0
    4.9332   10.0307  -37.0574 H   0  0  0  0  0
    3.9890   11.0492  -38.1720 H   0  0  0  0  0
    2.0667   20.2413  -35.2358 H   0  0  0  0  0
    1.2356   19.4614  -33.8676 H   0  0  0  0  0
    2.5958   20.5709  -33.5678 H   0  0  0  0  0
    8.6857   12.2469  -34.8916 H   0  0  0  0  0
    9.1058   10.4723  -35.3368 H   0  0  0  0  0
    7.1835   11.4353  -33.2772 H   0  0  0  0  0
    7.5820    9.7519  -33.6995 H   0  0  0  0  0
    8.8246   10.8087  -32.9854 H   0  0  0  0  0
    4.1475   20.7657  -32.9169 H   0  0  0  0  0
    6.5904   19.2562  -32.1154 H   0  0  0  0  0
    5.2997   18.7118  -31.0617 H   0  0  0  0  0
    6.1349   21.6180  -31.4764 H   0  0  0  0  0
    4.8237   21.0650  -30.4059 H   0  0  0  0  0
    6.5113   20.6230  -30.0483 H   0  0  0  0  0
    5.0174   17.4125  -40.7568 H   0  0  0  0  0
    4.2754   18.9969  -40.3741 H   0  0  0  0  0
    3.5174   17.1878  -42.7105 H   0  0  0  0  0
    2.7796   18.7632  -42.3299 H   0  0  0  0  0
    4.4890   18.6760  -42.8212 H   0  0  0  0  0
  1  2  4  0  0  0
  1  6  4  0  0  0
  1  7  1  0  0  0
  2  3  4  0  0  0
  2 10  1  0  0  0
  3  4  4  0  0  0
  4  5  4  0  0  0
  4 23  1  0  0  0
  5  6  4  0  0  0
  5 26  1  0  0  0
  7  8  1  0  0  0
  8  9  4  0  0  0
  8 11  4  0  0  0
  9 10  1  0  0  0
  9 14  4  0  0  0
 10 16  1  0  0  0
 11 12  4  0  0  0
 12 13  4  0  0  0
 12 15  1  0  0  0
 13 14  4  0  0  0
 13 22  1  0  0  0
 15 24  1  0  0  0
 16 17  4  0  0  0
 16 21  4  0  0  0
 17 18  4  0  0  0
 18 19  4  0  0  0
 19 20  4  0  0  0
 20 21  4  0  0  0
 21 29  1  0  0  0
 24 25  1  0  0  0
 26 27  1  0  0  0
 27 28  1  0  0  0
 29 30  2  0  0  0
 29 31  1  0  0  0
 31 32  1  0  0  0
 32 33  1  0  0  0
  3 34  1  0  0  0
  6 35  1  0  0  0
 10 36  1  0  0  0
 11 37  1  0  0  0
 14 38  1  0  0  0
 15 39  1  0  0  0
 17 40  1  0  0  0
 18 41  1  0  0  0
 19 42  1  0  0  0
 20 43  1  0  0  0
 22 44  1  0  0  0
 22 45  1  0  0  0
 22 46  1  0  0  0
 23 47  1  0  0  0
 23 48  1  0  0  0
 23 49  1  0  0  0
 24 50  1  0  0  0
 24 51  1  0  0  0
 25 52  1  0  0  0
 25 53  1  0  0  0
 25 54  1  0  0  0
 26 55  1  0  0  0
 27 56  1  0  0  0
 27 57  1  0  0  0
 28 58  1  0  0  0
 28 59  1  0  0  0
 28 60  1  0  0  0
 32 61  1  0  0  0
 32 62  1  0  0  0
 33 63  1  0  0  0
 33 64  1  0  0  0
 33 65  1  0  0  0
M  END
$$$$
