5l2n_ligand
  -I-interpret- 

 40 42  0  0  0  0  0  0  0  0999 V2000
   35.7680  -16.3160   16.3680 C   0  0  0  0  0
   36.0530  -17.8210   14.4060 C   0  0  0  0  0
   34.6590  -17.8050   14.2390 C   0  0  0  0  0
   33.8490  -17.0450   15.1100 C   0  0  0  0  0
   37.9150  -14.8230   18.6910 O   0  0  0  0  0
   37.5820  -15.5040   17.7040 C   0  0  0  0  0
   36.2660  -15.5960   17.4120 O   0  0  0  0  0
   38.5850  -16.2400   16.8700 C   0  0  0  0  0
   40.0360  -16.1560   17.2540 C   0  0  0  0  0
   40.8690  -15.1650   16.4940 C   0  0  0  0  0
   40.6260  -13.8010   16.6190 C   0  0  0  0  0
   41.4350  -12.9170   15.9140 C   0  0  0  0  0
   42.4760  -13.3820   15.1030 C   0  0  0  0  0
   42.7180  -14.7450   14.9920 C   0  0  0  0  0
   41.9140  -15.6330   15.6940 C   0  0  0  0  0
   38.1100  -17.0520   15.7170 C   0  0  0  0  0
   39.0880  -17.8140   14.8470 C   0  0  0  0  0
   36.6500  -17.0930   15.4470 C   0  0  0  0  0
   34.3990  -16.3320   16.1650 C   0  0  0  0  0
   32.4800  -17.0390   14.9930 O   0  0  0  0  0
   31.6440  -15.9910   14.2490 S   0  0  0  0  0
   30.2690  -16.4470   14.2230 O   0  0  0  0  0
   32.1120  -15.9320   12.8620 O   0  0  0  0  0
   31.9200  -14.6340   15.1530 C   0  0  0  0  0
   36.6744  -18.4014   13.7241 H   0  0  0  0  0
   34.2012  -18.3809   13.4347 H   0  0  0  0  0
   40.4630  -17.1364   17.0430 H   0  0  0  0  0
   40.0562  -15.8342   18.2952 H   0  0  0  0  0
   39.8203  -13.4339   17.2547 H   0  0  0  0  0
   41.2555  -11.8449   15.9943 H   0  0  0  0  0
   43.0984  -12.6729   14.5571 H   0  0  0  0  0
   43.5282  -15.1127   14.3623 H   0  0  0  0  0
   42.0999  -16.7045   15.6202 H   0  0  0  0  0
   39.7909  -17.1146   14.3943 H   0  0  0  0  0
   39.6324  -18.5334   15.4587 H   0  0  0  0  0
   38.5421  -18.3404   14.0641 H   0  0  0  0  0
   33.7467  -15.7789   16.8408 H   0  0  0  0  0
   31.3267  -13.8092   14.7584 H   0  0  0  0  0
   31.6364  -14.8246   16.1881 H   0  0  0  0  0
   32.9782  -14.3769   15.1063 H   0  0  0  0  0
  7  1  1  0  0  0
  1 18  4  0  0  0
  1 19  4  0  0  0
  2  3  4  0  0  0
 18  2  4  0  0  0
  4  3  4  0  0  0
 19  4  4  0  0  0
  4 20  1  0  0  0
  6  5  2  0  0  0
  6  7  1  0  0  0
  6  8  1  0  0  0
  8  9  1  0  0  0
  8 16  2  0  0  0
  9 10  1  0  0  0
 10 11  4  0  0  0
 10 15  4  0  0  0
 11 12  4  0  0  0
 12 13  4  0  0  0
 13 14  4  0  0  0
 14 15  4  0  0  0
 16 17  1  0  0  0
 16 18  1  0  0  0
 20 21  1  0  0  0
 21 22  2  0  0  0
 21 23  2  0  0  0
 21 24  1  0  0  0
  2 25  1  0  0  0
  3 26  1  0  0  0
  9 27  1  0  0  0
  9 28  1  0  0  0
 11 29  1  0  0  0
 12 30  1  0  0  0
 13 31  1  0  0  0
 14 32  1  0  0  0
 15 33  1  0  0  0
 17 34  1  0  0  0
 17 35  1  0  0  0
 17 36  1  0  0  0
 19 37  1  0  0  0
 24 38  1  0  0  0
 24 39  1  0  0  0
 24 40  1  0  0  0
M  END
$$$$
