2pfy_ligand
  -I-interpret- 

 16 16  0  0  0  0  0  0  0  0999 V2000
   55.4050   92.9630    6.0260 N   0  0  0  0  0
   54.7250   93.9080    6.9430 C   0  0  0  0  0
   53.6390   93.1840    7.7000 C   0  0  0  0  0
   53.7230   91.7470    7.2800 C   0  0  0  0  0
   54.7950   91.6980    6.2430 C   0  0  0  0  0
   55.0890   90.6930    5.6040 O   0  0  0  0  0
   55.7240   94.5110    7.9110 C   0  0  0  0  0
   55.4820   95.4960    8.6190 O   0  0  0  0  0
   56.8240   93.9960    7.9930 O   0  0  0  0  0
   56.1579   93.1771    5.3720 H   0  0  0  0  0
   54.2795   94.7136    6.3594 H   0  0  0  0  0
   52.6578   93.6023    7.4756 H   0  0  0  0  0
   53.7746   93.2873    8.7766 H   0  0  0  0  0
   52.7711   91.3886    6.8882 H   0  0  0  0  0
   53.9530   91.0966    8.1239 H   0  0  0  0  0
   54.5854   95.7959    8.4524 H   0  0  0  0  0
  1  2  1  0  0  0
  1  5  1  0  0  0
  2  3  1  0  0  0
  2  7  1  0  0  0
  3  4  1  0  0  0
  4  5  1  0  0  0
  5  6  2  0  0  0
  7  8  1  0  0  0
  7  9  2  0  0  0
  1 10  1  0  0  0
  2 11  1  0  0  0
  3 12  1  0  0  0
  3 13  1  0  0  0
  4 14  1  0  0  0
  4 15  1  0  0  0
  8 16  1  0  0  0
M  END
$$$$
