4lkh_ligand
  -I-interpret- 

 40 40  0  0  0  0  0  0  0  0999 V2000
   12.7870   23.4590   13.4840 C   0  0  0  0  0
   12.5550   23.3340   12.0110 C   0  0  0  0  0
   13.8660   23.6010   11.2860 C   0  0  0  0  0
   14.8150   22.4720   11.4930 C   0  0  0  0  0
   14.2950   21.1840   11.1810 C   0  0  0  0  0
   12.9610   20.9230   11.8620 C   0  0  0  0  0
   12.2860   19.6390   11.5330 C   0  0  0  0  0
   10.8490   19.7260   11.9600 C   0  0  0  0  0
   10.3550   18.3890   12.4330 C   0  0  0  0  0
   15.6160   19.0120   10.7680 C   0  0  0  0  0
   16.7040   18.1000   11.1980 C   0  0  0  0  0
   15.3810   20.2030   11.5370 N   0  0  0  0  0
   12.1250   22.7780   14.3110 O   0  0  0  0  0
   13.6570   24.2670   13.9070 O   0  0  0  0  0
   11.6380   24.2940   11.6940 O   0  0  0  0  0
   16.0110   22.7380   10.7230 O   0  0  0  0  0
   12.0070   22.0740   11.7090 O   0  0  0  0  0
   12.3420   19.4060   10.1700 O   0  0  0  0  0
   10.7200   20.6280   12.9940 O   0  0  0  0  0
    9.1240   18.3450   13.0610 O   0  0  0  0  0
   14.9440   18.7260    9.7880 O   0  0  0  0  0
   14.3101   24.5144   11.6817 H   0  0  0  0  0
   13.6664   23.7052   10.2195 H   0  0  0  0  0
   15.0262   22.4274   12.5614 H   0  0  0  0  0
   14.0504   21.0883   10.1231 H   0  0  0  0  0
   13.2477   20.8220   12.9087 H   0  0  0  0  0
   12.7877   18.8228   12.0528 H   0  0  0  0  0
   10.2611   20.0492   11.1009 H   0  0  0  0  0
   11.0762   18.0591   13.1807 H   0  0  0  0  0
   10.2457   17.7832   11.5335 H   0  0  0  0  0
   16.2844   17.1223   11.4349 H   0  0  0  0  0
   17.4314   17.9991   10.3925 H   0  0  0  0  0
   17.1928   18.5108   12.0814 H   0  0  0  0  0
   15.9683   20.3899   12.3497 H   0  0  0  0  0
   14.0723   24.7073   13.1619 H   0  0  0  0  0
   12.0002   25.1599   11.8956 H   0  0  0  0  0
   16.3468   23.6092   10.9463 H   0  0  0  0  0
   13.2596   19.3498    9.8935 H   0  0  0  0  0
    9.7992   20.6776   13.2608 H   0  0  0  0  0
    8.9264   17.4398   13.3123 H   0  0  0  0  0
  2  1  1  0  0  0
  1 13  2  0  0  0
  1 14  1  0  0  0
  3  2  1  0  0  0
  2 15  1  0  0  0
 17  2  1  0  0  0
  4  3  1  0  0  0
  5  4  1  0  0  0
  4 16  1  0  0  0
  5  6  1  0  0  0
 12  5  1  0  0  0
  6  7  1  0  0  0
  6 17  1  0  0  0
  7  8  1  0  0  0
  7 18  1  0  0  0
  8  9  1  0  0  0
  8 19  1  0  0  0
  9 20  1  0  0  0
 10 11  1  0  0  0
 10 12  1  0  0  0
 10 21  2  0  0  0
  3 22  1  0  0  0
  3 23  1  0  0  0
  4 24  1  0  0  0
  5 25  1  0  0  0
  6 26  1  0  0  0
  7 27  1  0  0  0
  8 28  1  0  0  0
  9 29  1  0  0  0
  9 30  1  0  0  0
 11 31  1  0  0  0
 11 32  1  0  0  0
 11 33  1  0  0  0
 12 34  1  0  0  0
 14 35  1  0  0  0
 15 36  1  0  0  0
 16 37  1  0  0  0
 18 38  1  0  0  0
 19 39  1  0  0  0
 20 40  1  0  0  0
M  END
$$$$
