4ps3_ligand
  -I-interpret- 

 55 58  0  0  0  0  0  0  0  0999 V2000
   12.9370   57.6560   22.1700 C   0  0  0  0  0
   11.5550   57.8820   21.5520 C   0  0  0  0  0
   11.3410   59.3100   21.0820 C   0  0  0  0  0
   11.3630   60.2260   22.2060 N   0  0  0  0  0
   12.0760   61.3970   22.2460 C   0  0  0  0  0
   11.8110   61.9270   23.4560 C   0  0  0  0  0
   10.9600   61.1140   24.1250 N   0  0  0  0  0
   10.6870   60.0780   23.3700 C   0  0  0  0  0
   12.3590   63.2210   23.9780 C   0  0  0  0  0
   13.7190   63.4840   23.3410 C   0  0  0  0  0
   14.6480   62.6160   24.0560 N   0  0  0  0  0
   15.9320   62.5220   23.6810 C   0  0  0  0  0
   16.3280   63.2060   22.7450 O   0  0  0  0  0
   16.7450   61.6670   24.3560 N   0  0  0  0  0
   18.0670   61.4730   23.9830 C   0  0  0  0  0
   18.8200   60.5220   24.4200 N   0  0  0  0  0
   20.0750   60.4590   23.9450 C   0  0  0  0  0
   21.1010   59.5680   24.2760 C   0  0  0  0  0
   22.3110   59.7200   23.6710 C   0  0  0  0  0
   22.5830   60.7180   22.7200 C   0  0  0  0  0
   21.5780   61.5780   22.3740 C   0  0  0  0  0
   20.3470   61.4540   22.9950 C   0  0  0  0  0
   18.9120   62.4280   22.7680 S   0  0  0  0  0
   23.8970   60.8430   22.0550 C   0  0  0  0  0
   24.0300   61.5360   20.8390 C   0  0  0  0  0
   25.3090   61.5990   20.2340 C   0  0  0  0  0
   26.4020   60.9800   20.8460 C   0  0  0  0  0
   26.2350   60.3390   21.9920 N   0  0  0  0  0
   25.0480   60.2490   22.6000 C   0  0  0  0  0
   25.5150   62.2560   19.0570 O   0  0  0  0  0
   24.5230   62.1230   18.0380 C   0  0  0  0  0
   13.7055   57.8802   21.4302 H   0  0  0  0  0
   13.0593   58.3108   23.0327 H   0  0  0  0  0
   13.0269   56.6166   22.4856 H   0  0  0  0  0
   10.8099   57.6698   22.3187 H   0  0  0  0  0
   11.4696   57.2301   20.6826 H   0  0  0  0  0
   10.3709   59.3782   20.5898 H   0  0  0  0  0
   12.1410   59.5783   20.3920 H   0  0  0  0  0
   12.7179   61.8094   21.4676 H   0  0  0  0  0
   10.0330   59.2463   23.6321 H   0  0  0  0  0
   12.4681   63.1613   25.0609 H   0  0  0  0  0
   11.6761   64.0336   23.7301 H   0  0  0  0  0
   14.0051   64.5328   23.4204 H   0  0  0  0  0
   13.7110   63.2719   22.2719 H   0  0  0  0  0
   14.3161   62.0726   24.8528 H   0  0  0  0  0
   16.3739   61.1554   25.1566 H   0  0  0  0  0
   20.9357   58.7710   25.0010 H   0  0  0  0  0
   23.1117   59.0306   23.9386 H   0  0  0  0  0
   21.7434   62.3488   21.6213 H   0  0  0  0  0
   23.1685   62.0138   20.3725 H   0  0  0  0  0
   27.3873   61.0247   20.3820 H   0  0  0  0  0
   24.9711   59.7024   23.5399 H   0  0  0  0  0
   24.4225   61.0724   17.7654 H   0  0  0  0  0
   23.5689   62.4959   18.4106 H   0  0  0  0  0
   24.8232   62.6996   17.1630 H   0  0  0  0  0
  1  2  1  0  0  0
  2  3  1  0  0  0
  3  4  1  0  0  0
  4  5  4  0  0  0
  4  8  4  0  0  0
  5  6  4  0  0  0
  6  7  4  0  0  0
  6  9  1  0  0  0
  7  8  4  0  0  0
  9 10  1  0  0  0
 10 11  1  0  0  0
 11 12  1  0  0  0
 12 13  2  0  0  0
 12 14  1  0  0  0
 14 15  1  0  0  0
 15 16  4  0  0  0
 15 23  4  0  0  0
 16 17  4  0  0  0
 17 18  4  0  0  0
 17 22  4  0  0  0
 18 19  4  0  0  0
 19 20  4  0  0  0
 20 21  4  0  0  0
 20 24  1  0  0  0
 21 22  4  0  0  0
 22 23  4  0  0  0
 24 25  4  0  0  0
 24 29  4  0  0  0
 25 26  4  0  0  0
 26 27  4  0  0  0
 26 30  1  0  0  0
 27 28  4  0  0  0
 28 29  4  0  0  0
 30 31  1  0  0  0
  1 32  1  0  0  0
  1 33  1  0  0  0
  1 34  1  0  0  0
  2 35  1  0  0  0
  2 36  1  0  0  0
  3 37  1  0  0  0
  3 38  1  0  0  0
  5 39  1  0  0  0
  8 40  1  0  0  0
  9 41  1  0  0  0
  9 42  1  0  0  0
 10 43  1  0  0  0
 10 44  1  0  0  0
 11 45  1  0  0  0
 14 46  1  0  0  0
 18 47  1  0  0  0
 19 48  1  0  0  0
 21 49  1  0  0  0
 25 50  1  0  0  0
 27 51  1  0  0  0
 29 52  1  0  0  0
 31 53  1  0  0  0
 31 54  1  0  0  0
 31 55  1  0  0  0
M  END
$$$$
