4fev_ligand
  -I-interpret- 

 40 42  0  0  0  0  0  0  0  0999 V2000
  -21.0340  -27.1620  -17.7210 N   0  0  0  0  0
  -21.8970  -25.1380  -20.5680 C   0  0  0  0  0
  -21.5400  -25.3810  -19.3220 N   0  0  0  0  0
  -21.3720  -26.6490  -18.9010 C   0  0  0  0  0
  -21.5620  -27.7160  -19.7680 C   0  0  0  0  0
  -21.9370  -27.4060  -21.0840 C   0  0  0  0  0
  -22.0890  -26.1270  -21.4220 N   0  0  0  0  0
  -20.9910  -28.3990  -17.7430 N   0  0  0  0  0
  -21.2720  -28.8410  -18.9770 C   0  0  0  0  0
  -22.1590  -28.2980  -22.0510 N   0  0  0  0  0
  -21.3590  -30.1980  -19.3170 C   0  0  0  0  0
  -21.5500  -30.6650  -20.6120 C   0  0  0  0  0
  -21.6220  -32.0240  -20.8940 C   0  0  0  0  0
  -21.4940  -32.9430  -19.8660 C   0  0  0  0  0
  -21.2920  -32.4970  -18.5630 C   0  0  0  0  0
  -21.2110  -31.1330  -18.2960 C   0  0  0  0  0
  -21.5720  -34.4390  -20.1740 C   0  0  0  0  0
  -20.7230  -26.3530  -16.5060 C   0  0  0  0  0
  -20.3370  -27.3330  -15.3970 C   0  0  0  0  0
  -19.5340  -25.4270  -16.8210 C   0  0  0  0  0
  -21.9560  -25.5330  -16.1060 C   0  0  0  0  0
  -22.0353  -24.1081  -20.8972 H   0  0  0  0  0
  -22.0586  -29.2946  -21.8584 H   0  0  0  0  0
  -22.4291  -27.9833  -22.9829 H   0  0  0  0  0
  -21.6457  -29.9474  -21.4269 H   0  0  0  0  0
  -21.7782  -32.3643  -21.9177 H   0  0  0  0  0
  -21.1971  -33.2170  -17.7502 H   0  0  0  0  0
  -21.0297  -30.7933  -17.2763 H   0  0  0  0  0
  -22.5411  -34.6673  -20.6177 H   0  0  0  0  0
  -20.7791  -34.7067  -20.8724 H   0  0  0  0  0
  -21.4512  -35.0055  -19.2507 H   0  0  0  0  0
  -19.4883  -27.9338  -15.7240 H   0  0  0  0  0
  -20.0656  -26.7762  -14.5001 H   0  0  0  0  0
  -21.1830  -27.9850  -15.1794 H   0  0  0  0  0
  -19.2622  -24.8692  -15.9249 H   0  0  0  0  0
  -18.6849  -26.0268  -17.1487 H   0  0  0  0  0
  -19.8161  -24.7318  -17.6117 H   0  0  0  0  0
  -22.7944  -26.2053  -15.9238 H   0  0  0  0  0
  -21.7372  -24.9690  -15.1993 H   0  0  0  0  0
  -22.2096  -24.8440  -16.9117 H   0  0  0  0  0
  4  1  4  0  0  0
  1  8  4  0  0  0
  1 18  1  0  0  0
  3  2  4  0  0  0
  2  7  4  0  0  0
  3  4  4  0  0  0
  4  5  4  0  0  0
  5  6  4  0  0  0
  5  9  4  0  0  0
  6  7  4  0  0  0
  6 10  1  0  0  0
  8  9  4  0  0  0
  9 11  1  0  0  0
 11 12  4  0  0  0
 11 16  4  0  0  0
 12 13  4  0  0  0
 13 14  4  0  0  0
 14 15  4  0  0  0
 14 17  1  0  0  0
 15 16  4  0  0  0
 18 19  1  0  0  0
 18 20  1  0  0  0
 18 21  1  0  0  0
  2 22  1  0  0  0
 10 23  1  0  0  0
 10 24  1  0  0  0
 12 25  1  0  0  0
 13 26  1  0  0  0
 15 27  1  0  0  0
 16 28  1  0  0  0
 17 29  1  0  0  0
 17 30  1  0  0  0
 17 31  1  0  0  0
 19 32  1  0  0  0
 19 33  1  0  0  0
 19 34  1  0  0  0
 20 35  1  0  0  0
 20 36  1  0  0  0
 20 37  1  0  0  0
 21 38  1  0  0  0
 21 39  1  0  0  0
 21 40  1  0  0  0
M  END
$$$$
