5ts0_ligand
  -I-interpret- 

 79 82  0  0  0  0  0  0  0  0999 V2000
   75.8570  -27.6510  198.2130 C   0  0  0  0  0
   76.2930  -28.7740  198.3210 O   0  0  0  0  0
   76.7690  -26.4550  198.3980 C   0  0  0  0  0
   77.8690  -26.3640  197.3450 C   0  0  0  0  0
   78.9800  -25.4310  197.7200 C   0  0  0  0  0
   79.4900  -24.4970  196.8000 C   0  0  0  0  0
   80.5190  -23.6370  197.1630 C   0  0  0  0  0
   81.0530  -23.6900  198.4540 C   0  0  0  0  0
   80.5500  -24.6080  199.3700 C   0  0  0  0  0
   79.5260  -25.4620  199.0090 C   0  0  0  0  0
   74.5240  -27.5080  197.9050 N   0  0  0  0  0
   73.6640  -28.6610  197.7320 C   0  0  0  0  0
   72.1730  -28.2820  197.5580 C   0  0  0  0  0
   71.6200  -27.6450  198.7680 C   0  0  0  0  0
   71.9200  -28.0360  199.8790 O   0  0  0  0  0
   70.7610  -26.5750  198.6580 N   0  0  0  0  0
   70.2590  -25.9390  197.4430 C   0  0  0  0  0
   69.4180  -24.7330  197.9200 C   0  0  0  0  0
   70.2100  -25.9100  199.8890 C   0  0  0  0  0
   69.0780  -24.9990  199.3900 C   0  0  0  0  0
   74.0360  -29.3860  196.4260 C   0  0  0  0  0
   74.5150  -28.8060  195.4630 O   0  0  0  0  0
   75.8990  -33.0210  194.9940 O   0  0  0  0  0
   73.8070  -30.7280  196.3750 N   0  0  0  0  0
   74.0730  -31.5160  195.2800 C   0  0  0  0  0
   72.6800  -31.9980  194.6990 C   0  0  0  0  0
   71.7250  -32.1900  195.4620 O   0  0  0  0  0
   74.8400  -32.7360  195.8490 C   0  0  0  0  0
   75.6060  -34.0370  194.0330 C   0  0  0  0  0
   69.1270  -29.6010  190.3510 C   0  0  0  0  0
   69.8400  -30.5730  189.7530 C   0  0  0  0  0
   69.0790  -29.5380  191.7360 C   0  0  0  0  0
   69.6940  -30.3530  193.9090 C   0  0  0  0  0
   69.7730  -30.4720  192.5050 C   0  0  0  0  0
   68.9560  -29.3510  194.4700 C   0  0  0  0  0
   72.5230  -32.1430  193.3290 N   0  0  0  0  0
   71.2870  -32.5510  192.7060 C   0  0  0  0  0
   70.5290  -31.4830  191.8890 C   0  0  0  0  0
   70.5430  -31.5200  190.5250 C   0  0  0  0  0
   68.2630  -28.4240  193.6670 C   0  0  0  0  0
   68.3260  -28.5140  192.3270 C   0  0  0  0  0
   77.2519  -26.5570  199.3699 H   0  0  0  0  0
   76.1561  -25.5578  198.3116 H   0  0  0  0  0
   77.4158  -25.9826  196.4300 H   0  0  0  0  0
   78.3001  -27.3591  197.2348 H   0  0  0  0  0
   79.0743  -24.4476  195.7936 H   0  0  0  0  0
   80.9103  -22.9205  196.4408 H   0  0  0  0  0
   81.8595  -23.0153  198.7413 H   0  0  0  0  0
   80.9655  -24.6537  200.3767 H   0  0  0  0  0
   79.1368  -26.1714  199.7393 H   0  0  0  0  0
   74.1335  -26.5720  197.7963 H   0  0  0  0  0
   73.8000  -29.2673  198.6275 H   0  0  0  0  0
   71.6095  -29.1950  197.3656 H   0  0  0  0  0
   72.0955  -27.5729  196.7338 H   0  0  0  0  0
   69.6613  -26.6309  196.8496 H   0  0  0  0  0
   71.0750  -25.6228  196.7932 H   0  0  0  0  0
   68.5131  -24.6255  197.3220 H   0  0  0  0  0
   69.9718  -23.8008  197.8086 H   0  0  0  0  0
   70.9779  -25.3423  200.4145 H   0  0  0  0  0
   69.8458  -26.6420  200.6099 H   0  0  0  0  0
   68.0990  -25.4643  199.5048 H   0  0  0  0  0
   69.0120  -24.0766  199.9670 H   0  0  0  0  0
   73.4131  -31.1769  197.2019 H   0  0  0  0  0
   74.6389  -31.0079  194.4992 H   0  0  0  0  0
   75.2148  -32.5105  196.8474 H   0  0  0  0  0
   74.1747  -33.5964  195.9211 H   0  0  0  0  0
   75.3488  -34.9613  194.5503 H   0  0  0  0  0
   74.7663  -33.7193  193.4148 H   0  0  0  0  0
   76.4802  -34.2027  193.4033 H   0  0  0  0  0
   68.5900  -28.8670  189.7503 H   0  0  0  0  0
   69.8742  -30.6284  188.6649 H   0  0  0  0  0
   70.2228  -31.0619  194.5461 H   0  0  0  0  0
   68.9021  -29.2669  195.5554 H   0  0  0  0  0
   73.3250  -31.9508  192.7288 H   0  0  0  0  0
   70.6204  -32.8306  193.5218 H   0  0  0  0  0
   71.5553  -33.3338  191.9965 H   0  0  0  0  0
   71.1117  -32.3009  190.0201 H   0  0  0  0  0
   67.6751  -27.6329  194.1325 H   0  0  0  0  0
   67.7946  -27.7948  191.7038 H   0  0  0  0  0
  1  2  2  0  0  0
  1  3  1  0  0  0
 11  1  1  0  0  0
  3  4  1  0  0  0
  4  5  1  0  0  0
  5  6  4  0  0  0
  5 10  4  0  0  0
  6  7  4  0  0  0
  7  8  4  0  0  0
  9  8  4  0  0  0
 10  9  4  0  0  0
 12 11  1  0  0  0
 12 13  1  0  0  0
 21 12  1  0  0  0
 13 14  1  0  0  0
 14 15  2  0  0  0
 14 16  1  0  0  0
 16 17  1  0  0  0
 16 19  1  0  0  0
 17 18  1  0  0  0
 20 18  1  0  0  0
 19 20  1  0  0  0
 21 22  2  0  0  0
 24 21  1  0  0  0
 28 23  1  0  0  0
 23 29  1  0  0  0
 25 24  1  0  0  0
 26 25  1  0  0  0
 25 28  1  0  0  0
 26 27  2  0  0  0
 36 26  1  0  0  0
 30 31  4  0  0  0
 32 30  4  0  0  0
 31 39  4  0  0  0
 34 32  4  0  0  0
 32 41  4  0  0  0
 34 33  4  0  0  0
 33 35  4  0  0  0
 38 34  4  0  0  0
 35 40  4  0  0  0
 37 36  1  0  0  0
 37 38  1  0  0  0
 38 39  4  0  0  0
 40 41  4  0  0  0
  3 42  1  0  0  0
  3 43  1  0  0  0
  4 44  1  0  0  0
  4 45  1  0  0  0
  6 46  1  0  0  0
  7 47  1  0  0  0
  8 48  1  0  0  0
  9 49  1  0  0  0
 10 50  1  0  0  0
 11 51  1  0  0  0
 12 52  1  0  0  0
 13 53  1  0  0  0
 13 54  1  0  0  0
 17 55  1  0  0  0
 17 56  1  0  0  0
 18 57  1  0  0  0
 18 58  1  0  0  0
 19 59  1  0  0  0
 19 60  1  0  0  0
 20 61  1  0  0  0
 20 62  1  0  0  0
 24 63  1  0  0  0
 25 64  1  0  0  0
 28 65  1  0  0  0
 28 66  1  0  0  0
 29 67  1  0  0  0
 29 68  1  0  0  0
 29 69  1  0  0  0
 30 70  1  0  0  0
 31 71  1  0  0  0
 33 72  1  0  0  0
 35 73  1  0  0  0
 36 74  1  0  0  0
 37 75  1  0  0  0
 37 76  1  0  0  0
 39 77  1  0  0  0
 40 78  1  0  0  0
 41 79  1  0  0  0
M  END
$$$$
