5f4l_ligand
  -I-interpret- 

 56 58  0  0  0  0  0  0  0  0999 V2000
  -19.6980    1.2920   23.8940 C   0  0  0  0  0
  -20.9320   -0.1570   20.5340 C   0  0  0  0  0
  -22.2980   -2.1770   20.1690 C   0  0  0  0  0
  -22.4950   -3.6750   20.3850 C   0  0  0  0  0
  -23.9380   -5.6910   19.9350 C   0  0  0  0  0
  -23.6520   -6.4320   21.0790 C   0  0  0  0  0
  -23.9340   -7.8230   21.1010 C   0  0  0  0  0
  -24.5000   -8.4580   19.9620 C   0  0  0  0  0
  -24.7810   -7.7190   18.8130 C   0  0  0  0  0
  -19.4480    1.1030   26.3220 N   0  3  0  0  0
  -19.6680    1.7440   27.5930 C   0  0  0  0  0
  -20.1960    1.7370   25.3500 C   0  0  0  0  0
  -24.8500  -10.1620   19.9810 Cl  0  0  0  0  0
  -22.4610    3.1010   18.4440 N   0  0  0  0  0
  -22.5530    2.0820   17.7050 C   0  0  0  0  0
  -21.4770    1.0870   17.6920 N   0  0  0  0  0
  -20.2640    1.2670   18.5450 C   0  0  0  0  0
  -19.9770   -0.0110   19.3500 C   0  0  0  0  0
  -18.6360    0.0280   19.9200 C   0  0  0  0  0
  -18.8000    0.5190   21.3450 C   0  0  0  0  0
  -17.8970    1.0140   22.2600 C   0  0  0  0  0
  -18.3470    1.4060   23.5520 C   0  0  0  0  0
  -20.6170    0.7900   22.9670 C   0  0  0  0  0
  -20.1660    0.4050   21.7010 C   0  0  0  0  0
  -21.1360   -1.5270   20.7320 N   0  0  0  0  0
  -23.1180   -1.5280   19.5280 O   0  0  0  0  0
  -21.6650   -4.3040   21.0260 O   0  0  0  0  0
  -23.6740   -4.3240   19.8270 N   0  0  0  0  0
  -24.4980   -6.3350   18.7900 C   0  0  0  0  0
  -23.6470    1.9070   16.9270 N   0  0  0  0  0
  -23.6720   -8.5310   22.1850 F   0  0  0  0  0
  -21.8927    0.3390   20.3957 H   0  0  0  0  0
  -23.2145   -5.9470   21.9517 H   0  0  0  0  0
  -25.2155   -8.2054   17.9397 H   0  0  0  0  0
  -19.7289    0.1243   26.3821 H   0  0  0  0  0
  -18.4588    1.1594   26.0799 H   0  0  0  0  0
  -19.3679    2.7898   27.5278 H   0  0  0  0  0
  -20.7253    1.6835   27.8508 H   0  0  0  0  0
  -19.0767    1.2420   28.3588 H   0  0  0  0  0
  -21.2440    1.4618   25.4691 H   0  0  0  0  0
  -20.0774    2.8155   25.4543 H   0  0  0  0  0
  -21.6379    3.2319   19.0320 H   0  0  0  0  0
  -21.5572    0.2639   17.0949 H   0  0  0  0  0
  -20.4375    2.0904   19.2379 H   0  0  0  0  0
  -19.4089    1.4810   17.9038 H   0  0  0  0  0
  -20.0948   -0.8398   18.6519 H   0  0  0  0  0
  -17.9837    0.6880   19.3482 H   0  0  0  0  0
  -18.1676   -0.9559   19.8935 H   0  0  0  0  0
  -16.8434    1.1050   21.9959 H   0  0  0  0  0
  -17.6349    1.7971   24.2786 H   0  0  0  0  0
  -21.6714    0.7001   23.2283 H   0  0  0  0  0
  -20.4632   -2.0684   21.2749 H   0  0  0  0  0
  -24.3479   -3.7443   19.3268 H   0  0  0  0  0
  -24.7086   -5.7546   17.8918 H   0  0  0  0  0
  -24.3967    2.5986   16.9381 H   0  0  0  0  0
  -23.7216    1.0836   16.3297 H   0  0  0  0  0
  1 12  1  0  0  0
 22  1  4  0  0  0
  1 23  4  0  0  0
  2 18  1  0  0  0
 24  2  1  0  0  0
  2 25  1  0  0  0
  3  4  1  0  0  0
 25  3  1  0  0  0
  3 26  2  0  0  0
  4 27  2  0  0  0
  4 28  1  0  0  0
  5  6  4  0  0  0
 28  5  1  0  0  0
  5 29  4  0  0  0
  6  7  4  0  0  0
  7  8  4  0  0  0
  7 31  1  0  0  0
  9  8  4  0  0  0
  8 13  1  0  0  0
 29  9  4  0  0  0
 10 11  1  0  0  0
 12 10  1  0  0  0
 15 14  2  0  0  0
 16 15  1  0  0  0
 15 30  1  0  0  0
 17 16  1  0  0  0
 18 17  1  0  0  0
 19 18  1  0  0  0
 20 19  1  0  0  0
 21 20  4  0  0  0
 20 24  4  0  0  0
 21 22  4  0  0  0
 23 24  4  0  0  0
  2 32  1  0  0  0
  6 33  1  0  0  0
  9 34  1  0  0  0
 10 35  1  0  0  0
 10 36  1  0  0  0
 11 37  1  0  0  0
 11 38  1  0  0  0
 11 39  1  0  0  0
 12 40  1  0  0  0
 12 41  1  0  0  0
 14 42  1  0  0  0
 16 43  1  0  0  0
 17 44  1  0  0  0
 17 45  1  0  0  0
 18 46  1  0  0  0
 19 47  1  0  0  0
 19 48  1  0  0  0
 21 49  1  0  0  0
 22 50  1  0  0  0
 23 51  1  0  0  0
 25 52  1  0  0  0
 28 53  1  0  0  0
 29 54  1  0  0  0
 30 55  1  0  0  0
 30 56  1  0  0  0
M  END
$$$$
