5auv_ligand
  -I-interpret- 

 30 32  0  0  0  0  0  0  0  0999 V2000
  -25.4980    3.9590  -11.7070 C   0  0  0  0  0
  -26.2430    4.9560  -11.1010 C   0  0  0  0  0
  -25.8840    5.4450   -9.8570 C   0  0  0  0  0
  -26.6510    6.4200   -9.2970 O   0  0  0  0  0
  -24.7570    4.9410   -9.2040 C   0  0  0  0  0
  -24.0040    3.9430   -9.8170 C   0  0  0  0  0
  -24.3680    3.4630  -11.0770 C   0  0  0  0  0
  -23.6280    2.4430  -11.6670 C   0  0  0  0  0
  -22.5110    2.0970  -10.9700 O   0  0  0  0  0
  -24.0360    1.7850  -12.8200 C   0  0  0  0  0
  -23.2490    0.7400  -13.2970 C   0  0  0  0  0
  -23.5760    0.1320  -14.3210 O   0  0  0  0  0
  -22.1320    0.3590  -12.5590 C   0  0  0  0  0
  -21.7710    1.0300  -11.3940 C   0  0  0  0  0
  -20.6680    0.6160  -10.6560 C   0  0  0  0  0
  -19.9160   -0.4780  -11.0660 C   0  0  0  0  0
  -18.8420   -0.8650  -10.3270 O   0  0  0  0  0
  -20.2680   -1.1650  -12.2200 C   0  0  0  0  0
  -21.3760   -0.7430  -12.9460 C   0  0  0  0  0
  -21.7670   -1.3720  -14.0820 O   0  0  0  0  0
  -25.7996    3.5651  -12.6775 H   0  0  0  0  0
  -27.1197    5.3593  -11.6078 H   0  0  0  0  0
  -26.2868    6.6606   -8.4420 H   0  0  0  0  0
  -24.4700    5.3248   -8.2250 H   0  0  0  0  0
  -23.1282    3.5353   -9.3122 H   0  0  0  0  0
  -24.9488    2.0790  -13.3382 H   0  0  0  0  0
  -20.3911    1.1536   -9.7491 H   0  0  0  0  0
  -18.4308   -1.6290  -10.7379 H   0  0  0  0  0
  -19.6838   -2.0232  -12.5521 H   0  0  0  0  0
  -21.1806   -2.1123  -14.2546 H   0  0  0  0  0
  1  2  4  0  0  0
  1  7  4  0  0  0
  2  3  4  0  0  0
  3  4  1  0  0  0
  3  5  4  0  0  0
  5  6  4  0  0  0
  6  7  4  0  0  0
  7  8  1  0  0  0
  8  9  1  0  0  0
  8 10  2  0  0  0
  9 14  1  0  0  0
 10 11  1  0  0  0
 11 12  2  0  0  0
 11 13  1  0  0  0
 13 14  4  0  0  0
 13 19  4  0  0  0
 14 15  4  0  0  0
 15 16  4  0  0  0
 16 17  1  0  0  0
 16 18  4  0  0  0
 18 19  4  0  0  0
 19 20  1  0  0  0
  1 21  1  0  0  0
  2 22  1  0  0  0
  4 23  1  0  0  0
  5 24  1  0  0  0
  6 25  1  0  0  0
 10 26  1  0  0  0
 15 27  1  0  0  0
 17 28  1  0  0  0
 18 29  1  0  0  0
 20 30  1  0  0  0
M  END
$$$$
