3ebo_ligand
  -I-interpret- 

 29 31  0  0  0  0  0  0  0  0999 V2000
   38.0080   34.8180   29.2280 C   0  0  0  0  0
   37.1260   34.2620   30.1620 C   0  0  0  0  0
   36.9250   34.8990   31.3890 C   0  0  0  0  0
   37.6280   36.0800   31.6630 C   0  0  0  0  0
   37.5320   36.7360   32.8950 C   0  0  0  0  0
   38.2630   37.9000   33.1250 C   0  0  0  0  0
   39.1070   38.4050   32.1410 C   0  0  0  0  0
   39.2260   37.7520   30.9250 C   0  0  0  0  0
   38.4930   36.5890   30.6900 C   0  0  0  0  0
   38.6660   35.9860   29.4870 O   0  0  0  0  0
   36.1450   34.4180   32.2160 O   0  0  0  0  0
   36.7190   36.2810   33.8900 O   0  0  0  0  0
   39.8200   39.5380   32.3690 O   0  0  0  0  0
   38.6830   35.0410   26.9230 C   0  0  0  0  0
   38.9820   34.4750   25.6860 C   0  0  0  0  0
   38.8890   33.0960   25.5120 C   0  0  0  0  0
   38.4960   32.2820   26.5760 C   0  0  0  0  0
   38.2010   32.8460   27.8160 C   0  0  0  0  0
   38.2770   34.2310   27.9910 C   0  0  0  0  0
   36.5984   33.3361   29.9330 H   0  0  0  0  0
   38.1731   38.4172   34.0803 H   0  0  0  0  0
   39.8897   38.1455   30.1551 H   0  0  0  0  0
   36.7908   36.8617   34.6510 H   0  0  0  0  0
   40.3464   39.7450   31.5933 H   0  0  0  0  0
   38.7653   36.1192   27.0605 H   0  0  0  0  0
   39.2884   35.1104   24.8550 H   0  0  0  0  0
   39.1232   32.6522   24.5444 H   0  0  0  0  0
   38.4197   31.2036   26.4368 H   0  0  0  0  0
   37.9108   32.2068   28.6499 H   0  0  0  0  0
  1  2  2  0  0  0
  1 10  1  0  0  0
 19  1  1  0  0  0
  2  3  1  0  0  0
  3  4  1  0  0  0
  3 11  2  0  0  0
  4  5  4  0  0  0
  9  4  4  0  0  0
  5  6  4  0  0  0
  5 12  1  0  0  0
  7  6  4  0  0  0
  8  7  4  0  0  0
  7 13  1  0  0  0
  9  8  4  0  0  0
 10  9  1  0  0  0
 14 15  4  0  0  0
 14 19  4  0  0  0
 15 16  4  0  0  0
 16 17  4  0  0  0
 17 18  4  0  0  0
 18 19  4  0  0  0
  2 20  1  0  0  0
  6 21  1  0  0  0
  8 22  1  0  0  0
 12 23  1  0  0  0
 13 24  1  0  0  0
 14 25  1  0  0  0
 15 26  1  0  0  0
 16 27  1  0  0  0
 17 28  1  0  0  0
 18 29  1  0  0  0
M  END
$$$$
