### 
### Created by X-TOOL on Mon Sep 10 21:13:06 2018
### 

@<TRIPOS>MOLECULE
3t6r_ligand
   90    89     1     0     0
SMALL
GAST_HUCK


@<TRIPOS>ATOM
      1 N          -9.7860   15.6740   85.4600 N.4       1 ALA         0.2377
      2 CA        -10.3220   15.0500   84.2050 C.3       1 ALA         0.0621
      3 C         -10.5730   16.1730   83.2220 C.2       1 ALA         0.2264
      4 O         -10.9300   17.2910   83.6400 O.2       1 ALA        -0.3907
      5 CB        -11.6210   14.3120   84.5000 C.3       1 ALA        -0.0040
      6 N         -10.4020   15.8910   81.9330 N.am      1 ARG        -0.2610
      7 CA        -10.6400   16.8870   80.8800 C.3       1 ARG         0.1312
      8 C         -12.1210   16.9260   80.4830 C.2       1 ARG         0.2040
      9 O         -12.7700   15.8750   80.4070 O.2       1 ARG        -0.3944
     10 CB         -9.8140   16.5520   79.6390 C.3       1 ARG        -0.0092
     11 CG         -8.3120   16.5720   79.8290 C.3       1 ARG        -0.0156
     12 CD         -7.5770   16.0600   78.5770 C.3       1 ARG         0.0627
     13 NE         -7.9570   14.6910   78.2280 N.pl3     1 ARG        -0.2723
     14 CZ         -8.5170   14.3490   77.0690 C.cat     1 ARG         0.2882
     15 NH1        -8.8380   13.0790   76.8250 N.pl3     1 ARG        -0.2849
     16 NH2        -8.7620   15.2860   76.1470 N.pl3     1 ARG        -0.2849
     17 N         -12.6380   18.1320   80.2380 N.am      1 THR        -0.2613
     18 CA        -13.9530   18.3090   79.6280 C.3       1 THR         0.1565
     19 C         -13.8300   18.8820   78.2150 C.2       1 THR         0.2065
     20 O         -12.7700   19.4150   77.8190 O.2       1 THR        -0.3943
     21 CB        -14.9250   19.2100   80.4720 C.3       1 THR         0.0924
     22 OG1       -14.3450   20.5140   80.6720 O.3       1 THR        -0.3874
     23 CG2       -15.2140   18.5490   81.8210 C.3       1 THR        -0.0346
     24 N         -14.9100   18.7710   77.4480 N.am      1 LYS        -0.2637
     25 CA        -14.8890   19.2320   76.0710 C.3       1 LYS         0.1309
     26 C         -14.6830   20.7540   76.0020 C.2       1 LYS         0.2033
     27 O         -14.0010   21.2210   75.1080 O.2       1 LYS        -0.3944
     28 CB        -16.1520   18.7850   75.3170 C.3       1 LYS        -0.0122
     29 CG        -16.2760   19.3670   73.9170 C.3       1 LYS        -0.0440
     30 CD        -17.3320   18.6600   73.0750 C.3       1 LYS        -0.0124
     31 CE        -16.8090   17.3720   72.4570 C.3       1 LYS        -0.0354
     32 NZ        -17.9370   16.6690   71.8180 N.4       1 LYS         0.2185
     33 N         -15.2650   21.5060   76.9400 N.am      1 GLN        -0.2693
     34 CA        -14.9490   22.9440   77.1120 C.3       1 GLN         0.0964
     35 C         -14.2880   23.2580   78.4590 C.2       1 GLN         0.0602
     36 O         -14.8630   22.9890   79.5240 O.co2     1 GLN        -0.5666
     37 CB        -16.1900   23.8230   76.9590 C.3       1 GLN        -0.0010
     38 CG        -16.3170   24.5510   75.6130 C.3       1 GLN         0.0407
     39 CD        -17.4690   25.5640   75.6060 C.2       1 GLN         0.1737
     40 OE1       -17.9690   25.9750   76.6690 O.2       1 GLN        -0.3973
     41 NE2       -17.8990   25.9650   74.4110 N.am      1 GLN        -0.3009
     42 H          -8.9169   16.1648   85.2499 H         1 ALA         0.2015
     43 H         -10.4702   16.3344   85.8289 H         1 ALA         0.2015
     44 H          -9.6079   14.9454   86.1513 H         1 ALA         0.2015
     45 H          -9.6134   14.3290   83.7975 H         1 ALA         0.1095
     46 H         -12.3434   15.0073   84.9274 H         1 ALA         0.0310
     47 H         -12.0191   13.8957   83.5746 H         1 ALA         0.0310
     48 H         -11.4270   13.5066   85.2084 H         1 ALA         0.0310
     49 H         -10.0963   14.9547   81.6680 H         1 ARG         0.1884
     50 H         -10.3467   17.8596   81.2751 H         1 ARG         0.0800
     51 H         -10.0429   17.3182   78.8983 H         1 ARG         0.0313
     52 H         -10.0772   15.5324   79.3576 H         1 ARG         0.0313
     53 H          -8.0616   15.9207   80.6664 H         1 ARG         0.0301
     54 H          -8.0015   17.6002   80.0149 H         1 ARG         0.0301
     55 H          -6.5073   16.0701   78.7862 H         1 ARG         0.0689
     56 H          -7.8432   16.7073   77.7414 H         1 ARG         0.0689
     57 H          -7.7828   13.9552   78.9126 H         1 ARG         0.2642
     58 H          -8.6551   12.3627   77.5277 H         1 ARG         0.2615
     59 H          -9.2667   12.8232   75.9355 H         1 ARG         0.2615
     60 H          -8.5201   16.2594   76.3323 H         1 ARG         0.2615
     61 H          -9.1908   15.0273   75.2584 H         1 ARG         0.2615
     62 H         -12.0953   18.9594   80.4857 H         1 THR         0.1884
     63 H         -14.3902   17.3112   79.5904 H         1 THR         0.0826
     64 H         -15.8624   19.3234   79.9274 H         1 THR         0.0639
     65 H         -14.1910   20.9286   79.8200 H         1 THR         0.2101
     66 H         -15.6786   17.5769   81.6557 H         1 THR         0.0257
     67 H         -14.2801   18.4186   82.3677 H         1 THR         0.0257
     68 H         -15.8885   19.1822   82.3973 H         1 THR         0.0257
     69 H         -15.7610   18.3584   77.8300 H         1 LYS         0.1883
     70 H         -14.0383   18.7693   75.5707 H         1 LYS         0.0800
     71 H         -17.0110   19.1348   75.8896 H         1 LYS         0.0312
     72 H         -16.0996   17.7012   75.2129 H         1 LYS         0.0312
     73 H         -15.3145   19.2448   73.4183 H         1 LYS         0.0269
     74 H         -16.5713   20.4117   74.0146 H         1 LYS         0.0269
     75 H         -17.6238   19.3296   72.2659 H         1 LYS         0.0317
     76 H         -18.1700   18.4078   73.7248 H         1 LYS         0.0317
     77 H         -16.3663   16.7418   73.2283 H         1 LYS         0.0813
     78 H         -16.0433   17.5990   71.7152 H         1 LYS         0.0813
     79 H         -17.6018   15.8019   71.3983 H         1 LYS         0.1994
     80 H         -18.6454   16.4565   72.5204 H         1 LYS         0.1994
     81 H         -18.3412   17.2641   71.0949 H         1 LYS         0.1994
     82 H         -15.9512   21.0755   77.5599 H         1 GLN         0.1875
     83 H         -14.2375   23.1718   76.3183 H         1 GLN         0.0727
     84 O         -13.1485   23.7951   78.4841 O.co2     1 GLN        -0.5666
     85 H         -16.1222   24.5946   77.7259 H         1 GLN         0.0330
     86 H         -17.0526   23.1614   77.0385 H         1 GLN         0.0330
     87 H         -16.5169   23.8060   74.8429 H         1 GLN         0.0504
     88 H         -15.3887   25.0930   75.4326 H         1 GLN         0.0504
     89 H         -18.6661   26.6338   74.3431 H         1 GLN         0.1814
     90 H         -17.4612   25.6033   73.5637 H         1 GLN         0.1814
@<TRIPOS>BOND
     1    1    2 1  
     2    2    3 1  
     3    2    5 1  
     4    3    4 2  
     5    3    6 am 
     6    6    7 1  
     7    7    8 1  
     8    7   10 1  
     9    8    9 2  
    10    8   17 am 
    11   10   11 1  
    12   11   12 1  
    13   12   13 1  
    14   13   14 ar 
    15   14   15 ar 
    16   14   16 ar 
    17   17   18 1  
    18   18   19 1  
    19   18   21 1  
    20   19   20 2  
    21   19   24 am 
    22   21   22 1  
    23   21   23 1  
    24   24   25 1  
    25   25   26 1  
    26   25   28 1  
    27   26   27 2  
    28   26   33 am 
    29   28   29 1  
    30   29   30 1  
    31   30   31 1  
    32   31   32 1  
    33   33   34 1  
    34   34   35 1  
    35   34   37 1  
    36   35   36 ar 
    37   37   38 1  
    38   38   39 1  
    39   39   40 2  
    40   39   41 am 
    41    1   42 1  
    42    1   43 1  
    43    1   44 1  
    44    2   45 1  
    45    5   46 1  
    46    5   47 1  
    47    5   48 1  
    48    6   49 1  
    49    7   50 1  
    50   10   51 1  
    51   10   52 1  
    52   11   53 1  
    53   11   54 1  
    54   12   55 1  
    55   12   56 1  
    56   13   57 1  
    57   15   58 1  
    58   15   59 1  
    59   16   60 1  
    60   16   61 1  
    61   17   62 1  
    62   18   63 1  
    63   21   64 1  
    64   22   65 1  
    65   23   66 1  
    66   23   67 1  
    67   23   68 1  
    68   24   69 1  
    69   25   70 1  
    70   28   71 1  
    71   28   72 1  
    72   29   73 1  
    73   29   74 1  
    74   30   75 1  
    75   30   76 1  
    76   31   77 1  
    77   31   78 1  
    78   32   79 1  
    79   32   80 1  
    80   32   81 1  
    81   33   82 1  
    82   34   83 1  
    83   35   84 ar 
    84   37   85 1  
    85   37   86 1  
    86   38   87 1  
    87   38   88 1  
    88   41   89 1  
    89   41   90 1  
@<TRIPOS>SUBSTRUCTURE
     1 ALA         1

