3t6r_ligand
  -I-interpret- 

 90 89  0  0  0  0  0  0  0  0999 V2000
   -9.7860   15.6740   85.4600 N   0  3  0  0  0
  -10.3220   15.0500   84.2050 C   0  0  0  0  0
  -10.5730   16.1730   83.2220 C   0  0  0  0  0
  -10.9300   17.2910   83.6400 O   0  0  0  0  0
  -11.6210   14.3120   84.5000 C   0  0  0  0  0
  -10.4020   15.8910   81.9330 N   0  0  0  0  0
  -10.6400   16.8870   80.8800 C   0  0  0  0  0
  -12.1210   16.9260   80.4830 C   0  0  0  0  0
  -12.7700   15.8750   80.4070 O   0  0  0  0  0
   -9.8140   16.5520   79.6390 C   0  0  0  0  0
   -8.3120   16.5720   79.8290 C   0  0  0  0  0
   -7.5770   16.0600   78.5770 C   0  0  0  0  0
   -7.9570   14.6910   78.2280 N   0  0  0  0  0
   -8.5170   14.3490   77.0690 C   0  0  0  0  0
   -8.8380   13.0790   76.8250 N   0  0  0  0  0
   -8.7620   15.2860   76.1470 N   0  0  0  0  0
  -12.6380   18.1320   80.2380 N   0  0  0  0  0
  -13.9530   18.3090   79.6280 C   0  0  0  0  0
  -13.8300   18.8820   78.2150 C   0  0  0  0  0
  -12.7700   19.4150   77.8190 O   0  0  0  0  0
  -14.9250   19.2100   80.4720 C   0  0  0  0  0
  -14.3450   20.5140   80.6720 O   0  0  0  0  0
  -15.2140   18.5490   81.8210 C   0  0  0  0  0
  -14.9100   18.7710   77.4480 N   0  0  0  0  0
  -14.8890   19.2320   76.0710 C   0  0  0  0  0
  -14.6830   20.7540   76.0020 C   0  0  0  0  0
  -14.0010   21.2210   75.1080 O   0  0  0  0  0
  -16.1520   18.7850   75.3170 C   0  0  0  0  0
  -16.2760   19.3670   73.9170 C   0  0  0  0  0
  -17.3320   18.6600   73.0750 C   0  0  0  0  0
  -16.8090   17.3720   72.4570 C   0  0  0  0  0
  -17.9370   16.6690   71.8180 N   0  3  0  0  0
  -15.2650   21.5060   76.9400 N   0  0  0  0  0
  -14.9490   22.9440   77.1120 C   0  0  0  0  0
  -14.2880   23.2580   78.4590 C   0  0  0  0  0
  -14.8630   22.9890   79.5240 O   0  0  0  0  0
  -16.1900   23.8230   76.9590 C   0  0  0  0  0
  -16.3170   24.5510   75.6130 C   0  0  0  0  0
  -17.4690   25.5640   75.6060 C   0  0  0  0  0
  -17.9690   25.9750   76.6690 O   0  0  0  0  0
  -17.8990   25.9650   74.4110 N   0  0  0  0  0
  -13.1485   23.7951   78.4841 O   0  0  0  0  0
   -8.9169   16.1648   85.2499 H   0  0  0  0  0
  -10.4702   16.3344   85.8289 H   0  0  0  0  0
   -9.6079   14.9454   86.1513 H   0  0  0  0  0
   -9.6134   14.3290   83.7975 H   0  0  0  0  0
  -12.3434   15.0073   84.9274 H   0  0  0  0  0
  -12.0191   13.8957   83.5746 H   0  0  0  0  0
  -11.4270   13.5066   85.2084 H   0  0  0  0  0
  -10.0963   14.9547   81.6680 H   0  0  0  0  0
  -10.3467   17.8596   81.2751 H   0  0  0  0  0
  -10.0429   17.3182   78.8983 H   0  0  0  0  0
  -10.0772   15.5324   79.3576 H   0  0  0  0  0
   -8.0616   15.9207   80.6664 H   0  0  0  0  0
   -8.0015   17.6002   80.0149 H   0  0  0  0  0
   -6.5073   16.0701   78.7862 H   0  0  0  0  0
   -7.8432   16.7073   77.7414 H   0  0  0  0  0
   -7.7828   13.9552   78.9126 H   0  0  0  0  0
   -8.6551   12.3627   77.5277 H   0  0  0  0  0
   -9.1936   15.0278   75.2596 H   0  0  0  0  0
   -8.5173   16.2590   76.3311 H   0  0  0  0  0
  -12.0953   18.9594   80.4857 H   0  0  0  0  0
  -14.3902   17.3112   79.5904 H   0  0  0  0  0
  -15.8624   19.3234   79.9274 H   0  0  0  0  0
  -14.9470   21.0550   81.1882 H   0  0  0  0  0
  -15.6786   17.5769   81.6557 H   0  0  0  0  0
  -14.2801   18.4186   82.3677 H   0  0  0  0  0
  -15.8885   19.1822   82.3973 H   0  0  0  0  0
  -15.7610   18.3584   77.8300 H   0  0  0  0  0
  -14.0383   18.7693   75.5707 H   0  0  0  0  0
  -17.0110   19.1348   75.8896 H   0  0  0  0  0
  -16.0996   17.7012   75.2129 H   0  0  0  0  0
  -15.3145   19.2448   73.4183 H   0  0  0  0  0
  -16.5713   20.4117   74.0146 H   0  0  0  0  0
  -17.6238   19.3296   72.2659 H   0  0  0  0  0
  -18.1700   18.4078   73.7248 H   0  0  0  0  0
  -16.3663   16.7418   73.2283 H   0  0  0  0  0
  -16.0433   17.5990   71.7152 H   0  0  0  0  0
  -17.6018   15.8019   71.3983 H   0  0  0  0  0
  -18.6454   16.4565   72.5204 H   0  0  0  0  0
  -18.3412   17.2641   71.0949 H   0  0  0  0  0
  -15.9512   21.0755   77.5599 H   0  0  0  0  0
  -14.2375   23.1718   76.3183 H   0  0  0  0  0
  -16.1222   24.5946   77.7259 H   0  0  0  0  0
  -17.0526   23.1614   77.0385 H   0  0  0  0  0
  -16.5169   23.8060   74.8429 H   0  0  0  0  0
  -15.3887   25.0930   75.4326 H   0  0  0  0  0
  -18.6661   26.6338   74.3431 H   0  0  0  0  0
  -17.4612   25.6033   73.5637 H   0  0  0  0  0
  -12.8431   23.9373   77.5851 H   0  0  0  0  0
  1  2  1  0  0  0
  2  3  1  0  0  0
  2  5  1  0  0  0
  3  4  2  0  0  0
  3  6  1  0  0  0
  6  7  1  0  0  0
  7  8  1  0  0  0
  7 10  1  0  0  0
  8  9  2  0  0  0
  8 17  1  0  0  0
 10 11  1  0  0  0
 11 12  1  0  0  0
 12 13  1  0  0  0
 13 14  1  0  0  0
 14 15  2  0  0  0
 14 16  1  0  0  0
 17 18  1  0  0  0
 18 19  1  0  0  0
 18 21  1  0  0  0
 19 20  2  0  0  0
 19 24  1  0  0  0
 21 22  1  0  0  0
 21 23  1  0  0  0
 24 25  1  0  0  0
 25 26  1  0  0  0
 25 28  1  0  0  0
 26 27  2  0  0  0
 26 33  1  0  0  0
 28 29  1  0  0  0
 29 30  1  0  0  0
 30 31  1  0  0  0
 31 32  1  0  0  0
 33 34  1  0  0  0
 34 35  1  0  0  0
 34 37  1  0  0  0
 35 36  2  0  0  0
 37 38  1  0  0  0
 38 39  1  0  0  0
 39 40  2  0  0  0
 39 41  1  0  0  0
 35 42  1  0  0  0
  1 43  1  0  0  0
  1 44  1  0  0  0
  1 45  1  0  0  0
  2 46  1  0  0  0
  5 47  1  0  0  0
  5 48  1  0  0  0
  5 49  1  0  0  0
  6 50  1  0  0  0
  7 51  1  0  0  0
 10 52  1  0  0  0
 10 53  1  0  0  0
 11 54  1  0  0  0
 11 55  1  0  0  0
 12 56  1  0  0  0
 12 57  1  0  0  0
 13 58  1  0  0  0
 15 59  1  0  0  0
 16 60  1  0  0  0
 16 61  1  0  0  0
 17 62  1  0  0  0
 18 63  1  0  0  0
 21 64  1  0  0  0
 22 65  1  0  0  0
 23 66  1  0  0  0
 23 67  1  0  0  0
 23 68  1  0  0  0
 24 69  1  0  0  0
 25 70  1  0  0  0
 28 71  1  0  0  0
 28 72  1  0  0  0
 29 73  1  0  0  0
 29 74  1  0  0  0
 30 75  1  0  0  0
 30 76  1  0  0  0
 31 77  1  0  0  0
 31 78  1  0  0  0
 32 79  1  0  0  0
 32 80  1  0  0  0
 32 81  1  0  0  0
 33 82  1  0  0  0
 34 83  1  0  0  0
 37 84  1  0  0  0
 37 85  1  0  0  0
 38 86  1  0  0  0
 38 87  1  0  0  0
 41 88  1  0  0  0
 41 89  1  0  0  0
 42 90  1  0  0  0
M  END
$$$$
