5mwa_ligand
  -I-interpret- 

 41 44  0  0  0  0  0  0  0  0999 V2000
  -10.2290   -7.5620   20.6850 C   0  0  0  0  0
  -11.0590   -6.7800   21.4820 C   0  0  0  0  0
  -12.3260   -6.4590   21.0340 C   0  0  0  0  0
  -12.7710   -6.9380   19.8110 C   0  0  0  0  0
  -11.9630   -7.7100   18.9970 C   0  0  0  0  0
  -10.6870   -7.9940   19.4470 C   0  0  0  0  0
  -14.1790   -6.5450   19.3800 C   0  0  0  0  0
  -14.9280   -7.4070   18.8480 O   0  0  0  0  0
  -14.5270   -5.3420   19.5720 O   0  0  0  0  0
   -7.9450   -9.7770   18.0540 C   0  0  0  0  0
   -8.4570   -8.9120   18.9230 O   0  0  0  0  0
   -9.7620   -8.8410   18.6430 C   0  0  0  0  0
  -10.0660   -9.5930   17.5910 N   0  0  0  0  0
   -8.9320  -10.1840   17.1860 C   0  0  0  0  0
   -9.0930  -13.3700   14.3820 C   0  0  0  0  0
   -9.7790  -12.2380   14.0650 C   0  0  0  0  0
   -9.7540  -11.1600   14.9430 C   0  0  0  0  0
   -8.9670  -11.2330   16.0880 C   0  0  0  0  0
   -8.3030  -12.4080   16.3910 C   0  0  0  0  0
   -8.3660  -13.4770   15.5320 C   0  0  0  0  0
   -7.4820  -14.9620   15.9220 Cl  0  0  0  0  0
   -3.8400  -10.6210   18.5280 C   0  0  0  0  0
   -4.6240  -10.2520   19.6240 C   0  0  0  0  0
   -5.9710   -9.9680   19.4350 C   0  0  0  0  0
   -6.4810  -10.0910   18.1470 C   0  0  0  0  0
   -5.7160  -10.4470   17.0520 C   0  0  0  0  0
   -4.3670  -10.7220   17.2420 C   0  0  0  0  0
   -9.1840  -14.7380   13.2550 Cl  0  0  0  0  0
   -9.2305   -7.8326   21.0283 H   0  0  0  0  0
  -10.7125   -6.4234   22.4520 H   0  0  0  0  0
  -12.9757   -5.8293   21.6418 H   0  0  0  0  0
  -12.3189   -8.0811   18.0359 H   0  0  0  0  0
  -13.8058   -4.8639   19.9879 H   0  0  0  0  0
  -10.3416  -12.1771   13.1334 H   0  0  0  0  0
  -10.3446  -10.2675   14.7364 H   0  0  0  0  0
   -7.7284  -12.4853   17.3140 H   0  0  0  0  0
   -2.7830  -10.8366   18.6838 H   0  0  0  0  0
   -4.1828  -10.1875   20.6186 H   0  0  0  0  0
   -6.6051   -9.6599   20.2663 H   0  0  0  0  0
   -6.1619  -10.5107   16.0594 H   0  0  0  0  0
   -3.7344  -11.0107   16.4026 H   0  0  0  0  0
  1  2  4  0  0  0
  6  1  4  0  0  0
  2  3  4  0  0  0
  4  3  4  0  0  0
  5  4  4  0  0  0
  4  7  1  0  0  0
  6  5  4  0  0  0
 12  6  1  0  0  0
  7  8  2  0  0  0
  7  9  1  0  0  0
 10 11  4  0  0  0
 10 14  4  0  0  0
 25 10  1  0  0  0
 11 12  4  0  0  0
 13 12  4  0  0  0
 14 13  4  0  0  0
 14 18  1  0  0  0
 16 15  4  0  0  0
 20 15  4  0  0  0
 15 28  1  0  0  0
 17 16  4  0  0  0
 18 17  4  0  0  0
 18 19  4  0  0  0
 19 20  4  0  0  0
 20 21  1  0  0  0
 23 22  4  0  0  0
 22 27  4  0  0  0
 24 23  4  0  0  0
 24 25  4  0  0  0
 25 26  4  0  0  0
 26 27  4  0  0  0
  1 29  1  0  0  0
  2 30  1  0  0  0
  3 31  1  0  0  0
  5 32  1  0  0  0
  9 33  1  0  0  0
 16 34  1  0  0  0
 17 35  1  0  0  0
 19 36  1  0  0  0
 22 37  1  0  0  0
 23 38  1  0  0  0
 24 39  1  0  0  0
 26 40  1  0  0  0
 27 41  1  0  0  0
M  END
$$$$
