### 
### Created by X-TOOL on Wed Jan  1 15:39:37 2020
### 

@<TRIPOS>MOLECULE
6fdu_ligand
   61    62     1     0     0
SMALL
GAST_HUCK


@<TRIPOS>ATOM
      1 C4        -40.3470   -2.2880  155.6690 C.ar      1 D5W         0.0741
      2 C5        -41.3680   -3.0080  155.0230 C.ar      1 D5W        -0.0005
      3 C6        -41.1210   -3.6880  153.8290 C.ar      1 D5W         0.0275
      4 N1        -39.8980   -3.6530  153.2860 N.ar      1 D5W        -0.2567
      5 N3        -39.1320   -2.2710  155.0970 N.ar      1 D5W        -0.2466
      6 CAJ       -44.9060   -4.1920  163.3000 C.ar      1 D5W        -0.0385
      7 CAK       -45.8840   -5.0510  163.8580 C.ar      1 D5W         0.0349
      8 CLA       -46.4220   -6.5960  163.1090 Cl        1 D5W        -0.0724
      9 CAL       -46.5160   -4.7450  165.0510 C.ar      1 D5W        -0.0406
     10 CAM       -46.1960   -3.5860  165.7190 C.ar      1 D5W         0.0349
     11 CLB       -47.0830   -3.2890  167.2590 Cl        1 D5W        -0.0724
     12 CAN       -45.2230   -2.7260  165.1770 C.ar      1 D5W        -0.0385
     13 CAI       -44.5500   -2.9800  163.9410 C.ar      1 D5W         0.0246
     14 CAH       -43.4900   -1.9880  163.4080 C.3       1 D5W         0.1014
     15 NAU       -43.9950   -0.5950  163.1080 N.4       1 D5W         0.2613
     16 CAW       -42.8510    0.3530  163.0190 C.3       1 D5W        -0.0399
     17 CAV       -44.9730   -0.0120  164.0670 C.3       1 D5W        -0.0399
     18 CAG       -42.6620   -2.3620  162.1540 C.2       1 D5W         0.2386
     19 OAQ       -41.4290   -2.3740  162.2150 O.2       1 D5W        -0.3877
     20 N         -43.2870   -2.6510  160.9930 N.am      1 D5W        -0.2591
     21 CA        -42.6210   -3.1960  159.7870 C.3       1 D5W         0.1338
     22 CB        -43.4580   -4.4390  159.3520 C.3       1 D5W        -0.0037
     23 CG2       -44.7830   -4.0750  158.6560 C.3       1 D5W        -0.0582
     24 CG1       -42.6740   -5.4620  158.4980 C.3       1 D5W        -0.0491
     25 CD1       -41.6920   -6.3360  159.2660 C.3       1 D5W        -0.0648
     26 C         -42.2990   -2.2180  158.6270 C.2       1 D5W         0.2042
     27 O         -43.0790   -1.3460  158.2220 O.2       1 D5W        -0.3943
     28 NAF       -41.0830   -2.3740  158.0530 N.am      1 D5W        -0.2692
     29 CAX       -40.5790   -1.5310  156.9670 C.3       1 D5W         0.0874
     30 C2        -38.9310   -2.9420  153.9330 C.ar      1 D5W         0.1514
     31 CBE       -37.5590   -2.8830  153.3670 C.2       1 D5W         0.0594
     32 NBF       -37.3380   -3.4220  152.2140 N.2       1 D5W        -0.3299
     33 H1        -42.3604   -3.0353  155.4582 H         1 D5W         0.0763
     34 H2        -41.9163   -4.2420  153.3436 H         1 D5W         0.0930
     35 H3        -44.4229   -4.4659  162.3690 H         1 D5W         0.0570
     36 H4        -47.2620   -5.4178  165.4582 H         1 D5W         0.0573
     37 H5        -44.9707   -1.8250  165.7243 H         1 D5W         0.0570
     38 H6        -42.7702   -1.8977  164.2348 H         1 D5W         0.1261
     39 H7        -44.4481   -0.6387  162.2087 H         1 D5W         0.2064
     40 H8        -43.2280    1.3631  162.8006 H         1 D5W         0.0778
     41 H9        -42.1717    0.0335  162.2150 H         1 D5W         0.0778
     42 H10       -42.3079    0.3632  163.9755 H         1 D5W         0.0778
     43 H11       -45.8383   -0.6845  164.1625 H         1 D5W         0.0778
     44 H12       -45.3093    0.9680  163.6975 H         1 D5W         0.0778
     45 H13       -44.4942    0.1112  165.0496 H         1 D5W         0.0778
     46 H14       -44.2719   -2.4851  160.9433 H         1 D5W         0.1886
     47 H15       -41.6407   -3.5679  160.1196 H         1 D5W         0.0803
     48 H16       -43.7277   -4.9566  160.2844 H         1 D5W         0.0345
     49 H17       -45.3167   -4.9961  158.3790 H         1 D5W         0.0235
     50 H18       -44.5721   -3.4871  157.7506 H         1 D5W         0.0235
     51 H19       -45.4064   -3.4820  159.3414 H         1 D5W         0.0235
     52 H20       -42.1090   -4.9057  157.7355 H         1 D5W         0.0267
     53 H21       -43.4027   -6.1224  158.0052 H         1 D5W         0.0267
     54 H22       -41.1906   -7.0237  158.5691 H         1 D5W         0.0230
     55 H23       -42.2348   -6.9162  160.0267 H         1 D5W         0.0230
     56 H24       -40.9411   -5.6996  159.7570 H         1 D5W         0.0230
     57 H25       -40.4941   -3.1083  158.3906 H         1 D5W         0.1885
     58 H26       -41.3112   -0.7321  156.7780 H         1 D5W         0.0740
     59 H27       -39.6249   -1.0861  157.2859 H         1 D5W         0.0740
     60 H28       -36.7541   -2.3943  153.9140 H         1 D5W         0.1164
     61 H29       -36.4138   -3.3926  151.8127 H         1 D5W         0.1392
@<TRIPOS>BOND
     1    1    2 ar 
     2    1    5 ar 
     3   29    1 1  
     4    2    3 ar 
     5    3    4 ar 
     6   30    4 ar 
     7    5   30 ar 
     8    6    7 ar 
     9   13    6 ar 
    10    7    8 1  
    11    7    9 ar 
    12   10    9 ar 
    13   10   11 1  
    14   12   10 ar 
    15   13   12 ar 
    16   14   13 1  
    17   14   15 1  
    18   18   14 1  
    19   15   16 1  
    20   15   17 1  
    21   18   19 2  
    22   20   18 am 
    23   21   20 1  
    24   21   22 1  
    25   26   21 1  
    26   22   23 1  
    27   22   24 1  
    28   24   25 1  
    29   26   27 2  
    30   28   26 am 
    31   28   29 1  
    32   30   31 1  
    33   31   32 2  
    34    2   33 1  
    35    3   34 1  
    36    6   35 1  
    37    9   36 1  
    38   12   37 1  
    39   14   38 1  
    40   15   39 1  
    41   16   40 1  
    42   16   41 1  
    43   16   42 1  
    44   17   43 1  
    45   17   44 1  
    46   17   45 1  
    47   20   46 1  
    48   21   47 1  
    49   22   48 1  
    50   23   49 1  
    51   23   50 1  
    52   23   51 1  
    53   24   52 1  
    54   24   53 1  
    55   25   54 1  
    56   25   55 1  
    57   25   56 1  
    58   28   57 1  
    59   29   58 1  
    60   29   59 1  
    61   31   60 1  
    62   32   61 1  
@<TRIPOS>SUBSTRUCTURE
     1 D5W         1

