6fdu_ligand
  -I-interpret- 

 61 62  0  0  0  0  0  0  0  0999 V2000
  -40.3470   -2.2880  155.6690 C   0  0  0  0  0
  -41.3680   -3.0080  155.0230 C   0  0  0  0  0
  -41.1210   -3.6880  153.8290 C   0  0  0  0  0
  -39.8980   -3.6530  153.2860 N   0  0  0  0  0
  -39.1320   -2.2710  155.0970 N   0  0  0  0  0
  -44.9060   -4.1920  163.3000 C   0  0  0  0  0
  -45.8840   -5.0510  163.8580 C   0  0  0  0  0
  -46.4220   -6.5960  163.1090 Cl  0  0  0  0  0
  -46.5160   -4.7450  165.0510 C   0  0  0  0  0
  -46.1960   -3.5860  165.7190 C   0  0  0  0  0
  -47.0830   -3.2890  167.2590 Cl  0  0  0  0  0
  -45.2230   -2.7260  165.1770 C   0  0  0  0  0
  -44.5500   -2.9800  163.9410 C   0  0  0  0  0
  -43.4900   -1.9880  163.4080 C   0  0  0  0  0
  -43.9950   -0.5950  163.1080 N   0  3  0  0  0
  -42.8510    0.3530  163.0190 C   0  0  0  0  0
  -44.9730   -0.0120  164.0670 C   0  0  0  0  0
  -42.6620   -2.3620  162.1540 C   0  0  0  0  0
  -41.4290   -2.3740  162.2150 O   0  0  0  0  0
  -43.2870   -2.6510  160.9930 N   0  0  0  0  0
  -42.6210   -3.1960  159.7870 C   0  0  0  0  0
  -43.4580   -4.4390  159.3520 C   0  0  0  0  0
  -44.7830   -4.0750  158.6560 C   0  0  0  0  0
  -42.6740   -5.4620  158.4980 C   0  0  0  0  0
  -41.6920   -6.3360  159.2660 C   0  0  0  0  0
  -42.2990   -2.2180  158.6270 C   0  0  0  0  0
  -43.0790   -1.3460  158.2220 O   0  0  0  0  0
  -41.0830   -2.3740  158.0530 N   0  0  0  0  0
  -40.5790   -1.5310  156.9670 C   0  0  0  0  0
  -38.9310   -2.9420  153.9330 C   0  0  0  0  0
  -37.5590   -2.8830  153.3670 C   0  0  0  0  0
  -37.3380   -3.4220  152.2140 N   0  0  0  0  0
  -42.3659   -3.0355  155.4606 H   0  0  0  0  0
  -41.9207   -4.2451  153.3410 H   0  0  0  0  0
  -44.4203   -4.4674  162.3639 H   0  0  0  0  0
  -47.2662   -5.4216  165.4604 H   0  0  0  0  0
  -44.9693   -1.8200  165.7273 H   0  0  0  0  0
  -42.8477   -2.0390  164.2872 H   0  0  0  0  0
  -44.4961   -0.7154  162.2278 H   0  0  0  0  0
  -42.3137    0.3621  163.9674 H   0  0  0  0  0
  -42.1786    0.0353  162.2221 H   0  0  0  0  0
  -43.2258    1.3534  162.8026 H   0  0  0  0  0
  -45.8599   -0.6442  164.1089 H   0  0  0  0  0
  -44.5194    0.0458  165.0564 H   0  0  0  0  0
  -45.2533    0.9878  163.7354 H   0  0  0  0  0
  -44.2916   -2.4817  160.9423 H   0  0  0  0  0
  -41.6010   -3.4605  160.0657 H   0  0  0  0  0
  -43.6971   -4.9235  160.2987 H   0  0  0  0  0
  -45.3997   -3.4875  159.3361 H   0  0  0  0  0
  -44.5727   -3.4924  157.7591 H   0  0  0  0  0
  -45.3109   -4.9884  158.3820 H   0  0  0  0  0
  -42.0857   -4.8859  157.7838 H   0  0  0  0  0
  -43.4126   -6.1336  158.0603 H   0  0  0  0  0
  -40.9485   -5.7043  159.7521 H   0  0  0  0  0
  -42.2311   -6.9103  160.0194 H   0  0  0  0  0
  -41.1958   -7.0169  158.5744 H   0  0  0  0  0
  -40.4823   -3.1230  158.3973 H   0  0  0  0  0
  -41.3304   -0.7662  156.7703 H   0  0  0  0  0
  -39.6188   -1.1255  157.2858 H   0  0  0  0  0
  -36.7534   -2.3938  153.9145 H   0  0  0  0  0
  -38.0987   -3.8773  151.7097 H   0  0  0  0  0
  1  2  4  0  0  0
  1  5  4  0  0  0
 29  1  1  0  0  0
  2  3  4  0  0  0
  3  4  4  0  0  0
 30  4  4  0  0  0
  5 30  4  0  0  0
  6  7  4  0  0  0
 13  6  4  0  0  0
  7  8  1  0  0  0
  7  9  4  0  0  0
 10  9  4  0  0  0
 10 11  1  0  0  0
 12 10  4  0  0  0
 13 12  4  0  0  0
 14 13  1  0  0  0
 14 15  1  0  0  0
 18 14  1  0  0  0
 15 16  1  0  0  0
 15 17  1  0  0  0
 18 19  2  0  0  0
 20 18  1  0  0  0
 21 20  1  0  0  0
 21 22  1  0  0  0
 26 21  1  0  0  0
 22 23  1  0  0  0
 22 24  1  0  0  0
 24 25  1  0  0  0
 26 27  2  0  0  0
 28 26  1  0  0  0
 28 29  1  0  0  0
 30 31  1  0  0  0
 31 32  2  0  0  0
  2 33  1  0  0  0
  3 34  1  0  0  0
  6 35  1  0  0  0
  9 36  1  0  0  0
 12 37  1  0  0  0
 14 38  1  0  0  0
 15 39  1  0  0  0
 16 40  1  0  0  0
 16 41  1  0  0  0
 16 42  1  0  0  0
 17 43  1  0  0  0
 17 44  1  0  0  0
 17 45  1  0  0  0
 20 46  1  0  0  0
 21 47  1  0  0  0
 22 48  1  0  0  0
 23 49  1  0  0  0
 23 50  1  0  0  0
 23 51  1  0  0  0
 24 52  1  0  0  0
 24 53  1  0  0  0
 25 54  1  0  0  0
 25 55  1  0  0  0
 25 56  1  0  0  0
 28 57  1  0  0  0
 29 58  1  0  0  0
 29 59  1  0  0  0
 31 60  1  0  0  0
 32 61  1  0  0  0
M  END
$$$$
