4muf_ligand
  -I-interpret- 

 55 57  0  0  0  0  0  0  0  0999 V2000
   19.9970   10.8670   -0.4130 O   0  0  0  0  0
   18.7840   11.1420   -0.6630 C   0  0  0  0  0
   18.2320   12.2580   -0.5910 O   0  0  0  0  0
   17.9170   10.0240   -1.1690 C   0  0  0  0  0
   16.4220   10.2640   -1.0560 N   0  0  0  0  0
   15.5890   10.2070   -2.1120 C   0  0  0  0  0
   15.8560    9.9860   -3.4090 C   0  0  0  0  0
   14.8460    9.9750   -4.3670 C   0  0  0  0  0
   13.5320   10.1740   -3.9590 C   0  0  0  0  0
   12.5690   10.1660   -4.9360 O   0  0  0  0  0
   11.4630    9.2880   -4.8360 C   0  0  0  0  0
   13.2930   10.4170   -2.5810 C   0  0  0  0  0
   14.3160   10.4220   -1.6950 C   0  0  0  0  0
   14.3530   10.6070   -0.3690 C   0  0  0  0  0
   15.6300   10.4790    0.0150 C   0  0  0  0  0
   16.0910   10.6410    1.2570 C   0  0  0  0  0
   17.0510    9.9940    1.7010 O   0  0  0  0  0
   15.5490   11.6710    1.9080 N   0  0  0  0  0
   16.2050   11.9780    3.3570 S   0  0  0  0  0
   15.8170   13.4080    3.8260 O   0  0  0  0  0
   17.7280   11.8110    3.1670 O   0  0  0  0  0
   15.7830   10.8380    4.5510 C   0  0  0  0  0
   14.7250   11.1820    5.3620 C   0  0  0  0  0
   14.3360   10.3430    6.3810 C   0  0  0  0  0
   15.0100    9.1430    6.5870 C   0  0  0  0  0
   14.5120    8.3830    7.6310 C   0  0  0  0  0
   13.6200    7.2740    7.0890 C   0  0  0  0  0
   15.6260    7.7520    8.4520 C   0  0  0  0  0
   13.7190    9.3500    8.5190 C   0  0  0  0  0
   16.1030    8.7770    5.7660 C   0  0  0  0  0
   16.4950    9.6430    4.7390 C   0  0  0  0  0
   20.1464    9.9289   -0.5517 H   0  0  0  0  0
   18.1413    9.1515   -0.5554 H   0  0  0  0  0
   18.1370    9.9132   -2.2308 H   0  0  0  0  0
   16.8863    9.8113   -3.7188 H   0  0  0  0  0
   15.0814    9.8131   -5.4189 H   0  0  0  0  0
   11.8194    8.2583   -4.8096 H   0  0  0  0  0
   10.9093    9.5057   -3.9227 H   0  0  0  0  0
   10.8117    9.4264   -5.6990 H   0  0  0  0  0
   12.2765   10.6012   -2.2334 H   0  0  0  0  0
   13.5022   10.8218    0.2775 H   0  0  0  0  0
   14.7816   12.2222    1.5237 H   0  0  0  0  0
   14.1949   12.1200    5.1968 H   0  0  0  0  0
   13.5013   10.6179    7.0258 H   0  0  0  0  0
   12.7895    7.7144    6.5373 H   0  0  0  0  0
   14.2008    6.6345    6.4244 H   0  0  0  0  0
   13.2335    6.6822    7.9187 H   0  0  0  0  0
   16.2252    7.1044    7.8119 H   0  0  0  0  0
   16.2569    8.5366    8.8697 H   0  0  0  0  0
   15.1915    7.1644    9.2607 H   0  0  0  0  0
   14.3830   10.1336    8.8840 H   0  0  0  0  0
   12.9126    9.7969    7.9375 H   0  0  0  0  0
   13.2998    8.8043    9.3643 H   0  0  0  0  0
   16.6302    7.8373    5.9306 H   0  0  0  0  0
   17.3390    9.3938    4.0959 H   0  0  0  0  0
  1  2  1  0  0  0
  2  3  2  0  0  0
  2  4  1  0  0  0
  4  5  1  0  0  0
  5  6  4  0  0  0
  5 15  4  0  0  0
  6  7  4  0  0  0
  6 13  4  0  0  0
  7  8  4  0  0  0
  8  9  4  0  0  0
  9 10  1  0  0  0
  9 12  4  0  0  0
 10 11  1  0  0  0
 12 13  4  0  0  0
 13 14  4  0  0  0
 14 15  4  0  0  0
 15 16  1  0  0  0
 16 17  2  0  0  0
 16 18  1  0  0  0
 18 19  1  0  0  0
 19 20  2  0  0  0
 19 21  2  0  0  0
 19 22  1  0  0  0
 22 23  4  0  0  0
 22 31  4  0  0  0
 23 24  4  0  0  0
 24 25  4  0  0  0
 25 26  1  0  0  0
 25 30  4  0  0  0
 26 27  1  0  0  0
 26 28  1  0  0  0
 26 29  1  0  0  0
 30 31  4  0  0  0
  1 32  1  0  0  0
  4 33  1  0  0  0
  4 34  1  0  0  0
  7 35  1  0  0  0
  8 36  1  0  0  0
 11 37  1  0  0  0
 11 38  1  0  0  0
 11 39  1  0  0  0
 12 40  1  0  0  0
 14 41  1  0  0  0
 18 42  1  0  0  0
 23 43  1  0  0  0
 24 44  1  0  0  0
 27 45  1  0  0  0
 27 46  1  0  0  0
 27 47  1  0  0  0
 28 48  1  0  0  0
 28 49  1  0  0  0
 28 50  1  0  0  0
 29 51  1  0  0  0
 29 52  1  0  0  0
 29 53  1  0  0  0
 30 54  1  0  0  0
 31 55  1  0  0  0
M  END
$$$$
