3u4w_ligand
  -I-interpret- 

100103  0  0  0  0  0  0  0  0999 V2000
  -55.9520   44.5250    7.2040 C   0  0  0  0  0
  -56.2840   44.2840    6.0300 O   0  0  0  0  0
  -56.6100   45.8370    7.5070 C   0  0  0  0  0
  -57.4250   45.9140    8.6240 C   0  0  0  0  0
  -58.5920   44.9850    8.8470 C   0  0  0  0  0
  -58.5720   43.8530    8.3360 O   0  0  0  0  0
  -55.3860   43.4540    7.7390 N   0  0  0  0  0
  -54.7630   42.3580    7.0620 C   0  0  0  0  0
  -55.2070   41.1440    7.7990 C   0  0  0  0  0
  -56.0710   40.5840    7.1120 O   0  0  0  0  0
  -53.2250   42.3770    7.2060 C   0  0  0  0  0
  -52.5850   43.6760    6.6010 C   0  0  0  0  0
  -51.1310   43.7360    6.9830 C   0  0  0  0  0
  -50.3470   44.8150    6.1690 C   0  0  0  0  0
  -50.6140   44.8070    4.7080 C   0  0  0  0  0
  -52.0840   44.9470    4.4560 C   0  0  0  0  0
  -52.7850   43.7500    5.0700 C   0  0  0  0  0
  -55.1990   40.4690    8.9230 N   0  0  0  0  0
  -55.5180   39.2930    9.7600 C   0  0  0  0  0
  -56.2830   39.8960   10.8690 C   0  0  0  0  0
  -56.9890   38.9610   11.2940 O   0  0  0  0  0
  -54.2900   38.5530   10.2150 C   0  0  0  0  0
  -53.3650   38.4140    9.0180 C   0  0  0  0  0
  -52.2600   39.2670    8.8760 C   0  0  0  0  0
  -53.5790   37.4010    8.0440 C   0  0  0  0  0
  -51.2580   38.9870    7.9030 C   0  0  0  0  0
  -52.6280   37.1810    7.0580 C   0  0  0  0  0
  -51.5270   38.0080    6.9130 C   0  0  0  0  0
  -58.3660   42.6040   12.2330 C   0  0  0  0  0
  -57.5820   43.4510   11.7540 O   0  0  0  0  0
  -57.5360   41.3500   12.5040 C   0  0  0  0  0
  -56.7380   41.0740   11.2930 N   0  0  0  0  0
  -56.6340   41.5480   13.6730 C   0  0  0  0  0
  -55.8830   40.2590   14.0000 C   0  0  0  0  0
  -55.4280   40.3530   15.4310 C   0  0  0  0  0
  -54.1440   39.6880   15.5690 N   0  0  0  0  0
  -53.8390   38.8630   16.7370 C   0  0  0  0  0
  -54.5430   38.8890   17.7070 O   0  0  0  0  0
  -52.4420   38.2930   16.8290 C   0  0  0  0  0
  -51.6570   38.3590   15.7280 N   0  0  0  0  0
  -50.4870   37.7440   15.7910 C   0  0  0  0  0
  -49.9130   37.5000   17.0270 C   0  0  0  0  0
  -50.6820   37.4240   18.1040 N   0  0  0  0  0
  -51.9560   37.8970   18.0580 C   0  0  0  0  0
  -59.6300   45.0310    9.6650 N   0  0  0  0  0
  -60.5910   43.9660    9.8830 C   0  0  0  0  0
  -61.6290   43.9530    8.8120 C   0  0  0  0  0
  -62.4650   43.0190    8.8550 O   0  0  0  0  0
  -61.3280   44.1450   11.2180 C   0  0  0  0  0
  -60.4050   44.3860   12.3890 C   0  0  0  0  0
  -59.4720   43.2770   12.4550 N   0  0  0  0  0
  -61.9720   45.0580    8.3000 O   0  0  0  0  0
  -57.2643   46.0348    6.6579 H   0  0  0  0  0
  -55.7928   46.5328    7.6973 H   0  0  0  0  0
  -57.8982   46.8906    8.5220 H   0  0  0  0  0
  -56.7499   45.6694    9.4440 H   0  0  0  0  0
  -55.3952   43.4042    8.7577 H   0  0  0  0  0
  -55.0238   42.3955    6.0043 H   0  0  0  0  0
  -52.8245   41.5196    6.6650 H   0  0  0  0  0
  -52.9848   42.3456    8.2687 H   0  0  0  0  0
  -53.0910   44.5483    7.0148 H   0  0  0  0  0
  -50.6858   42.7638    6.7716 H   0  0  0  0  0
  -51.0697   43.9990    8.0390 H   0  0  0  0  0
  -49.2861   44.6007    6.2984 H   0  0  0  0  0
  -50.6650   45.7878    6.5439 H   0  0  0  0  0
  -50.2653   43.8651    4.2845 H   0  0  0  0  0
  -50.0890   45.6412    4.2426 H   0  0  0  0  0
  -52.2788   44.9868    3.3843 H   0  0  0  0  0
  -52.4551   45.8692    4.9032 H   0  0  0  0  0
  -53.8527   43.8449    4.8723 H   0  0  0  0  0
  -52.3620   42.8472    4.6293 H   0  0  0  0  0
  -54.7083   41.0897    9.5667 H   0  0  0  0  0
  -56.0757   38.5203    9.2309 H   0  0  0  0  0
  -54.5606   37.5704   10.6016 H   0  0  0  0  0
  -53.7933   39.0991   11.0170 H   0  0  0  0  0
  -52.1680   40.1471    9.5125 H   0  0  0  0  0
  -54.4873   36.7990    8.0717 H   0  0  0  0  0
  -50.3042   39.5144    7.9191 H   0  0  0  0  0
  -52.7507   36.3360    6.3805 H   0  0  0  0  0
  -50.8735   37.9075    6.0464 H   0  0  0  0  0
  -58.1942   40.5129   12.7365 H   0  0  0  0  0
  -56.5079   41.8805   10.7125 H   0  0  0  0  0
  -57.2342   41.8348   14.5365 H   0  0  0  0  0
  -55.9098   42.3260   13.4314 H   0  0  0  0  0
  -55.0282   40.1361   13.3350 H   0  0  0  0  0
  -56.5315   39.3939   13.8617 H   0  0  0  0  0
  -56.1603   39.8725   16.0798 H   0  0  0  0  0
  -55.3296   41.4007   15.7153 H   0  0  0  0  0
  -53.4420   39.7986   14.8374 H   0  0  0  0  0
  -49.9797   37.4323   14.8780 H   0  0  0  0  0
  -48.8342   37.3710   17.1141 H   0  0  0  0  0
  -52.5693   37.9608   18.9569 H   0  0  0  0  0
  -59.7677   45.8941   10.1908 H   0  0  0  0  0
  -60.0233   43.0355    9.8817 H   0  0  0  0  0
  -61.8746   43.2230   11.4164 H   0  0  0  0  0
  -61.9707   45.0201   11.1223 H   0  0  0  0  0
  -60.9776   44.4539   13.3140 H   0  0  0  0  0
  -59.8673   45.3252   12.2595 H   0  0  0  0  0
  -59.9973   42.6111   13.0216 H   0  0  0  0  0
  -61.2333   45.6700    8.3379 H   0  0  0  0  0
  1  2  2  0  0  0
  1  3  1  0  0  0
  7  1  1  0  0  0
  3  4  1  0  0  0
  4  5  1  0  0  0
  5  6  2  0  0  0
  5 45  1  0  0  0
  8  7  1  0  0  0
  9  8  1  0  0  0
  8 11  1  0  0  0
  9 10  2  0  0  0
 18  9  1  0  0  0
 11 12  1  0  0  0
 12 13  1  0  0  0
 12 17  1  0  0  0
 13 14  1  0  0  0
 14 15  1  0  0  0
 16 15  1  0  0  0
 17 16  1  0  0  0
 19 18  1  0  0  0
 20 19  1  0  0  0
 19 22  1  0  0  0
 20 21  2  0  0  0
 32 20  1  0  0  0
 22 23  1  0  0  0
 23 24  4  0  0  0
 23 25  4  0  0  0
 24 26  4  0  0  0
 25 27  4  0  0  0
 26 28  4  0  0  0
 27 28  4  0  0  0
 29 30  2  0  0  0
 31 29  1  0  0  0
 29 51  1  0  0  0
 31 32  1  0  0  0
 31 33  1  0  0  0
 33 34  1  0  0  0
 34 35  1  0  0  0
 35 36  1  0  0  0
 36 37  1  0  0  0
 37 38  2  0  0  0
 37 39  1  0  0  0
 39 40  4  0  0  0
 39 44  4  0  0  0
 40 41  4  0  0  0
 41 42  4  0  0  0
 42 43  4  0  0  0
 43 44  4  0  0  0
 45 46  1  0  0  0
 46 47  1  0  0  0
 46 49  1  0  0  0
 47 48  2  0  0  0
 47 52  1  0  0  0
 49 50  1  0  0  0
 50 51  1  0  0  0
  3 53  1  0  0  0
  3 54  1  0  0  0
  4 55  1  0  0  0
  4 56  1  0  0  0
  7 57  1  0  0  0
  8 58  1  0  0  0
 11 59  1  0  0  0
 11 60  1  0  0  0
 12 61  1  0  0  0
 13 62  1  0  0  0
 13 63  1  0  0  0
 14 64  1  0  0  0
 14 65  1  0  0  0
 15 66  1  0  0  0
 15 67  1  0  0  0
 16 68  1  0  0  0
 16 69  1  0  0  0
 17 70  1  0  0  0
 17 71  1  0  0  0
 18 72  1  0  0  0
 19 73  1  0  0  0
 22 74  1  0  0  0
 22 75  1  0  0  0
 24 76  1  0  0  0
 25 77  1  0  0  0
 26 78  1  0  0  0
 27 79  1  0  0  0
 28 80  1  0  0  0
 31 81  1  0  0  0
 32 82  1  0  0  0
 33 83  1  0  0  0
 33 84  1  0  0  0
 34 85  1  0  0  0
 34 86  1  0  0  0
 35 87  1  0  0  0
 35 88  1  0  0  0
 36 89  1  0  0  0
 41 90  1  0  0  0
 42 91  1  0  0  0
 44 92  1  0  0  0
 45 93  1  0  0  0
 46 94  1  0  0  0
 49 95  1  0  0  0
 49 96  1  0  0  0
 50 97  1  0  0  0
 50 98  1  0  0  0
 51 99  1  0  0  0
 52100  1  0  0  0
M  END
$$$$
