6hcu_ligand
  -I-interpret- 

 41 43  0  0  0  0  0  0  0  0999 V2000
  -17.3740   -0.0210  -22.3630 C   0  0  0  0  0
  -18.9610    0.2920  -22.6260 C   0  0  0  0  0
  -16.8900    1.1210  -21.4400 C   0  0  0  0  0
  -22.1450   -6.2120  -26.1220 C   0  0  0  0  0
  -22.6990   -2.5220  -26.8660 C   0  0  0  0  0
  -22.1210   -1.3950  -24.8270 C   0  0  0  0  0
  -22.5240   -1.3380  -26.1570 C   0  0  0  0  0
  -17.7850    1.3980  -20.1810 C   0  0  0  0  0
  -19.3260    1.5480  -20.4350 C   0  0  0  0  0
  -21.9260   -0.1110  -23.9510 C   0  0  0  0  0
  -21.6180   -4.9530  -24.1730 C   0  0  0  0  0
  -21.9670   -3.7730  -24.8720 C   0  0  0  0  0
  -22.2480   -7.3710  -26.8020 F   0  0  0  0  0
  -22.4590   -5.0740  -26.7930 C   0  0  0  0  0
  -21.7050   -6.1620  -24.7950 C   0  0  0  0  0
  -22.3560   -3.8100  -26.1760 C   0  0  0  0  0
  -23.0860   -2.5290  -28.0340 O   0  0  0  0  0
  -21.8490   -2.5940  -24.1650 O   0  0  0  0  0
  -21.9210    0.9630  -24.4820 O   0  0  0  0  0
  -21.6700   -0.3780  -22.7240 N   0  0  0  0  0
  -21.3470    0.6480  -21.7510 C   0  0  0  0  0
  -19.8860    0.4690  -21.3620 C   0  0  0  0  0
  -19.6840   -0.7140  -20.5830 O   0  0  0  0  0
  -16.8590    2.2340  -22.2080 F   0  0  0  0  0
  -15.6020    1.0030  -21.0560 F   0  0  0  0  0
  -16.8088   -0.0554  -23.2944 H   0  0  0  0  0
  -17.2249   -0.9999  -21.9074 H   0  0  0  0  0
  -19.3487   -0.5792  -23.1540 H   0  0  0  0  0
  -18.9892    1.2490  -23.1470 H   0  0  0  0  0
  -22.7008   -0.3762  -26.6384 H   0  0  0  0  0
  -17.4514    2.3546  -19.7787 H   0  0  0  0  0
  -17.6697    0.5296  -19.5324 H   0  0  0  0  0
  -19.4916    2.5142  -20.9117 H   0  0  0  0  0
  -19.8317    1.4554  -19.4738 H   0  0  0  0  0
  -21.2800   -4.8947  -23.1384 H   0  0  0  0  0
  -22.7968   -5.1386  -27.8273 H   0  0  0  0  0
  -21.4358   -7.0766  -24.2666 H   0  0  0  0  0
  -21.6944   -1.3512  -22.4194 H   0  0  0  0  0
  -21.9881    0.5562  -20.8743 H   0  0  0  0  0
  -21.5091    1.6390  -22.1750 H   0  0  0  0  0
  -20.0040   -1.4760  -21.0715 H   0  0  0  0  0
  2  1  1  0  0  0
  1  3  1  0  0  0
 22  2  1  0  0  0
  8  3  1  0  0  0
  3 24  1  0  0  0
  3 25  1  0  0  0
  4 13  1  0  0  0
 14  4  4  0  0  0
 15  4  4  0  0  0
  7  5  1  0  0  0
  5 16  1  0  0  0
  5 17  2  0  0  0
  6  7  2  0  0  0
 10  6  1  0  0  0
  6 18  1  0  0  0
  9  8  1  0  0  0
 22  9  1  0  0  0
 10 19  2  0  0  0
 20 10  1  0  0  0
 12 11  4  0  0  0
 11 15  4  0  0  0
 12 16  4  0  0  0
 18 12  1  0  0  0
 16 14  4  0  0  0
 21 20  1  0  0  0
 21 22  1  0  0  0
 22 23  1  0  0  0
  1 26  1  0  0  0
  1 27  1  0  0  0
  2 28  1  0  0  0
  2 29  1  0  0  0
  7 30  1  0  0  0
  8 31  1  0  0  0
  8 32  1  0  0  0
  9 33  1  0  0  0
  9 34  1  0  0  0
 11 35  1  0  0  0
 14 36  1  0  0  0
 15 37  1  0  0  0
 20 38  1  0  0  0
 21 39  1  0  0  0
 21 40  1  0  0  0
 23 41  1  0  0  0
M  END
$$$$
