6jki_ligand
  -I-interpret- 

 52 54  0  0  0  0  0  0  0  0999 V2000
  -28.5390   11.8880  -31.6430 N   0  3  0  0  0
  -29.5830   12.8630  -31.2970 C   0  0  0  0  0
  -29.0590   14.2870  -31.4760 C   0  0  0  0  0
  -27.8420   14.5040  -31.3000 O   0  0  0  0  0
  -29.9050   15.1450  -31.7930 O   0  0  0  0  0
  -30.1200   12.6720  -29.8750 C   0  0  0  0  0
  -30.7280   11.2790  -29.7500 C   0  0  0  0  0
  -31.0470   10.9640  -28.2920 C   0  0  0  0  0
  -29.9970   10.0840  -27.7760 N   0  3  0  0  0
  -32.4010   10.2490  -28.2690 C   0  0  0  0  0
  -33.6060   11.1180  -27.8620 C   0  0  0  0  0
  -33.4560   11.7690  -26.5830 O   0  0  0  0  0
  -33.8950   12.2560  -28.8190 C   0  0  0  0  0
  -34.5470   11.7750  -30.0220 O   0  0  0  0  0
  -34.7910   13.1270  -27.9590 C   0  0  0  0  0
  -36.0890   12.5650  -27.9060 O   0  0  0  0  0
  -34.2030   12.9780  -26.5650 C   0  0  0  0  0
  -33.3120   14.0800  -26.1340 N   0  0  0  0  0
  -31.9910   14.0260  -25.9580 C   0  0  0  0  0
  -31.5850   15.1840  -25.4350 N   0  0  0  0  0
  -32.6600   15.9780  -25.2830 C   0  0  0  0  0
  -32.8190   17.2550  -24.8710 C   0  0  0  0  0
  -31.7420   17.9490  -24.4840 N   0  0  0  0  0
  -34.0260   17.8120  -24.7770 N   0  0  0  0  0
  -35.1540   17.1060  -25.1810 C   0  0  0  0  0
  -34.9620   15.8010  -25.6260 N   0  0  0  0  0
  -33.7320   15.2640  -25.6760 C   0  0  0  0  0
  -28.2179   12.0593  -32.5959 H   0  0  0  0  0
  -27.7563   11.9859  -30.9964 H   0  0  0  0  0
  -28.9209   10.9446  -31.5760 H   0  0  0  0  0
  -30.4158   12.6924  -31.9792 H   0  0  0  0  0
  -27.4028   13.6839  -31.0631 H   0  0  0  0  0
  -30.8823   13.4232  -29.6684 H   0  0  0  0  0
  -29.3052   12.7805  -29.1592 H   0  0  0  0  0
  -30.0126   10.5457  -30.1223 H   0  0  0  0  0
  -31.6500   11.2417  -30.3302 H   0  0  0  0  0
  -31.0910   11.8634  -27.6778 H   0  0  0  0  0
  -30.1915    9.8606  -26.8000 H   0  0  0  0  0
  -29.9751    9.2246  -28.3249 H   0  0  0  0  0
  -29.0953   10.5559  -27.8448 H   0  0  0  0  0
  -32.3217    9.4601  -27.5210 H   0  0  0  0  0
  -32.5914    9.9140  -29.2886 H   0  0  0  0  0
  -34.4090   10.3810  -27.8509 H   0  0  0  0  0
  -33.0189   12.7807  -29.1999 H   0  0  0  0  0
  -34.7182   12.5147  -30.6094 H   0  0  0  0  0
  -34.8488   14.1504  -28.3298 H   0  0  0  0  0
  -36.6539   13.1180  -27.3613 H   0  0  0  0  0
  -35.0283   12.9877  -25.8531 H   0  0  0  0  0
  -31.3507   13.1780  -26.2008 H   0  0  0  0  0
  -30.8202   17.5127  -24.5031 H   0  0  0  0  0
  -31.8430   18.9142  -24.1699 H   0  0  0  0  0
  -36.1465   17.5555  -25.1505 H   0  0  0  0  0
  1  2  1  0  0  0
  2  3  1  0  0  0
  2  6  1  0  0  0
  3  4  1  0  0  0
  3  5  2  0  0  0
  6  7  1  0  0  0
  7  8  1  0  0  0
  8  9  1  0  0  0
  8 10  1  0  0  0
 10 11  1  0  0  0
 11 12  1  0  0  0
 11 13  1  0  0  0
 12 17  1  0  0  0
 13 14  1  0  0  0
 13 15  1  0  0  0
 15 16  1  0  0  0
 15 17  1  0  0  0
 17 18  1  0  0  0
 18 19  4  0  0  0
 18 27  4  0  0  0
 19 20  4  0  0  0
 20 21  4  0  0  0
 21 22  4  0  0  0
 21 27  4  0  0  0
 22 23  1  0  0  0
 22 24  4  0  0  0
 24 25  4  0  0  0
 25 26  4  0  0  0
 26 27  4  0  0  0
  1 28  1  0  0  0
  1 29  1  0  0  0
  1 30  1  0  0  0
  2 31  1  0  0  0
  4 32  1  0  0  0
  6 33  1  0  0  0
  6 34  1  0  0  0
  7 35  1  0  0  0
  7 36  1  0  0  0
  8 37  1  0  0  0
  9 38  1  0  0  0
  9 39  1  0  0  0
  9 40  1  0  0  0
 10 41  1  0  0  0
 10 42  1  0  0  0
 11 43  1  0  0  0
 13 44  1  0  0  0
 14 45  1  0  0  0
 15 46  1  0  0  0
 16 47  1  0  0  0
 17 48  1  0  0  0
 19 49  1  0  0  0
 23 50  1  0  0  0
 23 51  1  0  0  0
 25 52  1  0  0  0
M  END
$$$$
