6j3o_ligand
  -I-interpret- 

 39 41  0  0  0  0  0  0  0  0999 V2000
    6.7820    5.0530  -28.7290 C   0  0  0  0  0
    8.1350    4.4620  -34.9880 C   0  0  0  0  0
    7.1760    2.4720  -35.9150 C   0  0  0  0  0
    9.2390    4.9550  -34.0950 N   0  0  0  0  0
    8.9840    5.1530  -32.6780 C   0  0  0  0  0
    9.6990    5.9200  -30.6140 C   0  0  0  0  0
    8.4760    5.5080  -30.0370 C   0  0  0  0  0
    7.5380    4.9190  -30.8430 C   0  0  0  0  0
    6.4290    4.6180  -30.0020 C   0  0  0  0  0
    7.9990    5.5780  -28.7640 N   0  0  0  0  0
   11.1650    6.1490  -32.5020 C   0  0  0  0  0
    8.3380    5.0260  -36.4110 C   0  0  0  0  0
    7.3320    3.0580  -37.3350 C   0  0  0  0  0
    8.1380    3.0100  -34.9900 C   0  0  0  0  0
    7.5380    4.9420  -38.4410 C   0  0  0  0  0
    9.9100    5.7280  -31.9050 N   0  0  0  0  0
    7.8130    4.7500  -32.1720 N   0  0  0  0  0
    7.3620    4.5080  -37.3280 N   0  3  0  0  0
   10.5230    6.4310  -29.9300 O   0  0  0  0  0
    6.1555    4.9745  -27.8405 H   0  0  0  0  0
    7.1672    4.8040  -34.6213 H   0  0  0  0  0
    7.3328    1.3950  -35.9758 H   0  0  0  0  0
    6.1804    2.7277  -35.5525 H   0  0  0  0  0
   10.1626    5.1496  -34.4816 H   0  0  0  0  0
    5.4931    4.1430  -30.2963 H   0  0  0  0  0
   11.6683    5.2842  -32.9344 H   0  0  0  0  0
   10.9662    6.8832  -33.2827 H   0  0  0  0  0
   11.7991    6.5944  -31.7355 H   0  0  0  0  0
    9.3283    4.7333  -36.7598 H   0  0  0  0  0
    8.2319    6.1101  -36.3706 H   0  0  0  0  0
    6.4761    2.7390  -37.9298 H   0  0  0  0  0
    8.2755    2.7009  -37.7479 H   0  0  0  0  0
    7.8781    2.6666  -33.9887 H   0  0  0  0  0
    9.1289    2.6710  -35.2921 H   0  0  0  0  0
    7.4578    6.0289  -38.4227 H   0  0  0  0  0
    8.5306    4.6554  -38.7886 H   0  0  0  0  0
    6.7839    4.5321  -39.1129 H   0  0  0  0  0
    7.1209    4.3139  -32.7813 H   0  0  0  0  0
    6.4492    4.8251  -37.0014 H   0  0  0  0  0
  1  9  4  0  0  0
 10  1  4  0  0  0
  4  2  1  0  0  0
  2 12  1  0  0  0
  2 14  1  0  0  0
  3 13  1  0  0  0
 14  3  1  0  0  0
  5  4  1  0  0  0
 16  5  4  0  0  0
  5 17  1  0  0  0
  7  6  1  0  0  0
  6 16  1  0  0  0
  6 19  2  0  0  0
  7  8  4  0  0  0
  7 10  4  0  0  0
  8  9  4  0  0  0
  8 17  1  0  0  0
 16 11  1  0  0  0
 12 18  1  0  0  0
 13 18  1  0  0  0
 18 15  1  0  0  0
  1 20  1  0  0  0
  2 21  1  0  0  0
  3 22  1  0  0  0
  3 23  1  0  0  0
  4 24  1  0  0  0
  9 25  1  0  0  0
 11 26  1  0  0  0
 11 27  1  0  0  0
 11 28  1  0  0  0
 12 29  1  0  0  0
 12 30  1  0  0  0
 13 31  1  0  0  0
 13 32  1  0  0  0
 14 33  1  0  0  0
 14 34  1  0  0  0
 15 35  1  0  0  0
 15 36  1  0  0  0
 15 37  1  0  0  0
 17 38  1  0  0  0
 18 39  1  0  0  0
M  END
$$$$
