### 
### Created by X-TOOL on Mon Sep 10 21:12:54 2018
### 

@<TRIPOS>MOLECULE
2nm1_ligand
  298   300     1     0     0
SMALL
GAST_HUCK


@<TRIPOS>ATOM
      1 N         -25.9160    6.6220  -21.0820 N.4       1 GLU         0.2380
      2 CA        -26.3960    5.8730  -19.8840 C.3       1 GLU         0.0665
      3 C         -25.6330    6.2910  -18.6330 C.2       1 GLU         0.2269
      4 O         -25.8840    7.3530  -18.0610 O.2       1 GLU        -0.3907
      5 CB        -26.2490    4.3540  -20.1150 C.3       1 GLU         0.0194
      6 CG        -26.3780    3.4530  -18.8650 C.3       1 GLU         0.0075
      7 CD        -27.7120    3.5780  -18.1420 C.2       1 GLU         0.0351
      8 OE1       -28.0590    4.6930  -17.6980 O.co2     1 GLU        -0.5690
      9 OE2       -28.4120    2.5520  -18.0080 O.co2     1 GLU        -0.5690
     10 N         -24.6920    5.4440  -18.2320 N.am      1 ASP        -0.2595
     11 CA        -23.8740    5.6440  -17.0480 C.3       1 ASP         0.1424
     12 C         -24.1440    6.8490  -16.1690 C.2       1 ASP         0.2056
     13 O         -23.6950    7.9610  -16.4490 O.2       1 ASP        -0.3943
     14 CB        -22.3980    5.6120  -17.4320 C.3       1 ASP         0.0406
     15 CG        -21.9010    4.2060  -17.6350 C.2       1 ASP         0.0393
     16 OD1       -21.9530    3.4260  -16.6590 O.co2     1 ASP        -0.5688
     17 OD2       -21.4750    3.8780  -18.7630 O.co2     1 ASP        -0.5688
     18 N         -24.8940    6.6120  -15.0980 N.am      1 MET        -0.2636
     19 CA        -25.1880    7.6580  -14.1370 C.3       1 MET         0.1317
     20 C         -23.9490    7.7510  -13.2470 C.2       1 MET         0.2040
     21 O         -23.9080    8.5190  -12.2890 O.2       1 MET        -0.3944
     22 CB        -26.4370    7.3020  -13.3220 C.3       1 MET        -0.0034
     23 CG        -26.5680    5.8260  -12.9830 C.3       1 MET        -0.0024
     24 SD        -25.3370    5.2440  -11.8170 S.3       1 MET        -0.1639
     25 CE        -26.2340    3.8920  -11.0110 C.3       1 MET        -0.0181
     26 N         -22.9460    6.9390  -13.5800 N.am      1 PHE        -0.2619
     27 CA        -21.6640    6.9160  -12.8740 C.3       1 PHE         0.1404
     28 C         -21.1610    8.3500  -12.9120 C.2       1 PHE         0.2059
     29 O         -20.4640    8.8110  -12.0100 O.2       1 PHE        -0.3942
     30 CB        -20.6850    6.0050  -13.6240 C.3       1 PHE         0.0214
     31 CG        -19.2430    6.1520  -13.2010 C.ar      1 PHE        -0.0386
     32 CD1       -18.7610    5.5060  -12.0690 C.ar      1 PHE        -0.0601
     33 CD2       -18.3510    6.8970  -13.9720 C.ar      1 PHE        -0.0601
     34 CE1       -17.4110    5.5910  -11.7110 C.ar      1 PHE        -0.0686
     35 CE2       -16.9960    6.9900  -13.6200 C.ar      1 PHE        -0.0686
     36 CZ        -16.5280    6.3330  -12.4880 C.ar      1 PHE        -0.0687
     37 N         -21.5430    9.0470  -13.9770 N.am      1 ALA        -0.2639
     38 CA        -21.1590   10.4310  -14.1890 C.3       1 ALA         0.1282
     39 C         -21.8880   11.3620  -13.2320 C.2       1 ALA         0.2036
     40 O         -21.2920   12.2940  -12.6940 O.2       1 ALA        -0.3944
     41 CB        -21.4530   10.8250  -15.6200 C.3       1 ALA        -0.0244
     42 N         -23.1800   11.1260  -13.0290 N.am      1 LYS        -0.2637
     43 CA        -23.9370   11.9740  -12.1140 C.3       1 LYS         0.1310
     44 C         -23.2750   11.8550  -10.7430 C.2       1 LYS         0.2039
     45 O         -22.9560   12.8640  -10.1140 O.2       1 LYS        -0.3944
     46 CB        -25.4180   11.5460  -12.0460 C.3       1 LYS        -0.0122
     47 CG        -25.7190   10.2800  -11.2640 C.3       1 LYS        -0.0440
     48 CD        -27.2100    9.9800  -11.2840 C.3       1 LYS        -0.0124
     49 CE        -27.5410    8.7240  -10.4960 C.3       1 LYS        -0.0354
     50 NZ        -28.9960    8.4100  -10.5450 N.4       1 LYS         0.2185
     51 N         -23.0440   10.6150  -10.3100 N.am      1 LEU        -0.2637
     52 CA        -22.4040   10.3390   -9.0290 C.3       1 LEU         0.1312
     53 C         -21.0660   11.0550   -8.9060 C.2       1 LEU         0.2039
     54 O         -20.7640   11.6520   -7.8720 O.2       1 LEU        -0.3944
     55 CB        -22.1800    8.8330   -8.8600 C.3       1 LEU        -0.0101
     56 CG        -23.4160    8.0090   -8.5140 C.3       1 LEU        -0.0425
     57 CD1       -23.0270    6.5580   -8.3890 C.3       1 LEU        -0.0625
     58 CD2       -24.0220    8.5100   -7.2230 C.3       1 LEU        -0.0625
     59 N         -20.2670   10.9750   -9.9640 N.am      1 LYS        -0.2637
     60 CA        -18.9620   11.6140   -9.9890 C.3       1 LYS         0.1310
     61 C         -19.1470   13.0730   -9.5830 C.2       1 LYS         0.2040
     62 O         -18.3140   13.6460   -8.8750 O.2       1 LYS        -0.3944
     63 CB        -18.3600   11.5200  -11.3980 C.3       1 LYS        -0.0122
     64 CG        -16.9640   12.0890  -11.5380 C.3       1 LYS        -0.0440
     65 CD        -16.4290   11.9520  -12.9590 C.3       1 LYS        -0.0124
     66 CE        -17.1770   12.8430  -13.9440 C.3       1 LYS        -0.0354
     67 NZ        -18.6090   12.4660  -14.1050 N.4       1 LYS         0.2185
     68 N         -20.2550   13.6660  -10.0180 N.am      1 ASP        -0.2622
     69 CA        -20.5300   15.0540   -9.6870 C.3       1 ASP         0.1423
     70 C         -20.9210   15.2560   -8.2310 C.2       1 ASP         0.2056
     71 O         -20.5310   16.2460   -7.6160 O.2       1 ASP        -0.3943
     72 CB        -21.5940   15.6240  -10.6260 C.3       1 ASP         0.0406
     73 CG        -21.0410   15.8900  -12.0170 C.2       1 ASP         0.0393
     74 OD1       -19.9040   16.4090  -12.1060 O.co2     1 ASP        -0.5688
     75 OD2       -21.7290   15.5880  -13.0170 O.co2     1 ASP        -0.5688
     76 N         -21.6840   14.3260   -7.6700 N.am      1 LYS        -0.2636
     77 CA        -22.0540   14.4500   -6.2670 C.3       1 LYS         0.1310
     78 C         -20.7860   14.2720   -5.4320 C.2       1 LYS         0.2040
     79 O         -20.6720   14.8200   -4.3340 O.2       1 LYS        -0.3944
     80 CB        -23.1070   13.4080   -5.8890 C.3       1 LYS        -0.0122
     81 CG        -24.4010   13.5680   -6.6640 C.3       1 LYS        -0.0440
     82 CD        -25.4100   12.4860   -6.3150 C.3       1 LYS        -0.0124
     83 CE        -25.8450   12.5900   -4.8600 C.3       1 LYS        -0.0354
     84 NZ        -26.7780   11.4870   -4.4850 N.4       1 LYS         0.2185
     85 N         -19.8280   13.5210   -5.9710 N.am      1 PHE        -0.2619
     86 CA        -18.5640   13.2980   -5.2820 C.3       1 PHE         0.1404
     87 C         -17.7970   14.6070   -5.2170 C.2       1 PHE         0.2061
     88 O         -17.4300   15.0690   -4.1400 O.2       1 PHE        -0.3942
     89 CB        -17.6900   12.2700   -6.0130 C.3       1 PHE         0.0214
     90 CG        -16.3240   12.0790   -5.3880 C.ar      1 PHE        -0.0386
     91 CD1       -16.1840   11.4230   -4.1550 C.ar      1 PHE        -0.0601
     92 CD2       -15.1740   12.5560   -6.0270 C.ar      1 PHE        -0.0601
     93 CE1       -14.9100   11.2450   -3.5690 C.ar      1 PHE        -0.0686
     94 CE2       -13.9020   12.3890   -5.4580 C.ar      1 PHE        -0.0686
     95 CZ        -13.7680   11.7280   -4.2220 C.ar      1 PHE        -0.0687
     96 N         -17.5490   15.1970   -6.3810 N.am      1 PHE        -0.2618
     97 CA        -16.7990   16.4420   -6.4330 C.3       1 PHE         0.1404
     98 C         -17.3800   17.5310   -5.5450 C.2       1 PHE         0.2061
     99 O         -16.6490   18.3270   -4.9670 O.2       1 PHE        -0.3942
    100 CB        -16.6750   16.9160   -7.8740 C.3       1 PHE         0.0214
    101 CG        -15.7640   16.0640   -8.6920 C.ar      1 PHE        -0.0386
    102 CD1       -14.5080   15.7050   -8.2010 C.ar      1 PHE        -0.0601
    103 CD2       -16.1470   15.6050   -9.9470 C.ar      1 PHE        -0.0601
    104 CE1       -13.6440   14.8940   -8.9510 C.ar      1 PHE        -0.0686
    105 CE2       -15.2880   14.7930  -10.7050 C.ar      1 PHE        -0.0686
    106 CZ        -14.0380   14.4380  -10.2040 C.ar      1 PHE        -0.0687
    107 N         -18.6920   17.5640   -5.4070 N.am      1 ASN        -0.2615
    108 CA        -19.2510   18.5720   -4.5450 C.3       1 ASN         0.1476
    109 C         -18.9850   18.1850   -3.0900 C.2       1 ASN         0.2063
    110 O         -18.7050   19.0400   -2.2570 O.2       1 ASN        -0.3942
    111 CB        -20.7470   18.7320   -4.7980 C.3       1 ASN         0.0773
    112 CG        -21.3890   19.6640   -3.8070 C.2       1 ASN         0.1780
    113 OD1       -21.5600   19.3110   -2.6370 O.2       1 ASN        -0.3970
    114 ND2       -21.7240   20.8750   -4.2530 N.am      1 ASN        -0.3007
    115 N         -19.0560   16.8900   -2.7920 N.am      1 GLU        -0.2635
    116 CA        -18.8260   16.4020   -1.4320 C.3       1 GLU         0.1325
    117 C         -17.4230   16.7310   -0.9250 C.2       1 GLU         0.2040
    118 O         -17.2410   17.0000    0.2580 O.2       1 GLU        -0.3944
    119 CB        -19.0640   14.8890   -1.3700 C.3       1 GLU        -0.0008
    120 CG        -18.5730   14.1890   -0.1000 C.3       1 GLU         0.0044
    121 CD        -19.5760   14.2250    1.0370 C.2       1 GLU         0.0350
    122 OE1       -20.7760   13.9840    0.7900 O.co2     1 GLU        -0.5690
    123 OE2       -19.1620   14.4750    2.1880 O.co2     1 GLU        -0.5690
    124 N         -16.4320   16.7100   -1.8110 N.am      1 ILE        -0.2635
    125 CA        -15.0690   17.0230   -1.3920 C.3       1 ILE         0.1335
    126 C         -14.7460   18.5100   -1.5360 C.2       1 ILE         0.2043
    127 O         -14.0870   19.0870   -0.6710 O.2       1 ILE        -0.3944
    128 CB        -14.0070   16.2060   -2.1830 C.3       1 ILE        -0.0037
    129 CG1       -14.1030   16.5040   -3.6750 C.3       1 ILE        -0.0491
    130 CG2       -14.1950   14.7210   -1.9270 C.3       1 ILE        -0.0582
    131 CD1       -12.9970   15.8610   -4.4790 C.3       1 ILE        -0.0648
    132 N         -15.2120   19.1190   -2.6260 N.am      1 ASN        -0.2616
    133 CA        -14.9870   20.5390   -2.9080 C.3       1 ASN         0.1475
    134 C         -15.4210   21.4150   -1.7450 C.2       1 ASN         0.2057
    135 O         -14.6160   22.1490   -1.1730 O.2       1 ASN        -0.3942
    136 CB        -15.7520   20.9580   -4.1640 C.3       1 ASN         0.0773
    137 CG        -14.9600   20.7290   -5.4370 C.2       1 ASN         0.1780
    138 OD1       -14.0930   19.8570   -5.4970 O.2       1 ASN        -0.3970
    139 ND2       -15.2660   21.5080   -6.4720 N.am      1 ASN        -0.3007
    140 N         -16.6990   21.3440   -1.3990 N.am      1 LYS        -0.2694
    141 CA        -17.2130   22.1340   -0.2950 C.3       1 LYS         0.0944
    142 C         -17.2020   21.3130    0.9860 C.2       1 LYS         0.0601
    143 O         -18.2680   21.1880    1.6250 O.co2     1 LYS        -0.5666
    144 CB        -18.6280   22.6270   -0.6150 C.3       1 LYS        -0.0177
    145 CG        -19.5630   21.5830   -1.2290 C.3       1 LYS        -0.0446
    146 CD        -20.2100   20.6860   -0.1860 C.3       1 LYS        -0.0125
    147 CE        -21.0920   21.4860    0.7610 C.3       1 LYS        -0.0354
    148 NZ        -21.7100   20.6240    1.8050 N.4       1 LYS         0.2185
    149 OXT       -16.1120   20.8060    1.3360 O.co2     1 LYS        -0.5666
    150 H1        -26.4362    6.3269  -21.8934 H         1 GLU         0.2015
    151 H2        -24.9359    6.4348  -21.2249 H         1 GLU         0.2015
    152 H3        -26.0517    7.6102  -20.9371 H         1 GLU         0.2015
    153 H4        -27.4611    6.1034  -19.7340 H         1 GLU         0.1099
    154 H5        -25.2562    4.1768  -20.5543 H         1 GLU         0.0363
    155 H6        -27.0265    4.0474  -20.8302 H         1 GLU         0.0363
    156 H7        -25.5772    3.7228  -18.1608 H         1 GLU         0.0434
    157 H8        -26.2526    2.4064  -19.1794 H         1 GLU         0.0434
    158 H9        -24.5373    4.6200  -18.7771 H         1 ASP         0.1886
    159 H10       -24.0640    4.7682  -16.4102 H         1 ASP         0.0819
    160 H11       -21.8116    6.0840  -16.6300 H         1 ASP         0.0478
    161 H12       -22.2614    6.1758  -18.3666 H         1 ASP         0.0478
    162 H13       -25.2631    5.6942  -14.9516 H         1 MET         0.1883
    163 H14       -25.3556    8.6147  -14.6533 H         1 MET         0.0800
    164 H15       -27.3226    7.6014  -13.9017 H         1 MET         0.0320
    165 H16       -26.4062    7.8695  -12.3802 H         1 MET         0.0320
    166 H17       -26.4682    5.2458  -13.9122 H         1 MET         0.0378
    167 H18       -27.5647    5.6560  -12.5498 H         1 MET         0.0378
    168 H19       -25.5896    3.4265  -10.2507 H         1 MET         0.0340
    169 H20       -26.5164    3.1400  -11.7625 H         1 MET         0.0340
    170 H21       -27.1405    4.2886  -10.5304 H         1 MET         0.0340
    171 H22       -23.0757    6.3146  -14.3503 H         1 PHE         0.1885
    172 H23       -21.7887    6.5684  -11.8378 H         1 PHE         0.0823
    173 H24       -20.7535    6.2367  -14.6971 H         1 PHE         0.0474
    174 H25       -20.9881    4.9613  -13.4541 H         1 PHE         0.0474
    175 H26       -19.4410    4.9276  -11.4541 H         1 PHE         0.0557
    176 H27       -18.7098    7.4116  -14.8560 H         1 PHE         0.0557
    177 H28       -17.0527    5.0774  -10.8262 H         1 PHE         0.0599
    178 H29       -16.3154    7.5731  -14.2297 H         1 PHE         0.0599
    179 H30       -15.4816    6.3986  -12.2127 H         1 PHE         0.0559
    180 H31       -22.1191    8.5995  -14.6610 H         1 ALA         0.1883
    181 H32       -20.0777   10.5252  -14.0103 H         1 ALA         0.0797
    182 H33       -21.1615   11.8737  -15.7788 H         1 ALA         0.0277
    183 H34       -22.5287   10.7094  -15.8186 H         1 ALA         0.0277
    184 H35       -20.8825   10.1784  -16.3030 H         1 ALA         0.0277
    185 H36       -23.6320   10.3696  -13.5018 H         1 LYS         0.1883
    186 H37       -23.8874   13.0179  -12.4571 H         1 LYS         0.0800
    187 H38       -25.7703   11.3944  -13.0769 H         1 LYS         0.0312
    188 H39       -25.9831   12.3681  -11.5825 H         1 LYS         0.0312
    189 H40       -25.3908   10.4118  -10.2224 H         1 LYS         0.0269
    190 H41       -25.1748    9.4378  -11.7162 H         1 LYS         0.0269
    191 H42       -27.5319    9.8418  -12.3267 H         1 LYS         0.0317
    192 H43       -27.7507   10.8303  -10.8429 H         1 LYS         0.0317
    193 H44       -27.2436    8.8723   -9.4474 H         1 LYS         0.0813
    194 H45       -26.9795    7.8786  -10.9204 H         1 LYS         0.0813
    195 H46       -29.1772    7.5732  -10.0130 H         1 LYS         0.1994
    196 H47       -29.2768    8.2668  -11.5024 H         1 LYS         0.1994
    197 H48       -29.5188    9.1774  -10.1527 H         1 LYS         0.1994
    198 H49       -23.3201    9.8452  -10.8855 H         1 LEU         0.1883
    199 H50       -23.0675   10.6929   -8.2262 H         1 LEU         0.0800
    200 H51       -21.4440    8.6902   -8.0551 H         1 LEU         0.0315
    201 H52       -21.7704    8.4453   -9.8044 H         1 LEU         0.0315
    202 H53       -24.1573    8.1135   -9.3199 H         1 LEU         0.0298
    203 H54       -23.9161    5.9603   -8.1394 H         1 LEU         0.0232
    204 H55       -22.2755    6.4471   -7.5935 H         1 LEU         0.0232
    205 H56       -22.6057    6.2078   -9.3429 H         1 LEU         0.0232
    206 H57       -24.2987    9.5688   -7.3345 H         1 LEU         0.0232
    207 H58       -23.2891    8.4063   -6.4094 H         1 LEU         0.0232
    208 H59       -24.9193    7.9196   -6.9857 H         1 LEU         0.0232
    209 H60       -20.5719   10.4608  -10.7656 H         1 LYS         0.1883
    210 H61       -18.2906   11.1146   -9.2750 H         1 LYS         0.0800
    211 H62       -19.0210   12.0646  -12.0883 H         1 LYS         0.0312
    212 H63       -18.3257   10.4584  -11.6841 H         1 LYS         0.0312
    213 H64       -16.2917   11.5522  -10.8526 H         1 LYS         0.0269
    214 H65       -16.9869   13.1553  -11.2689 H         1 LYS         0.0269
    215 H66       -16.5347   10.9046  -13.2780 H         1 LYS         0.0317
    216 H67       -15.3652   12.2317  -12.9656 H         1 LYS         0.0317
    217 H68       -16.6841   12.7709  -14.9247 H         1 LYS         0.0813
    218 H69       -17.1271   13.8812  -13.5839 H         1 LYS         0.0813
    219 H70       -19.0480   13.0883  -14.7654 H         1 LYS         0.1994
    220 H71       -19.0770   12.5361  -13.2150 H         1 LYS         0.1994
    221 H72       -18.6710   11.5186  -14.4436 H         1 LYS         0.1994
    222 H73       -20.9049   13.1521  -10.5780 H         1 ASP         0.1884
    223 H74       -19.6010   15.6190   -9.8536 H         1 ASP         0.0819
    224 H75       -21.9691   16.5690  -10.2061 H         1 ASP         0.0478
    225 H76       -22.4215   14.9035  -10.7044 H         1 ASP         0.0478
    226 H77       -22.0027   13.5452   -8.2073 H         1 LYS         0.1883
    227 H78       -22.4697   15.4525   -6.0875 H         1 LYS         0.0800
    228 H79       -23.3267   13.5045   -4.8155 H         1 LYS         0.0312
    229 H80       -22.6985   12.4069   -6.0911 H         1 LYS         0.0312
    230 H81       -24.1797   13.5137   -7.7401 H         1 LYS         0.0269
    231 H82       -24.8372   14.5499   -6.4284 H         1 LYS         0.0269
    232 H83       -24.9520   11.5001   -6.4833 H         1 LYS         0.0317
    233 H84       -26.2926   12.5957   -6.9623 H         1 LYS         0.0317
    234 H85       -26.3523   13.5540   -4.7071 H         1 LYS         0.0813
    235 H86       -24.9543   12.5382   -4.2166 H         1 LYS         0.0813
    236 H87       -27.0448   11.5868   -3.5181 H         1 LYS         0.1994
    237 H88       -26.3191   10.5993   -4.6170 H         1 LYS         0.1994
    238 H89       -27.6002   11.5301   -5.0665 H         1 LYS         0.1994
    239 H90       -19.9790   13.1018   -6.8663 H         1 PHE         0.1885
    240 H91       -18.7704   12.9375   -4.2635 H         1 PHE         0.0823
    241 H92       -17.5529   12.6063   -7.0513 H         1 PHE         0.0474
    242 H93       -18.2131   11.3024   -6.0069 H         1 PHE         0.0474
    243 H94       -17.0643   11.0480   -3.6455 H         1 PHE         0.0557
    244 H95       -15.2675   13.0643   -6.9799 H         1 PHE         0.0557
    245 H96       -14.8166   10.7360   -2.6165 H         1 PHE         0.0599
    246 H97       -13.0244   12.7681   -5.9691 H         1 PHE         0.0599
    247 H98       -12.7880   11.5936   -3.7785 H         1 PHE         0.0559
    248 H99       -17.8806   14.7819   -7.2282 H         1 PHE         0.1885
    249 H100      -15.7855   16.2292   -6.0622 H         1 PHE         0.0823
    250 H101      -16.2852   17.9446   -7.8723 H         1 PHE         0.0474
    251 H102      -17.6740   16.9032   -8.3343 H         1 PHE         0.0474
    252 H103      -14.1955   16.0584   -7.2250 H         1 PHE         0.0557
    253 H104      -17.1183   15.8766  -10.3444 H         1 PHE         0.0557
    254 H105      -12.6719   14.6234   -8.5550 H         1 PHE         0.0599
    255 H106      -15.5985   14.4417  -11.6823 H         1 PHE         0.0599
    256 H107      -13.3756   13.8093  -10.7880 H         1 PHE         0.0559
    257 H108      -19.2784   16.9103   -5.8855 H         1 ASN         0.1885
    258 H109      -18.7570   19.5324   -4.7537 H         1 ASN         0.0826
    259 H110      -21.2278   17.7457   -4.7210 H         1 ASN         0.0551
    260 H111      -20.8950   19.1340   -5.8111 H         1 ASN         0.0551
    261 H112      -22.1539   21.5339   -3.6357 H         1 ASN         0.1814
    262 H113      -21.5454   21.1244   -5.2048 H         1 ASN         0.1814
    263 H114      -19.2719   16.2342   -3.5154 H         1 GLU         0.1883
    264 H115      -19.5508   16.8954   -0.7678 H         1 GLU         0.0801
    265 H116      -18.5501   14.4310   -2.2280 H         1 GLU         0.0330
    266 H117      -20.1466   14.7138   -1.4548 H         1 GLU         0.0330
    267 H118      -17.6492   14.6832    0.2350 H         1 GLU         0.0433
    268 H119      -18.3592   13.1376   -0.3424 H         1 GLU         0.0433
    269 H120      -16.6205   16.4795   -2.7657 H         1 ILE         0.1883
    270 H121      -14.9827   16.7560   -0.3284 H         1 ILE         0.0803
    271 H122      -13.0066   16.4990   -1.8319 H         1 ILE         0.0345
    272 H123      -14.0526   17.5934   -3.8186 H         1 ILE         0.0267
    273 H124      -15.0686   16.1296   -4.0456 H         1 ILE         0.0267
    274 H125      -14.1230   14.5231   -0.8473 H         1 ILE         0.0235
    275 H126      -13.4137   14.1559   -2.4562 H         1 ILE         0.0235
    276 H127      -15.1845   14.4084   -2.2919 H         1 ILE         0.0235
    277 H128      -13.1226   16.1131   -5.5423 H         1 ILE         0.0230
    278 H129      -13.0397   14.7690   -4.3535 H         1 ILE         0.0230
    279 H130      -12.0236   16.2329   -4.1265 H         1 ILE         0.0230
    280 H131      -15.7405   18.5811   -3.2828 H         1 ASN         0.1885
    281 H132      -13.9113   20.6919   -3.0798 H         1 ASN         0.0826
    282 H133      -15.9936   22.0284   -4.0879 H         1 ASN         0.0551
    283 H134      -16.6831   20.3750   -4.2195 H         1 ASN         0.0551
    284 H135      -14.7774   21.4033   -7.3382 H         1 ASN         0.1814
    285 H136      -15.9845   22.1979   -6.3833 H         1 ASN         0.1814
    286 H137      -17.3154   20.7398   -1.9040 H         1 LYS         0.1875
    287 H138      -16.5614   23.0091   -0.1547 H         1 LYS         0.0726
    288 H139      -18.5436   23.4650   -1.3225 H         1 LYS         0.0305
    289 H140      -19.0836   22.9819    0.3211 H         1 LYS         0.0305
    290 H141      -18.9827   20.9552   -1.9212 H         1 LYS         0.0269
    291 H142      -20.3562   22.1048   -1.7845 H         1 LYS         0.0269
    292 H143      -19.4214   20.1860    0.3954 H         1 LYS         0.0317
    293 H144      -20.8252   19.9299   -0.6957 H         1 LYS         0.0317
    294 H145      -21.8913   21.9691    0.1799 H         1 LYS         0.0813
    295 H146      -20.4793   22.2560    1.2526 H         1 LYS         0.0813
    296 H147      -22.2847   21.1891    2.4103 H         1 LYS         0.1994
    297 H148      -20.9850   20.1810    2.3474 H         1 LYS         0.1994
    298 H149      -22.2789   19.9181    1.3644 H         1 LYS         0.1994
@<TRIPOS>BOND
     1    1    2 1  
     2    2    3 1  
     3    2    5 1  
     4    3    4 2  
     5    3   10 am 
     6    5    6 1  
     7    6    7 1  
     8    7    8 ar 
     9    7    9 ar 
    10   10   11 1  
    11   11   12 1  
    12   11   14 1  
    13   12   13 2  
    14   12   18 am 
    15   14   15 1  
    16   15   16 ar 
    17   15   17 ar 
    18   18   19 1  
    19   19   20 1  
    20   19   22 1  
    21   20   21 2  
    22   20   26 am 
    23   22   23 1  
    24   23   24 1  
    25   24   25 1  
    26   26   27 1  
    27   27   28 1  
    28   27   30 1  
    29   28   29 2  
    30   28   37 am 
    31   30   31 1  
    32   31   32 ar 
    33   31   33 ar 
    34   32   34 ar 
    35   33   35 ar 
    36   34   36 ar 
    37   35   36 ar 
    38   37   38 1  
    39   38   39 1  
    40   38   41 1  
    41   39   40 2  
    42   39   42 am 
    43   42   43 1  
    44   43   44 1  
    45   43   46 1  
    46   44   45 2  
    47   44   51 am 
    48   46   47 1  
    49   47   48 1  
    50   48   49 1  
    51   49   50 1  
    52   51   52 1  
    53   52   53 1  
    54   52   55 1  
    55   53   54 2  
    56   53   59 am 
    57   55   56 1  
    58   56   57 1  
    59   56   58 1  
    60   59   60 1  
    61   60   61 1  
    62   60   63 1  
    63   61   62 2  
    64   61   68 am 
    65   63   64 1  
    66   64   65 1  
    67   65   66 1  
    68   66   67 1  
    69   68   69 1  
    70   69   70 1  
    71   69   72 1  
    72   70   71 2  
    73   70   76 am 
    74   72   73 1  
    75   73   74 ar 
    76   73   75 ar 
    77   76   77 1  
    78   77   78 1  
    79   77   80 1  
    80   78   79 2  
    81   78   85 am 
    82   80   81 1  
    83   81   82 1  
    84   82   83 1  
    85   83   84 1  
    86   85   86 1  
    87   86   87 1  
    88   86   89 1  
    89   87   88 2  
    90   87   96 am 
    91   89   90 1  
    92   90   91 ar 
    93   90   92 ar 
    94   91   93 ar 
    95   92   94 ar 
    96   93   95 ar 
    97   94   95 ar 
    98   96   97 1  
    99   97   98 1  
   100   97  100 1  
   101   98   99 2  
   102   98  107 am 
   103  100  101 1  
   104  101  102 ar 
   105  101  103 ar 
   106  102  104 ar 
   107  103  105 ar 
   108  104  106 ar 
   109  105  106 ar 
   110  107  108 1  
   111  108  109 1  
   112  108  111 1  
   113  109  110 2  
   114  109  115 am 
   115  111  112 1  
   116  112  113 2  
   117  112  114 am 
   118  115  116 1  
   119  116  117 1  
   120  116  119 1  
   121  117  118 2  
   122  117  124 am 
   123  119  120 1  
   124  120  121 1  
   125  121  122 ar 
   126  121  123 ar 
   127  124  125 1  
   128  125  126 1  
   129  125  128 1  
   130  126  127 2  
   131  126  132 am 
   132  128  129 1  
   133  128  130 1  
   134  129  131 1  
   135  132  133 1  
   136  133  134 1  
   137  133  136 1  
   138  134  135 2  
   139  134  140 am 
   140  136  137 1  
   141  137  138 2  
   142  137  139 am 
   143  140  141 1  
   144  141  142 1  
   145  141  144 1  
   146  142  143 ar 
   147  142  149 ar 
   148  144  145 1  
   149  145  146 1  
   150  146  147 1  
   151  147  148 1  
   152    1  150 1  
   153    1  151 1  
   154    1  152 1  
   155    2  153 1  
   156    5  154 1  
   157    5  155 1  
   158    6  156 1  
   159    6  157 1  
   160   10  158 1  
   161   11  159 1  
   162   14  160 1  
   163   14  161 1  
   164   18  162 1  
   165   19  163 1  
   166   22  164 1  
   167   22  165 1  
   168   23  166 1  
   169   23  167 1  
   170   25  168 1  
   171   25  169 1  
   172   25  170 1  
   173   26  171 1  
   174   27  172 1  
   175   30  173 1  
   176   30  174 1  
   177   32  175 1  
   178   33  176 1  
   179   34  177 1  
   180   35  178 1  
   181   36  179 1  
   182   37  180 1  
   183   38  181 1  
   184   41  182 1  
   185   41  183 1  
   186   41  184 1  
   187   42  185 1  
   188   43  186 1  
   189   46  187 1  
   190   46  188 1  
   191   47  189 1  
   192   47  190 1  
   193   48  191 1  
   194   48  192 1  
   195   49  193 1  
   196   49  194 1  
   197   50  195 1  
   198   50  196 1  
   199   50  197 1  
   200   51  198 1  
   201   52  199 1  
   202   55  200 1  
   203   55  201 1  
   204   56  202 1  
   205   57  203 1  
   206   57  204 1  
   207   57  205 1  
   208   58  206 1  
   209   58  207 1  
   210   58  208 1  
   211   59  209 1  
   212   60  210 1  
   213   63  211 1  
   214   63  212 1  
   215   64  213 1  
   216   64  214 1  
   217   65  215 1  
   218   65  216 1  
   219   66  217 1  
   220   66  218 1  
   221   67  219 1  
   222   67  220 1  
   223   67  221 1  
   224   68  222 1  
   225   69  223 1  
   226   72  224 1  
   227   72  225 1  
   228   76  226 1  
   229   77  227 1  
   230   80  228 1  
   231   80  229 1  
   232   81  230 1  
   233   81  231 1  
   234   82  232 1  
   235   82  233 1  
   236   83  234 1  
   237   83  235 1  
   238   84  236 1  
   239   84  237 1  
   240   84  238 1  
   241   85  239 1  
   242   86  240 1  
   243   89  241 1  
   244   89  242 1  
   245   91  243 1  
   246   92  244 1  
   247   93  245 1  
   248   94  246 1  
   249   95  247 1  
   250   96  248 1  
   251   97  249 1  
   252  100  250 1  
   253  100  251 1  
   254  102  252 1  
   255  103  253 1  
   256  104  254 1  
   257  105  255 1  
   258  106  256 1  
   259  107  257 1  
   260  108  258 1  
   261  111  259 1  
   262  111  260 1  
   263  114  261 1  
   264  114  262 1  
   265  115  263 1  
   266  116  264 1  
   267  119  265 1  
   268  119  266 1  
   269  120  267 1  
   270  120  268 1  
   271  124  269 1  
   272  125  270 1  
   273  128  271 1  
   274  129  272 1  
   275  129  273 1  
   276  130  274 1  
   277  130  275 1  
   278  130  276 1  
   279  131  277 1  
   280  131  278 1  
   281  131  279 1  
   282  132  280 1  
   283  133  281 1  
   284  136  282 1  
   285  136  283 1  
   286  139  284 1  
   287  139  285 1  
   288  140  286 1  
   289  141  287 1  
   290  144  288 1  
   291  144  289 1  
   292  145  290 1  
   293  145  291 1  
   294  146  292 1  
   295  146  293 1  
   296  147  294 1  
   297  147  295 1  
   298  148  296 1  
   299  148  297 1  
   300  148  298 1  
@<TRIPOS>SUBSTRUCTURE
     1 GLU         1

