2nm1_ligand
  -I-interpret- 

303305  0  0  0  0  0  0  0  0999 V2000
  -25.9160    6.6220  -21.0820 N   0  3  0  0  0
  -26.3960    5.8730  -19.8840 C   0  0  0  0  0
  -25.6330    6.2910  -18.6330 C   0  0  0  0  0
  -25.8840    7.3530  -18.0610 O   0  0  0  0  0
  -26.2490    4.3540  -20.1150 C   0  0  0  0  0
  -26.3780    3.4530  -18.8650 C   0  0  0  0  0
  -27.7120    3.5780  -18.1420 C   0  0  0  0  0
  -28.0590    4.6930  -17.6980 O   0  0  0  0  0
  -28.4120    2.5520  -18.0080 O   0  0  0  0  0
  -24.6920    5.4440  -18.2320 N   0  0  0  0  0
  -23.8740    5.6440  -17.0480 C   0  0  0  0  0
  -24.1440    6.8490  -16.1690 C   0  0  0  0  0
  -23.6950    7.9610  -16.4490 O   0  0  0  0  0
  -22.3980    5.6120  -17.4320 C   0  0  0  0  0
  -21.9010    4.2060  -17.6350 C   0  0  0  0  0
  -21.9530    3.4260  -16.6590 O   0  0  0  0  0
  -21.4750    3.8780  -18.7630 O   0  0  0  0  0
  -24.8940    6.6120  -15.0980 N   0  0  0  0  0
  -25.1880    7.6580  -14.1370 C   0  0  0  0  0
  -23.9490    7.7510  -13.2470 C   0  0  0  0  0
  -23.9080    8.5190  -12.2890 O   0  0  0  0  0
  -26.4370    7.3020  -13.3220 C   0  0  0  0  0
  -26.5680    5.8260  -12.9830 C   0  0  0  0  0
  -25.3370    5.2440  -11.8170 S   0  0  0  0  0
  -26.2340    3.8920  -11.0110 C   0  0  0  0  0
  -22.9460    6.9390  -13.5800 N   0  0  0  0  0
  -21.6640    6.9160  -12.8740 C   0  0  0  0  0
  -21.1610    8.3500  -12.9120 C   0  0  0  0  0
  -20.4640    8.8110  -12.0100 O   0  0  0  0  0
  -20.6850    6.0050  -13.6240 C   0  0  0  0  0
  -19.2430    6.1520  -13.2010 C   0  0  0  0  0
  -18.7610    5.5060  -12.0690 C   0  0  0  0  0
  -18.3510    6.8970  -13.9720 C   0  0  0  0  0
  -17.4110    5.5910  -11.7110 C   0  0  0  0  0
  -16.9960    6.9900  -13.6200 C   0  0  0  0  0
  -16.5280    6.3330  -12.4880 C   0  0  0  0  0
  -21.5430    9.0470  -13.9770 N   0  0  0  0  0
  -21.1590   10.4310  -14.1890 C   0  0  0  0  0
  -21.8880   11.3620  -13.2320 C   0  0  0  0  0
  -21.2920   12.2940  -12.6940 O   0  0  0  0  0
  -21.4530   10.8250  -15.6200 C   0  0  0  0  0
  -23.1800   11.1260  -13.0290 N   0  0  0  0  0
  -23.9370   11.9740  -12.1140 C   0  0  0  0  0
  -23.2750   11.8550  -10.7430 C   0  0  0  0  0
  -22.9560   12.8640  -10.1140 O   0  0  0  0  0
  -25.4180   11.5460  -12.0460 C   0  0  0  0  0
  -25.7190   10.2800  -11.2640 C   0  0  0  0  0
  -27.2100    9.9800  -11.2840 C   0  0  0  0  0
  -27.5410    8.7240  -10.4960 C   0  0  0  0  0
  -28.9960    8.4100  -10.5450 N   0  3  0  0  0
  -23.0440   10.6150  -10.3100 N   0  0  0  0  0
  -22.4040   10.3390   -9.0290 C   0  0  0  0  0
  -21.0660   11.0550   -8.9060 C   0  0  0  0  0
  -20.7640   11.6520   -7.8720 O   0  0  0  0  0
  -22.1800    8.8330   -8.8600 C   0  0  0  0  0
  -23.4160    8.0090   -8.5140 C   0  0  0  0  0
  -23.0270    6.5580   -8.3890 C   0  0  0  0  0
  -24.0220    8.5100   -7.2230 C   0  0  0  0  0
  -20.2670   10.9750   -9.9640 N   0  0  0  0  0
  -18.9620   11.6140   -9.9890 C   0  0  0  0  0
  -19.1470   13.0730   -9.5830 C   0  0  0  0  0
  -18.3140   13.6460   -8.8750 O   0  0  0  0  0
  -18.3600   11.5200  -11.3980 C   0  0  0  0  0
  -16.9640   12.0890  -11.5380 C   0  0  0  0  0
  -16.4290   11.9520  -12.9590 C   0  0  0  0  0
  -17.1770   12.8430  -13.9440 C   0  0  0  0  0
  -18.6090   12.4660  -14.1050 N   0  3  0  0  0
  -20.2550   13.6660  -10.0180 N   0  0  0  0  0
  -20.5300   15.0540   -9.6870 C   0  0  0  0  0
  -20.9210   15.2560   -8.2310 C   0  0  0  0  0
  -20.5310   16.2460   -7.6160 O   0  0  0  0  0
  -21.5940   15.6240  -10.6260 C   0  0  0  0  0
  -21.0410   15.8900  -12.0170 C   0  0  0  0  0
  -19.9040   16.4090  -12.1060 O   0  0  0  0  0
  -21.7290   15.5880  -13.0170 O   0  0  0  0  0
  -21.6840   14.3260   -7.6700 N   0  0  0  0  0
  -22.0540   14.4500   -6.2670 C   0  0  0  0  0
  -20.7860   14.2720   -5.4320 C   0  0  0  0  0
  -20.6720   14.8200   -4.3340 O   0  0  0  0  0
  -23.1070   13.4080   -5.8890 C   0  0  0  0  0
  -24.4010   13.5680   -6.6640 C   0  0  0  0  0
  -25.4100   12.4860   -6.3150 C   0  0  0  0  0
  -25.8450   12.5900   -4.8600 C   0  0  0  0  0
  -26.7780   11.4870   -4.4850 N   0  3  0  0  0
  -19.8280   13.5210   -5.9710 N   0  0  0  0  0
  -18.5640   13.2980   -5.2820 C   0  0  0  0  0
  -17.7970   14.6070   -5.2170 C   0  0  0  0  0
  -17.4300   15.0690   -4.1400 O   0  0  0  0  0
  -17.6900   12.2700   -6.0130 C   0  0  0  0  0
  -16.3240   12.0790   -5.3880 C   0  0  0  0  0
  -16.1840   11.4230   -4.1550 C   0  0  0  0  0
  -15.1740   12.5560   -6.0270 C   0  0  0  0  0
  -14.9100   11.2450   -3.5690 C   0  0  0  0  0
  -13.9020   12.3890   -5.4580 C   0  0  0  0  0
  -13.7680   11.7280   -4.2220 C   0  0  0  0  0
  -17.5490   15.1970   -6.3810 N   0  0  0  0  0
  -16.7990   16.4420   -6.4330 C   0  0  0  0  0
  -17.3800   17.5310   -5.5450 C   0  0  0  0  0
  -16.6490   18.3270   -4.9670 O   0  0  0  0  0
  -16.6750   16.9160   -7.8740 C   0  0  0  0  0
  -15.7640   16.0640   -8.6920 C   0  0  0  0  0
  -14.5080   15.7050   -8.2010 C   0  0  0  0  0
  -16.1470   15.6050   -9.9470 C   0  0  0  0  0
  -13.6440   14.8940   -8.9510 C   0  0  0  0  0
  -15.2880   14.7930  -10.7050 C   0  0  0  0  0
  -14.0380   14.4380  -10.2040 C   0  0  0  0  0
  -18.6920   17.5640   -5.4070 N   0  0  0  0  0
  -19.2510   18.5720   -4.5450 C   0  0  0  0  0
  -18.9850   18.1850   -3.0900 C   0  0  0  0  0
  -18.7050   19.0400   -2.2570 O   0  0  0  0  0
  -20.7470   18.7320   -4.7980 C   0  0  0  0  0
  -21.3890   19.6640   -3.8070 C   0  0  0  0  0
  -21.5600   19.3110   -2.6370 O   0  0  0  0  0
  -21.7240   20.8750   -4.2530 N   0  0  0  0  0
  -19.0560   16.8900   -2.7920 N   0  0  0  0  0
  -18.8260   16.4020   -1.4320 C   0  0  0  0  0
  -17.4230   16.7310   -0.9250 C   0  0  0  0  0
  -17.2410   17.0000    0.2580 O   0  0  0  0  0
  -19.0640   14.8890   -1.3700 C   0  0  0  0  0
  -18.5730   14.1890   -0.1000 C   0  0  0  0  0
  -19.5760   14.2250    1.0370 C   0  0  0  0  0
  -20.7760   13.9840    0.7900 O   0  0  0  0  0
  -19.1620   14.4750    2.1880 O   0  0  0  0  0
  -16.4320   16.7100   -1.8110 N   0  0  0  0  0
  -15.0690   17.0230   -1.3920 C   0  0  0  0  0
  -14.7460   18.5100   -1.5360 C   0  0  0  0  0
  -14.0870   19.0870   -0.6710 O   0  0  0  0  0
  -14.0070   16.2060   -2.1830 C   0  0  0  0  0
  -14.1030   16.5040   -3.6750 C   0  0  0  0  0
  -14.1950   14.7210   -1.9270 C   0  0  0  0  0
  -12.9970   15.8610   -4.4790 C   0  0  0  0  0
  -15.2120   19.1190   -2.6260 N   0  0  0  0  0
  -14.9870   20.5390   -2.9080 C   0  0  0  0  0
  -15.4210   21.4150   -1.7450 C   0  0  0  0  0
  -14.6160   22.1490   -1.1730 O   0  0  0  0  0
  -15.7520   20.9580   -4.1640 C   0  0  0  0  0
  -14.9600   20.7290   -5.4370 C   0  0  0  0  0
  -14.0930   19.8570   -5.4970 O   0  0  0  0  0
  -15.2660   21.5080   -6.4720 N   0  0  0  0  0
  -16.6990   21.3440   -1.3990 N   0  0  0  0  0
  -17.2130   22.1340   -0.2950 C   0  0  0  0  0
  -17.2020   21.3130    0.9860 C   0  0  0  0  0
  -18.2680   21.1880    1.6250 O   0  0  0  0  0
  -18.6280   22.6270   -0.6150 C   0  0  0  0  0
  -19.5630   21.5830   -1.2290 C   0  0  0  0  0
  -20.2100   20.6860   -0.1860 C   0  0  0  0  0
  -21.0920   21.4860    0.7610 C   0  0  0  0  0
  -21.7100   20.6240    1.8050 N   0  3  0  0  0
  -16.1120   20.8060    1.3360 O   0  0  0  0  0
  -26.0176    7.6237  -20.9185 H   0  0  0  0  0
  -24.9342    6.4014  -21.2485 H   0  0  0  0  0
  -26.4692    6.3511  -21.8950 H   0  0  0  0  0
  -27.4488    6.1115  -19.7331 H   0  0  0  0  0
  -25.2387    4.2019  -20.4948 H   0  0  0  0  0
  -27.0645    4.0685  -20.7794 H   0  0  0  0  0
  -25.6019    3.7612  -18.1644 H   0  0  0  0  0
  -26.2899    2.4202  -19.2020 H   0  0  0  0  0
  -27.3840    5.3432  -17.9061 H   0  0  0  0  0
  -24.5342    4.6035  -18.7880 H   0  0  0  0  0
  -24.1705    4.8109  -16.4107 H   0  0  0  0  0
  -21.8245    6.0636  -16.6225 H   0  0  0  0  0
  -22.2768    6.1558  -18.3688 H   0  0  0  0  0
  -22.3122    3.8897  -15.8990 H   0  0  0  0  0
  -25.2705    5.6759  -14.9487 H   0  0  0  0  0
  -25.4005    8.6120  -14.6195 H   0  0  0  0  0
  -27.3016    7.5678  -13.9302 H   0  0  0  0  0
  -26.3664    7.8415  -12.3775 H   0  0  0  0  0
  -26.4323    5.2654  -13.9079 H   0  0  0  0  0
  -27.5461    5.6821  -12.5240 H   0  0  0  0  0
  -27.1319    4.2862  -10.5352 H   0  0  0  0  0
  -26.5133    3.1476  -11.7567 H   0  0  0  0  0
  -25.5945    3.4315  -10.2579 H   0  0  0  0  0
  -23.0783    6.3021  -14.3657 H   0  0  0  0  0
  -21.7597    6.5427  -11.8544 H   0  0  0  0  0
  -20.7378    6.2791  -14.6777 H   0  0  0  0  0
  -20.9772    4.9772  -13.4089 H   0  0  0  0  0
  -19.4448    4.9244  -11.4507 H   0  0  0  0  0
  -18.7118    7.4145  -14.8609 H   0  0  0  0  0
  -17.0507    5.0746  -10.8213 H   0  0  0  0  0
  -16.3116    7.5764  -14.2331 H   0  0  0  0  0
  -15.4758    6.3989  -12.2111 H   0  0  0  0  0
  -22.1306    8.5905  -14.6747 H   0  0  0  0  0
  -20.0904   10.5231  -13.9946 H   0  0  0  0  0
  -20.8872   10.1836  -16.2957 H   0  0  0  0  0
  -22.5191   10.7100  -15.8155 H   0  0  0  0  0
  -21.1637   11.8643  -15.7761 H   0  0  0  0  0
  -23.6411   10.3545  -13.5113 H   0  0  0  0  0
  -23.9287   13.0071  -12.4613 H   0  0  0  0  0
  -25.7233   11.3472  -13.0733 H   0  0  0  0  0
  -25.9427   12.3514  -11.5321 H   0  0  0  0  0
  -25.4006   10.4190  -10.2309 H   0  0  0  0  0
  -25.1850    9.4471  -11.7214 H   0  0  0  0  0
  -27.5156    9.8266  -12.3190 H   0  0  0  0  0
  -27.7354   10.8195  -10.8287 H   0  0  0  0  0
  -27.2599    8.8874   -9.4556 H   0  0  0  0  0
  -26.9947    7.8893  -10.9351 H   0  0  0  0  0
  -29.1782    7.5632  -10.0064 H   0  0  0  0  0
  -29.5239    9.1872  -10.1478 H   0  0  0  0  0
  -29.2789    8.2653  -11.5142 H   0  0  0  0  0
  -23.3256    9.8298  -10.8970 H   0  0  0  0  0
  -23.0699   10.7065   -8.2482 H   0  0  0  0  0
  -21.4907    8.7176   -8.0235 H   0  0  0  0  0
  -21.8266    8.4657   -9.8235 H   0  0  0  0  0
  -24.1593    8.1102   -9.3048 H   0  0  0  0  0
  -22.6097    6.2123   -9.3347 H   0  0  0  0  0
  -22.2823    6.4494   -7.6005 H   0  0  0  0  0
  -23.9087    5.9668   -8.1417 H   0  0  0  0  0
  -23.2907    8.4177   -6.4200 H   0  0  0  0  0
  -24.3066    9.5558   -7.3385 H   0  0  0  0  0
  -24.9041    7.9165   -6.9828 H   0  0  0  0  0
  -20.5780   10.4505  -10.7817 H   0  0  0  0  0
  -18.2796   11.1185   -9.2985 H   0  0  0  0  0
  -19.0047   12.1041  -12.0548 H   0  0  0  0  0
  -18.2929   10.4595  -11.6409 H   0  0  0  0  0
  -16.3028   11.5359  -10.8709 H   0  0  0  0  0
  -17.0026   13.1497  -11.2899 H   0  0  0  0  0
  -16.5593   10.9161  -13.2721 H   0  0  0  0  0
  -15.3813   12.2528  -12.9575 H   0  0  0  0  0
  -16.6961   12.7371  -14.9164 H   0  0  0  0  0
  -17.1449   13.8619  -13.5581 H   0  0  0  0  0
  -19.0522   13.0963  -14.7734 H   0  0  0  0  0
  -18.6705   11.5072  -14.4476 H   0  0  0  0  0
  -19.0815   12.5372  -13.2038 H   0  0  0  0  0
  -20.9178   13.1418  -10.5892 H   0  0  0  0  0
  -19.5986   15.6024   -9.8278 H   0  0  0  0  0
  -21.9439   16.5694  -10.2114 H   0  0  0  0  0
  -22.3989   14.8942  -10.7126 H   0  0  0  0  0
  -19.5522   16.5592  -11.2255 H   0  0  0  0  0
  -22.0091   13.5296   -8.2181 H   0  0  0  0  0
  -22.4922   15.4301   -6.0784 H   0  0  0  0  0
  -23.3352   13.5342   -4.8306 H   0  0  0  0  0
  -22.6997   12.4239   -6.1209 H   0  0  0  0  0
  -24.1735   13.4923   -7.7273 H   0  0  0  0  0
  -24.8349   14.5346   -6.4079 H   0  0  0  0  0
  -24.9451   11.5125   -6.4710 H   0  0  0  0  0
  -26.2869   12.6091   -6.9506 H   0  0  0  0  0
  -26.3617   13.5398   -4.7222 H   0  0  0  0  0
  -24.9584   12.5202   -4.2298 H   0  0  0  0  0
  -27.0473   11.5890   -3.5065 H   0  0  0  0  0
  -27.6095   11.5316   -5.0741 H   0  0  0  0  0
  -26.3126   10.5893   -4.6190 H   0  0  0  0  0
  -19.9820   13.0934   -6.8842 H   0  0  0  0  0
  -18.7914   12.9186   -4.2858 H   0  0  0  0  0
  -17.5359   12.6360   -7.0281 H   0  0  0  0  0
  -18.2066   11.3113   -5.9670 H   0  0  0  0  0
  -17.0692   11.0459   -3.6427 H   0  0  0  0  0
  -15.2680   13.0671   -6.9851 H   0  0  0  0  0
  -14.8161   10.7331   -2.6113 H   0  0  0  0  0
  -13.0196   12.7702   -5.9719 H   0  0  0  0  0
  -12.7826   11.5929   -3.7761 H   0  0  0  0  0
  -17.8872   14.7736   -7.2451 H   0  0  0  0  0
  -15.8059   16.2332   -6.0352 H   0  0  0  0  0
  -16.2606   17.9240   -7.8573 H   0  0  0  0  0
  -17.6663   16.8700   -8.3249 H   0  0  0  0  0
  -14.1937   16.0603   -7.2196 H   0  0  0  0  0
  -17.1237   15.8781  -10.3466 H   0  0  0  0  0
  -12.6665   14.6219   -8.5528 H   0  0  0  0  0
  -15.6003   14.4397  -11.6878 H   0  0  0  0  0
  -13.3719   13.8059  -10.7912 H   0  0  0  0  0
  -19.2901   16.8973   -5.8950 H   0  0  0  0  0
  -18.7783   19.5312   -4.7563 H   0  0  0  0  0
  -21.2162   17.7532   -4.6991 H   0  0  0  0  0
  -20.8814   19.1498   -5.7957 H   0  0  0  0  0
  -22.1410   21.5552   -3.6175 H   0  0  0  0  0
  -21.5633   21.1213   -5.2297 H   0  0  0  0  0
  -19.2762   16.2211   -3.5299 H   0  0  0  0  0
  -19.5343   16.9141   -0.7807 H   0  0  0  0  0
  -18.5028   14.4549   -2.1974 H   0  0  0  0  0
  -20.1440   14.7456   -1.4027 H   0  0  0  0  0
  -17.6774   14.7113    0.2365 H   0  0  0  0  0
  -18.3981   13.1425   -0.3495 H   0  0  0  0  0
  -20.8812   13.8191   -0.1499 H   0  0  0  0  0
  -16.6242   16.4749   -2.7847 H   0  0  0  0  0
  -15.0219   16.7467   -0.3387 H   0  0  0  0  0
  -13.0153   16.4996   -1.8388 H   0  0  0  0  0
  -14.0220   17.5834   -3.8035 H   0  0  0  0  0
  -15.0505   16.1016   -4.0333 H   0  0  0  0  0
  -14.0815   14.5200   -0.8617 H   0  0  0  0  0
  -15.1918   14.4212   -2.2504 H   0  0  0  0  0
  -13.4462   14.1596   -2.4858 H   0  0  0  0  0
  -12.0331   16.2302   -4.1288 H   0  0  0  0  0
  -13.0404   14.7791   -4.3538 H   0  0  0  0  0
  -13.1225   16.1115   -5.5324 H   0  0  0  0  0
  -15.7510   18.5703   -3.2959 H   0  0  0  0  0
  -13.9167   20.6741   -3.0636 H   0  0  0  0  0
  -15.9608   22.0251   -4.0877 H   0  0  0  0  0
  -16.6577   20.3542   -4.2207 H   0  0  0  0  0
  -14.7748   21.3944   -7.3587 H   0  0  0  0  0
  -15.9917   22.2186   -6.3785 H   0  0  0  0  0
  -17.3277   20.7277   -1.9141 H   0  0  0  0  0
  -16.5717   23.0033   -0.1496 H   0  0  0  0  0
  -18.5213   23.4220   -1.3531 H   0  0  0  0  0
  -19.0752   22.9265    0.3328 H   0  0  0  0  0
  -18.9700   20.9517   -1.8907 H   0  0  0  0  0
  -20.3582   22.1137   -1.7525 H   0  0  0  0  0
  -19.4227   20.2062    0.3953 H   0  0  0  0  0
  -20.8293   19.9495   -0.6980 H   0  0  0  0  0
  -21.8915   21.9440    0.1786 H   0  0  0  0  0
  -20.4718   22.2325    1.2572 H   0  0  0  0  0
  -22.2913   21.1968    2.4169 H   0  0  0  0  0
  -22.2853   19.9102    1.3580 H   0  0  0  0  0
  -20.9755   20.1763    2.3531 H   0  0  0  0  0
  -15.4341   21.0337    0.6955 H   0  0  0  0  0
  1  2  1  0  0  0
  2  3  1  0  0  0
  2  5  1  0  0  0
  3  4  2  0  0  0
  3 10  1  0  0  0
  5  6  1  0  0  0
  6  7  1  0  0  0
  7  8  1  0  0  0
  7  9  2  0  0  0
 10 11  1  0  0  0
 11 12  1  0  0  0
 11 14  1  0  0  0
 12 13  2  0  0  0
 12 18  1  0  0  0
 14 15  1  0  0  0
 15 16  1  0  0  0
 15 17  2  0  0  0
 18 19  1  0  0  0
 19 20  1  0  0  0
 19 22  1  0  0  0
 20 21  2  0  0  0
 20 26  1  0  0  0
 22 23  1  0  0  0
 23 24  1  0  0  0
 24 25  1  0  0  0
 26 27  1  0  0  0
 27 28  1  0  0  0
 27 30  1  0  0  0
 28 29  2  0  0  0
 28 37  1  0  0  0
 30 31  1  0  0  0
 31 32  4  0  0  0
 31 33  4  0  0  0
 32 34  4  0  0  0
 33 35  4  0  0  0
 34 36  4  0  0  0
 35 36  4  0  0  0
 37 38  1  0  0  0
 38 39  1  0  0  0
 38 41  1  0  0  0
 39 40  2  0  0  0
 39 42  1  0  0  0
 42 43  1  0  0  0
 43 44  1  0  0  0
 43 46  1  0  0  0
 44 45  2  0  0  0
 44 51  1  0  0  0
 46 47  1  0  0  0
 47 48  1  0  0  0
 48 49  1  0  0  0
 49 50  1  0  0  0
 51 52  1  0  0  0
 52 53  1  0  0  0
 52 55  1  0  0  0
 53 54  2  0  0  0
 53 59  1  0  0  0
 55 56  1  0  0  0
 56 57  1  0  0  0
 56 58  1  0  0  0
 59 60  1  0  0  0
 60 61  1  0  0  0
 60 63  1  0  0  0
 61 62  2  0  0  0
 61 68  1  0  0  0
 63 64  1  0  0  0
 64 65  1  0  0  0
 65 66  1  0  0  0
 66 67  1  0  0  0
 68 69  1  0  0  0
 69 70  1  0  0  0
 69 72  1  0  0  0
 70 71  2  0  0  0
 70 76  1  0  0  0
 72 73  1  0  0  0
 73 74  1  0  0  0
 73 75  2  0  0  0
 76 77  1  0  0  0
 77 78  1  0  0  0
 77 80  1  0  0  0
 78 79  2  0  0  0
 78 85  1  0  0  0
 80 81  1  0  0  0
 81 82  1  0  0  0
 82 83  1  0  0  0
 83 84  1  0  0  0
 85 86  1  0  0  0
 86 87  1  0  0  0
 86 89  1  0  0  0
 87 88  2  0  0  0
 87 96  1  0  0  0
 89 90  1  0  0  0
 90 91  4  0  0  0
 90 92  4  0  0  0
 91 93  4  0  0  0
 92 94  4  0  0  0
 93 95  4  0  0  0
 94 95  4  0  0  0
 96 97  1  0  0  0
 97 98  1  0  0  0
 97100  1  0  0  0
 98 99  2  0  0  0
 98107  1  0  0  0
100101  1  0  0  0
101102  4  0  0  0
101103  4  0  0  0
102104  4  0  0  0
103105  4  0  0  0
104106  4  0  0  0
105106  4  0  0  0
107108  1  0  0  0
108109  1  0  0  0
108111  1  0  0  0
109110  2  0  0  0
109115  1  0  0  0
111112  1  0  0  0
112113  2  0  0  0
112114  1  0  0  0
115116  1  0  0  0
116117  1  0  0  0
116119  1  0  0  0
117118  2  0  0  0
117124  1  0  0  0
119120  1  0  0  0
120121  1  0  0  0
121122  1  0  0  0
121123  2  0  0  0
124125  1  0  0  0
125126  1  0  0  0
125128  1  0  0  0
126127  2  0  0  0
126132  1  0  0  0
128129  1  0  0  0
128130  1  0  0  0
129131  1  0  0  0
132133  1  0  0  0
133134  1  0  0  0
133136  1  0  0  0
134135  2  0  0  0
134140  1  0  0  0
136137  1  0  0  0
137138  2  0  0  0
137139  1  0  0  0
140141  1  0  0  0
141142  1  0  0  0
141144  1  0  0  0
142143  2  0  0  0
142149  1  0  0  0
144145  1  0  0  0
145146  1  0  0  0
146147  1  0  0  0
147148  1  0  0  0
  1150  1  0  0  0
  1151  1  0  0  0
  1152  1  0  0  0
  2153  1  0  0  0
  5154  1  0  0  0
  5155  1  0  0  0
  6156  1  0  0  0
  6157  1  0  0  0
  8158  1  0  0  0
 10159  1  0  0  0
 11160  1  0  0  0
 14161  1  0  0  0
 14162  1  0  0  0
 16163  1  0  0  0
 18164  1  0  0  0
 19165  1  0  0  0
 22166  1  0  0  0
 22167  1  0  0  0
 23168  1  0  0  0
 23169  1  0  0  0
 25170  1  0  0  0
 25171  1  0  0  0
 25172  1  0  0  0
 26173  1  0  0  0
 27174  1  0  0  0
 30175  1  0  0  0
 30176  1  0  0  0
 32177  1  0  0  0
 33178  1  0  0  0
 34179  1  0  0  0
 35180  1  0  0  0
 36181  1  0  0  0
 37182  1  0  0  0
 38183  1  0  0  0
 41184  1  0  0  0
 41185  1  0  0  0
 41186  1  0  0  0
 42187  1  0  0  0
 43188  1  0  0  0
 46189  1  0  0  0
 46190  1  0  0  0
 47191  1  0  0  0
 47192  1  0  0  0
 48193  1  0  0  0
 48194  1  0  0  0
 49195  1  0  0  0
 49196  1  0  0  0
 50197  1  0  0  0
 50198  1  0  0  0
 50199  1  0  0  0
 51200  1  0  0  0
 52201  1  0  0  0
 55202  1  0  0  0
 55203  1  0  0  0
 56204  1  0  0  0
 57205  1  0  0  0
 57206  1  0  0  0
 57207  1  0  0  0
 58208  1  0  0  0
 58209  1  0  0  0
 58210  1  0  0  0
 59211  1  0  0  0
 60212  1  0  0  0
 63213  1  0  0  0
 63214  1  0  0  0
 64215  1  0  0  0
 64216  1  0  0  0
 65217  1  0  0  0
 65218  1  0  0  0
 66219  1  0  0  0
 66220  1  0  0  0
 67221  1  0  0  0
 67222  1  0  0  0
 67223  1  0  0  0
 68224  1  0  0  0
 69225  1  0  0  0
 72226  1  0  0  0
 72227  1  0  0  0
 74228  1  0  0  0
 76229  1  0  0  0
 77230  1  0  0  0
 80231  1  0  0  0
 80232  1  0  0  0
 81233  1  0  0  0
 81234  1  0  0  0
 82235  1  0  0  0
 82236  1  0  0  0
 83237  1  0  0  0
 83238  1  0  0  0
 84239  1  0  0  0
 84240  1  0  0  0
 84241  1  0  0  0
 85242  1  0  0  0
 86243  1  0  0  0
 89244  1  0  0  0
 89245  1  0  0  0
 91246  1  0  0  0
 92247  1  0  0  0
 93248  1  0  0  0
 94249  1  0  0  0
 95250  1  0  0  0
 96251  1  0  0  0
 97252  1  0  0  0
100253  1  0  0  0
100254  1  0  0  0
102255  1  0  0  0
103256  1  0  0  0
104257  1  0  0  0
105258  1  0  0  0
106259  1  0  0  0
107260  1  0  0  0
108261  1  0  0  0
111262  1  0  0  0
111263  1  0  0  0
114264  1  0  0  0
114265  1  0  0  0
115266  1  0  0  0
116267  1  0  0  0
119268  1  0  0  0
119269  1  0  0  0
120270  1  0  0  0
120271  1  0  0  0
122272  1  0  0  0
124273  1  0  0  0
125274  1  0  0  0
128275  1  0  0  0
129276  1  0  0  0
129277  1  0  0  0
130278  1  0  0  0
130279  1  0  0  0
130280  1  0  0  0
131281  1  0  0  0
131282  1  0  0  0
131283  1  0  0  0
132284  1  0  0  0
133285  1  0  0  0
136286  1  0  0  0
136287  1  0  0  0
139288  1  0  0  0
139289  1  0  0  0
140290  1  0  0  0
141291  1  0  0  0
144292  1  0  0  0
144293  1  0  0  0
145294  1  0  0  0
145295  1  0  0  0
146296  1  0  0  0
146297  1  0  0  0
147298  1  0  0  0
147299  1  0  0  0
148300  1  0  0  0
148301  1  0  0  0
148302  1  0  0  0
149303  1  0  0  0
M  END
$$$$
