5ktx_ligand
  -I-interpret- 

 56 60  0  0  0  0  0  0  0  0999 V2000
    2.9960   -1.9820    4.3780 C   0  0  0  0  0
    1.5610   -2.0750    2.6750 C   0  0  0  0  0
    6.4740   -2.0250    2.4460 C   0  0  0  0  0
    4.2430   -1.8260    5.1970 C   0  0  0  0  0
    6.6040   -2.4310    0.9950 C   0  0  0  0  0
    1.4070   -2.6440    6.2220 C   0  0  0  0  0
    0.3820   -1.6030    6.7460 C   0  0  0  0  0
   -0.8350   -2.4750    7.1560 C   0  0  0  0  0
    0.6580   -3.9860    6.2750 C   0  0  0  0  0
    0.1640   -3.1300    0.9650 C   0  0  0  0  0
   -0.0340   -4.2980    1.7030 C   0  0  0  0  0
   -0.8080   -5.3360    1.1930 C   0  0  0  0  0
   -1.4180   -5.2330   -0.0620 C   0  0  0  0  0
   -1.2170   -4.0670   -0.7990 C   0  0  0  0  0
   -0.4420   -3.0370   -0.2840 C   0  0  0  0  0
   -2.2440   -6.3450   -0.6370 C   0  0  0  0  0
   -3.0270   -6.2830   -1.8090 C   0  0  0  0  0
   -2.3680   -7.6260   -0.1650 C   0  0  0  0  0
   -3.6220   -9.7110   -0.8900 C   0  0  0  0  0
    4.0770   -1.3730    2.1550 C   0  0  0  0  0
    5.3160   -1.1440    4.3660 C   0  0  0  0  0
    2.9020   -1.7990    3.0270 C   0  0  0  0  0
   -0.2580   -1.9160   -1.0070 F   0  0  0  0  0
    0.9020   -2.3790    3.7690 N   0  0  0  0  0
    1.7850   -2.3390    4.8400 N   0  0  0  0  0
    0.9480   -2.0410    1.4140 N   0  0  0  0  0
   -3.5930   -7.4510   -2.0060 N   0  0  0  0  0
   -3.1920   -8.3140   -0.9950 N   0  0  0  0  0
    5.3170   -1.5390    2.9480 N   0  0  0  0  0
   -0.7350   -3.6370    6.3060 O   0  0  0  0  0
    7.4130   -2.1540    3.2160 O   0  0  0  0  0
    4.5966   -2.8086    5.5093 H   0  0  0  0  0
    4.0255   -1.2195    6.0762 H   0  0  0  0  0
    7.4013   -1.8532    0.5274 H   0  0  0  0  0
    6.8408   -3.4933    0.9361 H   0  0  0  0  0
    5.6633   -2.2380    0.4794 H   0  0  0  0  0
    2.3241   -2.6504    6.8111 H   0  0  0  0  0
    0.1271   -0.8520    5.9982 H   0  0  0  0  0
    0.7716   -1.0106    7.5739 H   0  0  0  0  0
   -1.7814   -1.9496    7.0275 H   0  0  0  0  0
   -0.8187   -2.7350    8.2144 H   0  0  0  0  0
    0.9455   -4.5735    7.1470 H   0  0  0  0  0
    0.8967   -4.6146    5.4171 H   0  0  0  0  0
    0.4219   -4.3981    2.6880 H   0  0  0  0  0
   -0.9412   -6.2442    1.7809 H   0  0  0  0  0
   -1.6707   -3.9635   -1.7847 H   0  0  0  0  0
   -3.1432   -5.4072   -2.4474 H   0  0  0  0  0
   -1.8856   -8.0250    0.7273 H   0  0  0  0  0
   -2.7484  -10.3621   -0.9223 H   0  0  0  0  0
   -4.1511   -9.8572    0.0517 H   0  0  0  0  0
   -4.2852   -9.9492   -1.7216 H   0  0  0  0  0
    3.9617   -0.3334    1.8482 H   0  0  0  0  0
    4.1202   -1.9857    1.2545 H   0  0  0  0  0
    6.2805   -1.4338    4.7829 H   0  0  0  0  0
    5.1208   -0.0723    4.4028 H   0  0  0  0  0
    1.0684   -1.2240    0.8153 H   0  0  0  0  0
  1  4  1  0  0  0
 22  1  4  0  0  0
  1 25  4  0  0  0
 22  2  4  0  0  0
  2 24  4  0  0  0
  2 26  1  0  0  0
  3  5  1  0  0  0
 29  3  1  0  0  0
  3 31  2  0  0  0
  4 21  1  0  0  0
  6  7  1  0  0  0
  6  9  1  0  0  0
 25  6  1  0  0  0
  7  8  1  0  0  0
 30  8  1  0  0  0
  9 30  1  0  0  0
 10 11  4  0  0  0
 10 15  4  0  0  0
 26 10  1  0  0  0
 11 12  4  0  0  0
 12 13  4  0  0  0
 14 13  4  0  0  0
 13 16  1  0  0  0
 15 14  4  0  0  0
 15 23  1  0  0  0
 16 17  4  0  0  0
 16 18  4  0  0  0
 17 27  4  0  0  0
 18 28  4  0  0  0
 28 19  1  0  0  0
 20 22  1  0  0  0
 20 29  1  0  0  0
 21 29  1  0  0  0
 24 25  4  0  0  0
 27 28  4  0  0  0
  4 32  1  0  0  0
  4 33  1  0  0  0
  5 34  1  0  0  0
  5 35  1  0  0  0
  5 36  1  0  0  0
  6 37  1  0  0  0
  7 38  1  0  0  0
  7 39  1  0  0  0
  8 40  1  0  0  0
  8 41  1  0  0  0
  9 42  1  0  0  0
  9 43  1  0  0  0
 11 44  1  0  0  0
 12 45  1  0  0  0
 14 46  1  0  0  0
 17 47  1  0  0  0
 18 48  1  0  0  0
 19 49  1  0  0  0
 19 50  1  0  0  0
 19 51  1  0  0  0
 20 52  1  0  0  0
 20 53  1  0  0  0
 21 54  1  0  0  0
 21 55  1  0  0  0
 26 56  1  0  0  0
M  END
$$$$
