4n7e_ligand
  -I-interpret- 

 34 35  0  0  0  0  0  0  0  0999 V2000
  -29.7770   39.7990   14.3930 C   0  0  0  0  0
  -31.3400   40.5770   12.7670 C   0  0  0  0  0
  -33.8020   40.1420   13.0420 C   0  0  0  0  0
  -28.8810   41.0290   12.4330 C   0  0  0  0  0
  -33.9810   39.4970   16.0620 O   0  0  0  0  0
  -33.1670   38.7700   15.5400 C   0  0  0  0  0
  -33.1430   37.3690   15.7220 N   0  0  0  0  0
  -34.0670   36.6280   16.4980 C   0  0  0  0  0
  -35.2570   37.1840   16.9510 C   0  0  0  0  0
  -36.1560   36.4390   17.6930 C   0  0  0  0  0
  -35.8030   35.1230   17.9610 C   0  0  0  0  0
  -34.5990   34.5950   17.5000 C   0  0  0  0  0
  -34.2420   33.1610   17.8140 C   0  0  0  0  0
  -33.7610   35.3490   16.7820 N   0  0  0  0  0
  -32.0850   39.3730   14.6920 C   0  0  0  0  0
  -30.7920   39.2570   15.1360 C   0  0  0  0  0
  -30.0440   40.4660   13.2230 C   0  0  0  0  0
  -32.3700   40.0340   13.5160 C   0  0  0  0  0
  -34.1990   41.2060   12.4930 O   0  0  0  0  0
  -34.5830   39.1580   13.1800 O   0  0  0  0  0
  -27.8450   41.3290   13.2350 F   0  0  0  0  0
  -29.2390   42.0980   11.7010 F   0  0  0  0  0
  -28.4960   40.0420   11.6240 F   0  0  0  0  0
  -28.7465   39.6998   14.7341 H   0  0  0  0  0
  -31.5516   41.0867   11.8270 H   0  0  0  0  0
  -32.3993   36.8489   15.2563 H   0  0  0  0  0
  -35.4859   38.2239   16.7180 H   0  0  0  0  0
  -37.0944   36.8637   18.0494 H   0  0  0  0  0
  -36.4781   34.4936   18.5408 H   0  0  0  0  0
  -34.1959   33.0277   18.8948 H   0  0  0  0  0
  -35.0012   32.4993   17.3970 H   0  0  0  0  0
  -33.2722   32.9251   17.3759 H   0  0  0  0  0
  -30.5748   38.7390   16.0701 H   0  0  0  0  0
  -34.1172   38.4397   13.6143 H   0  0  0  0  0
 16  1  4  0  0  0
  1 17  4  0  0  0
 17  2  4  0  0  0
  2 18  4  0  0  0
 18  3  1  0  0  0
  3 19  2  0  0  0
  3 20  1  0  0  0
 17  4  1  0  0  0
  4 21  1  0  0  0
  4 22  1  0  0  0
  4 23  1  0  0  0
  6  5  2  0  0  0
  6  7  1  0  0  0
 15  6  1  0  0  0
  7  8  1  0  0  0
  8  9  4  0  0  0
  8 14  4  0  0  0
  9 10  4  0  0  0
 10 11  4  0  0  0
 12 11  4  0  0  0
 12 13  1  0  0  0
 14 12  4  0  0  0
 15 16  4  0  0  0
 15 18  4  0  0  0
  1 24  1  0  0  0
  2 25  1  0  0  0
  7 26  1  0  0  0
  9 27  1  0  0  0
 10 28  1  0  0  0
 11 29  1  0  0  0
 13 30  1  0  0  0
 13 31  1  0  0  0
 13 32  1  0  0  0
 16 33  1  0  0  0
 20 34  1  0  0  0
M  END
$$$$
