5f2s_ligand
  -I-interpret- 

 22 23  0  0  0  0  0  0  0  0999 V2000
   11.4820 -107.9690   51.7210 C   0  0  0  0  0
   12.9990 -108.8610   53.3410 N   0  0  0  0  0
   12.6190 -107.7810   52.6350 C   0  0  0  0  0
   14.1200 -108.7490   54.0740 C   0  0  0  0  0
   14.8770 -107.5960   54.1490 C   0  0  0  0  0
   14.4470 -106.4680   53.4540 C   0  0  0  0  0
   15.2090 -105.1870   53.5020 C   0  0  0  0  0
   14.6770 -104.1230   53.2460 O   0  0  0  0  0
   16.3870 -105.2640   54.0190 O   0  0  0  0  0
   13.3000 -106.5640   52.6740 C   0  0  0  0  0
   11.1040 -109.2670   51.3490 N   0  0  0  0  0
   10.7600 -106.9790   51.1370 C   0  0  0  0  0
    9.5700 -107.6140   50.0720 S   0  0  0  0  0
   10.1120 -109.2220   50.4830 C   0  0  0  0  0
    9.5450 -110.3010   49.9320 N   0  0  0  0  0
   14.4509 -109.6183   54.6422 H   0  0  0  0  0
   15.7924 -107.5694   54.7401 H   0  0  0  0  0
   16.6216 -106.1867   54.1418 H   0  0  0  0  0
   12.9405 -105.7066   52.1050 H   0  0  0  0  0
   10.9153 -105.9158   51.3203 H   0  0  0  0  0
    9.8785 -111.2334   50.1766 H   0  0  0  0  0
    8.7792 -110.1914   49.2672 H   0  0  0  0  0
  1  3  1  0  0  0
  1 11  4  0  0  0
  1 12  4  0  0  0
  3  2  4  0  0  0
  2  4  4  0  0  0
  3 10  4  0  0  0
  4  5  4  0  0  0
  5  6  4  0  0  0
  6  7  1  0  0  0
  6 10  4  0  0  0
  7  8  2  0  0  0
  7  9  1  0  0  0
 11 14  4  0  0  0
 12 13  4  0  0  0
 13 14  4  0  0  0
 14 15  1  0  0  0
  4 16  1  0  0  0
  5 17  1  0  0  0
  9 18  1  0  0  0
 10 19  1  0  0  0
 12 20  1  0  0  0
 15 21  1  0  0  0
 15 22  1  0  0  0
M  END
$$$$
