2c93_ligand
  -I-interpret- 

 56 57  0  0  0  0  0  0  0  0999 V2000
   -1.8330   20.0490   47.2240 C   0  0  0  0  0
   -0.8290   20.0480   46.1850 O   0  0  0  0  0
    0.3370   19.4530   46.5920 C   0  0  0  0  0
    0.4510   18.9580   47.8750 C   0  0  0  0  0
    1.6070   18.3380   48.3180 C   0  0  0  0  0
    1.5880   17.8430   49.7510 C   0  0  0  0  0
    2.6950   18.1840   47.4680 C   0  0  0  0  0
    2.5960   18.6820   46.1640 C   0  0  0  0  0
    3.7550   18.5470   45.1910 C   0  0  0  0  0
    1.4220   19.3060   45.7260 C   0  0  0  0  0
    1.3340   19.8280   44.3090 C   0  0  0  0  0
    4.1770   17.3780   48.0280 S   0  0  0  0  0
    3.8650   16.8310   49.3140 O   0  0  0  0  0
    4.6200   16.5880   46.9410 O   0  0  0  0  0
    5.3310   18.5010   48.3520 N   0  0  0  0  0
    5.1460   19.4700   49.4370 C   0  0  0  0  0
    6.5320   20.0000   49.8430 C   0  0  0  0  0
    7.0700   20.8400   48.8080 O   0  0  0  0  0
    6.4260   20.7730   51.1530 C   0  0  0  0  0
    7.7580   21.2450   51.5190 N   0  3  0  0  0
    5.5150   21.9950   50.9950 C   0  0  0  0  0
    4.0580   21.6780   51.2780 C   0  0  0  0  0
    3.0770   22.0770   50.3660 C   0  0  0  0  0
    1.7380   21.8160   50.5950 C   0  0  0  0  0
    1.3630   21.1550   51.7520 C   0  0  0  0  0
    2.3290   20.7500   52.6610 C   0  0  0  0  0
    3.6780   21.0130   52.4340 C   0  0  0  0  0
   -2.0585   19.0218   47.5106 H   0  0  0  0  0
   -1.4578   20.5950   48.0895 H   0  0  0  0  0
   -2.7375   20.5309   46.8530 H   0  0  0  0  0
   -0.3922   19.0578   48.5585 H   0  0  0  0  0
    1.4186   18.6847   50.4226 H   0  0  0  0  0
    0.7871   17.1135   49.8715 H   0  0  0  0  0
    2.5447   17.3762   49.9855 H   0  0  0  0  0
    4.6286   19.0582   45.5954 H   0  0  0  0  0
    3.9849   17.4914   45.0459 H   0  0  0  0  0
    3.4801   18.9949   44.2361 H   0  0  0  0  0
    0.5131   19.3323   43.7909 H   0  0  0  0  0
    1.1559   20.9032   44.3296 H   0  0  0  0  0
    2.2699   19.6234   43.7890 H   0  0  0  0  0
    6.1841   18.5246   47.7934 H   0  0  0  0  0
    4.6609   18.9933   50.2888 H   0  0  0  0  0
    4.5116   20.2914   49.1040 H   0  0  0  0  0
    7.2063   19.1553   49.9841 H   0  0  0  0  0
    7.9337   21.1624   49.0758 H   0  0  0  0  0
    6.0105   20.1148   51.9160 H   0  0  0  0  0
    7.7044   21.7650   52.3948 H   0  0  0  0  0
    8.3809   20.4456   51.6345 H   0  0  0  0  0
    8.1162   21.8530   50.7825 H   0  0  0  0  0
    5.5892   22.3372   49.9628 H   0  0  0  0  0
    5.8392   22.7497   51.7116 H   0  0  0  0  0
    3.3722   22.6032   49.4582 H   0  0  0  0  0
    0.9852   22.1279   49.8711 H   0  0  0  0  0
    0.3100   20.9531   51.9484 H   0  0  0  0  0
    2.0289   20.2192   53.5645 H   0  0  0  0  0
    4.4287   20.6987   53.1591 H   0  0  0  0  0
  1  2  1  0  0  0
  2  3  1  0  0  0
  3  4  4  0  0  0
  3 10  4  0  0  0
  4  5  4  0  0  0
  5  6  1  0  0  0
  5  7  4  0  0  0
  7  8  4  0  0  0
  7 12  1  0  0  0
  8  9  1  0  0  0
  8 10  4  0  0  0
 10 11  1  0  0  0
 12 13  2  0  0  0
 12 14  2  0  0  0
 12 15  1  0  0  0
 15 16  1  0  0  0
 16 17  1  0  0  0
 17 18  1  0  0  0
 17 19  1  0  0  0
 19 20  1  0  0  0
 19 21  1  0  0  0
 21 22  1  0  0  0
 22 23  4  0  0  0
 22 27  4  0  0  0
 23 24  4  0  0  0
 24 25  4  0  0  0
 25 26  4  0  0  0
 26 27  4  0  0  0
  1 28  1  0  0  0
  1 29  1  0  0  0
  1 30  1  0  0  0
  4 31  1  0  0  0
  6 32  1  0  0  0
  6 33  1  0  0  0
  6 34  1  0  0  0
  9 35  1  0  0  0
  9 36  1  0  0  0
  9 37  1  0  0  0
 11 38  1  0  0  0
 11 39  1  0  0  0
 11 40  1  0  0  0
 15 41  1  0  0  0
 16 42  1  0  0  0
 16 43  1  0  0  0
 17 44  1  0  0  0
 18 45  1  0  0  0
 19 46  1  0  0  0
 20 47  1  0  0  0
 20 48  1  0  0  0
 20 49  1  0  0  0
 21 50  1  0  0  0
 21 51  1  0  0  0
 23 52  1  0  0  0
 24 53  1  0  0  0
 25 54  1  0  0  0
 26 55  1  0  0  0
 27 56  1  0  0  0
M  END
$$$$
