1n8v_ligand
  -I-interpret- 

 39 38  0  0  0  0  0  0  0  0999 V2000
   18.7430   23.9450   24.1990 O   0  0  0  0  0
   18.8500   24.0610   25.6100 C   0  0  0  0  0
   19.0340   25.5260   25.9950 C   0  0  0  0  0
   18.1300   25.9000   27.1620 C   0  0  0  0  0
   18.7550   25.5480   28.5040 C   0  0  0  0  0
   17.7040   25.5940   29.6090 C   0  0  0  0  0
   16.9440   24.2710   29.7340 C   0  0  0  0  0
   15.6900   24.3910   30.5990 C   0  0  0  0  0
   14.6800   23.2810   30.3060 C   0  0  0  0  0
   13.5600   23.2720   31.3410 C   0  0  0  0  0
   12.4830   24.3030   31.0310 C   0  0  0  0  0
   11.3100   24.2240   31.9910 C   0  0  0  0  0
   10.1960   25.2010   31.6200 C   0  0  0  0  0
   10.5440   26.7090   32.1190 Br  0  0  0  0  0
   18.6275   23.0217   23.9628 H   0  0  0  0  0
   19.7099   23.4867   25.9549 H   0  0  0  0  0
   17.9408   23.6778   26.0733 H   0  0  0  0  0
   18.7753   26.1483   25.1383 H   0  0  0  0  0
   20.0712   25.6825   26.2914 H   0  0  0  0  0
   17.1986   25.3425   27.0635 H   0  0  0  0  0
   17.9667   26.9773   27.1345 H   0  0  0  0  0
   19.5397   26.2699   28.7303 H   0  0  0  0  0
   19.1689   24.5411   28.4496 H   0  0  0  0  0
   16.9865   26.3772   29.3642 H   0  0  0  0  0
   18.2118   25.7857   30.5542 H   0  0  0  0  0
   17.6081   23.5467   30.2058 H   0  0  0  0  0
   16.6333   23.9677   28.7342 H   0  0  0  0  0
   15.2163   25.3479   30.3798 H   0  0  0  0  0
   15.9892   24.3110   31.6441 H   0  0  0  0  0
   15.1958   22.3214   30.3413 H   0  0  0  0  0
   14.2448   23.4558   29.3221 H   0  0  0  0  0
   13.9928   23.5146   32.3115 H   0  0  0  0  0
   13.0976   22.2850   31.3321 H   0  0  0  0  0
   12.1091   24.1073   30.0260 H   0  0  0  0  0
   12.9284   25.2934   31.1247 H   0  0  0  0  0
   11.6689   24.4806   32.9877 H   0  0  0  0  0
   10.9037   23.2135   31.9484 H   0  0  0  0  0
    9.2750   24.8783   32.1054 H   0  0  0  0  0
   10.0888   25.2100   30.5353 H   0  0  0  0  0
  1  2  1  0  0  0
  2  3  1  0  0  0
  3  4  1  0  0  0
  4  5  1  0  0  0
  5  6  1  0  0  0
  6  7  1  0  0  0
  7  8  1  0  0  0
  8  9  1  0  0  0
  9 10  1  0  0  0
 10 11  1  0  0  0
 11 12  1  0  0  0
 12 13  1  0  0  0
 13 14  1  0  0  0
  1 15  1  0  0  0
  2 16  1  0  0  0
  2 17  1  0  0  0
  3 18  1  0  0  0
  3 19  1  0  0  0
  4 20  1  0  0  0
  4 21  1  0  0  0
  5 22  1  0  0  0
  5 23  1  0  0  0
  6 24  1  0  0  0
  6 25  1  0  0  0
  7 26  1  0  0  0
  7 27  1  0  0  0
  8 28  1  0  0  0
  8 29  1  0  0  0
  9 30  1  0  0  0
  9 31  1  0  0  0
 10 32  1  0  0  0
 10 33  1  0  0  0
 11 34  1  0  0  0
 11 35  1  0  0  0
 12 36  1  0  0  0
 12 37  1  0  0  0
 13 38  1  0  0  0
 13 39  1  0  0  0
M  END
$$$$
