5d3c_ligand
  -I-interpret- 

 78 80  0  0  0  0  0  0  0  0999 V2000
    1.2590   23.7480    5.4210 C   0  0  0  0  0
    2.5930   23.8510    5.0990 C   0  0  0  0  0
    5.5920   24.2270    4.5650 C   0  0  0  0  0
    1.8330   22.3590    7.2950 C   0  0  0  0  0
    3.5660   23.2250    5.8550 C   0  0  0  0  0
   10.6080   28.8570   12.2060 O   0  0  0  0  0
   10.0130   29.9090   11.8930 C   0  0  0  0  0
   10.4420   31.0490   12.1750 O   0  0  0  0  0
    8.7100   29.8030   11.1410 C   0  0  0  0  0
    8.8990   30.3670    9.7400 C   0  0  0  0  0
    7.8280   29.8540    8.7880 C   0  0  0  0  0
    6.6820   30.8150    8.7170 C   0  0  0  0  0
    6.8710   31.9100    7.9870 N   0  0  0  0  0
    5.6370   30.5710    9.2900 O   0  0  0  0  0
    8.3930   29.6840    7.4690 N   0  0  0  0  0
    7.6530   29.2300    6.4700 C   0  0  0  0  0
    6.4820   28.9190    6.5760 O   0  0  0  0  0
    8.3840   29.1280    5.1740 C   0  0  0  0  0
    8.3260   30.4480    4.4150 C   0  0  0  0  0
    9.3890   30.5160    3.3230 C   0  0  0  0  0
    9.0720   31.6040    2.3250 C   0  0  0  0  0
    9.7490   32.6470    2.3490 O   0  0  0  0  0
    8.1510   31.4160    1.5090 O   0  0  0  0  0
    7.9220   28.0610    4.3130 N   0  0  0  0  0
    8.5870   26.9230    4.2800 C   0  0  0  0  0
    9.5860   26.7100    4.9340 O   0  0  0  0  0
    8.0710   25.9140    3.3220 C   0  0  0  0  0
    9.0330   26.0870    2.1440 C   0  0  0  0  0
    8.6030   25.1920    1.0070 C   0  0  0  0  0
    9.3020   24.0790    0.8550 N   0  0  0  0  0
    8.9290   23.2160   -0.1650 O   0  0  0  0  0
    7.6580   25.4760    0.3030 O   0  0  0  0  0
    8.1340   24.5000    3.8990 C   0  0  0  0  0
    6.9090   23.9830    4.6030 C   0  0  0  0  0
    7.1710   23.0130    5.4660 O   0  0  0  0  0
    5.9430   22.6310    6.0480 N   0  0  0  0  0
    5.0080   23.3560    5.4930 C   0  0  0  0  0
    3.1810   22.4710    6.9600 C   0  0  0  0  0
    0.8790   23.0020    6.5180 C   0  0  0  0  0
   -0.5700   22.9320    6.8080 C   0  0  0  0  0
   -1.1460   21.7430    7.2020 C   0  0  0  0  0
   -1.3510   24.0700    6.6600 C   0  0  0  0  0
   -2.7120   24.0320    6.9170 C   0  0  0  0  0
   -3.2920   22.8410    7.3170 C   0  0  0  0  0
   -2.5060   21.7100    7.4560 C   0  0  0  0  0
   -3.2180   20.2190    7.9510 Cl  0  0  0  0  0
    0.5075   24.2523    4.8136 H   0  0  0  0  0
    2.8884   24.4385    4.2297 H   0  0  0  0  0
    5.0788   24.9563    3.9382 H   0  0  0  0  0
    1.5298   21.7707    8.1610 H   0  0  0  0  0
    9.8317   31.7108   11.8416 H   0  0  0  0  0
    7.9373   30.3673   11.6632 H   0  0  0  0  0
    8.4056   28.7582   11.0786 H   0  0  0  0  0
    9.8738   30.0519    9.3678 H   0  0  0  0  0
    8.8266   31.4534    9.7907 H   0  0  0  0  0
    7.4621   28.8970    9.1600 H   0  0  0  0  0
    6.1196   32.5926    7.8875 H   0  0  0  0  0
    7.7674   32.0675    7.5264 H   0  0  0  0  0
    9.3727   29.9164    7.3060 H   0  0  0  0  0
    9.4121   28.8888    5.4460 H   0  0  0  0  0
    8.5055   31.2590    5.1209 H   0  0  0  0  0
    7.3455   30.5327    3.9465 H   0  0  0  0  0
    9.4150   29.5596    2.8007 H   0  0  0  0  0
   10.3513   30.7356    3.7854 H   0  0  0  0  0
    7.7607   30.5524    1.6621 H   0  0  0  0  0
    7.0898   28.1879    3.7370 H   0  0  0  0  0
    7.0216   26.0503    3.0605 H   0  0  0  0  0
   10.0419   25.8178    2.4565 H   0  0  0  0  0
    9.0196   27.1257    1.8137 H   0  0  0  0  0
   10.0887   23.8628    1.4672 H   0  0  0  0  0
    9.5120   22.4533   -0.1666 H   0  0  0  0  0
    8.9185   24.5260    4.6553 H   0  0  0  0  0
    8.2820   23.8402    3.0441 H   0  0  0  0  0
    3.9354   21.9672    7.5644 H   0  0  0  0  0
   -0.5401   20.8436    7.3117 H   0  0  0  0  0
   -0.8888   25.0032    6.3382 H   0  0  0  0  0
   -3.3191   24.9304    6.8053 H   0  0  0  0  0
   -4.3616   22.7937    7.5215 H   0  0  0  0  0
  2  1  4  0  0  0
  1 39  4  0  0  0
  5  2  4  0  0  0
 34  3  4  0  0  0
  3 37  4  0  0  0
 38  4  4  0  0  0
  4 39  4  0  0  0
 37  5  1  0  0  0
  5 38  4  0  0  0
  7  6  2  0  0  0
  7  8  1  0  0  0
  9  7  1  0  0  0
 10  9  1  0  0  0
 11 10  1  0  0  0
 11 12  1  0  0  0
 15 11  1  0  0  0
 12 13  1  0  0  0
 12 14  2  0  0  0
 16 15  1  0  0  0
 16 17  2  0  0  0
 18 16  1  0  0  0
 18 19  1  0  0  0
 24 18  1  0  0  0
 19 20  1  0  0  0
 20 21  1  0  0  0
 21 22  2  0  0  0
 21 23  1  0  0  0
 25 24  1  0  0  0
 25 26  2  0  0  0
 27 25  1  0  0  0
 27 28  1  0  0  0
 33 27  1  0  0  0
 28 29  1  0  0  0
 29 30  1  0  0  0
 29 32  2  0  0  0
 30 31  1  0  0  0
 33 34  1  0  0  0
 34 35  4  0  0  0
 35 36  4  0  0  0
 36 37  4  0  0  0
 39 40  1  0  0  0
 40 41  4  0  0  0
 40 42  4  0  0  0
 41 45  4  0  0  0
 42 43  4  0  0  0
 43 44  4  0  0  0
 44 45  4  0  0  0
 45 46  1  0  0  0
  1 47  1  0  0  0
  2 48  1  0  0  0
  3 49  1  0  0  0
  4 50  1  0  0  0
  8 51  1  0  0  0
  9 52  1  0  0  0
  9 53  1  0  0  0
 10 54  1  0  0  0
 10 55  1  0  0  0
 11 56  1  0  0  0
 13 57  1  0  0  0
 13 58  1  0  0  0
 15 59  1  0  0  0
 18 60  1  0  0  0
 19 61  1  0  0  0
 19 62  1  0  0  0
 20 63  1  0  0  0
 20 64  1  0  0  0
 23 65  1  0  0  0
 24 66  1  0  0  0
 27 67  1  0  0  0
 28 68  1  0  0  0
 28 69  1  0  0  0
 30 70  1  0  0  0
 31 71  1  0  0  0
 33 72  1  0  0  0
 33 73  1  0  0  0
 38 74  1  0  0  0
 41 75  1  0  0  0
 42 76  1  0  0  0
 43 77  1  0  0  0
 44 78  1  0  0  0
M  END
$$$$
