1tfq_ligand
  -I-interpret- 

 71 73  0  0  0  0  0  0  0  0999 V2000
   -0.2730  -13.4160    5.8580 C   0  0  0  0  0
   -1.6730  -13.9300    6.1460 C   0  0  0  0  0
    0.8140  -13.6500    6.7260 C   0  0  0  0  0
   -0.0710  -12.6760    4.6720 C   0  0  0  0  0
   -2.6540  -12.8450    5.8910 N   0  0  0  0  0
   -1.8350  -14.4300    7.6110 C   0  0  0  0  0
    0.6680  -14.4350    7.9970 C   0  0  0  0  0
    2.0880  -13.1440    6.4100 C   0  0  0  0  0
    1.2050  -12.1740    4.3630 C   0  0  0  0  0
   -3.9620  -13.0680    5.7790 C   0  0  0  0  0
   -0.6270  -15.2380    8.0970 C   0  0  0  0  0
    2.2820  -12.4080    5.2290 C   0  0  0  0  0
   -4.8870  -11.8860    5.6090 C   0  0  0  0  0
   -4.4140  -14.2160    5.8300 O   0  0  0  0  0
   -5.9970  -12.1870    4.6580 N   0  0  0  0  0
   -5.4860  -11.4790    6.9670 C   0  0  0  0  0
   -5.9340  -12.5090    3.3490 C   0  0  0  0  0
   -7.2320  -12.0520    5.4300 C   0  0  0  0  0
   -6.9600  -11.2180    6.6700 C   0  0  0  0  0
   -7.2340  -12.7050    2.5830 C   0  0  0  0  0
   -4.8560  -12.6270    2.7480 O   0  0  0  0  0
   -7.0580  -12.2410    1.1920 N   0  0  0  0  0
   -7.6640  -14.1940    2.5870 C   0  0  0  0  0
   -7.7390  -11.1820    0.7430 C   0  0  0  0  0
   -9.0930  -14.2870    3.1160 C   0  0  0  0  0
   -6.7420  -15.0080    3.4950 C   0  0  0  0  0
   -7.6210  -14.7660    1.1720 C   0  0  0  0  0
   -7.5430  -10.7070   -0.6800 C   0  0  0  0  0
   -8.5260  -10.5890    1.4850 O   0  0  0  0  0
   -8.7020   -9.9110   -1.0970 N   0  3  0  0  0
   -6.2810   -9.8570   -0.7780 C   0  0  0  0  0
   -9.6580  -10.7710   -1.7960 C   0  0  0  0  0
   -1.8513  -14.7798    5.4871 H   0  0  0  0  0
   -0.9059  -12.4939    3.9953 H   0  0  0  0  0
   -2.3116  -11.8887    5.7977 H   0  0  0  0  0
   -2.7093  -15.0799    7.6481 H   0  0  0  0  0
   -1.9334  -13.5555    8.2542 H   0  0  0  0  0
    0.6637  -13.7175    8.8175 H   0  0  0  0  0
    1.4907  -15.1494    8.0281 H   0  0  0  0  0
    2.9265  -13.3233    7.0829 H   0  0  0  0  0
    1.3573  -11.6015    3.4480 H   0  0  0  0  0
   -0.5311  -16.1234    7.4685 H   0  0  0  0  0
   -0.7880  -15.5005    9.1426 H   0  0  0  0  0
    3.2707  -12.0187    4.9861 H   0  0  0  0  0
   -4.2944  -11.0667    5.2019 H   0  0  0  0  0
   -4.9917  -10.6025    7.3859 H   0  0  0  0  0
   -5.3518  -12.2537    7.7220 H   0  0  0  0  0
   -7.5878  -13.0392    5.7249 H   0  0  0  0  0
   -7.9917  -11.5627    4.8205 H   0  0  0  0  0
   -7.1712  -10.1602    6.5136 H   0  0  0  0  0
   -7.6064  -11.4909    7.5041 H   0  0  0  0  0
   -8.0155  -12.1237    3.0723 H   0  0  0  0  0
   -6.4139  -12.7309    0.5711 H   0  0  0  0  0
   -9.1308  -13.8865    4.1291 H   0  0  0  0  0
   -9.7561  -13.7104    2.4710 H   0  0  0  0  0
   -9.4088  -15.3302    3.1243 H   0  0  0  0  0
   -5.7173  -14.9331    3.1311 H   0  0  0  0  0
   -6.7976  -14.6175    4.5111 H   0  0  0  0  0
   -7.0561  -16.0517    3.4879 H   0  0  0  0  0
   -8.3003  -14.2021    0.5327 H   0  0  0  0  0
   -6.6061  -14.6907    0.7817 H   0  0  0  0  0
   -7.9261  -15.8122    1.1950 H   0  0  0  0  0
   -7.4414  -11.5740   -1.3327 H   0  0  0  0  0
   -8.3954   -9.1652   -1.7217 H   0  0  0  0  0
   -9.1484   -9.5038   -0.2752 H   0  0  0  0  0
   -6.3748   -8.9925   -0.1208 H   0  0  0  0  0
   -5.4192  -10.4524   -0.4765 H   0  0  0  0  0
   -6.1500   -9.5207   -1.8065 H   0  0  0  0  0
   -9.1797  -11.2053   -2.6739 H   0  0  0  0  0
   -9.9848  -11.5674   -1.1273 H   0  0  0  0  0
  -10.5190  -10.1785   -2.1055 H   0  0  0  0  0
  1  2  1  0  0  0
  1  3  4  0  0  0
  1  4  4  0  0  0
  2  5  1  0  0  0
  2  6  1  0  0  0
  3  7  1  0  0  0
  3  8  4  0  0  0
  4  9  4  0  0  0
  5 10  1  0  0  0
  6 11  1  0  0  0
  7 11  1  0  0  0
  8 12  4  0  0  0
  9 12  4  0  0  0
 10 13  1  0  0  0
 10 14  2  0  0  0
 13 15  1  0  0  0
 13 16  1  0  0  0
 15 17  1  0  0  0
 15 18  1  0  0  0
 16 19  1  0  0  0
 17 20  1  0  0  0
 17 21  2  0  0  0
 18 19  1  0  0  0
 20 22  1  0  0  0
 20 23  1  0  0  0
 22 24  1  0  0  0
 23 25  1  0  0  0
 23 26  1  0  0  0
 23 27  1  0  0  0
 24 28  1  0  0  0
 24 29  2  0  0  0
 28 30  1  0  0  0
 28 31  1  0  0  0
 30 32  1  0  0  0
  2 33  1  0  0  0
  4 34  1  0  0  0
  5 35  1  0  0  0
  6 36  1  0  0  0
  6 37  1  0  0  0
  7 38  1  0  0  0
  7 39  1  0  0  0
  8 40  1  0  0  0
  9 41  1  0  0  0
 11 42  1  0  0  0
 11 43  1  0  0  0
 12 44  1  0  0  0
 13 45  1  0  0  0
 16 46  1  0  0  0
 16 47  1  0  0  0
 18 48  1  0  0  0
 18 49  1  0  0  0
 19 50  1  0  0  0
 19 51  1  0  0  0
 20 52  1  0  0  0
 22 53  1  0  0  0
 25 54  1  0  0  0
 25 55  1  0  0  0
 25 56  1  0  0  0
 26 57  1  0  0  0
 26 58  1  0  0  0
 26 59  1  0  0  0
 27 60  1  0  0  0
 27 61  1  0  0  0
 27 62  1  0  0  0
 28 63  1  0  0  0
 30 64  1  0  0  0
 30 65  1  0  0  0
 31 66  1  0  0  0
 31 67  1  0  0  0
 31 68  1  0  0  0
 32 69  1  0  0  0
 32 70  1  0  0  0
 32 71  1  0  0  0
M  END
$$$$
