4fxq_ligand
  -I-interpret- 

 51 54  0  0  0  0  0  0  0  0999 V2000
  -32.2370  -75.8520   -2.3010 N   0  3  0  0  0
  -35.9510  -73.9580    0.5780 N   0  0  0  0  0
  -36.6510  -72.9760    4.5990 N   0  0  0  0  0
  -35.2180  -72.9950   -1.3420 O   0  0  0  0  0
  -36.7400  -73.4440    6.8820 O   0  0  0  0  0
  -35.6780  -78.4620    6.9810 F   0  0  0  0  0
  -35.5740  -77.9690    4.6840 C   0  0  0  0  0
  -35.6890  -77.0370    3.6750 C   0  0  0  0  0
  -36.1060  -76.2400    6.3620 C   0  0  0  0  0
  -30.3990  -77.3630   -3.0480 C   0  0  0  0  0
  -30.6050  -75.8440   -3.6080 C   0  0  0  0  0
  -31.5640  -77.7830   -1.9770 C   0  0  0  0  0
  -34.2320  -75.1080   -0.9480 C   0  0  0  0  0
  -36.5890  -72.3080    2.2280 C   0  0  0  0  0
  -30.8630  -75.3160   -3.0020 C   0  0  0  0  0
  -32.3140  -77.4730   -2.2050 C   0  0  0  0  0
  -33.2820  -74.8770   -2.1220 C   0  0  0  0  0
  -36.7810  -72.8300    0.8630 C   0  0  0  0  0
  -35.9210  -75.0430    1.5210 C   0  0  0  0  0
  -35.1380  -73.9540   -0.6040 C   0  0  0  0  0
  -35.7940  -77.5740    6.0180 C   0  0  0  0  0
  -36.4460  -73.3320    3.2950 C   0  0  0  0  0
  -36.1390  -74.6550    2.9670 C   0  0  0  0  0
  -36.5320  -73.8850    5.6180 C   0  0  0  0  0
  -36.0220  -75.6810    4.0180 C   0  0  0  0  0
  -36.2210  -75.2930    5.3350 C   0  0  0  0  0
  -32.5107  -75.8840   -1.3189 H   0  0  0  0  0
  -36.6273  -74.1728    7.4966 H   0  0  0  0  0
  -35.3152  -79.0021    4.4517 H   0  0  0  0  0
  -35.5303  -77.3230    2.6352 H   0  0  0  0  0
  -36.2541  -75.9533    7.4031 H   0  0  0  0  0
  -29.4353  -77.4123   -2.5411 H   0  0  0  0  0
  -30.4495  -78.0486   -3.8939 H   0  0  0  0  0
  -31.3675  -75.8681   -4.3865 H   0  0  0  0  0
  -29.6469  -75.4871   -3.9860 H   0  0  0  0  0
  -31.3017  -77.3760   -1.0004 H   0  0  0  0  0
  -31.6320  -78.8704   -1.9458 H   0  0  0  0  0
  -33.6053  -75.2800   -0.0729 H   0  0  0  0  0
  -34.8811  -75.9355   -1.2343 H   0  0  0  0  0
  -37.4845  -71.7349    2.4682 H   0  0  0  0  0
  -35.6564  -71.7439    2.2145 H   0  0  0  0  0
  -30.0853  -75.2518   -2.2410 H   0  0  0  0  0
  -31.0567  -74.3407   -3.4484 H   0  0  0  0  0
  -32.5894  -77.8780   -3.1788 H   0  0  0  0  0
  -33.0601  -77.7540   -1.4617 H   0  0  0  0  0
  -33.8957  -74.9222   -3.0217 H   0  0  0  0  0
  -32.7813  -73.9292   -1.9245 H   0  0  0  0  0
  -37.8193  -73.1486    0.7710 H   0  0  0  0  0
  -36.5177  -72.0371    0.1629 H   0  0  0  0  0
  -34.9229  -75.4772    1.4631 H   0  0  0  0  0
  -36.7393  -75.7109    1.2520 H   0  0  0  0  0
  1 15  1  0  0  0
  1 16  1  0  0  0
 17  1  1  0  0  0
  2 18  1  0  0  0
 19  2  1  0  0  0
  2 20  1  0  0  0
 22  3  4  0  0  0
  3 24  4  0  0  0
 20  4  2  0  0  0
 24  5  1  0  0  0
 21  6  1  0  0  0
  8  7  4  0  0  0
  7 21  4  0  0  0
 25  8  4  0  0  0
 21  9  4  0  0  0
  9 26  4  0  0  0
 11 10  1  0  0  0
 12 10  1  0  0  0
 15 11  1  0  0  0
 16 12  1  0  0  0
 13 17  1  0  0  0
 20 13  1  0  0  0
 14 18  1  0  0  0
 22 14  1  0  0  0
 23 19  1  0  0  0
 23 22  4  0  0  0
 23 25  4  0  0  0
 24 26  4  0  0  0
 25 26  4  0  0  0
  1 27  1  0  0  0
  5 28  1  0  0  0
  7 29  1  0  0  0
  8 30  1  0  0  0
  9 31  1  0  0  0
 10 32  1  0  0  0
 10 33  1  0  0  0
 11 34  1  0  0  0
 11 35  1  0  0  0
 12 36  1  0  0  0
 12 37  1  0  0  0
 13 38  1  0  0  0
 13 39  1  0  0  0
 14 40  1  0  0  0
 14 41  1  0  0  0
 15 42  1  0  0  0
 15 43  1  0  0  0
 16 44  1  0  0  0
 16 45  1  0  0  0
 17 46  1  0  0  0
 17 47  1  0  0  0
 18 48  1  0  0  0
 18 49  1  0  0  0
 19 50  1  0  0  0
 19 51  1  0  0  0
M  END
$$$$
