3up7_ligand
  -I-interpret- 

 40 42  0  0  0  0  0  0  0  0999 V2000
   -3.0820  -32.8410    6.7800 N   0  0  0  0  0
   -4.1460  -30.8060    6.5250 N   0  0  0  0  0
   -3.2210  -31.5660    8.6170 N   0  0  0  0  0
   -5.1910  -28.6980    6.4890 N   0  0  0  0  0
   -2.8930  -33.0240    3.0890 C   0  0  0  0  0
   -1.6060  -33.6190    2.9490 C   0  0  0  0  0
   -0.8400  -33.9260    4.1150 C   0  0  0  0  0
   -1.3530  -33.6460    5.4130 C   0  0  0  0  0
   -2.6350  -33.0570    5.5700 C   0  0  0  0  0
   -3.4060  -32.7460    4.3920 C   0  0  0  0  0
   -1.1080  -33.9020    1.7160 C   0  0  0  0  0
   -3.4870  -31.7260    7.2980 C   0  0  0  0  0
   -4.5550  -29.6390    7.1540 C   0  0  0  0  0
   -4.3200  -29.3940    8.5080 C   0  0  0  0  0
   -3.6460  -30.4020    9.1880 C   0  0  0  0  0
   -5.4060  -28.6470    5.1880 C   0  0  0  0  0
   -4.3710  -28.9820    4.2370 C   0  0  0  0  0
   -4.6150  -28.9210    2.8400 C   0  0  0  0  0
   -5.8900  -28.5240    2.3520 C   0  0  0  0  0
   -6.9320  -28.1830    3.2600 C   0  0  0  0  0
   -6.7160  -28.2370    4.6820 C   0  0  0  0  0
   -7.7590  -27.8940    5.5340 C   0  0  0  0  0
   -7.7010  -26.8650    6.1930 O   0  0  0  0  0
   -8.8530  -28.6910    5.6250 O   0  0  0  0  0
   -1.7710  -34.5310    0.9410 O   0  0  0  0  0
    0.1200  -33.5020    1.3590 O   0  0  0  0  0
   -3.1158  -33.6550    7.3938 H   0  0  0  0  0
   -5.5584  -27.9223    7.0402 H   0  0  0  0  0
   -3.4833  -32.7821    2.2052 H   0  0  0  0  0
    0.1460  -34.3786    4.0099 H   0  0  0  0  0
   -0.7567  -33.8858    6.2933 H   0  0  0  0  0
   -4.3920  -32.2934    4.4975 H   0  0  0  0  0
   -4.6427  -28.4756    8.9984 H   0  0  0  0  0
   -3.4435  -30.2524   10.2485 H   0  0  0  0  0
   -3.3884  -29.2860    4.5977 H   0  0  0  0  0
   -3.8217  -29.1795    2.1386 H   0  0  0  0  0
   -6.0704  -28.4805    1.2779 H   0  0  0  0  0
   -7.9045  -27.8775    2.8740 H   0  0  0  0  0
   -8.7422  -29.4516    5.0498 H   0  0  0  0  0
    0.5192  -33.0136    2.0826 H   0  0  0  0  0
  9  1  1  0  0  0
  1 12  1  0  0  0
 12  2  4  0  0  0
  2 13  4  0  0  0
 12  3  4  0  0  0
  3 15  4  0  0  0
 13  4  1  0  0  0
  4 16  1  0  0  0
  6  5  4  0  0  0
  5 10  4  0  0  0
  7  6  4  0  0  0
  6 11  1  0  0  0
  8  7  4  0  0  0
  8  9  4  0  0  0
  9 10  4  0  0  0
 11 25  2  0  0  0
 11 26  1  0  0  0
 13 14  4  0  0  0
 14 15  4  0  0  0
 16 17  4  0  0  0
 16 21  4  0  0  0
 17 18  4  0  0  0
 18 19  4  0  0  0
 19 20  4  0  0  0
 20 21  4  0  0  0
 21 22  1  0  0  0
 22 23  2  0  0  0
 22 24  1  0  0  0
  1 27  1  0  0  0
  4 28  1  0  0  0
  5 29  1  0  0  0
  7 30  1  0  0  0
  8 31  1  0  0  0
 10 32  1  0  0  0
 14 33  1  0  0  0
 15 34  1  0  0  0
 17 35  1  0  0  0
 18 36  1  0  0  0
 19 37  1  0  0  0
 20 38  1  0  0  0
 24 39  1  0  0  0
 26 40  1  0  0  0
M  END
$$$$
