4cki_ligand
  -I-interpret- 

 32 34  0  0  0  0  0  0  0  0999 V2000
   64.8490    5.9490    8.4430 O   0  0  0  0  0
   65.1890    7.0840    7.6540 C   0  0  0  0  0
   64.7350    8.3780    8.2920 C   0  0  0  0  0
   63.2960    8.3340    8.4920 O   0  0  0  0  0
   65.3500    8.6950    9.6580 C   0  0  0  0  0
   65.5410   10.1060    9.7790 O   0  0  0  0  0
   64.2610    8.2610   10.6280 C   0  0  0  0  0
   64.2960    8.9280   11.8700 O   0  0  0  0  0
   62.9980    8.6050    9.8450 C   0  0  0  0  0
   61.8320    7.8070   10.2220 N   0  0  0  0  0
   61.6790    6.4840    9.9940 C   0  0  0  0  0
   60.4840    6.0510   10.4720 N   0  0  0  0  0
   59.8620    7.1200   11.0240 C   0  0  0  0  0
   58.5720    7.3680   11.7060 C   0  0  0  0  0
   57.6840    6.3620   11.9050 N   0  0  0  0  0
   58.3110    8.6270   12.1220 N   0  0  0  0  0
   59.1860    9.6350   11.9340 C   0  0  0  0  0
   60.3710    9.4870   11.3210 N   0  0  0  0  0
   60.7570    8.2730   10.8570 C   0  0  0  0  0
   65.1542    5.1520    8.0033 H   0  0  0  0  0
   64.6915    6.9882    6.6889 H   0  0  0  0  0
   66.2740    7.1163    7.5552 H   0  0  0  0  0
   65.0637    9.1522    7.5987 H   0  0  0  0  0
   66.3122    8.2107    9.8242 H   0  0  0  0  0
   66.2271   10.3883    9.1698 H   0  0  0  0  0
   64.3541    7.2137   10.9156 H   0  0  0  0  0
   65.1007    8.6910   12.3367 H   0  0  0  0  0
   62.7372    9.6439   10.0470 H   0  0  0  0  0
   62.4134    5.8516    9.4952 H   0  0  0  0  0
   57.9012    5.4189   11.5830 H   0  0  0  0  0
   56.7991    6.5487   12.3767 H   0  0  0  0  0
   58.9163   10.6256   12.3002 H   0  0  0  0  0
  1  2  1  0  0  0
  2  3  1  0  0  0
  3  4  1  0  0  0
  3  5  1  0  0  0
  4  9  1  0  0  0
  5  6  1  0  0  0
  5  7  1  0  0  0
  7  8  1  0  0  0
  7  9  1  0  0  0
  9 10  1  0  0  0
 10 11  4  0  0  0
 10 19  4  0  0  0
 11 12  4  0  0  0
 12 13  4  0  0  0
 13 14  4  0  0  0
 13 19  4  0  0  0
 14 15  1  0  0  0
 14 16  4  0  0  0
 16 17  4  0  0  0
 17 18  4  0  0  0
 18 19  4  0  0  0
  1 20  1  0  0  0
  2 21  1  0  0  0
  2 22  1  0  0  0
  3 23  1  0  0  0
  5 24  1  0  0  0
  6 25  1  0  0  0
  7 26  1  0  0  0
  8 27  1  0  0  0
  9 28  1  0  0  0
 11 29  1  0  0  0
 15 30  1  0  0  0
 15 31  1  0  0  0
 17 32  1  0  0  0
M  END
$$$$
