5nge_ligand
  -I-interpret- 

 61 65  0  0  0  0  0  0  0  0999 V2000
   59.8740  -43.3480   86.7220 C   0  0  0  0  0
   59.3840  -42.3570   85.8680 C   0  0  0  0  0
   59.9200  -41.0690   85.8770 C   0  0  0  0  0
   59.4080  -40.0550   84.9980 F   0  0  0  0  0
   60.9750  -40.8100   86.7460 C   0  0  0  0  0
   61.4420  -41.8370   87.5660 C   0  0  0  0  0
   60.8990  -43.1110   87.5680 C   0  0  0  0  0
   61.3940  -44.1060   88.3590 N   0  0  0  0  0
   60.7310  -44.9060   89.2040 N   0  0  0  0  0
   61.5820  -45.7720   89.7620 C   0  0  0  0  0
   62.7910  -45.5550   89.2880 C   0  0  0  0  0
   63.9550  -46.1790   89.5520 C   0  0  0  0  0
   63.9810  -47.1360   90.3670 O   0  0  0  0  0
   62.6810  -44.5310   88.4070 C   0  0  0  0  0
   63.7770  -44.0960   87.7360 N   0  0  0  0  0
   65.0120  -44.7200   88.0020 C   0  0  0  0  0
   65.0950  -45.7530   88.8960 N   0  0  0  0  0
   66.4160  -46.3200   89.1410 C   0  0  0  0  0
   67.1440  -45.4520   90.2050 C   0  0  0  0  0
   68.5080  -45.9720   90.3780 C   0  0  0  0  0
   69.2480  -45.0000   91.3270 C   0  0  0  0  0
   67.3070  -44.0090   89.8170 O   0  0  0  0  0
   66.4110  -45.5590   91.5630 C   0  0  0  0  0
   67.1710  -44.8380   92.6770 C   0  0  0  0  0
   68.6190  -45.1860   92.6670 N   0  0  0  0  0
   69.3500  -45.6110   93.7540 C   0  0  0  0  0
   70.5570  -45.8510   93.7090 O   0  0  0  0  0
   68.6800  -45.7860   95.1340 C   0  0  0  0  0
   68.7980  -47.2420   95.5450 C   0  0  0  0  0
   67.9490  -47.6130   96.8240 C   0  0  0  0  0
   68.2660  -48.8590   97.2650 F   0  0  0  0  0
   68.1850  -46.7050   97.8980 F   0  0  0  0  0
   68.3510  -48.0570   94.4670 N   0  0  0  0  0
   67.1770  -48.0000   93.8540 N   0  0  0  0  0
   67.2300  -48.9960   92.9520 C   0  0  0  0  0
   66.3550  -49.2790   92.2000 F   0  0  0  0  0
   68.3700  -49.6660   93.0030 C   0  0  0  0  0
   69.0760  -49.0730   93.9660 C   0  0  0  0  0
   59.4172  -44.3375   86.7049 H   0  0  0  0  0
   58.5696  -42.5940   85.1834 H   0  0  0  0  0
   61.4295  -39.8201   86.7854 H   0  0  0  0  0
   62.2744  -41.6268   88.2376 H   0  0  0  0  0
   61.3175  -46.5361   90.4929 H   0  0  0  0  0
   65.9110  -44.3763   87.4903 H   0  0  0  0  0
   66.9914  -46.3294   88.2153 H   0  0  0  0  0
   66.3174  -47.3432   89.5036 H   0  0  0  0  0
   69.0199  -46.0368   89.4178 H   0  0  0  0  0
   68.4861  -46.9777   90.7978 H   0  0  0  0  0
   69.1600  -43.9683   90.9865 H   0  0  0  0  0
   70.3170  -45.2109   91.3571 H   0  0  0  0  0
   67.7625  -43.5394   90.5196 H   0  0  0  0  0
   66.3333  -46.6134   91.8282 H   0  0  0  0  0
   65.4305  -45.0939   91.4606 H   0  0  0  0  0
   66.7500  -45.1437   93.6348 H   0  0  0  0  0
   67.0740  -43.7637   92.5206 H   0  0  0  0  0
   67.6299  -45.4993   95.0770 H   0  0  0  0  0
   69.1723  -45.1504   95.8700 H   0  0  0  0  0
   69.8459  -47.4134   95.7912 H   0  0  0  0  0
   66.9021  -47.5626   96.5246 H   0  0  0  0  0
   68.6672  -50.5175   92.3908 H   0  0  0  0  0
   70.0745  -49.3633   94.2929 H   0  0  0  0  0
  1  2  4  0  0  0
  1  7  4  0  0  0
  2  3  4  0  0  0
  3  4  1  0  0  0
  3  5  4  0  0  0
  5  6  4  0  0  0
  6  7  4  0  0  0
  7  8  1  0  0  0
  8  9  4  0  0  0
  8 14  4  0  0  0
  9 10  4  0  0  0
 10 11  4  0  0  0
 11 12  1  0  0  0
 11 14  4  0  0  0
 12 13  2  0  0  0
 12 17  1  0  0  0
 14 15  1  0  0  0
 15 16  2  0  0  0
 16 17  1  0  0  0
 17 18  1  0  0  0
 18 19  1  0  0  0
 19 20  1  0  0  0
 19 22  1  0  0  0
 19 23  1  0  0  0
 20 21  1  0  0  0
 21 25  1  0  0  0
 23 24  1  0  0  0
 24 25  1  0  0  0
 25 26  1  0  0  0
 26 27  2  0  0  0
 26 28  1  0  0  0
 28 29  1  0  0  0
 29 30  1  0  0  0
 29 33  1  0  0  0
 30 31  1  0  0  0
 30 32  1  0  0  0
 33 34  4  0  0  0
 33 38  4  0  0  0
 34 35  4  0  0  0
 35 36  1  0  0  0
 35 37  4  0  0  0
 37 38  4  0  0  0
  1 39  1  0  0  0
  2 40  1  0  0  0
  5 41  1  0  0  0
  6 42  1  0  0  0
 10 43  1  0  0  0
 16 44  1  0  0  0
 18 45  1  0  0  0
 18 46  1  0  0  0
 20 47  1  0  0  0
 20 48  1  0  0  0
 21 49  1  0  0  0
 21 50  1  0  0  0
 22 51  1  0  0  0
 23 52  1  0  0  0
 23 53  1  0  0  0
 24 54  1  0  0  0
 24 55  1  0  0  0
 28 56  1  0  0  0
 28 57  1  0  0  0
 29 58  1  0  0  0
 30 59  1  0  0  0
 37 60  1  0  0  0
 38 61  1  0  0  0
M  END
$$$$
