4og5_ligand
  -I-interpret- 

 65 68  0  0  0  0  0  0  0  0999 V2000
   -8.4660   17.9330  -13.0370 C   0  0  0  0  0
   -7.9190   19.1380  -13.5100 C   0  0  0  0  0
   -8.7140   20.2070  -13.8530 C   0  0  0  0  0
   -8.1560   21.4560  -14.4110 C   0  0  0  0  0
   -7.7710   22.3920  -14.8260 N   0  0  0  0  0
  -10.0720   20.1630  -13.6780 C   0  0  0  0  0
  -10.6410   18.9770  -13.1990 C   0  0  0  0  0
   -9.8180   17.8820  -12.8700 C   0  0  0  0  0
  -10.4270   16.7360  -12.4060 O   0  0  0  0  0
   -9.5650   15.6350  -12.1140 C   0  0  0  0  0
  -10.4950   14.6220  -11.4020 C   0  0  0  0  0
  -11.3820   13.9910  -12.4460 C   0  0  0  0  0
  -12.3810   13.0740  -11.7640 N   0  3  0  0  0
  -11.8090   11.7990  -11.1930 C   0  0  0  0  0
  -12.8260   11.0710  -10.3430 C   0  0  0  0  0
  -13.3770   12.6810  -12.7450 C   0  0  0  0  0
  -14.4750   11.7260  -12.1680 C   0  0  0  0  0
  -13.8860   10.5390  -11.3710 C   0  0  0  0  0
  -15.0320    9.6900  -10.6990 C   0  0  0  0  0
  -16.0900    9.2170  -11.7570 C   0  0  0  0  0
  -15.6170    8.3450  -12.9160 C   0  0  0  0  0
  -16.8900    7.9840  -13.5880 C   0  0  0  0  0
  -17.8730    7.7460  -12.4010 C   0  0  0  0  0
  -17.2140    8.3040  -11.1840 C   0  0  0  0  0
  -15.7240   10.5380   -9.7920 O   0  0  0  0  0
  -14.4760    8.5680   -9.9530 C   0  0  0  0  0
  -13.4700    7.8680  -10.5270 N   0  0  0  0  0
  -12.9320    6.7620   -9.8850 C   0  0  0  0  0
  -13.3670    6.3940   -8.6250 C   0  0  0  0  0
  -14.4010    7.1100   -8.0150 C   0  0  0  0  0
  -14.9280    8.2240   -8.6750 C   0  0  0  0  0
   -7.8344   17.0734  -12.8126 H   0  0  0  0  0
   -6.8371   19.2279  -13.6076 H   0  0  0  0  0
  -10.6934   21.0290  -13.9058 H   0  0  0  0  0
  -11.7219   18.9007  -13.0805 H   0  0  0  0  0
   -8.7143   15.9243  -11.4970 H   0  0  0  0  0
   -9.1034   15.2186  -13.0093 H   0  0  0  0  0
  -11.0998   15.1295  -10.6505 H   0  0  0  0  0
   -9.9038   13.8575  -10.8979 H   0  0  0  0  0
  -10.7736   13.4151  -13.1433 H   0  0  0  0  0
  -11.9141   14.7694  -12.9929 H   0  0  0  0  0
  -12.7501   13.6111  -10.9794 H   0  0  0  0  0
  -10.9530   12.0529  -10.5677 H   0  0  0  0  0
  -11.5189   11.1492  -12.0187 H   0  0  0  0  0
  -13.2744   11.7229   -9.5933 H   0  0  0  0  0
  -12.3745   10.2639   -9.7661 H   0  0  0  0  0
  -12.8604   12.1447  -13.5410 H   0  0  0  0  0
  -13.8767   13.5873  -13.0871 H   0  0  0  0  0
  -15.0338   11.3161  -13.0094 H   0  0  0  0  0
  -15.0960   12.3076  -11.4867 H   0  0  0  0  0
  -13.3686    9.8592  -12.0480 H   0  0  0  0  0
  -16.3947   10.2109  -12.0848 H   0  0  0  0  0
  -15.0450    7.4761  -12.5905 H   0  0  0  0  0
  -14.9161    8.8560  -13.5760 H   0  0  0  0  0
  -16.7902    7.1087  -14.2299 H   0  0  0  0  0
  -17.2377    8.7605  -14.2694 H   0  0  0  0  0
  -18.0842    6.6839  -12.2772 H   0  0  0  0  0
  -18.8302    8.2342  -12.5841 H   0  0  0  0  0
  -17.9103    8.8514  -10.5487 H   0  0  0  0  0
  -16.8231    7.5251  -10.5293 H   0  0  0  0  0
  -16.4293   10.0436   -9.3681 H   0  0  0  0  0
  -12.1572    6.1762  -10.3797 H   0  0  0  0  0
  -12.9063    5.5506   -8.1106 H   0  0  0  0  0
  -14.7891    6.8055   -7.0430 H   0  0  0  0  0
  -15.6955    8.8279   -8.1908 H   0  0  0  0  0
  1  2  4  0  0  0
  1  8  4  0  0  0
  2  3  4  0  0  0
  3  4  1  0  0  0
  3  6  4  0  0  0
  4  5  3  0  0  0
  6  7  4  0  0  0
  7  8  4  0  0  0
  8  9  1  0  0  0
  9 10  1  0  0  0
 10 11  1  0  0  0
 11 12  1  0  0  0
 12 13  1  0  0  0
 13 14  1  0  0  0
 13 16  1  0  0  0
 14 15  1  0  0  0
 15 18  1  0  0  0
 16 17  1  0  0  0
 17 18  1  0  0  0
 18 19  1  0  0  0
 19 20  1  0  0  0
 19 25  1  0  0  0
 19 26  1  0  0  0
 20 21  1  0  0  0
 20 24  1  0  0  0
 21 22  1  0  0  0
 22 23  1  0  0  0
 23 24  1  0  0  0
 26 27  4  0  0  0
 26 31  4  0  0  0
 27 28  4  0  0  0
 28 29  4  0  0  0
 29 30  4  0  0  0
 30 31  4  0  0  0
  1 32  1  0  0  0
  2 33  1  0  0  0
  6 34  1  0  0  0
  7 35  1  0  0  0
 10 36  1  0  0  0
 10 37  1  0  0  0
 11 38  1  0  0  0
 11 39  1  0  0  0
 12 40  1  0  0  0
 12 41  1  0  0  0
 13 42  1  0  0  0
 14 43  1  0  0  0
 14 44  1  0  0  0
 15 45  1  0  0  0
 15 46  1  0  0  0
 16 47  1  0  0  0
 16 48  1  0  0  0
 17 49  1  0  0  0
 17 50  1  0  0  0
 18 51  1  0  0  0
 20 52  1  0  0  0
 21 53  1  0  0  0
 21 54  1  0  0  0
 22 55  1  0  0  0
 22 56  1  0  0  0
 23 57  1  0  0  0
 23 58  1  0  0  0
 24 59  1  0  0  0
 24 60  1  0  0  0
 25 61  1  0  0  0
 28 62  1  0  0  0
 29 63  1  0  0  0
 30 64  1  0  0  0
 31 65  1  0  0  0
M  END
$$$$
