5tjx_ligand
  -I-interpret- 

 72 76  0  0  0  0  0  0  0  0999 V2000
  -12.3710    2.1440  -11.6760 C   0  0  0  0  0
  -11.4500    0.9280  -11.4520 C   0  0  0  0  0
  -10.2100    1.1980  -11.1000 N   0  0  0  0  0
   -9.3130    0.2370  -10.8920 C   0  0  0  0  0
   -8.0160    0.6070  -10.5540 N   0  0  0  0  0
   -9.6910   -1.1000  -10.9990 C   0  0  0  0  0
  -10.9830   -1.3940  -11.3540 C   0  0  0  0  0
  -11.4760   -2.6870  -11.4860 O   0  0  0  0  0
  -10.5590   -3.7980  -11.3060 C   0  0  0  0  0
  -11.0860   -4.9940  -12.1140 C   0  0  0  0  0
  -11.3070   -4.6140  -13.5790 C   0  0  0  0  0
  -11.6460   -5.5960  -14.4950 C   0  0  0  0  0
  -12.0330   -5.2020  -15.9160 C   0  0  0  0  0
  -12.3480   -6.4050  -16.8760 C   0  0  0  0  0
  -11.9960   -6.0480  -18.3570 C   0  0  0  0  0
  -12.5590   -4.7520  -18.6310 O   0  0  0  0  0
  -11.7900   -3.6570  -19.0160 C   0  0  0  0  0
  -10.4310   -3.7620  -19.3540 C   0  0  0  0  0
   -9.6850   -2.6370  -19.7200 C   0  0  0  0  0
   -8.1780   -2.7620  -20.1020 C   0  0  0  0  0
   -7.8770   -1.8000  -21.1430 N   0  0  0  0  0
   -7.1570   -0.6730  -21.0240 C   0  0  0  0  0
   -7.0970   -0.0540  -22.2070 C   0  0  0  0  0
   -7.8460   -0.8360  -23.0600 C   0  0  0  0  0
   -8.2840   -1.8600  -22.3820 N   0  0  0  0  0
  -10.2830   -1.3910  -19.7290 C   0  0  0  0  0
  -11.6280   -1.2890  -19.3660 C   0  0  0  0  0
  -12.3970   -2.4040  -19.0080 C   0  0  0  0  0
  -13.9230   -2.2990  -18.6830 C   0  0  0  0  0
  -14.2940   -2.6810  -17.3280 N   0  0  0  0  0
  -13.8350   -2.0760  -16.2320 C   0  0  0  0  0
  -14.3910   -2.6530  -15.1440 C   0  0  0  0  0
  -15.2430   -3.6460  -15.6430 C   0  0  0  0  0
  -15.1390   -3.6000  -16.9250 N   0  0  0  0  0
  -14.2030   -2.3160  -13.6810 C   0  0  0  0  0
  -14.5370   -3.0230  -12.8370 O   0  0  0  0  0
  -13.5510   -1.1150  -13.3050 N   0  0  0  0  0
  -13.3670   -0.7420  -11.9210 C   0  0  0  0  0
  -11.8900   -0.3780  -11.5640 C   0  0  0  0  0
  -12.4372    2.7226  -10.7546 H   0  0  0  0  0
  -11.9602    2.7680  -12.4697 H   0  0  0  0  0
  -13.3644    1.7980  -11.9614 H   0  0  0  0  0
   -7.7724    1.5940  -10.4711 H   0  0  0  0  0
   -7.3081   -0.1086  -10.3889 H   0  0  0  0  0
   -8.9736   -1.8972  -10.8043 H   0  0  0  0  0
  -10.4921   -4.0604  -10.2502 H   0  0  0  0  0
   -9.5636   -3.5214  -11.6535 H   0  0  0  0  0
  -12.0382   -5.3103  -11.6882 H   0  0  0  0  0
  -10.3501   -5.7969  -12.0690 H   0  0  0  0  0
  -11.1985   -3.5779  -13.8998 H   0  0  0  0  0
  -11.6361   -6.6456  -14.2013 H   0  0  0  0  0
  -11.1779   -4.6760  -16.3407 H   0  0  0  0  0
  -12.9462   -4.6116  -15.8412 H   0  0  0  0  0
  -13.4124   -6.6315  -16.8147 H   0  0  0  0  0
  -11.7475   -7.2620  -16.5709 H   0  0  0  0  0
  -12.4046   -6.7945  -19.0381 H   0  0  0  0  0
  -10.9156   -6.0341  -18.5009 H   0  0  0  0  0
   -9.9483   -4.7390  -19.3307 H   0  0  0  0  0
   -7.9709   -3.7703  -20.4606 H   0  0  0  0  0
   -7.5583   -2.5647  -19.2273 H   0  0  0  0  0
   -6.6928   -0.3176  -20.1041 H   0  0  0  0  0
   -6.5697    0.8696  -22.4457 H   0  0  0  0  0
   -8.0380   -0.6342  -24.1138 H   0  0  0  0  0
   -9.7159   -0.5048  -20.0139 H   0  0  0  0  0
  -12.0968   -0.3050  -19.3611 H   0  0  0  0  0
  -14.4349   -2.9883  -19.3545 H   0  0  0  0  0
  -14.1971   -1.2505  -18.7994 H   0  0  0  0  0
  -13.1253   -1.2489  -16.2162 H   0  0  0  0  0
  -15.8692   -4.3228  -15.0617 H   0  0  0  0  0
  -13.2005   -0.4942  -14.0345 H   0  0  0  0  0
  -13.6496   -1.5996  -11.3105 H   0  0  0  0  0
  -13.9760    0.1430  -11.7367 H   0  0  0  0  0
  1  2  1  0  0  0
  2  3  4  0  0  0
  2 39  4  0  0  0
  3  4  4  0  0  0
  4  5  1  0  0  0
  4  6  4  0  0  0
  6  7  4  0  0  0
  7  8  1  0  0  0
  7 39  4  0  0  0
  8  9  1  0  0  0
  9 10  1  0  0  0
 10 11  1  0  0  0
 11 12  2  0  0  0
 12 13  1  0  0  0
 13 14  1  0  0  0
 14 15  1  0  0  0
 15 16  1  0  0  0
 16 17  1  0  0  0
 17 18  4  0  0  0
 17 28  4  0  0  0
 18 19  4  0  0  0
 19 20  1  0  0  0
 19 26  4  0  0  0
 20 21  1  0  0  0
 21 22  4  0  0  0
 21 25  4  0  0  0
 22 23  4  0  0  0
 23 24  4  0  0  0
 24 25  4  0  0  0
 26 27  4  0  0  0
 27 28  4  0  0  0
 28 29  1  0  0  0
 29 30  1  0  0  0
 30 31  4  0  0  0
 30 34  4  0  0  0
 31 32  4  0  0  0
 32 33  4  0  0  0
 32 35  1  0  0  0
 33 34  4  0  0  0
 35 36  2  0  0  0
 35 37  1  0  0  0
 37 38  1  0  0  0
 38 39  1  0  0  0
  1 40  1  0  0  0
  1 41  1  0  0  0
  1 42  1  0  0  0
  5 43  1  0  0  0
  5 44  1  0  0  0
  6 45  1  0  0  0
  9 46  1  0  0  0
  9 47  1  0  0  0
 10 48  1  0  0  0
 10 49  1  0  0  0
 11 50  1  0  0  0
 12 51  1  0  0  0
 13 52  1  0  0  0
 13 53  1  0  0  0
 14 54  1  0  0  0
 14 55  1  0  0  0
 15 56  1  0  0  0
 15 57  1  0  0  0
 18 58  1  0  0  0
 20 59  1  0  0  0
 20 60  1  0  0  0
 22 61  1  0  0  0
 23 62  1  0  0  0
 24 63  1  0  0  0
 26 64  1  0  0  0
 27 65  1  0  0  0
 29 66  1  0  0  0
 29 67  1  0  0  0
 31 68  1  0  0  0
 33 69  1  0  0  0
 37 70  1  0  0  0
 38 71  1  0  0  0
 38 72  1  0  0  0
M  END
$$$$
