5qj3_ligand
  -I-interpret- 

 38 41  0  0  0  0  0  0  0  0999 V2000
   26.0280   -3.0910   22.4090 C   0  0  0  0  0
   25.7410   -3.3240   21.0620 C   0  0  0  0  0
   26.6700   -2.9990   20.1040 C   0  0  0  0  0
   27.8990   -2.4780   20.3990 C   0  0  0  0  0
   28.1980   -2.2480   21.7330 C   0  0  0  0  0
   24.1260   -2.9570   25.6800 C   0  0  0  0  0
   22.9940   -3.6760   25.3550 C   0  0  0  0  0
   26.3330   -3.1670   18.7960 F   0  0  0  0  0
   20.5930   -4.8850   23.3090 O   0  0  0  0  0
   21.7330   -3.7860   26.5300 Cl  0  0  0  0  0
   19.5480   -7.0440   23.7440 C   0  0  0  0  0
   17.1530   -7.1940   23.8210 N   0  0  0  0  0
   18.3750   -7.7610   23.9760 C   0  0  0  0  0
   17.7940   -3.8630   22.6010 N   0  0  0  0  0
   17.1400   -5.9310   23.3600 C   0  0  0  0  0
   16.5150   -3.8760   22.6310 N   0  0  0  0  0
   18.2490   -5.1450   23.0650 C   0  0  0  0  0
   16.0310   -5.1100   23.0840 N   0  0  0  0  0
   19.5080   -5.7290   23.3150 C   0  0  0  0  0
   18.4010   -9.0750   24.2960 N   0  0  0  0  0
   21.8270   -5.3650   23.8680 C   0  0  0  0  0
   22.8280   -4.2660   24.1050 C   0  0  0  0  0
   23.8090   -4.0020   23.1450 C   0  0  0  0  0
   24.9890   -3.3140   23.4520 C   0  0  0  0  0
   25.1290   -2.8030   24.7440 C   0  0  0  0  0
   27.2700   -2.5360   22.7260 C   0  0  0  0  0
   24.7853   -3.7612   20.7728 H   0  0  0  0  0
   28.6189   -2.2513   19.6126 H   0  0  0  0  0
   29.1703   -1.8374   22.0053 H   0  0  0  0  0
   24.2277   -2.5131   26.6703 H   0  0  0  0  0
   20.5121   -7.5270   23.9031 H   0  0  0  0  0
   19.2930   -9.5638   24.3724 H   0  0  0  0  0
   17.5286   -9.5771   24.4609 H   0  0  0  0  0
   22.2642   -6.0666   23.1575 H   0  0  0  0  0
   21.6009   -5.8232   24.8308 H   0  0  0  0  0
   23.6498   -4.3435   22.1222 H   0  0  0  0  0
   26.0428   -2.2753   25.0172 H   0  0  0  0  0
   27.5146   -2.3259   23.7672 H   0  0  0  0  0
  1  2  4  0  0  0
 24  1  1  0  0  0
  1 26  4  0  0  0
  2  3  4  0  0  0
  3  4  4  0  0  0
  3  8  1  0  0  0
  5  4  4  0  0  0
 26  5  4  0  0  0
  7  6  4  0  0  0
  6 25  4  0  0  0
  7 10  1  0  0  0
 22  7  4  0  0  0
  9 19  1  0  0  0
 21  9  1  0  0  0
 11 13  4  0  0  0
 19 11  4  0  0  0
 13 12  4  0  0  0
 15 12  4  0  0  0
 13 20  1  0  0  0
 14 16  4  0  0  0
 17 14  4  0  0  0
 17 15  4  0  0  0
 15 18  4  0  0  0
 18 16  4  0  0  0
 19 17  4  0  0  0
 22 21  1  0  0  0
 23 22  4  0  0  0
 23 24  4  0  0  0
 24 25  4  0  0  0
  2 27  1  0  0  0
  4 28  1  0  0  0
  5 29  1  0  0  0
  6 30  1  0  0  0
 11 31  1  0  0  0
 20 32  1  0  0  0
 20 33  1  0  0  0
 21 34  1  0  0  0
 21 35  1  0  0  0
 23 36  1  0  0  0
 25 37  1  0  0  0
 26 38  1  0  0  0
M  END
$$$$
