2xxw_ligand
  -I-interpret- 

 20 19  0  0  0  0  0  0  0  0999 V2000
  -21.9170   -5.4720  -22.9830 N   0  3  0  0  0
  -22.5870   -6.1030  -21.8560 C   0  0  0  0  0
  -24.0640   -5.7230  -21.7950 C   0  0  0  0  0
  -24.6500   -5.3150  -22.7930 O   0  0  0  0  0
  -21.8870   -5.7400  -20.5460 C   0  0  0  0  0
  -20.6030   -6.5140  -20.2960 C   0  0  0  0  0
  -20.8590   -7.9100  -19.7620 C   0  0  0  0  0
  -21.9670   -8.1540  -19.2380 O   0  0  0  0  0
  -19.9480   -8.7600  -19.8610 O   0  0  0  0  0
  -24.7140   -5.8220  -20.7530 O   0  0  0  0  0
  -22.3966   -5.7247  -23.8470 H   0  0  0  0  0
  -21.9372   -4.4590  -22.8653 H   0  0  0  0  0
  -20.9492   -5.7915  -23.0240 H   0  0  0  0  0
  -22.5291   -7.1820  -21.9993 H   0  0  0  0  0
  -22.5736   -5.9820  -19.7347 H   0  0  0  0  0
  -21.6222   -4.6842  -20.6027 H   0  0  0  0  0
  -20.0232   -5.9704  -19.5501 H   0  0  0  0  0
  -20.0780   -6.6092  -21.2465 H   0  0  0  0  0
  -19.1877   -8.3637  -20.2928 H   0  0  0  0  0
  -24.1453   -6.1492  -20.0523 H   0  0  0  0  0
  1  2  1  0  0  0
  2  3  1  0  0  0
  2  5  1  0  0  0
  3  4  2  0  0  0
  3 10  1  0  0  0
  5  6  1  0  0  0
  6  7  1  0  0  0
  7  8  2  0  0  0
  7  9  1  0  0  0
  1 11  1  0  0  0
  1 12  1  0  0  0
  1 13  1  0  0  0
  2 14  1  0  0  0
  5 15  1  0  0  0
  5 16  1  0  0  0
  6 17  1  0  0  0
  6 18  1  0  0  0
  9 19  1  0  0  0
 10 20  1  0  0  0
M  END
$$$$
