3zmz_ligand
  -I-interpret- 

 98 99  0  0  0  0  0  0  0  0999 V2000
   -1.6560   53.9980   84.8150 N   0  3  0  0  0
   -1.0610   52.7700   85.3310 C   0  0  0  0  0
   -1.4130   51.5520   84.4730 C   0  0  0  0  0
   -2.2100   51.6680   83.5350 O   0  0  0  0  0
   -1.7000   52.6410   86.7130 C   0  0  0  0  0
   -3.0440   53.2670   86.5550 C   0  0  0  0  0
   -2.8740   54.3750   85.5540 C   0  0  0  0  0
   -0.8330   50.3990   84.8120 N   0  0  0  0  0
   -1.0440   49.1560   84.0640 C   0  0  0  0  0
   -2.5210   48.8000   83.8780 C   0  0  0  0  0
   -2.9190   48.3250   82.8160 O   0  0  0  0  0
   -0.3150   47.9860   84.7290 C   0  0  0  0  0
   -0.1270   46.7950   83.8050 C   0  0  0  0  0
   -0.1410   45.4810   84.5630 C   0  0  0  0  0
    0.2230   44.3540   83.7010 N   0  0  0  0  0
    1.4000   43.7310   83.7210 C   0  0  0  0  0
    2.3550   44.1070   84.5660 N   0  0  0  0  0
    1.6230   42.7190   82.8950 N   0  0  0  0  0
   -3.3260   49.0390   84.9090 N   0  0  0  0  0
   -4.7450   48.6800   84.8850 C   0  0  0  0  0
   -5.5350   49.3240   83.7410 C   0  0  0  0  0
   -6.6320   48.8680   83.4120 O   0  0  0  0  0
   -5.4070   48.9750   86.2360 C   0  0  0  0  0
   -4.9130   50.1740   86.8070 O   0  0  0  0  0
   -4.9730   50.3680   83.1330 N   0  0  0  0  0
   -5.6230   51.0450   82.0090 C   0  0  0  0  0
   -5.5220   50.2490   80.7140 C   0  0  0  0  0
   -6.3790   50.3830   79.8370 O   0  0  0  0  0
   -5.0400   52.4460   81.7830 C   0  0  0  0  0
   -5.5180   53.4840   82.7640 C   0  0  0  0  0
   -6.5820   53.2320   83.6300 C   0  0  0  0  0
   -4.9190   54.7380   82.7950 C   0  0  0  0  0
   -7.0130   54.1990   84.5240 C   0  0  0  0  0
   -5.3520   55.7100   83.6830 C   0  0  0  0  0
   -6.3950   55.4370   84.5500 C   0  0  0  0  0
   -4.4710   49.4310   80.6040 N   0  0  0  0  0
   -4.1700   48.6780   79.3820 C   0  0  0  0  0
   -5.3100   47.7600   78.9720 C   0  0  0  0  0
   -5.8550   47.0140   79.7890 O   0  0  0  0  0
   -2.8760   47.8880   79.5350 C   0  0  0  0  0
   -5.6590   47.8370   77.6930 N   0  0  0  0  0
   -6.7330   47.0480   77.1040 C   0  0  0  0  0
   -6.4480   45.5530   77.1990 C   0  0  0  0  0
   -5.2872   45.0897   77.0395 O   0  0  0  0  0
   -6.9430   47.4470   75.6350 C   0  0  0  0  0
   -7.8980   46.4940   74.9390 C   0  0  0  0  0
   -7.4540   48.8730   75.5600 C   0  0  0  0  0
   -7.3972   44.7611   77.4431 O   0  0  0  0  0
   -1.9102   53.8435   83.8393 H   0  0  0  0  0
   -0.9748   54.7501   84.9184 H   0  0  0  0  0
    0.0282   52.8095   85.3410 H   0  0  0  0  0
   -1.1076   53.1290   87.4870 H   0  0  0  0  0
   -1.7657   51.6034   87.0403 H   0  0  0  0  0
   -3.4141   53.6495   87.5062 H   0  0  0  0  0
   -3.7797   52.5385   86.2143 H   0  0  0  0  0
   -3.7400   54.4800   84.9004 H   0  0  0  0  0
   -2.7856   55.3525   86.0282 H   0  0  0  0  0
   -0.2174   50.3818   85.6251 H   0  0  0  0  0
   -0.6287   49.3356   83.0723 H   0  0  0  0  0
   -0.9205   47.6566   85.5734 H   0  0  0  0  0
    0.6748   48.3368   85.0212 H   0  0  0  0  0
    0.8404   46.8945   83.3127 H   0  0  0  0  0
   -0.9494   46.7850   83.0897 H   0  0  0  0  0
   -1.1498   45.3129   84.9401 H   0  0  0  0  0
    0.5869   45.5436   85.3720 H   0  0  0  0  0
   -0.4762   44.0220   83.0367 H   0  0  0  0  0
    3.2499   43.6177   84.5747 H   0  0  0  0  0
    2.1928   44.8848   85.2056 H   0  0  0  0  0
    0.8945   42.4197   82.2469 H   0  0  0  0  0
   -2.9431   49.4861   85.7420 H   0  0  0  0  0
   -4.7724   47.6068   84.6962 H   0  0  0  0  0
   -5.1849   48.1524   86.9157 H   0  0  0  0  0
   -6.4798   49.0850   86.0775 H   0  0  0  0  0
   -5.3469   50.3285   87.6493 H   0  0  0  0  0
   -4.0668   50.7042   83.4589 H   0  0  0  0  0
   -6.6752   51.1297   82.2806 H   0  0  0  0  0
   -5.3603   52.7700   80.7928 H   0  0  0  0  0
   -3.9595   52.3661   81.9027 H   0  0  0  0  0
   -7.0803   52.2630   83.6032 H   0  0  0  0  0
   -4.0986   54.9596   82.1124 H   0  0  0  0  0
   -7.8367   53.9851   85.2051 H   0  0  0  0  0
   -4.8714   56.6882   83.6983 H   0  0  0  0  0
   -6.7305   56.1980   85.2545 H   0  0  0  0  0
   -3.8500   49.3256   81.4063 H   0  0  0  0  0
   -4.0426   49.4097   78.5842 H   0  0  0  0  0
   -2.0539   48.5751   79.7354 H   0  0  0  0  0
   -2.9756   47.1870   80.3637 H   0  0  0  0  0
   -2.6761   47.3388   78.6149 H   0  0  0  0  0
   -5.1481   48.4828   77.0910 H   0  0  0  0  0
   -7.6419   47.2549   77.6690 H   0  0  0  0  0
   -5.9855   47.3860   75.1177 H   0  0  0  0  0
   -7.4890   45.4841   74.9708 H   0  0  0  0  0
   -8.8624   46.5130   75.4466 H   0  0  0  0  0
   -8.0259   46.8030   73.9016 H   0  0  0  0  0
   -8.4015   48.9466   76.0938 H   0  0  0  0  0
   -6.7254   49.5432   76.0162 H   0  0  0  0  0
   -7.6011   49.1505   74.5162 H   0  0  0  0  0
   -8.2120   45.2597   77.5382 H   0  0  0  0  0
  1  2  1  0  0  0
  1  7  1  0  0  0
  2  3  1  0  0  0
  2  5  1  0  0  0
  3  4  2  0  0  0
  3  8  1  0  0  0
  5  6  1  0  0  0
  6  7  1  0  0  0
  8  9  1  0  0  0
  9 10  1  0  0  0
  9 12  1  0  0  0
 10 11  2  0  0  0
 10 19  1  0  0  0
 12 13  1  0  0  0
 13 14  1  0  0  0
 14 15  1  0  0  0
 15 16  1  0  0  0
 16 17  1  0  0  0
 16 18  2  0  0  0
 19 20  1  0  0  0
 20 21  1  0  0  0
 20 23  1  0  0  0
 21 22  2  0  0  0
 21 25  1  0  0  0
 23 24  1  0  0  0
 25 26  1  0  0  0
 26 27  1  0  0  0
 26 29  1  0  0  0
 27 28  2  0  0  0
 27 36  1  0  0  0
 29 30  1  0  0  0
 30 31  4  0  0  0
 30 32  4  0  0  0
 31 33  4  0  0  0
 32 34  4  0  0  0
 33 35  4  0  0  0
 34 35  4  0  0  0
 36 37  1  0  0  0
 37 38  1  0  0  0
 37 40  1  0  0  0
 38 39  2  0  0  0
 38 41  1  0  0  0
 41 42  1  0  0  0
 42 43  1  0  0  0
 42 45  1  0  0  0
 43 44  2  0  0  0
 45 46  1  0  0  0
 45 47  1  0  0  0
 43 48  1  0  0  0
  1 49  1  0  0  0
  1 50  1  0  0  0
  2 51  1  0  0  0
  5 52  1  0  0  0
  5 53  1  0  0  0
  6 54  1  0  0  0
  6 55  1  0  0  0
  7 56  1  0  0  0
  7 57  1  0  0  0
  8 58  1  0  0  0
  9 59  1  0  0  0
 12 60  1  0  0  0
 12 61  1  0  0  0
 13 62  1  0  0  0
 13 63  1  0  0  0
 14 64  1  0  0  0
 14 65  1  0  0  0
 15 66  1  0  0  0
 17 67  1  0  0  0
 17 68  1  0  0  0
 18 69  1  0  0  0
 19 70  1  0  0  0
 20 71  1  0  0  0
 23 72  1  0  0  0
 23 73  1  0  0  0
 24 74  1  0  0  0
 25 75  1  0  0  0
 26 76  1  0  0  0
 29 77  1  0  0  0
 29 78  1  0  0  0
 31 79  1  0  0  0
 32 80  1  0  0  0
 33 81  1  0  0  0
 34 82  1  0  0  0
 35 83  1  0  0  0
 36 84  1  0  0  0
 37 85  1  0  0  0
 40 86  1  0  0  0
 40 87  1  0  0  0
 40 88  1  0  0  0
 41 89  1  0  0  0
 42 90  1  0  0  0
 45 91  1  0  0  0
 46 92  1  0  0  0
 46 93  1  0  0  0
 46 94  1  0  0  0
 47 95  1  0  0  0
 47 96  1  0  0  0
 47 97  1  0  0  0
 48 98  1  0  0  0
M  END
$$$$
