6r0v_ligand
  -I-interpret- 

 31 32  0  0  0  0  0  0  0  0999 V2000
   22.9610   17.4820   -6.5350 C   0  0  0  0  0
   27.4640   21.3550   -6.5140 C   0  0  0  0  0
   26.8440   20.3820   -7.3050 C   0  0  0  0  0
   26.9110   20.4810   -8.6960 C   0  0  0  0  0
   26.2350   19.1610   -6.6780 C   0  0  0  0  0
   28.0740   22.4530   -7.1150 C   0  0  0  0  0
   28.1230   22.5890   -8.4850 C   0  0  0  0  0
   27.5300   21.5940   -9.2680 C   0  0  0  0  0
   27.4370   21.2850   -5.0180 C   0  0  0  0  0
   23.5730   15.8440   -8.0910 N   0  0  0  0  0
   24.9910   18.8090   -7.0480 N   0  0  0  0  0
   22.5190   16.2840   -7.3230 C   0  0  0  0  0
   27.5590   21.7240  -10.7210 N   0  0  0  0  0
   24.4850   17.4970   -6.7160 C   0  0  0  0  0
   24.7370   16.5180   -7.8420 C   0  0  0  0  0
   21.4390   15.7320   -7.2860 O   0  0  0  0  0
   25.7770   16.3740   -8.4700 O   0  0  0  0  0
   26.8610   18.5020   -5.8420 O   0  0  0  0  0
   28.3330   22.5360  -11.2160 O   0  0  0  0  0
   26.8270   21.0160  -11.3850 O   0  0  0  0  0
   26.3240   21.1150   -4.4870 O   0  0  0  0  0
   28.5200   21.3860   -4.4100 O   0  0  0  0  0
   22.6681   17.4206   -5.4869 H   0  0  0  0  0
   22.4927   18.4030   -6.8821 H   0  0  0  0  0
   26.4859   19.7002   -9.3267 H   0  0  0  0  0
   28.5230   23.2225   -6.4871 H   0  0  0  0  0
   28.6104   23.4483   -8.9456 H   0  0  0  0  0
   23.4942   15.0922   -8.7758 H   0  0  0  0  0
   24.4055   19.4672   -7.5622 H   0  0  0  0  0
   24.9983   17.2261   -5.7934 H   0  0  0  0  0
   29.2306   21.5114   -5.0431 H   0  0  0  0  0
  1 12  1  0  0  0
 14  1  1  0  0  0
  3  2  4  0  0  0
  2  6  4  0  0  0
  2  9  1  0  0  0
  3  4  4  0  0  0
  5  3  1  0  0  0
  4  8  4  0  0  0
 11  5  1  0  0  0
  5 18  2  0  0  0
  6  7  4  0  0  0
  8  7  4  0  0  0
  8 13  1  0  0  0
  9 21  2  0  0  0
  9 22  1  0  0  0
 12 10  1  0  0  0
 10 15  1  0  0  0
 11 14  1  0  0  0
 12 16  2  0  0  0
 13 19  2  0  0  0
 13 20  2  0  0  0
 14 15  1  0  0  0
 15 17  2  0  0  0
  1 23  1  0  0  0
  1 24  1  0  0  0
  4 25  1  0  0  0
  6 26  1  0  0  0
  7 27  1  0  0  0
 10 28  1  0  0  0
 11 29  1  0  0  0
 14 30  1  0  0  0
 22 31  1  0  0  0
M  END
$$$$
