### 
### Created by X-TOOL on Wed Jan  1 15:39:37 2020
### 

@<TRIPOS>MOLECULE
6drt_ligand
  137   138     1     0     0
SMALL
GAST_HUCK


@<TRIPOS>ATOM
      1 N          14.5600    5.4590   28.2580 N.4       1 GLU         0.2380
      2 CA         14.0660    6.0090   27.0010 C.3       1 GLU         0.0665
      3 C          12.5930    5.6540   26.7880 C.2       1 GLU         0.2266
      4 O          12.1570    4.5530   27.1230 O.2       1 GLU        -0.3907
      5 CB         14.9020    5.4980   25.8270 C.3       1 GLU         0.0194
      6 CG         14.4870    6.0690   24.4810 C.3       1 GLU         0.0075
      7 CD         14.4810    5.0270   23.3830 C.2       1 GLU         0.0351
      8 OE1        15.2790    4.0710   23.4640 O.co2     1 GLU        -0.5690
      9 OE2        13.6690    5.1600   22.4420 O.co2     1 GLU        -0.5690
     10 N          11.8360    6.5970   26.2310 N.am      1 GLY        -0.2637
     11 CA         10.4300    6.3750   25.9550 C.3       1 GLY         0.1202
     12 C           9.5250    6.8600   27.0690 C.2       1 GLY         0.2007
     13 O           9.5400    8.0430   27.4180 O.2       1 GLY        -0.3947
     14 N           8.7300    5.9530   27.6360 N.am      1 LEU        -0.2640
     15 CA          7.8150    6.2760   28.7220 C.3       1 LEU         0.1312
     16 C           8.3690    5.8830   30.0860 C.2       1 LEU         0.2040
     17 O           7.5960    5.6970   31.0320 O.2       1 LEU        -0.3944
     18 CB          6.4610    5.6040   28.4900 C.3       1 LEU        -0.0101
     19 CG          5.6740    6.0560   27.2580 C.3       1 LEU        -0.0425
     20 CD1         4.4080    5.2300   27.1060 C.3       1 LEU        -0.0625
     21 CD2         5.3430    7.5380   27.3490 C.3       1 LEU        -0.0625
     22 N           9.6940    5.7580   30.2070 N.am      1 ASP        -0.2622
     23 CA         10.2840    5.3290   31.4710 C.3       1 ASP         0.1423
     24 C          10.0170    6.3260   32.5890 C.2       1 ASP         0.2057
     25 O           9.8930    5.9290   33.7540 O.2       1 ASP        -0.3943
     26 CB         11.7890    5.1120   31.3050 C.3       1 ASP         0.0406
     27 CG         12.1120    3.9040   30.4470 C.2       1 ASP         0.0393
     28 OD1        11.2880    2.9670   30.4040 O.co2     1 ASP        -0.5688
     29 OD2        13.1920    3.8910   29.8190 O.co2     1 ASP        -0.5688
     30 N           9.9190    7.6170   32.2620 N.am      1 PHE        -0.2618
     31 CA          9.6390    8.6200   33.2830 C.3       1 PHE         0.1404
     32 C           8.2330    8.4860   33.8530 C.2       1 PHE         0.2060
     33 O           7.9630    9.0190   34.9350 O.2       1 PHE        -0.3942
     34 CB          9.8490   10.0260   32.7140 C.3       1 PHE         0.0214
     35 CG          8.8220   10.4340   31.6970 C.ar      1 PHE        -0.0386
     36 CD1         8.8450    9.9090   30.4140 C.ar      1 PHE        -0.0601
     37 CD2         7.8410   11.3570   32.0190 C.ar      1 PHE        -0.0601
     38 CE1         7.9020   10.2870   29.4770 C.ar      1 PHE        -0.0686
     39 CE2         6.8980   11.7410   31.0850 C.ar      1 PHE        -0.0686
     40 CZ          6.9280   11.2050   29.8130 C.ar      1 PHE        -0.0687
     41 N           7.3380    7.7890   33.1560 N.am      1 LEU        -0.2636
     42 CA          6.0050    7.4990   33.6680 C.3       1 LEU         0.1312
     43 C           5.8790    6.0940   34.2360 C.2       1 LEU         0.2040
     44 O           5.0440    5.8670   35.1180 O.2       1 LEU        -0.3944
     45 CB          4.9580    7.6910   32.5650 C.3       1 LEU        -0.0101
     46 CG          4.8230    9.1100   32.0130 C.3       1 LEU        -0.0425
     47 CD1         3.8400    9.1540   30.8540 C.3       1 LEU        -0.0625
     48 CD2         4.4080   10.0790   33.1120 C.3       1 LEU        -0.0625
     49 N           6.6870    5.1470   33.7490 N.am      1 PHE        -0.2619
     50 CA          6.6660    3.7960   34.2980 C.3       1 PHE         0.1404
     51 C           7.1450    3.7690   35.7440 C.2       1 PHE         0.2060
     52 O           6.6820    2.9380   36.5330 O.2       1 PHE        -0.3942
     53 CB          7.5260    2.8640   33.4440 C.3       1 PHE         0.0214
     54 CG          6.9050    2.4960   32.1260 C.ar      1 PHE        -0.0386
     55 CD1         5.5280    2.4540   31.9800 C.ar      1 PHE        -0.0601
     56 CD2         7.7000    2.1860   31.0350 C.ar      1 PHE        -0.0601
     57 CE1         4.9570    2.1100   30.7690 C.ar      1 PHE        -0.0686
     58 CE2         7.1340    1.8430   29.8210 C.ar      1 PHE        -0.0686
     59 CZ          5.7610    1.8050   29.6880 C.ar      1 PHE        -0.0687
     60 N           8.0650    4.6610   36.1070 N.am      1 ASP        -0.2620
     61 CA          8.6010    4.6970   37.4620 C.3       1 ASP         0.1423
     62 C           8.1670    5.9680   38.1810 C.2       1 ASP         0.2050
     63 O           8.9970    6.6730   38.7640 O.2       1 ASP        -0.3943
     64 CB         10.1270    4.5930   37.4350 C.3       1 ASP         0.0406
     65 CG         10.6150    3.3800   36.6670 C.2       1 ASP         0.0393
     66 OD1         9.8770    2.3730   36.6130 O.co2     1 ASP        -0.5688
     67 OD2        11.7350    3.4330   36.1160 O.co2     1 ASP        -0.5688
     68 N           6.8730    6.2670   38.1440 N.am      1 ALA        -0.2697
     69 CA          6.3420    7.4580   38.7960 C.3       1 ALA         0.0916
     70 C           5.7070    7.1090   40.1380 C.2       1 ALA         0.0598
     71 O           6.3190    6.4380   40.9690 O.co2     1 ALA        -0.5666
     72 CB          5.3320    8.1500   37.8940 C.3       1 ALA        -0.0300
     73 OXT         4.5700    7.4920   40.4160 O.co2     1 ALA        -0.5666
     74 H1         15.5302    5.7062   28.3746 H         1 GLU         0.2015
     75 H2         14.4683    4.4553   28.2447 H         1 GLU         0.2015
     76 H3         14.0230    5.8354   29.0235 H         1 GLU         0.2015
     77 H4         14.1568    7.1044   27.0437 H         1 GLU         0.1099
     78 H5         14.8052    4.4031   25.7834 H         1 GLU         0.0363
     79 H6         15.9534    5.7663   26.0077 H         1 GLU         0.0363
     80 H7         15.1913    6.8675   24.2049 H         1 GLU         0.0434
     81 H8         13.4745    6.4889   24.5736 H         1 GLU         0.0434
     82 H9         12.2465    7.4785   25.9977 H         1 GLY         0.1882
     83 H10        10.2662    5.2964   25.8147 H         1 GLY         0.0763
     84 H11        10.1654    6.9093   25.0306 H         1 GLY         0.0763
     85 H12         8.7632    5.0111   27.3017 H         1 LEU         0.1883
     86 H13         7.6636    7.3655   28.7214 H         1 LEU         0.0800
     87 H14         5.8364    5.7976   29.3745 H         1 LEU         0.0315
     88 H15         6.6371    4.5224   28.3951 H         1 LEU         0.0315
     89 H16         6.3006    5.8960   26.3682 H         1 LEU         0.0298
     90 H17         3.8548    5.5672   26.2170 H         1 LEU         0.0232
     91 H18         3.7785    5.3560   27.9992 H         1 LEU         0.0232
     92 H19         4.6740    4.1688   26.9916 H         1 LEU         0.0232
     93 H20         6.2729    8.1153   27.4584 H         1 LEU         0.0232
     94 H21         4.6960    7.7164   28.2206 H         1 LEU         0.0232
     95 H22         4.8208    7.8540   26.4339 H         1 LEU         0.0232
     96 H23        10.2852    5.9598   29.4261 H         1 ASP         0.1884
     97 H24         9.8247    4.3701   31.7530 H         1 ASP         0.0819
     98 H25        12.2361    4.9676   32.2996 H         1 ASP         0.0478
     99 H26        12.2241    6.0056   30.8336 H         1 ASP         0.0478
    100 H27        10.0385    7.8982   31.3098 H         1 PHE         0.1885
    101 H28        10.3525    8.4714   34.1069 H         1 PHE         0.0823
    102 H29        10.8401   10.0619   32.2381 H         1 PHE         0.0474
    103 H30         9.8156   10.7444   33.5463 H         1 PHE         0.0474
    104 H31         9.6123    9.1930   30.1424 H         1 PHE         0.0557
    105 H32         7.8126   11.7831   33.0153 H         1 PHE         0.0557
    106 H33         7.9274    9.8630   28.4797 H         1 PHE         0.0599
    107 H34         6.1346   12.4632   31.3509 H         1 PHE         0.0599
    108 H35         6.1880   11.5047   29.0798 H         1 PHE         0.0559
    109 H36         7.5896    7.4525   32.2486 H         1 LEU         0.1883
    110 H37         5.7942    8.2128   34.4779 H         1 LEU         0.0800
    111 H38         3.9806    7.3934   32.9725 H         1 LEU         0.0315
    112 H39         5.2239    7.0279   31.7286 H         1 LEU         0.0315
    113 H40         5.8076    9.4235   31.6358 H         1 LEU         0.0298
    114 H41         3.7629   10.1847   30.4775 H         1 LEU         0.0232
    115 H42         2.8519    8.8145   31.1981 H         1 LEU         0.0232
    116 H43         4.1939    8.4947   30.0477 H         1 LEU         0.0232
    117 H44         5.1330   10.0292   33.9378 H         1 LEU         0.0232
    118 H45         3.4095    9.8059   33.4839 H         1 LEU         0.0232
    119 H46         4.3818   11.1019   32.7083 H         1 LEU         0.0232
    120 H47         7.3124    5.3672   33.0004 H         1 PHE         0.1885
    121 H48         5.6281    3.4324   34.2733 H         1 PHE         0.0823
    122 H49         7.7037    1.9394   34.0127 H         1 PHE         0.0474
    123 H50         8.4860    3.3633   33.2466 H         1 PHE         0.0474
    124 H51         4.8916    2.6934   32.8243 H         1 PHE         0.0557
    125 H52         8.7791    2.2126   31.1341 H         1 PHE         0.0557
    126 H53         3.8782    2.0796   30.6677 H         1 PHE         0.0599
    127 H54         7.7680    1.6042   28.9748 H         1 PHE         0.0599
    128 H55         5.3145    1.5364   28.7374 H         1 PHE         0.0559
    129 H56         8.3961    5.3221   35.4336 H         1 ASP         0.1884
    130 H57         8.2034    3.8332   38.0150 H         1 ASP         0.0819
    131 H58        10.4940    4.5259   38.4698 H         1 ASP         0.0478
    132 H59        10.5335    5.4979   36.9597 H         1 ASP         0.0478
    133 H60         6.2467    5.6590   37.6560 H         1 ALA         0.1875
    134 H61         7.1758    8.1517   38.9792 H         1 ALA         0.0723
    135 H62         4.9415    9.0453   38.4000 H         1 ALA         0.0270
    136 H63         4.5027    7.4611   37.6759 H         1 ALA         0.0270
    137 H64         5.8212    8.4443   36.9538 H         1 ALA         0.0270
@<TRIPOS>BOND
     1    1    2 1  
     2    2    3 1  
     3    2    5 1  
     4    3    4 2  
     5    3   10 am 
     6    5    6 1  
     7    6    7 1  
     8    7    8 ar 
     9    7    9 ar 
    10   10   11 1  
    11   11   12 1  
    12   12   13 2  
    13   12   14 am 
    14   14   15 1  
    15   15   16 1  
    16   15   18 1  
    17   16   17 2  
    18   16   22 am 
    19   18   19 1  
    20   19   20 1  
    21   19   21 1  
    22   22   23 1  
    23   23   24 1  
    24   23   26 1  
    25   24   25 2  
    26   24   30 am 
    27   26   27 1  
    28   27   28 ar 
    29   27   29 ar 
    30   30   31 1  
    31   31   32 1  
    32   31   34 1  
    33   32   33 2  
    34   32   41 am 
    35   34   35 1  
    36   35   36 ar 
    37   35   37 ar 
    38   36   38 ar 
    39   37   39 ar 
    40   38   40 ar 
    41   39   40 ar 
    42   41   42 1  
    43   42   43 1  
    44   42   45 1  
    45   43   44 2  
    46   43   49 am 
    47   45   46 1  
    48   46   47 1  
    49   46   48 1  
    50   49   50 1  
    51   50   51 1  
    52   50   53 1  
    53   51   52 2  
    54   51   60 am 
    55   53   54 1  
    56   54   55 ar 
    57   54   56 ar 
    58   55   57 ar 
    59   56   58 ar 
    60   57   59 ar 
    61   58   59 ar 
    62   60   61 1  
    63   61   62 1  
    64   61   64 1  
    65   62   63 2  
    66   62   68 am 
    67   64   65 1  
    68   65   66 ar 
    69   65   67 ar 
    70   68   69 1  
    71   69   70 1  
    72   69   72 1  
    73   70   71 ar 
    74   70   73 ar 
    75    1   74 1  
    76    1   75 1  
    77    1   76 1  
    78    2   77 1  
    79    5   78 1  
    80    5   79 1  
    81    6   80 1  
    82    6   81 1  
    83   10   82 1  
    84   11   83 1  
    85   11   84 1  
    86   14   85 1  
    87   15   86 1  
    88   18   87 1  
    89   18   88 1  
    90   19   89 1  
    91   20   90 1  
    92   20   91 1  
    93   20   92 1  
    94   21   93 1  
    95   21   94 1  
    96   21   95 1  
    97   22   96 1  
    98   23   97 1  
    99   26   98 1  
   100   26   99 1  
   101   30  100 1  
   102   31  101 1  
   103   34  102 1  
   104   34  103 1  
   105   36  104 1  
   106   37  105 1  
   107   38  106 1  
   108   39  107 1  
   109   40  108 1  
   110   41  109 1  
   111   42  110 1  
   112   45  111 1  
   113   45  112 1  
   114   46  113 1  
   115   47  114 1  
   116   47  115 1  
   117   47  116 1  
   118   48  117 1  
   119   48  118 1  
   120   48  119 1  
   121   49  120 1  
   122   50  121 1  
   123   53  122 1  
   124   53  123 1  
   125   55  124 1  
   126   56  125 1  
   127   57  126 1  
   128   58  127 1  
   129   59  128 1  
   130   60  129 1  
   131   61  130 1  
   132   64  131 1  
   133   64  132 1  
   134   68  133 1  
   135   69  134 1  
   136   72  135 1  
   137   72  136 1  
   138   72  137 1  
@<TRIPOS>SUBSTRUCTURE
     1 GLU         1

