6drt_ligand
  -I-interpret- 

141142  0  0  0  0  0  0  0  0999 V2000
   14.5600    5.4590   28.2580 N   0  3  0  0  0
   14.0660    6.0090   27.0010 C   0  0  0  0  0
   12.5930    5.6540   26.7880 C   0  0  0  0  0
   12.1570    4.5530   27.1230 O   0  0  0  0  0
   14.9020    5.4980   25.8270 C   0  0  0  0  0
   14.4870    6.0690   24.4810 C   0  0  0  0  0
   14.4810    5.0270   23.3830 C   0  0  0  0  0
   15.2790    4.0710   23.4640 O   0  0  0  0  0
   13.6690    5.1600   22.4420 O   0  0  0  0  0
   11.8360    6.5970   26.2310 N   0  0  0  0  0
   10.4300    6.3750   25.9550 C   0  0  0  0  0
    9.5250    6.8600   27.0690 C   0  0  0  0  0
    9.5400    8.0430   27.4180 O   0  0  0  0  0
    8.7300    5.9530   27.6360 N   0  0  0  0  0
    7.8150    6.2760   28.7220 C   0  0  0  0  0
    8.3690    5.8830   30.0860 C   0  0  0  0  0
    7.5960    5.6970   31.0320 O   0  0  0  0  0
    6.4610    5.6040   28.4900 C   0  0  0  0  0
    5.6740    6.0560   27.2580 C   0  0  0  0  0
    4.4080    5.2300   27.1060 C   0  0  0  0  0
    5.3430    7.5380   27.3490 C   0  0  0  0  0
    9.6940    5.7580   30.2070 N   0  0  0  0  0
   10.2840    5.3290   31.4710 C   0  0  0  0  0
   10.0170    6.3260   32.5890 C   0  0  0  0  0
    9.8930    5.9290   33.7540 O   0  0  0  0  0
   11.7890    5.1120   31.3050 C   0  0  0  0  0
   12.1120    3.9040   30.4470 C   0  0  0  0  0
   11.2880    2.9670   30.4040 O   0  0  0  0  0
   13.1920    3.8910   29.8190 O   0  0  0  0  0
    9.9190    7.6170   32.2620 N   0  0  0  0  0
    9.6390    8.6200   33.2830 C   0  0  0  0  0
    8.2330    8.4860   33.8530 C   0  0  0  0  0
    7.9630    9.0190   34.9350 O   0  0  0  0  0
    9.8490   10.0260   32.7140 C   0  0  0  0  0
    8.8220   10.4340   31.6970 C   0  0  0  0  0
    8.8450    9.9090   30.4140 C   0  0  0  0  0
    7.8410   11.3570   32.0190 C   0  0  0  0  0
    7.9020   10.2870   29.4770 C   0  0  0  0  0
    6.8980   11.7410   31.0850 C   0  0  0  0  0
    6.9280   11.2050   29.8130 C   0  0  0  0  0
    7.3380    7.7890   33.1560 N   0  0  0  0  0
    6.0050    7.4990   33.6680 C   0  0  0  0  0
    5.8790    6.0940   34.2360 C   0  0  0  0  0
    5.0440    5.8670   35.1180 O   0  0  0  0  0
    4.9580    7.6910   32.5650 C   0  0  0  0  0
    4.8230    9.1100   32.0130 C   0  0  0  0  0
    3.8400    9.1540   30.8540 C   0  0  0  0  0
    4.4080   10.0790   33.1120 C   0  0  0  0  0
    6.6870    5.1470   33.7490 N   0  0  0  0  0
    6.6660    3.7960   34.2980 C   0  0  0  0  0
    7.1450    3.7690   35.7440 C   0  0  0  0  0
    6.6820    2.9380   36.5330 O   0  0  0  0  0
    7.5260    2.8640   33.4440 C   0  0  0  0  0
    6.9050    2.4960   32.1260 C   0  0  0  0  0
    5.5280    2.4540   31.9800 C   0  0  0  0  0
    7.7000    2.1860   31.0350 C   0  0  0  0  0
    4.9570    2.1100   30.7690 C   0  0  0  0  0
    7.1340    1.8430   29.8210 C   0  0  0  0  0
    5.7610    1.8050   29.6880 C   0  0  0  0  0
    8.0650    4.6610   36.1070 N   0  0  0  0  0
    8.6010    4.6970   37.4620 C   0  0  0  0  0
    8.1670    5.9680   38.1810 C   0  0  0  0  0
    8.9970    6.6730   38.7640 O   0  0  0  0  0
   10.1270    4.5930   37.4350 C   0  0  0  0  0
   10.6150    3.3800   36.6670 C   0  0  0  0  0
    9.8770    2.3730   36.6130 O   0  0  0  0  0
   11.7350    3.4330   36.1160 O   0  0  0  0  0
    6.8730    6.2670   38.1440 N   0  0  0  0  0
    6.3420    7.4580   38.7960 C   0  0  0  0  0
    5.7070    7.1090   40.1380 C   0  0  0  0  0
    6.3190    6.4380   40.9690 O   0  0  0  0  0
    5.3320    8.1500   37.8940 C   0  0  0  0  0
    4.5700    7.4920   40.4160 O   0  0  0  0  0
   13.9912    5.8103   29.0283 H   0  0  0  0  0
   14.5027    4.4410   28.2282 H   0  0  0  0  0
   15.5304    5.7423   28.3936 H   0  0  0  0  0
   14.1548    7.0941   27.0527 H   0  0  0  0  0
   14.7648    4.4178   25.7772 H   0  0  0  0  0
   15.9327    5.8044   26.0053 H   0  0  0  0  0
   15.2072    6.8401   24.2075 H   0  0  0  0  0
   13.4735    6.4577   24.5798 H   0  0  0  0  0
   13.1540    5.9590   22.5758 H   0  0  0  0  0
   12.2547    7.4961   25.9930 H   0  0  0  0  0
   10.2780    5.3010   25.8472 H   0  0  0  0  0
   10.1761    6.9331   25.0538 H   0  0  0  0  0
    8.7638    4.9923   27.2950 H   0  0  0  0  0
    7.6896    7.3588   28.7247 H   0  0  0  0  0
    5.8454    5.8619   29.3517 H   0  0  0  0  0
    6.6722    4.5452   28.3405 H   0  0  0  0  0
    6.2935    5.9000   26.3749 H   0  0  0  0  0
    4.6730    4.1788   26.9928 H   0  0  0  0  0
    3.7852    5.3557   27.9917 H   0  0  0  0  0
    3.8607    5.5650   26.2249 H   0  0  0  0  0
    4.7419    7.7207   28.2397 H   0  0  0  0  0
    6.2674    8.1124   27.4089 H   0  0  0  0  0
    4.7834    7.8390   26.4634 H   0  0  0  0  0
   10.2970    5.9638   29.4105 H   0  0  0  0  0
    9.8124    4.3870   31.7509 H   0  0  0  0  0
   12.2152    4.9449   32.2942 H   0  0  0  0  0
   12.2031    5.9928   30.8142 H   0  0  0  0  0
   13.6713    4.7046   29.9921 H   0  0  0  0  0
   10.0409    7.9038   31.2908 H   0  0  0  0  0
   10.3374    8.4525   34.1030 H   0  0  0  0  0
   10.8179   10.0310   32.2146 H   0  0  0  0  0
    9.7750   10.7257   33.5465 H   0  0  0  0  0
    9.6165    9.1891   30.1409 H   0  0  0  0  0
    7.8125   11.7855   33.0208 H   0  0  0  0  0
    7.9276    9.8607   28.4742 H   0  0  0  0  0
    6.1303   12.4671   31.3524 H   0  0  0  0  0
    6.1839   11.5063   29.0757 H   0  0  0  0  0
    7.5947    7.4457   32.2304 H   0  0  0  0  0
    5.8308    8.2005   34.4839 H   0  0  0  0  0
    3.9945    7.4413   33.0093 H   0  0  0  0  0
    5.2733    7.0653   31.7300 H   0  0  0  0  0
    5.7983    9.4188   31.6368 H   0  0  0  0  0
    4.1918    8.5003   30.0559 H   0  0  0  0  0
    2.8614    8.8174   31.1963 H   0  0  0  0  0
    3.7645   10.1757   30.4819 H   0  0  0  0  0
    3.4482    9.7686   33.5249 H   0  0  0  0  0
    5.1615   10.0774   33.8996 H   0  0  0  0  0
    4.3183   11.0822   32.6953 H   0  0  0  0  0
    7.3249    5.3716   32.9854 H   0  0  0  0  0
    5.6327    3.4493   34.2816 H   0  0  0  0  0
    7.6597    1.9406   34.0075 H   0  0  0  0  0
    8.4559    3.3899   33.2277 H   0  0  0  0  0
    4.8881    2.6947   32.8289 H   0  0  0  0  0
    8.7851    2.2128   31.1347 H   0  0  0  0  0
    3.8722    2.0794   30.6671 H   0  0  0  0  0
    7.7715    1.6029   28.9701 H   0  0  0  0  0
    5.3120    1.5349   28.7322 H   0  0  0  0  0
    8.4027    5.3353   35.4202 H   0  0  0  0  0
    8.2036    3.8425   38.0096 H   0  0  0  0  0
   10.4753    4.5012   38.4638 H   0  0  0  0  0
   10.5152    5.4826   36.9391 H   0  0  0  0  0
    9.0680    2.5440   37.1008 H   0  0  0  0  0
    6.2342    5.6469   37.6463 H   0  0  0  0  0
    7.1707    8.1414   38.9816 H   0  0  0  0  0
    5.8179    8.4410   36.9627 H   0  0  0  0  0
    4.5108    7.4663   37.6786 H   0  0  0  0  0
    4.9458    9.0369   38.3964 H   0  0  0  0  0
    4.2163    8.0000   39.6822 H   0  0  0  0  0
  1  2  1  0  0  0
  2  3  1  0  0  0
  2  5  1  0  0  0
  3  4  2  0  0  0
  3 10  1  0  0  0
  5  6  1  0  0  0
  6  7  1  0  0  0
  7  8  2  0  0  0
  7  9  1  0  0  0
 10 11  1  0  0  0
 11 12  1  0  0  0
 12 13  2  0  0  0
 12 14  1  0  0  0
 14 15  1  0  0  0
 15 16  1  0  0  0
 15 18  1  0  0  0
 16 17  2  0  0  0
 16 22  1  0  0  0
 18 19  1  0  0  0
 19 20  1  0  0  0
 19 21  1  0  0  0
 22 23  1  0  0  0
 23 24  1  0  0  0
 23 26  1  0  0  0
 24 25  2  0  0  0
 24 30  1  0  0  0
 26 27  1  0  0  0
 27 28  2  0  0  0
 27 29  1  0  0  0
 30 31  1  0  0  0
 31 32  1  0  0  0
 31 34  1  0  0  0
 32 33  2  0  0  0
 32 41  1  0  0  0
 34 35  1  0  0  0
 35 36  4  0  0  0
 35 37  4  0  0  0
 36 38  4  0  0  0
 37 39  4  0  0  0
 38 40  4  0  0  0
 39 40  4  0  0  0
 41 42  1  0  0  0
 42 43  1  0  0  0
 42 45  1  0  0  0
 43 44  2  0  0  0
 43 49  1  0  0  0
 45 46  1  0  0  0
 46 47  1  0  0  0
 46 48  1  0  0  0
 49 50  1  0  0  0
 50 51  1  0  0  0
 50 53  1  0  0  0
 51 52  2  0  0  0
 51 60  1  0  0  0
 53 54  1  0  0  0
 54 55  4  0  0  0
 54 56  4  0  0  0
 55 57  4  0  0  0
 56 58  4  0  0  0
 57 59  4  0  0  0
 58 59  4  0  0  0
 60 61  1  0  0  0
 61 62  1  0  0  0
 61 64  1  0  0  0
 62 63  2  0  0  0
 62 68  1  0  0  0
 64 65  1  0  0  0
 65 66  1  0  0  0
 65 67  2  0  0  0
 68 69  1  0  0  0
 69 70  1  0  0  0
 69 72  1  0  0  0
 70 71  2  0  0  0
 70 73  1  0  0  0
  1 74  1  0  0  0
  1 75  1  0  0  0
  1 76  1  0  0  0
  2 77  1  0  0  0
  5 78  1  0  0  0
  5 79  1  0  0  0
  6 80  1  0  0  0
  6 81  1  0  0  0
  9 82  1  0  0  0
 10 83  1  0  0  0
 11 84  1  0  0  0
 11 85  1  0  0  0
 14 86  1  0  0  0
 15 87  1  0  0  0
 18 88  1  0  0  0
 18 89  1  0  0  0
 19 90  1  0  0  0
 20 91  1  0  0  0
 20 92  1  0  0  0
 20 93  1  0  0  0
 21 94  1  0  0  0
 21 95  1  0  0  0
 21 96  1  0  0  0
 22 97  1  0  0  0
 23 98  1  0  0  0
 26 99  1  0  0  0
 26100  1  0  0  0
 29101  1  0  0  0
 30102  1  0  0  0
 31103  1  0  0  0
 34104  1  0  0  0
 34105  1  0  0  0
 36106  1  0  0  0
 37107  1  0  0  0
 38108  1  0  0  0
 39109  1  0  0  0
 40110  1  0  0  0
 41111  1  0  0  0
 42112  1  0  0  0
 45113  1  0  0  0
 45114  1  0  0  0
 46115  1  0  0  0
 47116  1  0  0  0
 47117  1  0  0  0
 47118  1  0  0  0
 48119  1  0  0  0
 48120  1  0  0  0
 48121  1  0  0  0
 49122  1  0  0  0
 50123  1  0  0  0
 53124  1  0  0  0
 53125  1  0  0  0
 55126  1  0  0  0
 56127  1  0  0  0
 57128  1  0  0  0
 58129  1  0  0  0
 59130  1  0  0  0
 60131  1  0  0  0
 61132  1  0  0  0
 64133  1  0  0  0
 64134  1  0  0  0
 66135  1  0  0  0
 68136  1  0  0  0
 69137  1  0  0  0
 72138  1  0  0  0
 72139  1  0  0  0
 72140  1  0  0  0
 73141  1  0  0  0
M  END
$$$$
