### 
### Created by X-TOOL on Mon Aug  2 16:14:26 2021
### 

@<TRIPOS>MOLECULE
6j7l_ligand
   38    39     1     0     0
SMALL
GAST_HUCK


@<TRIPOS>ATOM
      1 PA         65.2390    0.2000  104.9280 P.3       1 TYD         0.3276
      2 O1A        64.4920   -0.0110  103.6540 O.co2     1 TYD        -0.5556
      3 O2A        65.7130   -1.1020  105.5430 O.co2     1 TYD        -0.5556
      4 O3A        66.5780    1.1330  104.6520 O.3       1 TYD        -0.1548
      5 PB         67.3440    2.1420  105.7180 P.3       1 TYD         0.2069
      6 O1B        68.5670    2.6770  104.9860 O.co2     1 TYD        -0.5891
      7 O2B        66.4750    3.3040  106.1140 O.co2     1 TYD        -0.5891
      8 O3B        67.7480    1.3560  106.9510 O.co2     1 TYD        -0.5891
      9 O5'        64.2660    1.0100  105.9550 O.3       1 TYD        -0.2436
     10 C5'        63.5640    2.1670  105.4420 C.3       1 TYD         0.1131
     11 C4'        62.1870    2.1530  106.1150 C.3       1 TYD         0.1163
     12 O4'        61.5880    3.2660  105.9090 O.3       1 TYD        -0.3395
     13 C3'        61.2680    0.9630  105.4460 C.3       1 TYD         0.0889
     14 O3'        60.5890    0.2390  106.5490 O.3       1 TYD        -0.3890
     15 C2'        60.4790    1.5640  104.6760 C.3       1 TYD         0.0308
     16 C1'        60.2120    2.9180  105.4090 C.3       1 TYD         0.1757
     17 N1         59.7460    3.9380  104.6160 N.am      1 TYD        -0.1736
     18 C2         58.5850    4.5290  104.9710 C.2       1 TYD         0.3265
     19 O2         57.9790    4.1370  105.9570 O.2       1 TYD        -0.3843
     20 N3         58.0850    5.5770  104.2100 N.am      1 TYD        -0.1859
     21 C4         58.7450    5.9970  103.1300 C.2       1 TYD         0.1930
     22 O4         58.2980    6.9130  102.4730 O.2       1 TYD        -0.4079
     23 C5         59.9260    5.4100  102.7720 C.2       1 TYD         0.0225
     24 C5M        60.6840    5.9280  101.5020 C.3       1 TYD        -0.0437
     25 C6         60.4340    4.3650  103.5280 C.2       1 TYD         0.0524
     26 H1         63.4570    2.0967  104.3495 H         1 TYD         0.0648
     27 H2         64.1063    3.0889  105.6988 H         1 TYD         0.0648
     28 H3         62.3034    1.9813  107.1953 H         1 TYD         0.0650
     29 H4         61.8872    0.2571  104.8731 H         1 TYD         0.0622
     30 H5         60.0508   -0.4550  106.1867 H         1 TYD         0.2099
     31 H6         59.5458    0.9959  104.5480 H         1 TYD         0.0344
     32 H7         60.9425    1.7341  103.6931 H         1 TYD         0.0344
     33 H8         59.5072    2.7672  106.2400 H         1 TYD         0.0959
     34 H9         57.2270    6.0184  104.4726 H         1 TYD         0.2259
     35 H10        61.6077    5.3469  101.3639 H         1 TYD         0.0296
     36 H11        60.9356    6.9908  101.6332 H         1 TYD         0.0296
     37 H12        60.0408    5.8099  100.6175 H         1 TYD         0.0296
     38 H13        61.3752    3.8921  103.2513 H         1 TYD         0.1011
@<TRIPOS>BOND
     1    1    2 ar 
     2    1    3 ar 
     3    1    4 1  
     4    1    9 1  
     5    4    5 1  
     6    5    6 ar 
     7    5    7 ar 
     8    5    8 ar 
     9    9   10 1  
    10   10   11 1  
    11   11   12 1  
    12   11   13 1  
    13   12   16 1  
    14   13   14 1  
    15   13   15 1  
    16   15   16 1  
    17   16   17 1  
    18   17   18 am 
    19   17   25 1  
    20   18   19 2  
    21   18   20 am 
    22   20   21 am 
    23   21   22 2  
    24   21   23 1  
    25   23   24 1  
    26   23   25 2  
    27   10   26 1  
    28   10   27 1  
    29   11   28 1  
    30   13   29 1  
    31   14   30 1  
    32   15   31 1  
    33   15   32 1  
    34   16   33 1  
    35   20   34 1  
    36   24   35 1  
    37   24   36 1  
    38   24   37 1  
    39   25   38 1  
@<TRIPOS>SUBSTRUCTURE
     1 TYD         1

