6j7l_ligand
  -I-interpret- 

 41 42  0  0  0  0  0  0  0  0999 V2000
   65.2390    0.2000  104.9280 P   0  0  0  0  0
   64.4920   -0.0110  103.6540 O   0  0  0  0  0
   65.7130   -1.1020  105.5430 O   0  0  0  0  0
   66.5780    1.1330  104.6520 O   0  0  0  0  0
   67.3440    2.1420  105.7180 P   0  0  0  0  0
   68.5670    2.6770  104.9860 O   0  0  0  0  0
   66.4750    3.3040  106.1140 O   0  0  0  0  0
   67.7480    1.3560  106.9510 O   0  0  0  0  0
   64.2660    1.0100  105.9550 O   0  0  0  0  0
   63.5640    2.1670  105.4420 C   0  0  0  0  0
   62.1870    2.1530  106.1150 C   0  0  0  0  0
   61.5880    3.2660  105.9090 O   0  0  0  0  0
   61.2680    0.9630  105.4460 C   0  0  0  0  0
   60.5890    0.2390  106.5490 O   0  0  0  0  0
   60.4790    1.5640  104.6760 C   0  0  0  0  0
   60.2120    2.9180  105.4090 C   0  0  0  0  0
   59.7460    3.9380  104.6160 N   0  0  0  0  0
   58.5850    4.5290  104.9710 C   0  0  0  0  0
   57.9790    4.1370  105.9570 O   0  0  0  0  0
   58.0850    5.5770  104.2100 N   0  0  0  0  0
   58.7450    5.9970  103.1300 C   0  0  0  0  0
   58.2980    6.9130  102.4730 O   0  0  0  0  0
   59.9260    5.4100  102.7720 C   0  0  0  0  0
   60.6840    5.9280  101.5020 C   0  0  0  0  0
   60.4340    4.3650  103.5280 C   0  0  0  0  0
   66.1863   -0.9163  106.3573 H   0  0  0  0  0
   69.1302    1.9437  104.7278 H   0  0  0  0  0
   68.3020    0.6166  106.6904 H   0  0  0  0  0
   63.4749    2.1273  104.3564 H   0  0  0  0  0
   64.1036    3.0880  105.6627 H   0  0  0  0  0
   62.3227    1.9882  107.1839 H   0  0  0  0  0
   61.8224    0.2128  104.8821 H   0  0  0  0  0
   60.0452   -0.4623  106.1829 H   0  0  0  0  0
   59.5638    1.0007  104.4937 H   0  0  0  0  0
   60.8955    1.7046  103.6786 H   0  0  0  0  0
   59.4289    2.8052  106.1587 H   0  0  0  0  0
   57.2098    6.0273  104.4779 H   0  0  0  0  0
   61.6747    6.2798  101.7900 H   0  0  0  0  0
   60.7807    5.1157  100.7816 H   0  0  0  0  0
   60.1220    6.7476  101.0541 H   0  0  0  0  0
   61.3760    3.8917  103.2511 H   0  0  0  0  0
  1  2  2  0  0  0
  1  3  1  0  0  0
  1  4  1  0  0  0
  1  9  1  0  0  0
  4  5  1  0  0  0
  5  6  1  0  0  0
  5  7  2  0  0  0
  5  8  1  0  0  0
  9 10  1  0  0  0
 10 11  1  0  0  0
 11 12  1  0  0  0
 11 13  1  0  0  0
 12 16  1  0  0  0
 13 14  1  0  0  0
 13 15  1  0  0  0
 15 16  1  0  0  0
 16 17  1  0  0  0
 17 18  1  0  0  0
 17 25  1  0  0  0
 18 19  2  0  0  0
 18 20  1  0  0  0
 20 21  1  0  0  0
 21 22  2  0  0  0
 21 23  1  0  0  0
 23 24  1  0  0  0
 23 25  2  0  0  0
  3 26  1  0  0  0
  6 27  1  0  0  0
  8 28  1  0  0  0
 10 29  1  0  0  0
 10 30  1  0  0  0
 11 31  1  0  0  0
 13 32  1  0  0  0
 14 33  1  0  0  0
 15 34  1  0  0  0
 15 35  1  0  0  0
 16 36  1  0  0  0
 20 37  1  0  0  0
 24 38  1  0  0  0
 24 39  1  0  0  0
 24 40  1  0  0  0
 25 41  1  0  0  0
M  END
$$$$
