5nat_ligand
  -I-interpret- 

 53 56  0  0  0  0  0  0  0  0999 V2000
    7.4340   -9.8460   10.5760 C   0  0  0  0  0
    0.4210   -8.4030    4.7250 C   0  0  0  0  0
    0.7850   -9.7140    4.3860 C   0  0  0  0  0
    1.5540   -9.9100    3.2250 C   0  0  0  0  0
    1.9400   -8.8290    2.4150 C   0  0  0  0  0
    1.5850   -7.5200    2.7650 C   0  0  0  0  0
    0.5610   -4.8680    3.8880 C   0  0  0  0  0
    4.6100  -13.3560   10.2550 C   0  0  0  0  0
    5.7420  -12.6570   10.6620 C   0  0  0  0  0
    1.0400  -10.7910    9.8960 C   0  0  0  0  0
   -0.1940   -9.9690   10.1970 C   0  0  0  0  0
   -2.2250  -10.2500    8.8190 C   0  0  0  0  0
   -2.5750  -10.4620   10.3070 C   0  0  0  0  0
   -1.2210  -10.8470   10.9490 C   0  0  0  0  0
    8.4780   -9.3010   11.2470 F   0  0  0  0  0
    7.8430  -10.6290    9.5320 F   0  0  0  0  0
    6.6310   -8.8500   10.1390 F   0  0  0  0  0
    6.7410  -10.6270   11.5270 O   0  0  0  0  0
    5.6310  -11.3430   11.1110 C   0  0  0  0  0
    4.3980  -10.7020   11.1490 C   0  0  0  0  0
    3.2710  -11.3850   10.7260 C   0  0  0  0  0
    3.3690  -12.7170   10.2830 C   0  0  0  0  0
    2.0360  -10.6990   10.7960 N   0  0  0  0  0
    1.0950  -11.4770    8.8760 O   0  0  0  0  0
   -0.9080   -9.6440    8.9740 N   0  0  0  0  0
   -0.3240   -8.8460    8.0280 C   0  0  0  0  0
    0.7780   -8.3800    8.2810 O   0  0  0  0  0
   -0.9180   -8.4750    6.8530 N   0  0  0  0  0
   -0.3640   -7.7410    5.8360 C   0  0  0  0  0
   -0.3400   -6.4220    5.5860 C   0  0  0  0  0
    0.3500   -6.1940    4.4770 N   0  0  0  0  0
    0.8100   -7.3370    3.9290 C   0  0  0  0  0
    0.4804  -10.5578    5.0052 H   0  0  0  0  0
    1.8563  -10.9200    2.9483 H   0  0  0  0  0
    2.5189   -9.0099    1.5093 H   0  0  0  0  0
    1.8975   -6.6706    2.1576 H   0  0  0  0  0
   -0.4033   -4.4241    3.6406 H   0  0  0  0  0
    1.0820   -4.2325    4.6041 H   0  0  0  0  0
    1.1606   -4.9651    2.9830 H   0  0  0  0  0
    4.6910  -14.3896    9.9185 H   0  0  0  0  0
    6.7190  -13.1392   10.6294 H   0  0  0  0  0
    0.1428   -9.0898   10.7462 H   0  0  0  0  0
   -2.9429   -9.6492    8.2606 H   0  0  0  0  0
   -2.2445  -11.1541    8.2105 H   0  0  0  0  0
   -3.3368  -11.2282   10.4506 H   0  0  0  0  0
   -3.0143   -9.5743   10.7621 H   0  0  0  0  0
   -1.2072  -10.6729   12.0249 H   0  0  0  0  0
   -1.0048  -11.9112   10.8555 H   0  0  0  0  0
    4.3199   -9.6755   11.5071 H   0  0  0  0  0
    2.4747  -13.2507    9.9612 H   0  0  0  0  0
    1.8881  -10.0831   11.5955 H   0  0  0  0  0
   -1.8823   -8.7788    6.7181 H   0  0  0  0  0
   -0.8146   -5.6567    6.2001 H   0  0  0  0  0
  1 15  1  0  0  0
  1 16  1  0  0  0
  1 17  1  0  0  0
 18  1  1  0  0  0
  2  3  4  0  0  0
 29  2  4  0  0  0
  2 32  4  0  0  0
  3  4  4  0  0  0
  4  5  4  0  0  0
  6  5  4  0  0  0
 32  6  4  0  0  0
 31  7  1  0  0  0
  8  9  4  0  0  0
 22  8  4  0  0  0
 19  9  4  0  0  0
 11 10  1  0  0  0
 10 23  1  0  0  0
 10 24  2  0  0  0
 11 14  1  0  0  0
 25 11  1  0  0  0
 12 13  1  0  0  0
 25 12  1  0  0  0
 13 14  1  0  0  0
 19 18  1  0  0  0
 20 19  4  0  0  0
 21 20  4  0  0  0
 21 22  4  0  0  0
 23 21  1  0  0  0
 26 25  1  0  0  0
 26 27  2  0  0  0
 28 26  1  0  0  0
 29 28  1  0  0  0
 30 29  4  0  0  0
 30 31  4  0  0  0
 31 32  4  0  0  0
  3 33  1  0  0  0
  4 34  1  0  0  0
  5 35  1  0  0  0
  6 36  1  0  0  0
  7 37  1  0  0  0
  7 38  1  0  0  0
  7 39  1  0  0  0
  8 40  1  0  0  0
  9 41  1  0  0  0
 11 42  1  0  0  0
 12 43  1  0  0  0
 12 44  1  0  0  0
 13 45  1  0  0  0
 13 46  1  0  0  0
 14 47  1  0  0  0
 14 48  1  0  0  0
 20 49  1  0  0  0
 22 50  1  0  0  0
 23 51  1  0  0  0
 28 52  1  0  0  0
 30 53  1  0  0  0
M  END
$$$$
