### 
### Created by X-TOOL on Mon Sep 10 21:12:57 2018
### 

@<TRIPOS>MOLECULE
2odd_ligand
  196   198     1     0     0
SMALL
GAST_HUCK


@<TRIPOS>ATOM
      1 N          -6.7830   11.6360    5.8180 N.4       1 THR         0.2398
      2 CA         -8.2590   11.5380    5.9650 C.3       1 THR         0.0910
      3 C          -8.7930   10.2620    5.3200 C.2       1 THR         0.2293
      4 O          -9.6300   10.3120    4.4180 O.2       1 THR        -0.3906
      5 CB         -8.8960   12.7670    5.3150 C.3       1 THR         0.1120
      6 OG1       -10.3090   12.6990    5.3890 O.3       1 THR        -0.3840
      7 CG2        -8.5200   12.9350    3.8580 C.3       1 THR        -0.0314
      8 H1         -6.4579   12.4858    6.2518 H         1 THR         0.2016
      9 H2         -6.5427   11.6452    4.8391 H         1 THR         0.2016
     10 H3         -6.3476   10.8435    6.2635 H         1 THR         0.2016
     11 H4         -8.5120   11.5236    7.0354 H         1 THR         0.1125
     12 H5         -8.5528   13.6547    5.8666 H         1 THR         0.0674
     13 H6        -10.6164   11.9580    4.8800 H         1 THR         0.2102
     14 H7         -9.0098   13.8334    3.4542 H         1 THR         0.0258
     15 N          -8.3030    9.1200    5.7910 N.am      1 ILE        -0.2607
     16 CA         -8.7290    7.8290    5.2610 C.3       1 ILE         0.1336
     17 C          -8.9530    6.8250    6.3860 C.2       1 ILE         0.2042
     18 O          -8.4540    7.0000    7.4980 O.2       1 ILE        -0.3944
     19 CB         -7.6940    7.2570    4.2750 C.3       1 ILE        -0.0037
     20 CG1        -7.2760    8.3250    3.2630 C.3       1 ILE        -0.0491
     21 CG2        -8.2560    6.0360    3.5630 C.3       1 ILE        -0.0582
     22 CD1        -6.0200    7.9710    2.4950 C.3       1 ILE        -0.0648
     23 H8         -8.8484   12.0519    3.2904 H         1 THR         0.0258
     24 H9         -7.4287   13.0419    3.7709 H         1 THR         0.0258
     25 H10        -7.6259    9.1461    6.5265 H         1 ILE         0.1885
     26 H11        -9.6788    7.9745    4.7257 H         1 ILE         0.0803
     27 H12        -6.8041    6.9490    4.8435 H         1 ILE         0.0345
     28 H13        -7.0997    9.2667    3.8034 H         1 ILE         0.0267
     29 H14        -8.0966    8.4631    2.5436 H         1 ILE         0.0267
     30 H15        -8.5502    5.2809    4.3068 H         1 ILE         0.0235
     31 H16        -7.4889    5.6147    2.8966 H         1 ILE         0.0235
     32 H17        -9.1353    6.3293    2.9707 H         1 ILE         0.0235
     33 H18        -5.7812    8.7806    1.7896 H         1 ILE         0.0230
     34 N          -9.7070    5.7700    6.0910 N.am      1 SER        -0.2616
     35 CA         -9.9980    4.7350    7.0790 C.3       1 SER         0.1539
     36 C          -8.7110    4.1580    7.6610 C.2       1 SER         0.2063
     37 O          -7.6170    4.6520    7.3870 O.2       1 SER        -0.3943
     38 CB        -10.8310    3.6180    6.4460 C.3       1 SER         0.0843
     39 OG        -11.8080    3.1350    7.3520 O.3       1 SER        -0.3903
     40 H19        -6.1816    7.0359    1.9388 H         1 ILE         0.0230
     41 H20        -5.1848    7.8395    3.1986 H         1 ILE         0.0230
     42 H21       -10.0843    5.6833    5.1690 H         1 SER         0.1884
     43 H22       -10.5789    5.1873    7.8963 H         1 SER         0.0823
     44 H23       -10.1649    2.7903    6.1610 H         1 SER         0.0606
     45 N          -8.8510    3.1120    8.4690 N.am      1 ASN        -0.2615
     46 CA         -7.6990    2.4690    9.0920 C.3       1 ASN         0.1478
     47 C          -7.3580    1.1570    8.3850 C.2       1 ASN         0.2088
     48 O          -8.1320    0.2020    8.4320 O.2       1 ASN        -0.3940
     49 CB         -7.9790    2.2040   10.5730 C.3       1 ASN         0.0773
     50 CG         -7.4180    3.2890   11.4710 C.2       1 ASN         0.1780
     51 OD1        -6.5690    4.0780   11.0550 O.2       1 ASN        -0.3970
     52 ND2        -7.8900    3.3330   12.7110 N.am      1 ASN        -0.3007
     53 H24       -11.3344    4.0090    5.5495 H         1 SER         0.0606
     54 H25       -12.3102    2.4442    6.9358 H         1 SER         0.2097
     55 H26        -9.7675    2.7574    8.6543 H         1 ASN         0.1885
     56 H27        -6.8353    3.1454    9.0114 H         1 ASN         0.0826
     57 H28        -7.5221    1.2432   10.8524 H         1 ASN         0.0551
     58 H29        -9.0674    2.1497   10.7224 H         1 ASN         0.0551
     59 N          -6.1900    1.0890    7.7200 N.am      1 PRO        -0.2497
     60 CA         -5.7590   -0.1180    7.0080 C.3       1 PRO         0.1340
     61 C          -5.4370   -1.2680    7.9600 C.2       1 PRO         0.2066
     62 O          -5.1110   -1.0460    9.1260 O.2       1 PRO        -0.3942
     63 CB         -4.4960    0.3310    6.2680 C.3       1 PRO        -0.0104
     64 CG         -3.9860    1.4850    7.0570 C.3       1 PRO        -0.0281
     65 CD         -5.1990    2.1770    7.6080 C.3       1 PRO         0.0369
     66 H30        -7.5566    4.0276   13.3485 H         1 ASN         0.1814
     67 H31        -8.5789    2.6716   13.0075 H         1 ASN         0.1814
     68 H32        -6.5340   -0.4433    6.2984 H         1 PRO         0.0802
     69 H33        -4.7377    0.6403    5.2404 H         1 PRO         0.0313
     70 H34        -3.7529   -0.4796    6.2418 H         1 PRO         0.0313
     71 H35        -3.3415    1.1331    7.8760 H         1 PRO         0.0287
     72 H36        -3.4166    2.1686    6.4101 H         1 PRO         0.0287
     73 N          -5.5230   -2.5170    7.4710 N.am      1 PRO        -0.2498
     74 CA         -5.2390   -3.7050    8.2840 C.3       1 PRO         0.1340
     75 C          -3.8830   -3.6190    8.9810 C.2       1 PRO         0.2066
     76 O          -3.0750   -2.7400    8.6780 O.2       1 PRO        -0.3942
     77 CB         -5.2460   -4.8440    7.2630 C.3       1 PRO        -0.0104
     78 CG         -6.1180   -4.3560    6.1600 C.3       1 PRO        -0.0281
     79 CD         -5.9050   -2.8700    6.0910 C.3       1 PRO         0.0369
     80 H37        -4.9868    2.6195    8.5925 H         1 PRO         0.0524
     81 H38        -5.5509    2.9612    6.9216 H         1 PRO         0.0524
     82 H39        -6.0243   -3.8514    9.0402 H         1 PRO         0.0802
     83 H40        -5.6595   -5.7612    7.7076 H         1 PRO         0.0313
     84 H41        -4.2284   -5.0414    6.8948 H         1 PRO         0.0313
     85 H42        -5.8312   -4.8279    5.2087 H         1 PRO         0.0287
     86 H43        -7.1723   -4.5814    6.3780 H         1 PRO         0.0287
     87 N          -3.6150   -4.5340    9.9290 N.am      1 PRO        -0.2498
     88 CA         -2.3480   -4.5560   10.6690 C.3       1 PRO         0.1338
     89 C          -1.1710   -4.9790    9.7970 C.2       1 PRO         0.2041
     90 O          -1.3500   -5.6250    8.7640 O.2       1 PRO        -0.3944
     91 CB         -2.5980   -5.5910   11.7690 C.3       1 PRO        -0.0104
     92 CG         -3.6490   -6.4870   11.2140 C.3       1 PRO        -0.0281
     93 CD         -4.5230   -5.6170   10.3530 C.3       1 PRO         0.0369
     94 H44        -5.1009   -2.6198    5.3834 H         1 PRO         0.0524
     95 H45        -6.8292   -2.3530    5.7936 H         1 PRO         0.0524
     96 H46        -2.1380   -3.5667   11.1016 H         1 PRO         0.0802
     97 H47        -2.9515   -5.1018   12.6886 H         1 PRO         0.0313
     98 H48        -1.6799   -6.1573   11.9845 H         1 PRO         0.0313
     99 H49        -3.1914   -7.2850   10.6109 H         1 PRO         0.0287
    100 H50        -4.2384   -6.9346   12.0278 H         1 PRO         0.0287
    101 N           0.0340   -4.6110   10.2220 N.am      1 LEU        -0.2637
    102 CA          1.2430   -4.9540    9.4820 C.3       1 LEU         0.1312
    103 C           1.9020   -6.2000   10.0640 C.2       1 LEU         0.2039
    104 O           1.8660   -6.4250   11.2740 O.2       1 LEU        -0.3944
    105 CB          2.2300   -3.7830    9.5080 C.3       1 LEU        -0.0101
    106 CG          2.0670   -2.7680    8.3750 C.3       1 LEU        -0.0425
    107 CD1         2.8510   -1.4990    8.6750 C.3       1 LEU        -0.0625
    108 CD2         2.5140   -3.3710    7.0510 C.3       1 LEU        -0.0625
    109 H51        -4.9014   -6.1761    9.4846 H         1 PRO         0.0524
    110 H52        -5.3703   -5.2173   10.9294 H         1 PRO         0.0524
    111 H53         0.1132   -4.0863   11.0696 H         1 LEU         0.1883
    112 H54         0.9665   -5.1594    8.4373 H         1 LEU         0.0800
    113 H55         3.2484   -4.1950    9.4517 H         1 LEU         0.0315
    114 H56         2.1018   -3.2511   10.4623 H         1 LEU         0.0315
    115 H57         1.0016   -2.5062    8.2948 H         1 LEU         0.0298
    116 H58         2.7206   -0.7837    7.8496 H         1 LEU         0.0232
    117 H59         3.9179   -1.7440    8.7827 H         1 LEU         0.0232
    118 H60         2.4812   -1.0518    9.6095 H         1 LEU         0.0232
    119 H61         1.9370   -4.2860    6.8515 H         1 LEU         0.0232
    120 N           2.5100   -7.0040    9.1980 N.am      1 ILE        -0.2635
    121 CA          3.1840   -8.2240    9.6300 C.3       1 ILE         0.1335
    122 C           4.6860   -8.1260    9.4020 C.2       1 ILE         0.2042
    123 O           5.1380   -7.9050    8.2790 O.2       1 ILE        -0.3944
    124 CB          2.6480   -9.4730    8.8940 C.3       1 ILE        -0.0037
    125 CG1         2.1670   -9.1180    7.4880 C.3       1 ILE        -0.0491
    126 CG2         1.5240  -10.1130    9.6890 C.3       1 ILE        -0.0582
    127 CD1         1.9450  -10.3250    6.6030 C.3       1 ILE        -0.0648
    128 H62         3.5849   -3.6169    7.1030 H         1 LEU         0.0232
    129 H63         2.3431   -2.6460    6.2416 H         1 LEU         0.0232
    130 H64         2.5055   -6.7671    8.2265 H         1 ILE         0.1883
    131 H65         3.0001   -8.3503   10.7071 H         1 ILE         0.0803
    132 H66         3.4688  -10.1998    8.8049 H         1 ILE         0.0345
    133 H67         2.9218   -8.4732    7.0143 H         1 ILE         0.0267
    134 H68         1.2174   -8.5694    7.5731 H         1 ILE         0.0267
    135 H69         1.8845  -10.3628   10.6978 H         1 ILE         0.0235
    136 H70         1.1915  -11.0302    9.1809 H         1 ILE         0.0235
    137 H71         0.6816   -9.4097    9.7645 H         1 ILE         0.0235
    138 H72         1.6013   -9.9945    5.6117 H         1 ILE         0.0230
    139 N           5.4590   -8.2960   10.4680 N.am      1 SER        -0.2616
    140 CA          6.9110   -8.2290   10.3690 C.3       1 SER         0.1539
    141 C           7.5030   -9.6140   10.1560 C.2       1 SER         0.2062
    142 O           7.2220  -10.5440   10.9130 O.2       1 SER        -0.3943
    143 CB          7.5070   -7.5990   11.6280 C.3       1 SER         0.0843
    144 OG          6.6740   -7.8200   12.7540 O.3       1 SER        -0.3903
    145 H73         1.1839  -10.9771    7.0563 H         1 ILE         0.0230
    146 H74         2.8883  -10.8808    6.4975 H         1 ILE         0.0230
    147 H75         5.0361   -8.4736   11.3566 H         1 SER         0.1884
    148 H76         7.1716   -7.6003    9.5048 H         1 SER         0.0823
    149 H77         7.6172   -6.5160   11.4700 H         1 SER         0.0606
    150 N           8.3280   -9.7450    9.1260 N.am      1 SER        -0.2615
    151 CA          8.9670  -11.0160    8.8170 C.3       1 SER         0.1539
    152 C          10.4710  -10.9220    9.0320 C.2       1 SER         0.2062
    153 O          11.0750   -9.8730    8.8080 O.2       1 SER        -0.3943
    154 CB          8.6660  -11.4310    7.3770 C.3       1 SER         0.0843
    155 OG          9.3570  -12.6200    7.0330 O.3       1 SER        -0.3903
    156 H78         8.4946   -8.0440   11.8192 H         1 SER         0.0606
    157 H79         7.0668   -7.4193   13.5206 H         1 SER         0.2097
    158 H80         8.5157   -8.9513    8.5474 H         1 SER         0.1884
    159 H81         8.5636  -11.7832    9.4942 H         1 SER         0.0823
    160 H82         8.9791  -10.6244    6.6978 H         1 SER         0.0606
    161 N          11.0680  -12.0200    9.4720 N.am      1 ALA        -0.2639
    162 CA         12.5030  -12.0570    9.7240 C.3       1 ALA         0.1282
    163 C          12.9550  -13.4570   10.1250 C.2       1 ALA         0.2037
    164 O          12.3460  -14.0970   10.9810 O.2       1 ALA        -0.3944
    165 CB         12.8690  -11.0480   10.8040 C.3       1 ALA        -0.0244
    166 H83         7.5844  -11.6007    7.2707 H         1 SER         0.0606
    167 H84         9.1529  -12.8551    6.1355 H         1 SER         0.2097
    168 H85        10.5218  -12.8417    9.6348 H         1 ALA         0.1883
    169 H86        13.0247  -11.7792    8.7963 H         1 ALA         0.0797
    170 H87        13.9531  -11.0836   10.9868 H         1 ALA         0.0277
    171 N          14.0310  -13.9250    9.4990 N.am      1 LYS        -0.2624
    172 CA         14.5680  -15.2500    9.7900 C.3       1 LYS         0.1420
    173 C          16.0480  -15.1680   10.1460 C.2       1 LYS         0.2571
    174 O          16.6640  -14.1060   10.0480 O.2       1 LYS        -0.3680
    175 CB         14.3700  -16.1780    8.5900 C.3       1 LYS        -0.0109
    176 CG         12.9620  -16.7400    8.4810 C.3       1 LYS        -0.0439
    177 CD         12.6900  -17.7740    9.5600 C.3       1 LYS        -0.0124
    178 CE         13.3900  -19.0900    9.2590 C.3       1 LYS        -0.0354
    179 NZ         12.7630  -19.8030    8.1140 N.4       1 LYS         0.2185
    180 H88        12.3325  -11.2936   11.7323 H         1 ALA         0.0277
    181 H89        12.5859  -10.0378   10.4732 H         1 ALA         0.0277
    182 H90        14.4828  -13.3552    8.8125 H         1 LYS         0.1885
    183 H91        14.0234  -15.6661   10.6504 H         1 LYS         0.0816
    184 H92        15.0738  -17.0185    8.6805 H         1 LYS         0.0313
    185 H93        14.5905  -15.6123    7.6728 H         1 LYS         0.0313
    186 H94        12.8410  -17.2122    7.4949 H         1 LYS         0.0269
    187 H95        12.2396  -15.9169    8.5846 H         1 LYS         0.0269
    188 H96        11.6061  -17.9512    9.6203 H         1 LYS         0.0317
    189 H97        13.0527  -17.3885   10.5243 H         1 LYS         0.0317
    190 H98        13.3371  -19.7328   10.1501 H         1 LYS         0.0813
    191 H99        14.4432  -18.8852    9.0166 H         1 LYS         0.0813
    192 H100       13.2540  -20.6673    7.9469 H         1 LYS         0.1994
    193 O1         16.6826  -16.2580   10.5681 O.3       1 LYS        -0.2910
    194 H101       12.8119  -19.2241    7.2903 H         1 LYS         0.1994
    195 H102       11.7983  -20.0008    8.3290 H         1 LYS         0.1994
    196 H103       17.0260  -16.1052   11.4406 H         1 LYS         0.2540
@<TRIPOS>BOND
     1    2    1 1  
     2    2    5 1  
     3    3    2 1  
     4    3    4 2  
     5    5    7 1  
     6    5    6 1  
     7    1    8 1  
     8    1    9 1  
     9    1   10 1  
    10    2   11 1  
    11    5   12 1  
    12    6   13 1  
    13    7   14 1  
    14   16   15 1  
    15   16   19 1  
    16   17   16 1  
    17   17   18 2  
    18   19   21 1  
    19   19   20 1  
    20   20   22 1  
    21    7   23 1  
    22    7   24 1  
    23   15   25 1  
    24   16   26 1  
    25   19   27 1  
    26   20   28 1  
    27   20   29 1  
    28   21   30 1  
    29   21   31 1  
    30   21   32 1  
    31   22   33 1  
    32   15    3 am 
    33   35   34 1  
    34   35   38 1  
    35   36   35 1  
    36   36   37 2  
    37   38   39 1  
    38   22   40 1  
    39   22   41 1  
    40   34   42 1  
    41   35   43 1  
    42   38   44 1  
    43   34   17 am 
    44   46   45 1  
    45   46   49 1  
    46   47   46 1  
    47   47   48 2  
    48   49   50 1  
    49   50   52 am 
    50   50   51 2  
    51   38   53 1  
    52   39   54 1  
    53   45   55 1  
    54   46   56 1  
    55   49   57 1  
    56   49   58 1  
    57   45   36 am 
    58   61   60 1  
    59   60   63 1  
    60   60   59 1  
    61   59   65 1  
    62   65   64 1  
    63   63   64 1  
    64   61   62 2  
    65   52   66 1  
    66   52   67 1  
    67   60   68 1  
    68   63   69 1  
    69   63   70 1  
    70   64   71 1  
    71   64   72 1  
    72   59   47 am 
    73   75   74 1  
    74   74   77 1  
    75   74   73 1  
    76   73   79 1  
    77   79   78 1  
    78   77   78 1  
    79   75   76 2  
    80   65   80 1  
    81   65   81 1  
    82   74   82 1  
    83   77   83 1  
    84   77   84 1  
    85   78   85 1  
    86   78   86 1  
    87   73   61 am 
    88   89   88 1  
    89   88   91 1  
    90   88   87 1  
    91   87   93 1  
    92   93   92 1  
    93   91   92 1  
    94   89   90 2  
    95   79   94 1  
    96   79   95 1  
    97   88   96 1  
    98   91   97 1  
    99   91   98 1  
   100   92   99 1  
   101   92  100 1  
   102   87   75 am 
   103  102  101 1  
   104  102  105 1  
   105  103  102 1  
   106  103  104 2  
   107  105  106 1  
   108  106  107 1  
   109  106  108 1  
   110   93  109 1  
   111   93  110 1  
   112  101  111 1  
   113  102  112 1  
   114  105  113 1  
   115  105  114 1  
   116  106  115 1  
   117  107  116 1  
   118  107  117 1  
   119  107  118 1  
   120  108  119 1  
   121  101   89 am 
   122  121  120 1  
   123  121  124 1  
   124  122  121 1  
   125  122  123 2  
   126  124  126 1  
   127  124  125 1  
   128  125  127 1  
   129  108  128 1  
   130  108  129 1  
   131  120  130 1  
   132  121  131 1  
   133  124  132 1  
   134  125  133 1  
   135  125  134 1  
   136  126  135 1  
   137  126  136 1  
   138  126  137 1  
   139  127  138 1  
   140  120  103 am 
   141  140  139 1  
   142  140  143 1  
   143  141  140 1  
   144  141  142 2  
   145  143  144 1  
   146  127  145 1  
   147  127  146 1  
   148  139  147 1  
   149  140  148 1  
   150  143  149 1  
   151  139  122 am 
   152  151  150 1  
   153  151  154 1  
   154  152  151 1  
   155  152  153 2  
   156  154  155 1  
   157  143  156 1  
   158  144  157 1  
   159  150  158 1  
   160  151  159 1  
   161  154  160 1  
   162  150  141 am 
   163  162  161 1  
   164  162  165 1  
   165  163  162 1  
   166  163  164 2  
   167  154  166 1  
   168  155  167 1  
   169  161  168 1  
   170  162  169 1  
   171  165  170 1  
   172  161  152 am 
   173  171  172 1  
   174  172  175 1  
   175  172  173 1  
   176  173  174 2  
   177  175  176 1  
   178  176  177 1  
   179  177  178 1  
   180  178  179 1  
   181  165  180 1  
   182  165  181 1  
   183  171  182 1  
   184  172  183 1  
   185  175  184 1  
   186  175  185 1  
   187  176  186 1  
   188  176  187 1  
   189  177  188 1  
   190  177  189 1  
   191  178  190 1  
   192  178  191 1  
   193  179  192 1  
   194  163  171 am 
   195  173  193 1  
   196  179  194 1  
   197  179  195 1  
   198  193  196 1  
@<TRIPOS>SUBSTRUCTURE
     1 THR         1

