2odd_ligand
  -I-interpret- 

196198  0  0  0  0  0  0  0  0999 V2000
   -6.7830   11.6360    5.8180 N   0  3  0  0  0
   -8.2590   11.5380    5.9650 C   0  0  0  0  0
   -8.7930   10.2620    5.3200 C   0  0  0  0  0
   -9.6300   10.3120    4.4180 O   0  0  0  0  0
   -8.8960   12.7670    5.3150 C   0  0  0  0  0
  -10.3090   12.6990    5.3890 O   0  0  0  0  0
   -8.5200   12.9350    3.8580 C   0  0  0  0  0
   -8.3030    9.1200    5.7910 N   0  0  0  0  0
   -8.7290    7.8290    5.2610 C   0  0  0  0  0
   -8.9530    6.8250    6.3860 C   0  0  0  0  0
   -8.4540    7.0000    7.4980 O   0  0  0  0  0
   -7.6940    7.2570    4.2750 C   0  0  0  0  0
   -7.2760    8.3250    3.2630 C   0  0  0  0  0
   -8.2560    6.0360    3.5630 C   0  0  0  0  0
   -6.0200    7.9710    2.4950 C   0  0  0  0  0
   -9.7070    5.7700    6.0910 N   0  0  0  0  0
   -9.9980    4.7350    7.0790 C   0  0  0  0  0
   -8.7110    4.1580    7.6610 C   0  0  0  0  0
   -7.6170    4.6520    7.3870 O   0  0  0  0  0
  -10.8310    3.6180    6.4460 C   0  0  0  0  0
  -11.8080    3.1350    7.3520 O   0  0  0  0  0
   -8.8510    3.1120    8.4690 N   0  0  0  0  0
   -7.6990    2.4690    9.0920 C   0  0  0  0  0
   -7.3580    1.1570    8.3850 C   0  0  0  0  0
   -8.1320    0.2020    8.4320 O   0  0  0  0  0
   -7.9790    2.2040   10.5730 C   0  0  0  0  0
   -7.4180    3.2890   11.4710 C   0  0  0  0  0
   -6.5690    4.0780   11.0550 O   0  0  0  0  0
   -7.8900    3.3330   12.7110 N   0  0  0  0  0
   -6.1900    1.0890    7.7200 N   0  0  0  0  0
   -5.7590   -0.1180    7.0080 C   0  0  0  0  0
   -5.4370   -1.2680    7.9600 C   0  0  0  0  0
   -5.1110   -1.0460    9.1260 O   0  0  0  0  0
   -4.4960    0.3310    6.2680 C   0  0  0  0  0
   -3.9860    1.4850    7.0570 C   0  0  0  0  0
   -5.1990    2.1770    7.6080 C   0  0  0  0  0
   -5.5230   -2.5170    7.4710 N   0  0  0  0  0
   -5.2390   -3.7050    8.2840 C   0  0  0  0  0
   -3.8830   -3.6190    8.9810 C   0  0  0  0  0
   -3.0750   -2.7400    8.6780 O   0  0  0  0  0
   -5.2460   -4.8440    7.2630 C   0  0  0  0  0
   -6.1180   -4.3560    6.1600 C   0  0  0  0  0
   -5.9050   -2.8700    6.0910 C   0  0  0  0  0
   -3.6150   -4.5340    9.9290 N   0  0  0  0  0
   -2.3480   -4.5560   10.6690 C   0  0  0  0  0
   -1.1710   -4.9790    9.7970 C   0  0  0  0  0
   -1.3500   -5.6250    8.7640 O   0  0  0  0  0
   -2.5980   -5.5910   11.7690 C   0  0  0  0  0
   -3.6490   -6.4870   11.2140 C   0  0  0  0  0
   -4.5230   -5.6170   10.3530 C   0  0  0  0  0
    0.0340   -4.6110   10.2220 N   0  0  0  0  0
    1.2430   -4.9540    9.4820 C   0  0  0  0  0
    1.9020   -6.2000   10.0640 C   0  0  0  0  0
    1.8660   -6.4250   11.2740 O   0  0  0  0  0
    2.2300   -3.7830    9.5080 C   0  0  0  0  0
    2.0670   -2.7680    8.3750 C   0  0  0  0  0
    2.8510   -1.4990    8.6750 C   0  0  0  0  0
    2.5140   -3.3710    7.0510 C   0  0  0  0  0
    2.5100   -7.0040    9.1980 N   0  0  0  0  0
    3.1840   -8.2240    9.6300 C   0  0  0  0  0
    4.6860   -8.1260    9.4020 C   0  0  0  0  0
    5.1380   -7.9050    8.2790 O   0  0  0  0  0
    2.6480   -9.4730    8.8940 C   0  0  0  0  0
    2.1670   -9.1180    7.4880 C   0  0  0  0  0
    1.5240  -10.1130    9.6890 C   0  0  0  0  0
    1.9450  -10.3250    6.6030 C   0  0  0  0  0
    5.4590   -8.2960   10.4680 N   0  0  0  0  0
    6.9110   -8.2290   10.3690 C   0  0  0  0  0
    7.5030   -9.6140   10.1560 C   0  0  0  0  0
    7.2220  -10.5440   10.9130 O   0  0  0  0  0
    7.5070   -7.5990   11.6280 C   0  0  0  0  0
    6.6740   -7.8200   12.7540 O   0  0  0  0  0
    8.3280   -9.7450    9.1260 N   0  0  0  0  0
    8.9670  -11.0160    8.8170 C   0  0  0  0  0
   10.4710  -10.9220    9.0320 C   0  0  0  0  0
   11.0750   -9.8730    8.8080 O   0  0  0  0  0
    8.6660  -11.4310    7.3770 C   0  0  0  0  0
    9.3570  -12.6200    7.0330 O   0  0  0  0  0
   11.0680  -12.0200    9.4720 N   0  0  0  0  0
   12.5030  -12.0570    9.7240 C   0  0  0  0  0
   12.9550  -13.4570   10.1250 C   0  0  0  0  0
   12.3460  -14.0970   10.9810 O   0  0  0  0  0
   12.8690  -11.0480   10.8040 C   0  0  0  0  0
   14.0310  -13.9250    9.4990 N   0  0  0  0  0
   14.5680  -15.2500    9.7900 C   0  0  0  0  0
   16.0480  -15.1680   10.1460 C   0  0  0  0  0
   16.6640  -14.1060   10.0480 O   0  0  0  0  0
   14.3700  -16.1780    8.5900 C   0  0  0  0  0
   12.9620  -16.7400    8.4810 C   0  0  0  0  0
   12.6900  -17.7740    9.5600 C   0  0  0  0  0
   13.3900  -19.0900    9.2590 C   0  0  0  0  0
   12.7630  -19.8030    8.1140 N   0  3  0  0  0
   16.6826  -16.2580   10.5681 O   0  0  0  0  0
   -6.4551   12.4962    6.2572 H   0  0  0  0  0
   -6.3436   10.8336    6.2691 H   0  0  0  0  0
   -6.5411   11.6452    4.8271 H   0  0  0  0  0
   -8.5125   11.5005    7.0244 H   0  0  0  0  0
   -8.5127   13.6206    5.8740 H   0  0  0  0  0
  -10.5756   12.5921    6.3050 H   0  0  0  0  0
   -8.8898   12.0827    3.2880 H   0  0  0  0  0
   -8.9653   13.8522    3.4726 H   0  0  0  0  0
   -7.4351   12.9907    3.7681 H   0  0  0  0  0
   -7.6124    9.1466    6.5412 H   0  0  0  0  0
   -9.6673    7.9959    4.7319 H   0  0  0  0  0
   -6.8117    6.9504    4.8369 H   0  0  0  0  0
   -7.0732    9.2408    3.8182 H   0  0  0  0  0
   -8.0851    8.4251    2.5395 H   0  0  0  0  0
   -8.5062    5.2713    4.2984 H   0  0  0  0  0
   -9.1528    6.3191    3.0118 H   0  0  0  0  0
   -7.5104    5.6457    2.8704 H   0  0  0  0  0
   -5.1932    7.8409    3.1933 H   0  0  0  0  0
   -6.1814    7.0443    1.9444 H   0  0  0  0  0
   -5.7844    8.7739    1.7964 H   0  0  0  0  0
  -10.0919    5.6816    5.1505 H   0  0  0  0  0
  -10.5675    5.1911    7.8888 H   0  0  0  0  0
  -10.1668    2.7963    6.1781 H   0  0  0  0  0
  -11.3370    4.0157    5.5663 H   0  0  0  0  0
  -12.3155    2.4370    6.9315 H   0  0  0  0  0
   -9.7858    2.7503    8.6580 H   0  0  0  0  0
   -6.8457    3.1414    9.0028 H   0  0  0  0  0
   -7.5010    1.2624   10.8431 H   0  0  0  0  0
   -9.0598    2.1768   10.7121 H   0  0  0  0  0
   -7.5493    4.0408   13.3616 H   0  0  0  0  0
   -8.5934    2.6590   13.0132 H   0  0  0  0  0
   -6.5392   -0.5004    6.3499 H   0  0  0  0  0
   -4.7064    0.6062    5.2345 H   0  0  0  0  0
   -3.7601   -0.4699    6.1967 H   0  0  0  0  0
   -3.3224    1.1547    7.8562 H   0  0  0  0  0
   -3.3953    2.1581    6.4357 H   0  0  0  0  0
   -5.0049    2.6673    8.5620 H   0  0  0  0  0
   -5.5419    2.9926    6.9714 H   0  0  0  0  0
   -5.9639   -3.8325    9.0880 H   0  0  0  0  0
   -5.6165   -5.7743    7.6936 H   0  0  0  0  0
   -4.2418   -5.0828    6.9127 H   0  0  0  0  0
   -5.8647   -4.8357    5.2146 H   0  0  0  0  0
   -7.1644   -4.5968    6.3477 H   0  0  0  0  0
   -5.1463   -2.5885    5.3608 H   0  0  0  0  0
   -6.7915   -2.3346    5.7512 H   0  0  0  0  0
   -2.0800   -3.5687   11.0453 H   0  0  0  0  0
   -2.9132   -5.1242   12.7022 H   0  0  0  0  0
   -1.6911   -6.1386   12.0255 H   0  0  0  0  0
   -3.2097   -7.3002   10.6361 H   0  0  0  0  0
   -4.2245   -6.9605   12.0094 H   0  0  0  0  0
   -4.9518   -6.1583    9.5097 H   0  0  0  0  0
   -5.3984   -5.2452   10.8856 H   0  0  0  0  0
    0.1147   -4.0758   11.0866 H   0  0  0  0  0
    0.9610   -5.1621    8.4499 H   0  0  0  0  0
    3.2267   -4.2116    9.4031 H   0  0  0  0  0
    2.0518   -3.2443   10.4387 H   0  0  0  0  0
    1.0114   -2.5079    8.2968 H   0  0  0  0  0
    2.4837   -1.0569    9.6012 H   0  0  0  0  0
    3.9080   -1.7431    8.7816 H   0  0  0  0  0
    2.7210   -0.7911    7.8564 H   0  0  0  0  0
    3.5627   -3.6598    7.1204 H   0  0  0  0  0
    1.9077   -4.2495    6.8302 H   0  0  0  0  0
    2.3905   -2.6340    6.2575 H   0  0  0  0  0
    2.5054   -6.7624    8.2070 H   0  0  0  0  0
    2.9784   -8.3307   10.6951 H   0  0  0  0  0
    3.4659  -10.1876    8.8021 H   0  0  0  0  0
    2.9404   -8.5078    7.0216 H   0  0  0  0  0
    1.2103   -8.6054    7.5888 H   0  0  0  0  0
    1.8973  -10.4103   10.6690 H   0  0  0  0  0
    0.7123   -9.3957    9.8103 H   0  0  0  0  0
    1.1582  -10.9909    9.1565 H   0  0  0  0  0
    2.8804  -10.8749    6.4993 H   0  0  0  0  0
    1.1907  -10.9703    7.0533 H   0  0  0  0  0
    1.6045   -9.9963    5.6211 H   0  0  0  0  0
    5.0277   -8.4771   11.3744 H   0  0  0  0  0
    7.1599   -7.6064    9.5096 H   0  0  0  0  0
    7.6005   -6.5247   11.4692 H   0  0  0  0  0
    8.4788   -8.0543   11.8188 H   0  0  0  0  0
    7.0709   -7.4150   13.5287 H   0  0  0  0  0
    8.5195   -8.9354    8.5358 H   0  0  0  0  0
    8.5647  -11.7738    9.4894 H   0  0  0  0  0
    8.9910  -10.6333    6.7091 H   0  0  0  0  0
    7.5950  -11.6104    7.2825 H   0  0  0  0  0
    9.1508  -12.8576    6.1260 H   0  0  0  0  0
   10.5108  -12.8581    9.6381 H   0  0  0  0  0
   13.0197  -11.7915    8.8017 H   0  0  0  0  0
   12.5880  -10.0476   10.4750 H   0  0  0  0  0
   12.3367  -11.2925   11.7232 H   0  0  0  0  0
   13.9434  -11.0842   10.9842 H   0  0  0  0  0
   14.4918  -13.3438    8.7988 H   0  0  0  0  0
   14.0281  -15.6553   10.6458 H   0  0  0  0  0
   15.0497  -17.0211    8.7133 H   0  0  0  0  0
   14.5589  -15.5930    7.6899 H   0  0  0  0  0
   12.8564  -17.2202    7.5082 H   0  0  0  0  0
   12.2531  -15.9208    8.6014 H   0  0  0  0  0
   11.6160  -17.9556    9.6017 H   0  0  0  0  0
   13.0670  -17.3911   10.5083 H   0  0  0  0  0
   13.3145  -19.7266   10.1406 H   0  0  0  0  0
   14.4267  -18.8742    9.0007 H   0  0  0  0  0
   13.2606  -20.6773    7.9458 H   0  0  0  0  0
   11.7869  -20.0026    8.3327 H   0  0  0  0  0
   12.8130  -19.2163    7.2811 H   0  0  0  0  0
   16.0691  -16.9961   10.5892 H   0  0  0  0  0
  2  1  1  0  0  0
  2  5  1  0  0  0
  3  2  1  0  0  0
  3  4  2  0  0  0
  5  7  1  0  0  0
  5  6  1  0  0  0
  9  8  1  0  0  0
  9 12  1  0  0  0
 10  9  1  0  0  0
 10 11  2  0  0  0
 12 14  1  0  0  0
 12 13  1  0  0  0
 13 15  1  0  0  0
  8  3  1  0  0  0
 17 16  1  0  0  0
 17 20  1  0  0  0
 18 17  1  0  0  0
 18 19  2  0  0  0
 20 21  1  0  0  0
 16 10  1  0  0  0
 23 22  1  0  0  0
 23 26  1  0  0  0
 24 23  1  0  0  0
 24 25  2  0  0  0
 26 27  1  0  0  0
 27 29  1  0  0  0
 27 28  2  0  0  0
 22 18  1  0  0  0
 32 31  1  0  0  0
 31 34  1  0  0  0
 31 30  1  0  0  0
 30 36  1  0  0  0
 36 35  1  0  0  0
 34 35  1  0  0  0
 32 33  2  0  0  0
 30 24  1  0  0  0
 39 38  1  0  0  0
 38 41  1  0  0  0
 38 37  1  0  0  0
 37 43  1  0  0  0
 43 42  1  0  0  0
 41 42  1  0  0  0
 39 40  2  0  0  0
 37 32  1  0  0  0
 46 45  1  0  0  0
 45 48  1  0  0  0
 45 44  1  0  0  0
 44 50  1  0  0  0
 50 49  1  0  0  0
 48 49  1  0  0  0
 46 47  2  0  0  0
 44 39  1  0  0  0
 52 51  1  0  0  0
 52 55  1  0  0  0
 53 52  1  0  0  0
 53 54  2  0  0  0
 55 56  1  0  0  0
 56 57  1  0  0  0
 56 58  1  0  0  0
 51 46  1  0  0  0
 60 59  1  0  0  0
 60 63  1  0  0  0
 61 60  1  0  0  0
 61 62  2  0  0  0
 63 65  1  0  0  0
 63 64  1  0  0  0
 64 66  1  0  0  0
 59 53  1  0  0  0
 68 67  1  0  0  0
 68 71  1  0  0  0
 69 68  1  0  0  0
 69 70  2  0  0  0
 71 72  1  0  0  0
 67 61  1  0  0  0
 74 73  1  0  0  0
 74 77  1  0  0  0
 75 74  1  0  0  0
 75 76  2  0  0  0
 77 78  1  0  0  0
 73 69  1  0  0  0
 80 79  1  0  0  0
 80 83  1  0  0  0
 81 80  1  0  0  0
 81 82  2  0  0  0
 79 75  1  0  0  0
 84 85  1  0  0  0
 85 88  1  0  0  0
 85 86  1  0  0  0
 86 87  2  0  0  0
 88 89  1  0  0  0
 89 90  1  0  0  0
 90 91  1  0  0  0
 91 92  1  0  0  0
 81 84  1  0  0  0
 86 93  1  0  0  0
  1 94  1  0  0  0
  1 95  1  0  0  0
  1 96  1  0  0  0
  2 97  1  0  0  0
  5 98  1  0  0  0
  6 99  1  0  0  0
  7100  1  0  0  0
  7101  1  0  0  0
  7102  1  0  0  0
  8103  1  0  0  0
  9104  1  0  0  0
 12105  1  0  0  0
 13106  1  0  0  0
 13107  1  0  0  0
 14108  1  0  0  0
 14109  1  0  0  0
 14110  1  0  0  0
 15111  1  0  0  0
 15112  1  0  0  0
 15113  1  0  0  0
 16114  1  0  0  0
 17115  1  0  0  0
 20116  1  0  0  0
 20117  1  0  0  0
 21118  1  0  0  0
 22119  1  0  0  0
 23120  1  0  0  0
 26121  1  0  0  0
 26122  1  0  0  0
 29123  1  0  0  0
 29124  1  0  0  0
 31125  1  0  0  0
 34126  1  0  0  0
 34127  1  0  0  0
 35128  1  0  0  0
 35129  1  0  0  0
 36130  1  0  0  0
 36131  1  0  0  0
 38132  1  0  0  0
 41133  1  0  0  0
 41134  1  0  0  0
 42135  1  0  0  0
 42136  1  0  0  0
 43137  1  0  0  0
 43138  1  0  0  0
 45139  1  0  0  0
 48140  1  0  0  0
 48141  1  0  0  0
 49142  1  0  0  0
 49143  1  0  0  0
 50144  1  0  0  0
 50145  1  0  0  0
 51146  1  0  0  0
 52147  1  0  0  0
 55148  1  0  0  0
 55149  1  0  0  0
 56150  1  0  0  0
 57151  1  0  0  0
 57152  1  0  0  0
 57153  1  0  0  0
 58154  1  0  0  0
 58155  1  0  0  0
 58156  1  0  0  0
 59157  1  0  0  0
 60158  1  0  0  0
 63159  1  0  0  0
 64160  1  0  0  0
 64161  1  0  0  0
 65162  1  0  0  0
 65163  1  0  0  0
 65164  1  0  0  0
 66165  1  0  0  0
 66166  1  0  0  0
 66167  1  0  0  0
 67168  1  0  0  0
 68169  1  0  0  0
 71170  1  0  0  0
 71171  1  0  0  0
 72172  1  0  0  0
 73173  1  0  0  0
 74174  1  0  0  0
 77175  1  0  0  0
 77176  1  0  0  0
 78177  1  0  0  0
 79178  1  0  0  0
 80179  1  0  0  0
 83180  1  0  0  0
 83181  1  0  0  0
 83182  1  0  0  0
 84183  1  0  0  0
 85184  1  0  0  0
 88185  1  0  0  0
 88186  1  0  0  0
 89187  1  0  0  0
 89188  1  0  0  0
 90189  1  0  0  0
 90190  1  0  0  0
 91191  1  0  0  0
 91192  1  0  0  0
 92193  1  0  0  0
 92194  1  0  0  0
 92195  1  0  0  0
 93196  1  0  0  0
M  END
$$$$
