3zs1_ligand
  -I-interpret- 

105114  0  0  0  0  0  0  0  0999 V2000
   33.3600   -5.5170   33.7510 C   0  0  0  0  0
   37.9300   -6.7600   34.8690 C   0  0  0  0  0
   36.5940  -11.3910   34.9720 C   0  0  0  0  0
   32.0110  -10.1400   33.9240 C   0  0  0  0  0
   34.7600   -5.3920   34.1630 C   0  0  0  0  0
   35.4370   -4.2010   34.3670 C   0  0  0  0  0
   36.7460   -4.5750   34.6760 C   0  0  0  0  0
   36.7550   -5.9490   34.6280 C   0  0  0  0  0
   37.9390   -3.7130   35.0030 C   0  0  0  0  0
   34.8450   -2.8140   34.2750 C   0  0  0  0  0
   34.7640   -2.2680   35.6970 C   0  0  0  0  0
   34.1560   -0.8930   35.6710 C   0  0  0  0  0
   34.9130    0.0750   35.4380 O   0  0  0  0  0
   32.9190   -0.7760   35.8930 O   0  0  0  0  0
   37.9900   -8.1980   34.6890 C   0  0  0  0  0
   39.2500   -8.8970   34.9440 C   0  0  0  0  0
   38.8710  -10.2230   34.8770 C   0  0  0  0  0
   37.4200  -10.2480   34.6100 C   0  0  0  0  0
   40.5910   -8.2080   35.0810 C   0  0  0  0  0
   39.6890  -11.4450   35.1020 C   0  0  0  0  0
   40.8880  -11.7670   34.2860 C   0  0  0  0  0
   35.1550  -11.5080   34.7680 C   0  0  0  0  0
   34.3870  -12.7710   34.9250 C   0  0  0  0  0
   33.0780  -12.3840   34.6670 C   0  0  0  0  0
   33.1350  -10.9480   34.3440 C   0  0  0  0  0
   34.9590  -14.1100   35.2980 C   0  0  0  0  0
   31.8360  -13.1910   34.5780 C   0  0  0  0  0
   31.7870  -14.6790   34.6820 C   0  0  0  0  0
   32.1460   -8.8280   33.2930 C   0  0  0  0  0
   30.9300   -8.1230   32.8550 C   0  0  0  0  0
   31.2670   -6.7920   32.9370 C   0  0  0  0  0
   32.6740   -6.7660   33.3780 C   0  0  0  0  0
   29.6500   -8.7940   32.4240 C   0  0  0  0  0
   30.5030   -5.5930   32.4570 C   0  0  0  0  0
   31.0820   -5.4830   31.0210 C   0  0  0  0  0
   30.5290   -4.4190   30.0800 C   0  0  0  0  0
   31.2790   -3.4690   29.6940 O   0  0  0  0  0
   29.3500   -4.5220   29.6720 O   0  0  0  0  0
   35.5460   -6.4370   34.4000 N   0  0  0  0  0
   36.9550   -9.0130   34.4270 N   0  0  0  0  0
   34.3600  -10.4700   34.5210 N   0  0  0  0  0
   33.1660   -7.9960   33.5030 N   0  0  0  0  0
   40.2300    1.9270   33.2990 C   0  0  0  0  0
   39.2720    0.8800   33.1490 O   0  0  0  0  0
   38.6100    1.0870   31.9040 C   0  0  0  0  0
   37.5020    0.0700   31.7450 C   0  0  0  0  0
   38.0090   -1.2210   31.3390 N   0  0  0  0  0
   38.2950   -1.5170   30.0290 C   0  0  0  0  0
   38.7770   -2.7470   29.6740 C   0  0  0  0  0
   39.0300   -3.8300   30.5600 C   0  0  0  0  0
   39.4560   -4.9320   30.2410 O   0  0  0  0  0
   38.7220   -3.4670   31.8510 N   0  0  0  0  0
   38.2380   -2.2310   32.2670 C   0  0  0  0  0
   37.9500   -2.0030   33.8900 S   0  0  0  0  0
   38.9370   -2.6670   28.3240 N   0  0  0  0  0
   38.5510   -1.4140   27.9330 C   0  0  0  0  0
   38.1520   -0.6820   28.9530 N   0  0  0  0  0
   34.9390   -8.4500   34.5020 Fe  0  0  0  0  0
   33.3536   -4.9679   32.8094 H   0  0  0  0  0
   32.8322   -5.2348   34.6620 H   0  0  0  0  0
   38.0746   -6.6512   35.9439 H   0  0  0  0  0
   38.6248   -6.3987   34.1108 H   0  0  0  0  0
   36.6668  -11.3851   36.0596 H   0  0  0  0  0
   36.9785  -12.1651   34.3080 H   0  0  0  0  0
   31.5147   -9.9063   34.8659 H   0  0  0  0  0
   31.5597  -10.7429   33.1360 H   0  0  0  0  0
   38.8448   -4.2768   34.7800 H   0  0  0  0  0
   37.8898   -3.4395   36.0570 H   0  0  0  0  0
   33.8561   -2.8465   33.8176 H   0  0  0  0  0
   35.4646   -2.1711   33.6499 H   0  0  0  0  0
   35.7656   -2.2148   36.1237 H   0  0  0  0  0
   34.1453   -2.9278   36.3052 H   0  0  0  0  0
   32.5389   -1.6442   36.0457 H   0  0  0  0  0
   40.8175   -7.6702   34.1604 H   0  0  0  0  0
   40.5538   -7.5057   35.9138 H   0  0  0  0  0
   41.3639   -8.9537   35.2671 H   0  0  0  0  0
   38.9996  -12.2558   34.8667 H   0  0  0  0  0
   40.0981  -11.2933   36.1009 H   0  0  0  0  0
   40.5985  -11.8637   33.2396 H   0  0  0  0  0
   41.6215  -10.9673   34.3890 H   0  0  0  0  0
   41.3206  -12.7054   34.6328 H   0  0  0  0  0
   35.6947  -14.4100   34.5518 H   0  0  0  0  0
   35.4380  -14.0398   36.2746 H   0  0  0  0  0
   34.1576  -14.8478   35.3372 H   0  0  0  0  0
   31.5120  -13.0145   33.5523 H   0  0  0  0  0
   31.2835  -12.8735   35.4623 H   0  0  0  0  0
   32.3907  -15.1175   33.8875 H   0  0  0  0  0
   32.1798  -14.9874   35.6509 H   0  0  0  0  0
   30.7548  -15.0150   34.5833 H   0  0  0  0  0
   29.8482   -9.4332   31.5636 H   0  0  0  0  0
   29.2633   -9.3975   33.2452 H   0  0  0  0  0
   28.9167   -8.0346   32.1527 H   0  0  0  0  0
   30.6257   -4.6989   33.0683 H   0  0  0  0  0
   29.4187   -5.6934   32.5054 H   0  0  0  0  0
   30.8363   -6.4328   30.5459 H   0  0  0  0  0
   32.1298   -5.2169   31.1606 H   0  0  0  0  0
   32.1404   -3.5540   30.1091 H   0  0  0  0  0
   40.9422    1.8869   32.4749 H   0  0  0  0  0
   39.7185    2.8895   33.2923 H   0  0  0  0  0
   40.7585    1.8016   34.2440 H   0  0  0  0  0
   39.3256    0.9741   31.0896 H   0  0  0  0  0
   38.1867    2.0912   31.8808 H   0  0  0  0  0
   36.8190    0.4266   30.9740 H   0  0  0  0  0
   37.0040   -0.0459   32.7076 H   0  0  0  0  0
   38.5712   -1.0634   26.9011 H   0  0  0  0  0
  5  1  1  0  0  0
  1 32  1  0  0  0
  8  2  1  0  0  0
  2 15  1  0  0  0
 18  3  1  0  0  0
  3 22  1  0  0  0
  4 25  1  0  0  0
 29  4  1  0  0  0
  6  5  4  0  0  0
 39  5  4  0  0  0
  7  6  4  0  0  0
  6 10  1  0  0  0
  7  8  4  0  0  0
  9  7  1  0  0  0
  8 39  4  0  0  0
 54  9  1  0  0  0
 10 11  1  0  0  0
 11 12  1  0  0  0
 12 13  2  0  0  0
 12 14  1  0  0  0
 15 16  4  0  0  0
 15 40  4  0  0  0
 16 17  4  0  0  0
 16 19  1  0  0  0
 18 17  4  0  0  0
 17 20  1  0  0  0
 40 18  4  0  0  0
 20 21  1  0  0  0
 22 23  4  0  0  0
 22 41  4  0  0  0
 23 24  4  0  0  0
 23 26  1  0  0  0
 25 24  4  0  0  0
 24 27  1  0  0  0
 41 25  4  0  0  0
 27 28  1  0  0  0
 29 30  4  0  0  0
 42 29  4  0  0  0
 31 30  4  0  0  0
 30 33  1  0  0  0
 32 31  4  0  0  0
 31 34  1  0  0  0
 32 42  4  0  0  0
 34 35  1  0  0  0
 35 36  1  0  0  0
 36 37  1  0  0  0
 36 38  2  0  0  0
 44 43  1  0  0  0
 45 44  1  0  0  0
 46 45  1  0  0  0
 47 46  1  0  0  0
 47 48  1  0  0  0
 53 47  1  0  0  0
 48 49  4  0  0  0
 48 57  4  0  0  0
 50 49  1  0  0  0
 49 55  4  0  0  0
 50 51  2  0  0  0
 52 50  1  0  0  0
 53 52  2  0  0  0
 53 54  1  0  0  0
 55 56  4  0  0  0
 56 57  4  0  0  0
 39 58  1  0  0  0
 58 40  1  0  0  0
 58 41  1  0  0  0
 58 42  1  0  0  0
  1 59  1  0  0  0
  1 60  1  0  0  0
  2 61  1  0  0  0
  2 62  1  0  0  0
  3 63  1  0  0  0
  3 64  1  0  0  0
  4 65  1  0  0  0
  4 66  1  0  0  0
  9 67  1  0  0  0
  9 68  1  0  0  0
 10 69  1  0  0  0
 10 70  1  0  0  0
 11 71  1  0  0  0
 11 72  1  0  0  0
 14 73  1  0  0  0
 19 74  1  0  0  0
 19 75  1  0  0  0
 19 76  1  0  0  0
 20 77  1  0  0  0
 20 78  1  0  0  0
 21 79  1  0  0  0
 21 80  1  0  0  0
 21 81  1  0  0  0
 26 82  1  0  0  0
 26 83  1  0  0  0
 26 84  1  0  0  0
 27 85  1  0  0  0
 27 86  1  0  0  0
 28 87  1  0  0  0
 28 88  1  0  0  0
 28 89  1  0  0  0
 33 90  1  0  0  0
 33 91  1  0  0  0
 33 92  1  0  0  0
 34 93  1  0  0  0
 34 94  1  0  0  0
 35 95  1  0  0  0
 35 96  1  0  0  0
 37 97  1  0  0  0
 43 98  1  0  0  0
 43 99  1  0  0  0
 43100  1  0  0  0
 45101  1  0  0  0
 45102  1  0  0  0
 46103  1  0  0  0
 46104  1  0  0  0
 56105  1  0  0  0
M  END
$$$$
