### 
### Created by X-TOOL on Sun Sep  9 21:51:33 2018
### 

@<TRIPOS>MOLECULE
3zs1_ligand
  100   109     1     0     0
SMALL
GAST_HUCK


@<TRIPOS>ATOM
      1 CHA        33.3600   -5.5170   33.7510 C.ar      1 NON        -0.0338
      2 CHB        37.9300   -6.7600   34.8690 C.ar      1 NON        -0.0338
      3 CHC        36.5940  -11.3910   34.9720 C.ar      1 NON        -0.0338
      4 CHD        32.0110  -10.1400   33.9240 C.ar      1 NON        -0.0338
      5 C1A        34.7600   -5.3920   34.1630 C.2       1 NON         0.0691
      6 C2A        35.4370   -4.2010   34.3670 C.2       1 NON        -0.0374
      7 C3A        36.7460   -4.5750   34.6760 C.2       1 NON        -0.0265
      8 C4A        36.7550   -5.9490   34.6280 C.2       1 NON         0.0700
      9 CMA        37.9390   -3.7130   35.0030 C.3       1 NON         0.0402
     10 CAA        34.8450   -2.8140   34.2750 C.3       1 NON        -0.0214
     11 CBA        34.7640   -2.2680   35.6970 C.3       1 NON         0.0058
     12 CGA        34.1560   -0.8930   35.6710 C.2       1 NON         0.0362
     13 O1A        34.9130    0.0750   35.4380 O.co2     1 NON        -0.5689
     14 O2A        32.9190   -0.7760   35.8930 O.co2     1 NON        -0.5689
     15 C1B        37.9900   -8.1980   34.6890 C.2       1 NON         0.0687
     16 C2B        39.2500   -8.8970   34.9440 C.2       1 NON        -0.0431
     17 C3B        38.8710  -10.2230   34.8770 C.2       1 NON        -0.0406
     18 C4B        37.4200  -10.2480   34.6100 C.2       1 NON         0.0690
     19 CMB        40.5910   -8.2080   35.0810 C.3       1 NON        -0.0452
     20 CAB        39.6890  -11.4450   35.1020 C.3       1 NON        -0.0359
     21 CBB        40.8880  -11.7670   34.2860 C.3       1 NON        -0.0596
     22 C1C        35.1550  -11.5080   34.7680 C.2       1 NON         0.0687
     23 C2C        34.3870  -12.7710   34.9250 C.2       1 NON        -0.0431
     24 C3C        33.0780  -12.3840   34.6670 C.2       1 NON        -0.0406
     25 C4C        33.1350  -10.9480   34.3440 C.2       1 NON         0.0690
     26 CMC        34.9590  -14.1100   35.2980 C.3       1 NON        -0.0452
     27 CAC        31.8360  -13.1910   34.5780 C.3       1 NON        -0.0359
     28 CBC        31.7870  -14.6790   34.6820 C.3       1 NON        -0.0596
     29 C1D        32.1460   -8.8280   33.2930 C.2       1 NON         0.0687
     30 C2D        30.9300   -8.1230   32.8550 C.2       1 NON        -0.0430
     31 C3D        31.2670   -6.7920   32.9370 C.2       1 NON        -0.0387
     32 C4D        32.6740   -6.7660   33.3780 C.2       1 NON         0.0691
     33 CMD        29.6500   -8.7940   32.4240 C.3       1 NON        -0.0452
     34 CAD        30.5030   -5.5930   32.4570 C.3       1 NON        -0.0214
     35 CBD        31.0820   -5.4830   31.0210 C.3       1 NON         0.0058
     36 CGD        30.5290   -4.4190   30.0800 C.2       1 NON         0.0362
     37 O1D        31.2790   -3.4690   29.6940 O.co2     1 NON        -0.5689
     38 O2D        29.3500   -4.5220   29.6720 O.co2     1 NON        -0.5689
     39 NA         35.5460   -6.4370   34.4000 N.pl3     1 NON        -0.1642
     40 NB         36.9550   -9.0130   34.4270 N.pl3     1 NON        -0.1643
     41 NC         34.3600  -10.4700   34.5210 N.pl3     1 NON        -0.1643
     42 ND         33.1660   -7.9960   33.5030 N.pl3     1 NON        -0.1643
     43 C1         40.2300    1.9270   33.2990 C.3       1 NON         0.0366
     44 O2         39.2720    0.8800   33.1490 O.3       1 NON        -0.3804
     45 C3         38.6100    1.0870   31.9040 C.3       1 NON         0.0741
     46 C4         37.5020    0.0700   31.7450 C.3       1 NON         0.0882
     47 N5         38.0090   -1.2210   31.3390 N.pl3     1 NON        -0.1773
     48 C6         38.2950   -1.5170   30.0290 C.2       1 NON         0.2109
     49 C7         38.7770   -2.7470   29.6740 C.2       1 NON         0.0974
     50 C8         39.0300   -3.8300   30.5600 C.2       1 NON         0.1341
     51 O9         39.4560   -4.9320   30.2410 O.2       1 NON        -0.4270
     52 N10        38.7220   -3.4670   31.8510 N.2       1 NON        -0.2651
     53 C11        38.2380   -2.2310   32.2670 C.2       1 NON         0.2116
     54 S12        37.9500   -2.0030   33.8900 S.3       1 NON        -0.0109
     55 N13        38.9370   -2.6670   28.3240 N.2       1 NON        -0.3247
     56 C14        38.5510   -1.4140   27.9330 C.2       1 NON         0.0931
     57 N15        38.1520   -0.6820   28.9530 N.pl3     1 NON        -0.2280
     58 FE         34.9390   -8.4500   34.5020 Fe        1 NON         2.0000
     59 H          32.7710   -4.6005   33.7173 H         1 NON         0.0368
     60 H          38.8334   -6.2541   35.2098 H         1 NON         0.0368
     61 H          37.0979  -12.2374   35.4386 H         1 NON         0.0368
     62 H          31.0068  -10.5313   34.0871 H         1 NON         0.0368
     63 H          38.8448   -4.2768   34.7800 H         1 NON         0.0522
     64 H          37.8898   -3.4395   36.0570 H         1 NON         0.0522
     65 H          33.8561   -2.8465   33.8176 H         1 NON         0.0388
     66 H          35.4646   -2.1711   33.6499 H         1 NON         0.0388
     67 H          35.7656   -2.2148   36.1237 H         1 NON         0.0447
     68 H          34.1453   -2.9278   36.3052 H         1 NON         0.0447
     69 H          41.0666   -8.5229   36.0098 H         1 NON         0.0335
     70 H          41.2250   -8.4786   34.2367 H         1 NON         0.0335
     71 H          40.4435   -7.1281   35.0948 H         1 NON         0.0335
     72 H          38.9996  -12.2558   34.8667 H         1 NON         0.0367
     73 H          40.0981  -11.2933   36.1009 H         1 NON         0.0367
     74 H          40.5985  -11.8637   33.2396 H         1 NON         0.0246
     75 H          41.6215  -10.9673   34.3890 H         1 NON         0.0246
     76 H          41.3206  -12.7054   34.6328 H         1 NON         0.0246
     77 H          34.5127  -14.4464   36.2338 H         1 NON         0.0335
     78 H          34.7391  -14.8299   34.5097 H         1 NON         0.0335
     79 H          36.0385  -14.0213   35.4200 H         1 NON         0.0335
     80 H          31.5120  -13.0145   33.5523 H         1 NON         0.0367
     81 H          31.2835  -12.8735   35.4623 H         1 NON         0.0367
     82 H          32.3907  -15.1175   33.8875 H         1 NON         0.0246
     83 H          32.1798  -14.9874   35.6509 H         1 NON         0.0246
     84 H          30.7548  -15.0150   34.5833 H         1 NON         0.0246
     85 H          29.8482   -9.4332   31.5636 H         1 NON         0.0335
     86 H          29.2633   -9.3975   33.2452 H         1 NON         0.0335
     87 H          28.9167   -8.0346   32.1527 H         1 NON         0.0335
     88 H          30.6257   -4.6989   33.0683 H         1 NON         0.0388
     89 H          29.4187   -5.6934   32.5054 H         1 NON         0.0388
     90 H          30.8363   -6.4328   30.5459 H         1 NON         0.0447
     91 H          32.1298   -5.2169   31.1606 H         1 NON         0.0447
     92 H          40.9422    1.8869   32.4749 H         1 NON         0.0524
     93 H          39.7185    2.8895   33.2923 H         1 NON         0.0524
     94 H          40.7585    1.8016   34.2440 H         1 NON         0.0524
     95 H          39.3256    0.9741   31.0896 H         1 NON         0.0586
     96 H          38.1867    2.0912   31.8808 H         1 NON         0.0586
     97 H          36.8190    0.4266   30.9740 H         1 NON         0.0627
     98 H          37.0040   -0.0459   32.7076 H         1 NON         0.0627
     99 H          38.5712   -1.0634   26.9011 H         1 NON         0.1170
    100 H          37.8155    0.2808   28.9436 H         1 NON         0.2425
@<TRIPOS>BOND
     1    5    1 1  
     2    1   32 1  
     3    8    2 1  
     4    2   15 1  
     5   18    3 1  
     6    3   22 1  
     7    4   25 1  
     8   29    4 1  
     9    6    5 2  
    10   39    5 1  
    11    7    6 1  
    12    6   10 1  
    13    7    8 2  
    14    9    7 1  
    15    8   39 1  
    16   54    9 1  
    17   10   11 1  
    18   11   12 1  
    19   12   13 ar 
    20   12   14 ar 
    21   15   16 2  
    22   15   40 1  
    23   16   17 1  
    24   16   19 1  
    25   18   17 2  
    26   17   20 1  
    27   40   18 1  
    28   20   21 1  
    29   22   23 2  
    30   22   41 1  
    31   23   24 1  
    32   23   26 1  
    33   25   24 2  
    34   24   27 1  
    35   41   25 1  
    36   27   28 1  
    37   29   30 2  
    38   42   29 1  
    39   31   30 1  
    40   30   33 1  
    41   32   31 2  
    42   31   34 1  
    43   32   42 1  
    44   34   35 1  
    45   35   36 1  
    46   36   37 ar 
    47   36   38 ar 
    48   44   43 1  
    49   45   44 1  
    50   46   45 1  
    51   47   46 1  
    52   47   48 1  
    53   53   47 1  
    54   48   49 2  
    55   48   57 1  
    56   50   49 1  
    57   49   55 1  
    58   50   51 2  
    59   52   50 1  
    60   53   52 2  
    61   53   54 1  
    62   55   56 2  
    63   56   57 1  
    64   39   58 1  
    65   58   40 1  
    66   58   41 1  
    67   58   42 1  
    68    1   59 1  
    69    2   60 1  
    70    3   61 1  
    71    4   62 1  
    72    9   63 1  
    73    9   64 1  
    74   10   65 1  
    75   10   66 1  
    76   11   67 1  
    77   11   68 1  
    78   19   69 1  
    79   19   70 1  
    80   19   71 1  
    81   20   72 1  
    82   20   73 1  
    83   21   74 1  
    84   21   75 1  
    85   21   76 1  
    86   26   77 1  
    87   26   78 1  
    88   26   79 1  
    89   27   80 1  
    90   27   81 1  
    91   28   82 1  
    92   28   83 1  
    93   28   84 1  
    94   33   85 1  
    95   33   86 1  
    96   33   87 1  
    97   34   88 1  
    98   34   89 1  
    99   35   90 1  
   100   35   91 1  
   101   43   92 1  
   102   43   93 1  
   103   43   94 1  
   104   45   95 1  
   105   45   96 1  
   106   46   97 1  
   107   46   98 1  
   108   56   99 1  
   109   57  100 1  
@<TRIPOS>SUBSTRUCTURE
     1 NON         1

