3f81_ligand
  -I-interpret- 

 21 21  0  0  0  0  0  0  0  0999 V2000
    1.7190   -0.9980   -4.6530 O   0  0  0  0  0
    0.5690   -0.6100   -3.9420 S   0  0  0  0  0
   -0.1220   -1.6290   -3.1760 O   0  0  0  0  0
    0.4250    0.7820   -3.5620 O   0  0  0  0  0
   -0.5950   -0.6020   -5.3270 C   0  0  0  0  0
   -0.2550    0.4600   -6.3670 C   0  0  0  0  0
   -1.2260    0.4550   -7.4800 N   0  0  0  0  0
   -1.8920   -0.6470   -7.9760 C   0  0  0  0  0
   -1.8140   -1.8250   -7.5730 O   0  0  0  0  0
   -1.4980    1.6110   -8.1160 C   0  0  0  0  0
   -0.8670    3.1870   -7.7610 S   0  0  0  0  0
   -2.6010    1.3240   -9.3340 S   0  0  0  0  0
   -2.7410   -0.3450   -9.0500 C   0  0  0  0  0
   -3.5350   -1.2680   -9.7500 C   0  0  0  0  0
   -0.4007    0.8990   -3.0865 H   0  0  0  0  0
   -1.5869   -0.3817   -4.9323 H   0  0  0  0  0
   -0.5475   -1.5766   -5.8127 H   0  0  0  0  0
    0.7347    0.2452   -6.7702 H   0  0  0  0  0
   -0.2850    1.4376   -5.8859 H   0  0  0  0  0
   -4.1548   -0.9333  -10.5818 H   0  0  0  0  0
   -3.5315   -2.3191   -9.4615 H   0  0  0  0  0
  1  2  2  0  0  0
  2  3  2  0  0  0
  2  4  1  0  0  0
  2  5  1  0  0  0
  5  6  1  0  0  0
  6  7  1  0  0  0
  7  8  1  0  0  0
  7 10  1  0  0  0
  8  9  2  0  0  0
  8 13  1  0  0  0
 10 11  2  0  0  0
 10 12  1  0  0  0
 12 13  1  0  0  0
 13 14  2  0  0  0
  4 15  1  0  0  0
  5 16  1  0  0  0
  5 17  1  0  0  0
  6 18  1  0  0  0
  6 19  1  0  0  0
 14 20  1  0  0  0
 14 21  1  0  0  0
M  END
$$$$
