### 
### Created by X-TOOL on Mon Sep 10 21:12:48 2018
### 

@<TRIPOS>MOLECULE
1idg_ligand
  310   321     1     0     0
SMALL
GAST_HUCK


@<TRIPOS>ATOM
      1 N          -4.1060  -16.1730   25.0780 N.4       1 TYR         0.2392
      2 CA         -2.9690  -17.0060   24.6340 C.3       1 TYR         0.0730
      3 C          -2.1230  -16.1250   23.6620 C.2       1 TYR         0.2286
      4 O          -1.6870  -15.0270   24.0220 O.2       1 TYR        -0.3905
      5 CB         -3.4960  -18.3670   24.0710 C.3       1 TYR         0.0365
      6 CG         -4.1360  -19.4060   25.0070 C.ar      1 TYR        -0.0460
      7 CD1        -3.3650  -20.0060   26.0030 C.ar      1 TYR        -0.0684
      8 CD2        -5.4280  -19.8870   24.7480 C.ar      1 TYR        -0.0684
      9 CE1        -3.8660  -21.0940   26.7210 C.ar      1 TYR        -0.0398
     10 CE2        -5.9250  -20.9750   25.4690 C.ar      1 TYR        -0.0398
     11 CZ         -5.1450  -21.5780   26.4460 C.ar      1 TYR         0.0805
     12 OH         -5.6200  -22.6730   27.1280 O.3       1 TYR        -0.3376
     13 H1         -4.6838  -16.7032   25.7113 H         1 TYR         0.2017
     14 H2         -4.6520  -15.8955   24.2775 H         1 TYR         0.2017
     15 H3         -3.7578  -15.3522   25.5482 H         1 TYR         0.2017
     16 H4         -2.3374  -17.2415   25.5033 H         1 TYR         0.1120
     17 H5         -2.6390  -18.8619   23.5907 H         1 TYR         0.0486
     18 H6         -4.2514  -18.1214   23.3101 H         1 TYR         0.0486
     19 H7         -2.3733  -19.6262   26.2204 H         1 TYR         0.0530
     20 H8         -6.0404  -19.4145   23.9886 H         1 TYR         0.0530
     21 H9         -3.2622  -21.5614   27.4904 H         1 TYR         0.0525
     22 H10        -6.9217  -21.3492   25.2652 H         1 TYR         0.0525
     23 H11        -4.9679  -22.9609   27.7560 H         1 TYR         0.2458
     24 N          -1.8880  -16.5480   22.4130 N.am      1 ARG        -0.2609
     25 CA         -2.5660  -15.9670   21.2140 C.3       1 ARG         0.1312
     26 C          -3.2450  -14.5470   21.3040 C.2       1 ARG         0.2037
     27 O          -4.2840  -14.3210   21.9350 O.2       1 ARG        -0.3944
     28 CB         -3.5170  -17.0230   20.5750 C.3       1 ARG        -0.0092
     29 CG         -2.7980  -18.2520   19.9470 C.3       1 ARG        -0.0156
     30 CD         -3.3470  -19.6410   20.3340 C.3       1 ARG         0.0627
     31 NE         -4.3510  -20.1400   19.3600 N.pl3     1 ARG        -0.2723
     32 CZ         -4.4170  -21.4040   18.9010 C.cat     1 ARG         0.2882
     33 NH1        -3.5950  -22.3830   19.2830 N.pl3     1 ARG        -0.2849
     34 NH2        -5.3550  -21.6930   18.0190 N.pl3     1 ARG        -0.2849
     35 H12        -1.2282  -17.2869   22.2762 H         1 ARG         0.1885
     36 H13        -1.7512  -15.8221   20.4893 H         1 ARG         0.0800
     37 H14        -4.0988  -16.5261   19.7847 H         1 ARG         0.0313
     38 H15        -4.1984  -17.3881   21.3575 H         1 ARG         0.0313
     39 H16        -1.7417  -18.2132   20.2516 H         1 ARG         0.0301
     40 H17        -2.8680  -18.1576   18.8533 H         1 ARG         0.0301
     41 H18        -3.8193  -19.5715   21.3250 H         1 ARG         0.0689
     42 H19        -2.5099  -20.3534   20.3759 H         1 ARG         0.0689
     43 H20        -5.0491  -19.4688   19.0094 H         1 ARG         0.2642
     44 H21        -3.7030  -23.3289   18.8900 H         1 ARG         0.2615
     45 H22        -2.8524  -22.1929   19.9709 H         1 ARG         0.2615
     46 H23        -6.0068  -20.9612   17.7019 H         1 ARG         0.2615
     47 H24        -5.4353  -22.6504   17.6476 H         1 ARG         0.2615
     48 N          -2.5830  -13.6300   20.6030 N.am      1 GLY        -0.2664
     49 CA         -3.0860  -12.3140   20.1870 C.3       1 GLY         0.1201
     50 C          -1.8470  -11.4510   19.8850 C.2       1 GLY         0.2008
     51 O          -1.5600  -10.5620   20.6890 O.2       1 GLY        -0.3947
     52 H25        -1.6483  -13.8600   20.3319 H         1 GLY         0.1881
     53 H26        -3.6780  -11.8600   20.9953 H         1 GLY         0.0763
     54 H27        -3.7098  -12.4124   19.2864 H         1 GLY         0.0763
     55 N          -1.0280  -11.5650   18.8160 N.am      1 TRP        -0.2629
     56 CA         -1.0440  -12.5820   17.7210 C.3       1 TRP         0.1352
     57 C          -1.8550  -12.0270   16.5330 C.2       1 TRP         0.2052
     58 O          -3.0860  -11.9980   16.5940 O.2       1 TRP        -0.3942
     59 CB         -1.0440  -14.1550   17.9460 C.3       1 TRP         0.0042
     60 CG         -2.1540  -15.0870   17.3660 C.2       1 TRP        -0.0418
     61 CD1        -3.5620  -14.9340   17.4550 C.2       1 TRP         0.0167
     62 CD2        -1.9850  -16.2880   16.6720 C.ar      1 TRP        -0.0214
     63 NE1        -4.2640  -15.9860   16.8310 N.pl3     1 TRP        -0.2890
     64 CE2        -3.2670  -16.8070   16.3470 C.ar      1 TRP         0.0603
     65 CE3        -0.8180  -17.0160   16.3150 C.ar      1 TRP        -0.0747
     66 CZ2        -3.3880  -18.0380   15.6510 C.ar      1 TRP        -0.0443
     67 CZ3        -0.9590  -18.2150   15.6180 C.ar      1 TRP        -0.0792
     68 CH2        -2.2240  -18.7190   15.2900 C.ar      1 TRP        -0.0768
     69 H28        -0.3107  -10.8716   18.7482 H         1 TRP         0.1884
     70 H29        -0.0146  -12.4751   17.3483 H         1 TRP         0.0815
     71 H30        -1.0562  -14.3074   19.0353 H         1 TRP         0.0397
     72 H31        -0.0920  -14.5220   17.5350 H         1 TRP         0.0397
     73 H32        -4.0478  -14.0952   17.9513 H         1 TRP         0.0795
     74 H33        -5.2834  -16.1119   16.7545 H         1 TRP         0.2216
     75 H34         0.1655  -16.6452   16.5802 H         1 TRP         0.0540
     76 H35        -4.3638  -18.4410   15.4049 H         1 TRP         0.0541
     77 H36        -0.0736  -18.7673   15.3245 H         1 TRP         0.0510
     78 H37        -2.3005  -19.6538   14.7466 H         1 TRP         0.0530
     79 N          -1.1610  -11.6770   15.4330 N.am      1 LYS        -0.2636
     80 CA         -1.2620  -12.4440   14.1580 C.3       1 LYS         0.1310
     81 C          -2.6860  -12.9230   13.7160 C.2       1 LYS         0.2040
     82 O          -3.1480  -13.9310   14.2510 O.2       1 LYS        -0.3944
     83 CB         -0.1840  -13.5880   14.1550 C.3       1 LYS        -0.0122
     84 CG          1.2490  -13.2600   13.6670 C.3       1 LYS        -0.0440
     85 CD          2.0870  -12.2190   14.4410 C.3       1 LYS        -0.0124
     86 CE          2.4320  -10.9420   13.6490 C.3       1 LYS        -0.0354
     87 NZ          1.3120  -10.0160   13.4120 N.4       1 LYS         0.2185
     88 H38        -0.5599  -10.8788   15.4724 H         1 LYS         0.1883
     89 H39        -0.9556  -11.7381   13.3720 H         1 LYS         0.0800
     90 H40        -0.5684  -14.3932   13.5117 H         1 LYS         0.0312
     91 H41        -0.0978  -13.9541   15.1887 H         1 LYS         0.0312
     92 H42         1.1613  -12.8972   12.6323 H         1 LYS         0.0269
     93 H43         1.8163  -14.2023   13.6784 H         1 LYS         0.0269
     94 H44         3.0298  -12.6974   14.7447 H         1 LYS         0.0317
     95 H45         1.5210  -11.9228   15.3365 H         1 LYS         0.0317
     96 H46         2.8301  -11.2483   12.6704 H         1 LYS         0.0813
     97 H47         3.2083  -10.3977   14.2067 H         1 LYS         0.0813
     98 H48         1.6400   -9.2187   12.8898 H         1 LYS         0.1994
     99 H49         0.9379   -9.7079   14.2959 H         1 LYS         0.1994
    100 H50         0.5914  -10.4874   12.8881 H         1 LYS         0.1994
    101 N          -3.4850  -12.3300   12.7950 N.am      1 HIS        -0.2625
    102 CA         -3.1050  -11.2480   11.8330 C.3       1 HIS         0.1369
    103 C          -2.0580  -11.6930   10.7460 C.2       1 HIS         0.2054
    104 O          -1.8930  -12.8980   10.5290 O.2       1 HIS        -0.3942
    105 CB         -3.0040   -9.8650   12.5550 C.3       1 HIS         0.0145
    106 CG         -3.2360   -8.6290   11.6830 C.2       1 HIS        -0.0027
    107 ND1        -4.4150   -8.3210   11.0110 N.2       1 HIS        -0.3252
    108 CD2        -2.2790   -7.6210   11.4680 C.2       1 HIS         0.0291
    109 CE1        -4.0470   -7.1410   10.4220 C.2       1 HIS         0.0907
    110 NE2        -2.7930   -6.6360   10.6450 N.pl3     1 HIS        -0.2752
    111 H51        -4.4314  -12.6504   12.7539 H         1 HIS         0.1885
    112 H52        -4.0105  -11.1197   11.2218 H         1 HIS         0.0817
    113 H53        -1.9961   -9.7855   12.9884 H         1 HIS         0.0420
    114 H54        -3.7520   -9.8520   13.3614 H         1 HIS         0.0420
    115 H55        -1.2751   -7.6169   11.8901 H         1 HIS         0.0729
    116 H56        -4.7466   -6.6073    9.7804 H         1 HIS         0.1199
    117 H57        -2.3573   -5.7695   10.2983 H         1 HIS         0.2361
    118 H58        -1.2898   -9.8640   10.3109 H         1 TRP         0.1884
    119 N          -1.4790  -10.7760    9.9470 N.am      1 TRP        -0.2625
    120 CA         -1.1120  -11.0840    8.5330 C.3       1 TRP         0.1352
    121 C           0.3890  -10.6900    8.2630 C.2       1 TRP         0.2052
    122 O           1.2230  -11.4520    8.7530 O.2       1 TRP        -0.3942
    123 CB         -2.3060  -10.5930    7.6580 C.3       1 TRP         0.0042
    124 CG         -3.4800  -11.5750    7.5710 C.2       1 TRP        -0.0418
    125 CD1        -4.6730  -11.5180    8.3150 C.2       1 TRP         0.0167
    126 CD2        -3.4930  -12.8030    6.9460 C.ar      1 TRP        -0.0214
    127 NE1        -5.4540  -12.6740    8.1390 N.pl3     1 TRP        -0.2890
    128 CE2        -4.6940  -13.4630    7.2930 C.ar      1 TRP         0.0603
    129 CE3        -2.4900  -13.4750    6.2070 C.ar      1 TRP        -0.0747
    130 CZ2        -4.9090  -14.8040    6.8890 C.ar      1 TRP        -0.0443
    131 CZ3        -2.7270  -14.7850    5.8000 C.ar      1 TRP        -0.0792
    132 CH2        -3.9200  -15.4400    6.1260 C.ar      1 TRP        -0.0768
    133 H59        -1.1204  -12.1785    8.4234 H         1 TRP         0.0815
    134 H60        -1.9332  -10.4129    6.6389 H         1 TRP         0.0397
    135 H61        -2.6786   -9.6499    8.0842 H         1 TRP         0.0397
    136 H62        -4.9570  -10.6802    8.9501 H         1 TRP         0.0795
    137 H63        -6.3768  -12.8846    8.5451 H         1 TRP         0.2216
    138 H64        -1.5570  -12.9799    5.9631 H         1 TRP         0.0540
    139 H65        -5.8181  -15.3265    7.1639 H         1 TRP         0.0541
    140 H66        -1.9742  -15.3069    5.2204 H         1 TRP         0.0510
    141 H67        -4.0818  -16.4555    5.7829 H         1 TRP         0.0530
    142 H68         1.9209   -9.4614    7.8819 H         1 VAL         0.1883
    143 N           0.9600   -9.6200    7.6550 N.am      1 VAL        -0.2634
    144 CA          0.3590   -8.6420    6.6930 C.3       1 VAL         0.1333
    145 C          -0.7730   -7.7290    7.3090 C.2       1 VAL         0.2043
    146 O          -1.0400   -7.8640    8.5020 O.2       1 VAL        -0.3944
    147 CB          0.3770   -9.1520    5.1910 C.3       1 VAL        -0.0063
    148 CG1         1.7860   -9.1540    4.5520 C.3       1 VAL        -0.0584
    149 CG2        -0.2910  -10.4800    4.7690 C.3       1 VAL        -0.0584
    150 H69         1.1617   -7.8926    6.6294 H         1 VAL         0.0802
    151 H70        -0.1963   -8.3777    4.6603 H         1 VAL         0.0343
    152 H71         1.7183   -9.5180    3.5162 H         1 VAL         0.0234
    153 H72         2.4498   -9.8139    5.1299 H         1 VAL         0.0234
    154 H73         2.1917   -8.1316    4.5555 H         1 VAL         0.0234
    155 H74        -1.3026  -10.5339    5.1976 H         1 VAL         0.0234
    156 H75         0.3087  -11.3254    5.1373 H         1 VAL         0.0234
    157 H76        -0.3547  -10.5260    3.6718 H         1 VAL         0.0234
    158 H77        -2.3581   -6.5177    7.1976 H         1 TYR         0.1885
    159 N          -1.4900   -6.7300    6.7490 N.am      1 TYR        -0.2621
    160 CA         -1.1640   -5.9020    5.5550 C.3       1 TYR         0.1390
    161 C          -1.7540   -6.4260    4.2170 C.2       1 TYR         0.2058
    162 O          -0.9960   -6.7190    3.2910 O.2       1 TYR        -0.3942
    163 CB          0.2740   -5.2910    5.3630 C.3       1 TYR         0.0163
    164 CG          1.2020   -5.0320    6.5590 C.ar      1 TYR        -0.0493
    165 CD1         0.7330   -4.4110    7.7180 C.ar      1 TYR        -0.0685
    166 CD2         2.5110   -5.5310    6.5290 C.ar      1 TYR        -0.0685
    167 CE1         1.5220   -4.3770    8.8630 C.ar      1 TYR        -0.0398
    168 CE2         3.3020   -5.4900    7.6720 C.ar      1 TYR        -0.0398
    169 CZ          2.7980   -4.9350    8.8470 C.ar      1 TYR         0.0805
    170 OH          3.5360   -4.9750   10.0000 O.3       1 TYR        -0.3376
    171 H78        -1.7641   -5.0012    5.7512 H         1 TYR         0.0821
    172 H79         0.1349   -4.3214    4.8625 H         1 TYR         0.0453
    173 H80         0.8150   -5.9753    4.6929 H         1 TYR         0.0453
    174 H81        -0.2497   -3.9536    7.7256 H         1 TYR         0.0530
    175 H82         2.9084   -5.9504    5.6118 H         1 TYR         0.0530
    176 H83         1.1436   -3.9160    9.7682 H         1 TYR         0.0525
    177 H84         4.3095   -5.8893    7.6492 H         1 TYR         0.0525
    178 H85         3.0499   -4.5561   10.7005 H         1 TYR         0.2458
    179 H86        -3.6985   -6.4950    4.8268 H         1 TYR         0.1885
    180 N          -3.0890   -6.4880    4.0340 N.am      1 TYR        -0.2620
    181 CA         -3.6620   -6.5460    2.6620 C.3       1 TYR         0.1390
    182 C          -4.9020   -5.6300    2.4820 C.2       1 TYR         0.2058
    183 O          -5.9630   -5.8110    3.0860 O.2       1 TYR        -0.3942
    184 CB         -3.8790   -7.9400    1.9860 C.3       1 TYR         0.0163
    185 CG         -3.9340   -9.2810    2.7390 C.ar      1 TYR        -0.0493
    186 CD1        -5.0700   -9.6430    3.4730 C.ar      1 TYR        -0.0685
    187 CD2        -2.9890  -10.2580    2.4140 C.ar      1 TYR        -0.0685
    188 CE1        -5.2900  -10.9810    3.8000 C.ar      1 TYR        -0.0398
    189 CE2        -3.2020  -11.5880    2.7570 C.ar      1 TYR        -0.0398
    190 CZ         -4.3690  -11.9570    3.4210 C.ar      1 TYR         0.0805
    191 OH         -4.6410  -13.2850    3.6400 O.3       1 TYR        -0.3376
    192 H87        -2.8800   -6.0806    2.0441 H         1 TYR         0.0821
    193 H88        -3.0613   -8.0446    1.2577 H         1 TYR         0.0453
    194 H89        -4.8377   -7.8625    1.4523 H         1 TYR         0.0453
    195 H90        -5.7778   -8.8843    3.7868 H         1 TYR         0.0530
    196 H91        -2.0827   -9.9763    1.8902 H         1 TYR         0.0530
    197 H92        -6.1801  -11.2631    4.3507 H         1 TYR         0.0525
    198 H93        -2.4599  -12.3378    2.5077 H         1 TYR         0.0525
    199 H94        -5.4677  -13.3659    4.1010 H         1 TYR         0.2458
    200 H95        -3.8485   -4.3455    1.3660 H         1 THR         0.1884
    201 N          -4.7500   -4.7660    1.4690 N.am      1 THR        -0.2612
    202 CA         -5.7920   -4.3710    0.4820 C.3       1 THR         0.1565
    203 C          -6.9020   -5.3830    0.0260 C.2       1 THR         0.2065
    204 O          -7.9020   -4.9160   -0.5290 O.2       1 THR        -0.3943
    205 CB         -5.1110   -3.7460   -0.7940 C.3       1 THR         0.0924
    206 OG1        -3.6830   -3.8280   -0.8270 O.3       1 THR        -0.3874
    207 CG2        -5.5180   -2.2960   -1.0850 C.3       1 THR        -0.0346
    208 H96        -6.3447   -3.5592    0.9775 H         1 THR         0.0826
    209 H97        -5.4752   -4.3486   -1.6391 H         1 THR         0.0639
    210 H98        -3.4140   -4.7214   -0.6483 H         1 THR         0.2101
    211 H99        -4.9977   -1.9433   -1.9877 H         1 THR         0.0257
    212 H100       -5.2430   -1.6595   -0.2311 H         1 THR         0.0257
    213 H101       -6.6051   -2.2453   -1.2450 H         1 THR         0.0257
    214 H102       -5.8618   -7.0502    0.5181 H         1 CYS         0.1884
    215 N          -6.7630   -6.7160    0.2420 N.am      1 CYS        -0.2628
    216 CA         -7.8580   -7.7170    0.0970 C.3       1 CYS         0.1406
    217 C          -9.2160   -7.2530    0.6580 C.2       1 CYS         0.2048
    218 O          -9.3140   -6.5880    1.7000 O.2       1 CYS        -0.3944
    219 CB         -7.5200   -9.0280    0.8610 C.3       1 CYS         0.0443
    220 SG         -8.9430  -10.1620    1.0690 S.3       1 CYS        -0.0882
    221 H103       -7.9727   -7.9360   -0.9748 H         1 CYS         0.0808
    222 H104       -7.1444   -8.7588    1.8592 H         1 CYS         0.0432
    223 H105       -6.7339   -9.5591    0.3043 H         1 CYS         0.0432
    224 H106      -10.0845   -8.1150   -0.9409 H         1 CYS         0.1884
    225 N         -10.2520   -7.7260   -0.0350 N.am      1 CYS        -0.2629
    226 CA        -11.6330   -7.7000    0.4770 C.3       1 CYS         0.1408
    227 C         -12.1340   -6.2280    0.7270 C.2       1 CYS         0.2072
    228 O         -12.3630   -5.8650    1.8850 O.2       1 CYS        -0.3942
    229 CB        -11.8560   -8.7700    1.5900 C.3       1 CYS         0.0443
    230 SG        -10.3410   -9.4410    2.3720 S.3       1 CYS        -0.0882
    231 H107      -12.2577   -8.0529   -0.3568 H         1 CYS         0.0809
    232 H108      -12.4052   -9.6117    1.1429 H         1 CYS         0.0432
    233 H109      -12.4681   -8.3112    2.3805 H         1 CYS         0.0432
    234 H110      -12.0943   -3.3986    0.4309 H         1 PRO         0.0802
    235 N         -12.3060   -5.3540   -0.3160 N.am      1 PRO        -0.2498
    236 CA        -12.8220   -3.9700   -0.1640 C.3       1 PRO         0.1338
    237 C         -14.1900   -3.8030    0.5360 C.2       1 PRO         0.2042
    238 O         -14.8920   -4.7600    0.8740 O.2       1 PRO        -0.3944
    239 CB        -12.8400   -3.4130   -1.6200 C.3       1 PRO        -0.0104
    240 CG        -12.6810   -4.6210   -2.5240 C.3       1 PRO        -0.0281
    241 CD        -11.8530   -5.5940   -1.6980 C.3       1 PRO         0.0369
    242 H111      -12.0088   -2.7087   -1.7715 H         1 PRO         0.0313
    243 H112      -13.7936   -2.9042   -1.8242 H         1 PRO         0.0313
    244 H113      -13.6608   -5.0547   -2.7725 H         1 PRO         0.0287
    245 H114      -12.1547   -4.3489   -3.4508 H         1 PRO         0.0287
    246 H115      -12.0512   -6.6327   -2.0008 H         1 PRO         0.0524
    247 H116      -10.7789   -5.3806   -1.8012 H         1 PRO         0.0524
    248 H117      -14.9816   -2.1568   -0.3051 H         1 ASP         0.1884
    249 N         -14.6580   -2.5490    0.5560 N.am      1 ASP        -0.2622
    250 CA        -14.7270   -1.7110    1.7620 C.3       1 ASP         0.1423
    251 C         -16.1210   -1.6660    2.4640 C.2       1 ASP         0.2057
    252 O         -16.1110   -1.5160    3.6830 O.2       1 ASP        -0.3943
    253 CB        -14.2100   -0.2980    1.3830 C.3       1 ASP         0.0406
    254 CG        -14.0060    0.6550    2.5690 C.2       1 ASP         0.0393
    255 OD1       -13.2080    0.3370    3.4800 O.co2     1 ASP        -0.5688
    256 OD2       -14.5970    1.7550    2.5460 O.co2     1 ASP        -0.5688
    257 H118      -14.0271   -2.1387    2.4949 H         1 ASP         0.0819
    258 H119      -14.9386    0.1601    0.6980 H         1 ASP         0.0478
    259 H120      -13.2450   -0.4140    0.8679 H         1 ASP         0.0478
    260 H121      -18.0763   -1.9626    2.5975 H         1 THR         0.1884
    261 N         -17.3380   -1.8260    1.9370 N.am      1 THR        -0.2612
    262 CA        -17.7500   -1.8300    0.5160 C.3       1 THR         0.1567
    263 C         -18.7570   -0.6300    0.2790 C.2       1 THR         0.2090
    264 O         -19.2510   -0.0590    1.2680 O.2       1 THR        -0.3941
    265 CB        -18.3010   -3.2640    0.1670 C.3       1 THR         0.0924
    266 OG1       -17.4810   -3.7370   -0.8970 O.3       1 THR        -0.3874
    267 CG2       -18.3780   -4.4290    1.2150 C.3       1 THR        -0.0346
    268 H122      -16.8666   -1.6506   -0.1143 H         1 THR         0.0826
    269 H123      -19.3283   -3.1163   -0.1974 H         1 THR         0.0639
    270 H124      -16.6189   -3.9506   -0.5600 H         1 THR         0.2101
    271 H125      -18.7956   -5.3266    0.7354 H         1 THR         0.0257
    272 H126      -19.0239   -4.1267    2.0525 H         1 THR         0.0257
    273 H127      -17.3686   -4.6506    1.5918 H         1 THR         0.0257
    274 H128      -19.8796    1.6718   -0.3101 H         1 PRO         0.0802
    275 N         -19.1300   -0.1770   -0.9670 N.am      1 PRO        -0.2498
    276 CA        -20.0190    0.9950   -1.1660 C.3       1 PRO         0.1338
    277 C         -21.5400    0.6590   -1.1950 C.2       1 PRO         0.2043
    278 O         -22.2110    0.8730   -0.1780 O.2       1 PRO        -0.3944
    279 CB        -19.4650    1.7080   -2.4190 C.3       1 PRO        -0.0104
    280 CG        -18.4750    0.7350   -3.0640 C.3       1 PRO        -0.0281
    281 CD        -18.5460   -0.5780   -2.2700 C.3       1 PRO         0.0369
    282 H129      -18.9529    2.6385   -2.1327 H         1 PRO         0.0313
    283 H130      -20.2821    1.9393   -3.1182 H         1 PRO         0.0313
    284 H131      -18.7518    0.5563   -4.1135 H         1 PRO         0.0287
    285 H132      -17.4566    1.1483   -3.0186 H         1 PRO         0.0287
    286 H133      -19.1912   -1.3088   -2.7795 H         1 PRO         0.0524
    287 H134      -17.5425   -1.0072   -2.1334 H         1 PRO         0.0524
    288 H135      -21.6772    0.2605   -3.1894 H         1 TYR         0.1886
    289 N         -22.0480    0.0330   -2.2890 N.am      1 TYR        -0.2608
    290 CA        -23.1330   -0.9760   -2.1970 C.3       1 TYR         0.1501
    291 C         -24.5670   -0.3580   -2.2430 C.2       1 TYR         0.2589
    292 O         -25.3510   -0.7220   -3.1490 O.2       1 TYR        -0.3678
    293 CB        -22.8020   -2.0740   -1.1140 C.3       1 TYR         0.0177
    294 CG        -23.9660   -2.7780   -0.4380 C.ar      1 TYR        -0.0491
    295 CD1       -24.6350   -3.7890   -1.1220 C.ar      1 TYR        -0.0685
    296 CD2       -24.4610   -2.3180    0.7910 C.ar      1 TYR        -0.0685
    297 CE1       -25.8140   -4.3150   -0.6090 C.ar      1 TYR        -0.0398
    298 CE2       -25.6480   -2.8400    1.2960 C.ar      1 TYR        -0.0398
    299 CZ        -26.3270   -3.8290    0.5930 C.ar      1 TYR         0.0805
    300 OH        -27.5270   -4.2930    1.0520 O.3       1 TYR        -0.3376
    301 H136      -23.0740   -1.5296   -3.1457 H         1 TYR         0.0837
    302 H137      -22.2100   -1.5878   -0.3246 H         1 TYR         0.0454
    303 H138      -22.1929   -2.8465   -1.6060 H         1 TYR         0.0454
    304 H139      -24.2354   -4.1664   -2.0563 H         1 TYR         0.0530
    305 H140      -23.9211   -1.5589    1.3453 H         1 TYR         0.0530
    306 H141      -26.3344   -5.1022   -1.1424 H         1 TYR         0.0525
    307 H142      -26.0432   -2.4756    2.2373 H         1 TYR         0.0525
    308 H143      -27.8544   -4.9604    0.4605 H         1 TYR         0.2458
    309 H144      -24.2345    0.6959   -0.7299 H         1 TYR         0.2540
    310 O1        -24.9480    0.5379   -1.3369 O.3       1 TYR        -0.2908
@<TRIPOS>BOND
     1    2    1 1  
     2    2    5 1  
     3    3    2 1  
     4    3    4 2  
     5    5    6 1  
     6    6    7 ar 
     7    6    8 ar 
     8    8   10 ar 
     9   10   11 ar 
    10   11   12 1  
    11    9   11 ar 
    12    7    9 ar 
    13    1   13 1  
    14    1   14 1  
    15    1   15 1  
    16    2   16 1  
    17    5   17 1  
    18    5   18 1  
    19    7   19 1  
    20    8   20 1  
    21    9   21 1  
    22   10   22 1  
    23   12   23 1  
    24   25   24 1  
    25   25   28 1  
    26   26   25 1  
    27   26   27 2  
    28   28   29 1  
    29   29   30 1  
    30   30   31 1  
    31   31   32 ar 
    32   32   34 ar 
    33   32   33 ar 
    34   24   35 1  
    35   25   36 1  
    36   28   37 1  
    37   28   38 1  
    38   29   39 1  
    39   29   40 1  
    40   30   41 1  
    41   30   42 1  
    42   31   43 1  
    43   33   44 1  
    44   33   45 1  
    45   34   46 1  
    46   34   47 1  
    47   24    3 am 
    48   49   48 1  
    49   50   49 1  
    50   50   51 2  
    51   48   52 1  
    52   49   53 1  
    53   49   54 1  
    54   48   26 am 
    55   56   55 1  
    56   56   59 1  
    57   57   56 1  
    58   57   58 2  
    59   59   60 1  
    60   60   61 2  
    61   60   62 1  
    62   62   65 ar 
    63   62   64 ar 
    64   64   66 ar 
    65   64   63 1  
    66   61   63 1  
    67   66   68 ar 
    68   67   68 ar 
    69   65   67 ar 
    70   55   69 1  
    71   56   70 1  
    72   59   71 1  
    73   59   72 1  
    74   61   73 1  
    75   63   74 1  
    76   65   75 1  
    77   66   76 1  
    78   67   77 1  
    79   68   78 1  
    80   55   50 am 
    81   80   79 1  
    82   80   83 1  
    83   81   80 1  
    84   81   82 2  
    85   83   84 1  
    86   84   85 1  
    87   85   86 1  
    88   86   87 1  
    89   79   88 1  
    90   80   89 1  
    91   83   90 1  
    92   83   91 1  
    93   84   92 1  
    94   84   93 1  
    95   85   94 1  
    96   85   95 1  
    97   86   96 1  
    98   86   97 1  
    99   87   98 1  
   100   87   99 1  
   101   87  100 1  
   102   79   57 am 
   103  102  101 1  
   104  102  105 1  
   105  103  102 1  
   106  103  104 2  
   107  105  106 1  
   108  106  107 1  
   109  106  108 2  
   110  108  110 1  
   111  110  109 1  
   112  107  109 2  
   113  101  111 1  
   114  102  112 1  
   115  105  113 1  
   116  105  114 1  
   117  108  115 1  
   118  109  116 1  
   119  110  117 1  
   120  119  118 1  
   121  101   81 am 
   122  120  119 1  
   123  120  123 1  
   124  121  120 1  
   125  121  122 2  
   126  123  124 1  
   127  124  125 2  
   128  124  126 1  
   129  126  129 ar 
   130  126  128 ar 
   131  128  130 ar 
   132  128  127 1  
   133  125  127 1  
   134  130  132 ar 
   135  131  132 ar 
   136  129  131 ar 
   137  120  133 1  
   138  123  134 1  
   139  123  135 1  
   140  125  136 1  
   141  127  137 1  
   142  129  138 1  
   143  130  139 1  
   144  131  140 1  
   145  132  141 1  
   146  143  142 1  
   147  119  103 am 
   148  144  143 1  
   149  144  147 1  
   150  145  144 1  
   151  145  146 2  
   152  147  149 1  
   153  147  148 1  
   154  144  150 1  
   155  147  151 1  
   156  148  152 1  
   157  148  153 1  
   158  148  154 1  
   159  149  155 1  
   160  149  156 1  
   161  149  157 1  
   162  159  158 1  
   163  143  121 am 
   164  160  159 1  
   165  160  163 1  
   166  161  160 1  
   167  161  162 2  
   168  163  164 1  
   169  164  165 ar 
   170  164  166 ar 
   171  166  168 ar 
   172  168  169 ar 
   173  169  170 1  
   174  167  169 ar 
   175  165  167 ar 
   176  160  171 1  
   177  163  172 1  
   178  163  173 1  
   179  165  174 1  
   180  166  175 1  
   181  167  176 1  
   182  168  177 1  
   183  170  178 1  
   184  180  179 1  
   185  159  145 am 
   186  181  180 1  
   187  181  184 1  
   188  182  181 1  
   189  182  183 2  
   190  184  185 1  
   191  185  186 ar 
   192  185  187 ar 
   193  187  189 ar 
   194  189  190 ar 
   195  190  191 1  
   196  188  190 ar 
   197  186  188 ar 
   198  181  192 1  
   199  184  193 1  
   200  184  194 1  
   201  186  195 1  
   202  187  196 1  
   203  188  197 1  
   204  189  198 1  
   205  191  199 1  
   206  201  200 1  
   207  180  161 am 
   208  202  201 1  
   209  202  205 1  
   210  203  202 1  
   211  203  204 2  
   212  205  207 1  
   213  205  206 1  
   214  202  208 1  
   215  205  209 1  
   216  206  210 1  
   217  207  211 1  
   218  207  212 1  
   219  207  213 1  
   220  215  214 1  
   221  201  182 am 
   222  216  215 1  
   223  216  219 1  
   224  217  216 1  
   225  217  218 2  
   226  219  220 1  
   227  216  221 1  
   228  219  222 1  
   229  219  223 1  
   230  225  224 1  
   231  215  203 am 
   232  226  225 1  
   233  226  229 1  
   234  227  226 1  
   235  227  228 2  
   236  229  230 1  
   237  226  231 1  
   238  229  232 1  
   239  229  233 1  
   240  236  234 1  
   241  225  217 am 
   242  237  236 1  
   243  236  239 1  
   244  236  235 1  
   245  235  241 1  
   246  241  240 1  
   247  239  240 1  
   248  237  238 2  
   249  239  242 1  
   250  239  243 1  
   251  240  244 1  
   252  240  245 1  
   253  241  246 1  
   254  241  247 1  
   255  249  248 1  
   256  235  227 am 
   257  250  249 1  
   258  250  253 1  
   259  251  250 1  
   260  251  252 2  
   261  253  254 1  
   262  254  255 ar 
   263  254  256 ar 
   264  250  257 1  
   265  253  258 1  
   266  253  259 1  
   267  261  260 1  
   268  249  237 am 
   269  262  261 1  
   270  262  265 1  
   271  263  262 1  
   272  263  264 2  
   273  265  267 1  
   274  265  266 1  
   275  262  268 1  
   276  265  269 1  
   277  266  270 1  
   278  267  271 1  
   279  267  272 1  
   280  267  273 1  
   281  276  274 1  
   282  261  251 am 
   283  277  276 1  
   284  276  279 1  
   285  276  275 1  
   286  275  281 1  
   287  281  280 1  
   288  279  280 1  
   289  277  278 2  
   290  279  282 1  
   291  279  283 1  
   292  280  284 1  
   293  280  285 1  
   294  281  286 1  
   295  281  287 1  
   296  289  288 1  
   297  275  263 am 
   298  289  290 1  
   299  290  293 1  
   300  290  291 1  
   301  291  292 2  
   302  293  294 1  
   303  294  295 ar 
   304  294  296 ar 
   305  296  298 ar 
   306  298  299 ar 
   307  299  300 1  
   308  297  299 ar 
   309  295  297 ar 
   310  290  301 1  
   311  293  302 1  
   312  293  303 1  
   313  295  304 1  
   314  296  305 1  
   315  297  306 1  
   316  298  307 1  
   317  300  308 1  
   318  310  309 1  
   319  277  289 am 
   320  220  230 1  
   321  291  310 1  
@<TRIPOS>SUBSTRUCTURE
     1 TYR         1

