1idg_ligand
  -I-interpret- 

307318  0  0  0  0  0  0  0  0999 V2000
   -4.1060  -16.1730   25.0780 N   0  3  0  0  0
   -2.9690  -17.0060   24.6340 C   0  0  0  0  0
   -2.1230  -16.1250   23.6620 C   0  0  0  0  0
   -1.6870  -15.0270   24.0220 O   0  0  0  0  0
   -3.4960  -18.3670   24.0710 C   0  0  0  0  0
   -4.1360  -19.4060   25.0070 C   0  0  0  0  0
   -3.3650  -20.0060   26.0030 C   0  0  0  0  0
   -5.4280  -19.8870   24.7480 C   0  0  0  0  0
   -3.8660  -21.0940   26.7210 C   0  0  0  0  0
   -5.9250  -20.9750   25.4690 C   0  0  0  0  0
   -5.1450  -21.5780   26.4460 C   0  0  0  0  0
   -5.6200  -22.6730   27.1280 O   0  0  0  0  0
   -1.8880  -16.5480   22.4130 N   0  0  0  0  0
   -2.5660  -15.9670   21.2140 C   0  0  0  0  0
   -3.2450  -14.5470   21.3040 C   0  0  0  0  0
   -4.2840  -14.3210   21.9350 O   0  0  0  0  0
   -3.5170  -17.0230   20.5750 C   0  0  0  0  0
   -2.7980  -18.2520   19.9470 C   0  0  0  0  0
   -3.3470  -19.6410   20.3340 C   0  0  0  0  0
   -4.3510  -20.1400   19.3600 N   0  0  0  0  0
   -4.4170  -21.4040   18.9010 C   0  0  0  0  0
   -3.5950  -22.3830   19.2830 N   0  0  0  0  0
   -5.3550  -21.6930   18.0190 N   0  0  0  0  0
   -2.5830  -13.6300   20.6030 N   0  0  0  0  0
   -3.0860  -12.3140   20.1870 C   0  0  0  0  0
   -1.8470  -11.4510   19.8850 C   0  0  0  0  0
   -1.5600  -10.5620   20.6890 O   0  0  0  0  0
   -1.0280  -11.5650   18.8160 N   0  0  0  0  0
   -1.0440  -12.5820   17.7210 C   0  0  0  0  0
   -1.8550  -12.0270   16.5330 C   0  0  0  0  0
   -3.0860  -11.9980   16.5940 O   0  0  0  0  0
   -1.0440  -14.1550   17.9460 C   0  0  0  0  0
   -2.1540  -15.0870   17.3660 C   0  0  0  0  0
   -3.5620  -14.9340   17.4550 C   0  0  0  0  0
   -1.9850  -16.2880   16.6720 C   0  0  0  0  0
   -4.2640  -15.9860   16.8310 N   0  0  0  0  0
   -3.2670  -16.8070   16.3470 C   0  0  0  0  0
   -0.8180  -17.0160   16.3150 C   0  0  0  0  0
   -3.3880  -18.0380   15.6510 C   0  0  0  0  0
   -0.9590  -18.2150   15.6180 C   0  0  0  0  0
   -2.2240  -18.7190   15.2900 C   0  0  0  0  0
   -1.1610  -11.6770   15.4330 N   0  0  0  0  0
   -1.2620  -12.4440   14.1580 C   0  0  0  0  0
   -2.6860  -12.9230   13.7160 C   0  0  0  0  0
   -3.1480  -13.9310   14.2510 O   0  0  0  0  0
   -0.1840  -13.5880   14.1550 C   0  0  0  0  0
    1.2490  -13.2600   13.6670 C   0  0  0  0  0
    2.0870  -12.2190   14.4410 C   0  0  0  0  0
    2.4320  -10.9420   13.6490 C   0  0  0  0  0
    1.3120  -10.0160   13.4120 N   0  3  0  0  0
   -3.4850  -12.3300   12.7950 N   0  0  0  0  0
   -3.1050  -11.2480   11.8330 C   0  0  0  0  0
   -2.0580  -11.6930   10.7460 C   0  0  0  0  0
   -1.8930  -12.8980   10.5290 O   0  0  0  0  0
   -3.0040   -9.8650   12.5550 C   0  0  0  0  0
   -3.2360   -8.6290   11.6830 C   0  0  0  0  0
   -4.4150   -8.3210   11.0110 N   0  0  0  0  0
   -2.2790   -7.6210   11.4680 C   0  0  0  0  0
   -4.0470   -7.1410   10.4220 C   0  0  0  0  0
   -2.7930   -6.6360   10.6450 N   0  0  0  0  0
   -1.4790  -10.7760    9.9470 N   0  0  0  0  0
   -1.1120  -11.0840    8.5330 C   0  0  0  0  0
    0.3890  -10.6900    8.2630 C   0  0  0  0  0
    1.2230  -11.4520    8.7530 O   0  0  0  0  0
   -2.3060  -10.5930    7.6580 C   0  0  0  0  0
   -3.4800  -11.5750    7.5710 C   0  0  0  0  0
   -4.6730  -11.5180    8.3150 C   0  0  0  0  0
   -3.4930  -12.8030    6.9460 C   0  0  0  0  0
   -5.4540  -12.6740    8.1390 N   0  0  0  0  0
   -4.6940  -13.4630    7.2930 C   0  0  0  0  0
   -2.4900  -13.4750    6.2070 C   0  0  0  0  0
   -4.9090  -14.8040    6.8890 C   0  0  0  0  0
   -2.7270  -14.7850    5.8000 C   0  0  0  0  0
   -3.9200  -15.4400    6.1260 C   0  0  0  0  0
    0.9600   -9.6200    7.6550 N   0  0  0  0  0
    0.3590   -8.6420    6.6930 C   0  0  0  0  0
   -0.7730   -7.7290    7.3090 C   0  0  0  0  0
   -1.0400   -7.8640    8.5020 O   0  0  0  0  0
    0.3770   -9.1520    5.1910 C   0  0  0  0  0
    1.7860   -9.1540    4.5520 C   0  0  0  0  0
   -0.2910  -10.4800    4.7690 C   0  0  0  0  0
   -1.4900   -6.7300    6.7490 N   0  0  0  0  0
   -1.1640   -5.9020    5.5550 C   0  0  0  0  0
   -1.7540   -6.4260    4.2170 C   0  0  0  0  0
   -0.9960   -6.7190    3.2910 O   0  0  0  0  0
    0.2740   -5.2910    5.3630 C   0  0  0  0  0
    1.2020   -5.0320    6.5590 C   0  0  0  0  0
    0.7330   -4.4110    7.7180 C   0  0  0  0  0
    2.5110   -5.5310    6.5290 C   0  0  0  0  0
    1.5220   -4.3770    8.8630 C   0  0  0  0  0
    3.3020   -5.4900    7.6720 C   0  0  0  0  0
    2.7980   -4.9350    8.8470 C   0  0  0  0  0
    3.5360   -4.9750   10.0000 O   0  0  0  0  0
   -3.0890   -6.4880    4.0340 N   0  0  0  0  0
   -3.6620   -6.5460    2.6620 C   0  0  0  0  0
   -4.9020   -5.6300    2.4820 C   0  0  0  0  0
   -5.9630   -5.8110    3.0860 O   0  0  0  0  0
   -3.8790   -7.9400    1.9860 C   0  0  0  0  0
   -3.9340   -9.2810    2.7390 C   0  0  0  0  0
   -5.0700   -9.6430    3.4730 C   0  0  0  0  0
   -2.9890  -10.2580    2.4140 C   0  0  0  0  0
   -5.2900  -10.9810    3.8000 C   0  0  0  0  0
   -3.2020  -11.5880    2.7570 C   0  0  0  0  0
   -4.3690  -11.9570    3.4210 C   0  0  0  0  0
   -4.6410  -13.2850    3.6400 O   0  0  0  0  0
   -4.7500   -4.7660    1.4690 N   0  0  0  0  0
   -5.7920   -4.3710    0.4820 C   0  0  0  0  0
   -6.9020   -5.3830    0.0260 C   0  0  0  0  0
   -7.9020   -4.9160   -0.5290 O   0  0  0  0  0
   -5.1110   -3.7460   -0.7940 C   0  0  0  0  0
   -3.6830   -3.8280   -0.8270 O   0  0  0  0  0
   -5.5180   -2.2960   -1.0850 C   0  0  0  0  0
   -6.7630   -6.7160    0.2420 N   0  0  0  0  0
   -7.8580   -7.7170    0.0970 C   0  0  0  0  0
   -9.2160   -7.2530    0.6580 C   0  0  0  0  0
   -9.3140   -6.5880    1.7000 O   0  0  0  0  0
   -7.5200   -9.0280    0.8610 C   0  0  0  0  0
   -8.9430  -10.1620    1.0690 S   0  0  0  0  0
  -10.2520   -7.7260   -0.0350 N   0  0  0  0  0
  -11.6330   -7.7000    0.4770 C   0  0  0  0  0
  -12.1340   -6.2280    0.7270 C   0  0  0  0  0
  -12.3630   -5.8650    1.8850 O   0  0  0  0  0
  -11.8560   -8.7700    1.5900 C   0  0  0  0  0
  -10.3410   -9.4410    2.3720 S   0  0  0  0  0
  -12.3060   -5.3540   -0.3160 N   0  0  0  0  0
  -12.8220   -3.9700   -0.1640 C   0  0  0  0  0
  -14.1900   -3.8030    0.5360 C   0  0  0  0  0
  -14.8920   -4.7600    0.8740 O   0  0  0  0  0
  -12.8400   -3.4130   -1.6200 C   0  0  0  0  0
  -12.6810   -4.6210   -2.5240 C   0  0  0  0  0
  -11.8530   -5.5940   -1.6980 C   0  0  0  0  0
  -14.6580   -2.5490    0.5560 N   0  0  0  0  0
  -14.7270   -1.7110    1.7620 C   0  0  0  0  0
  -16.1210   -1.6660    2.4640 C   0  0  0  0  0
  -16.1110   -1.5160    3.6830 O   0  0  0  0  0
  -14.2100   -0.2980    1.3830 C   0  0  0  0  0
  -14.0060    0.6550    2.5690 C   0  0  0  0  0
  -13.2080    0.3370    3.4800 O   0  0  0  0  0
  -14.5970    1.7550    2.5460 O   0  0  0  0  0
  -17.3380   -1.8260    1.9370 N   0  0  0  0  0
  -17.7500   -1.8300    0.5160 C   0  0  0  0  0
  -18.7570   -0.6300    0.2790 C   0  0  0  0  0
  -19.2510   -0.0590    1.2680 O   0  0  0  0  0
  -18.3010   -3.2640    0.1670 C   0  0  0  0  0
  -17.4810   -3.7370   -0.8970 O   0  0  0  0  0
  -18.3780   -4.4290    1.2150 C   0  0  0  0  0
  -19.1300   -0.1770   -0.9670 N   0  0  0  0  0
  -20.0190    0.9950   -1.1660 C   0  0  0  0  0
  -21.5400    0.6590   -1.1950 C   0  0  0  0  0
  -22.2110    0.8730   -0.1780 O   0  0  0  0  0
  -19.4650    1.7080   -2.4190 C   0  0  0  0  0
  -18.4750    0.7350   -3.0640 C   0  0  0  0  0
  -18.5460   -0.5780   -2.2700 C   0  0  0  0  0
  -22.0480    0.0330   -2.2890 N   0  0  0  0  0
  -23.1330   -0.9760   -2.1970 C   0  0  0  0  0
  -24.5670   -0.3580   -2.2430 C   0  0  0  0  0
  -25.3510   -0.7220   -3.1490 O   0  0  0  0  0
  -22.8020   -2.0740   -1.1140 C   0  0  0  0  0
  -23.9660   -2.7780   -0.4380 C   0  0  0  0  0
  -24.6350   -3.7890   -1.1220 C   0  0  0  0  0
  -24.4610   -2.3180    0.7910 C   0  0  0  0  0
  -25.8140   -4.3150   -0.6090 C   0  0  0  0  0
  -25.6480   -2.8400    1.2960 C   0  0  0  0  0
  -26.3270   -3.8290    0.5930 C   0  0  0  0  0
  -27.5270   -4.2930    1.0520 O   0  0  0  0  0
  -24.9480    0.5379   -1.3369 O   0  0  0  0  0
   -4.6899  -16.7105   25.7187 H   0  0  0  0  0
   -3.7524  -15.3428   25.5535 H   0  0  0  0  0
   -4.6577  -15.8928   24.2671 H   0  0  0  0  0
   -2.3020  -17.3110   25.4403 H   0  0  0  0  0
   -2.6030  -18.8632   23.6911 H   0  0  0  0  0
   -4.3026  -18.0827   23.3953 H   0  0  0  0  0
   -2.3678  -19.6241   26.2216 H   0  0  0  0  0
   -6.0438  -19.4118   23.9844 H   0  0  0  0  0
   -3.2589  -21.5640   27.4947 H   0  0  0  0  0
   -6.9273  -21.3513   25.2641 H   0  0  0  0  0
   -4.9610  -22.9639   27.7626 H   0  0  0  0  0
   -1.2150  -17.3017   22.2735 H   0  0  0  0  0
   -1.7209  -15.7287   20.5681 H   0  0  0  0  0
   -4.0505  -16.5214   19.7676 H   0  0  0  0  0
   -4.1524  -17.4025   21.3753 H   0  0  0  0  0
   -1.7713  -18.2204   20.3116 H   0  0  0  0  0
   -2.9333  -18.1631   18.8691 H   0  0  0  0  0
   -3.8321  -19.5546   21.3063 H   0  0  0  0  0
   -2.5129  -20.3425   20.3500 H   0  0  0  0  0
   -5.0424  -19.4753   19.0128 H   0  0  0  0  0
   -3.7029  -23.3201   18.8948 H   0  0  0  0  0
   -2.8587  -22.1944   19.9632 H   0  0  0  0  0
   -6.0013  -20.9686   17.7060 H   0  0  0  0  0
   -1.6296  -13.8646   20.3265 H   0  0  0  0  0
   -3.6957  -11.8628   20.9698 H   0  0  0  0  0
   -3.7266  -12.3996   19.3093 H   0  0  0  0  0
   -0.2963  -10.8577   18.7468 H   0  0  0  0  0
    0.0197  -12.6863   17.5069 H   0  0  0  0  0
   -1.1696  -14.2549   19.0241 H   0  0  0  0  0
   -0.1434  -14.4834   17.4272 H   0  0  0  0  0
   -4.0482  -14.0944   17.9518 H   0  0  0  0  0
    0.1709  -16.6431   16.5817 H   0  0  0  0  0
   -4.3692  -18.4432   15.4035 H   0  0  0  0  0
   -0.0687  -18.7703   15.3229 H   0  0  0  0  0
   -2.3009  -19.6590   14.7436 H   0  0  0  0  0
   -0.5479  -10.8628   15.4732 H   0  0  0  0  0
   -1.0463  -11.7249   13.3677 H   0  0  0  0  0
   -0.5602  -14.3293   13.4500 H   0  0  0  0  0
   -0.0687  -13.8708   15.2013 H   0  0  0  0  0
    1.1148  -12.8291   12.6748 H   0  0  0  0  0
    1.8002  -14.1948   13.7695 H   0  0  0  0  0
    3.0329  -12.6994   14.6913 H   0  0  0  0  0
    1.4887  -11.9067   15.2969 H   0  0  0  0  0
    2.7742  -11.2703   12.6676 H   0  0  0  0  0
    3.1628  -10.3964   14.2459 H   0  0  0  0  0
    1.6451   -9.2097   12.8835 H   0  0  0  0  0
    0.5835  -10.4941   12.8819 H   0  0  0  0  0
    0.9343   -9.7050   14.3070 H   0  0  0  0  0
   -4.4503  -12.6568   12.7531 H   0  0  0  0  0
   -3.9131  -11.0426   11.1309 H   0  0  0  0  0
   -1.9816   -9.7888   12.9251 H   0  0  0  0  0
   -3.7907   -9.8573   13.3094 H   0  0  0  0  0
   -1.2742   -7.6169   11.8904 H   0  0  0  0  0
   -4.7472   -6.6068    9.7798 H   0  0  0  0  0
   -1.2860   -9.8457   10.3182 H   0  0  0  0  0
   -1.0326  -12.1313    8.2415 H   0  0  0  0  0
   -1.9252  -10.4620    6.6451 H   0  0  0  0  0
   -2.6865   -9.6826    8.1212 H   0  0  0  0  0
   -4.9573  -10.6794    8.9507 H   0  0  0  0  0
   -1.5518  -12.9772    5.9618 H   0  0  0  0  0
   -5.8232  -15.3294    7.1654 H   0  0  0  0  0
   -1.9701  -15.3098    5.2171 H   0  0  0  0  0
   -4.0827  -16.4611    5.7811 H   0  0  0  0  0
    1.9401   -9.4582    7.8865 H   0  0  0  0  0
    1.0129   -7.7896    6.5091 H   0  0  0  0  0
   -0.2933   -8.3782    4.8168 H   0  0  0  0  0
    2.1869   -8.1404    4.5562 H   0  0  0  0  0
    2.4427   -9.8082    5.1255 H   0  0  0  0  0
    1.7176   -9.5148    3.5257 H   0  0  0  0  0
    0.1689  -11.3053    5.3125 H   0  0  0  0  0
   -1.3554  -10.4393    5.0002 H   0  0  0  0  0
   -0.1560  -10.6288    3.6977 H   0  0  0  0  0
   -2.3755   -6.5134    7.2066 H   0  0  0  0  0
   -1.7153   -5.0171    5.8729 H   0  0  0  0  0
    0.0825   -4.2958    4.9619 H   0  0  0  0  0
    0.8026   -6.0470    4.7824 H   0  0  0  0  0
   -0.2552   -3.9511    7.7257 H   0  0  0  0  0
    2.9106   -5.9527    5.6067 H   0  0  0  0  0
    1.1415   -3.9135    9.7732 H   0  0  0  0  0
    4.3151   -5.8915    7.6490 H   0  0  0  0  0
    3.0448   -4.5517   10.7079 H   0  0  0  0  0
   -3.7107   -6.4952    4.8426 H   0  0  0  0  0
   -2.8218   -6.1477    2.0933 H   0  0  0  0  0
   -2.9801   -8.0487    1.3792 H   0  0  0  0  0
   -4.8902   -7.8528    1.5885 H   0  0  0  0  0
   -5.7817   -8.8801    3.7885 H   0  0  0  0  0
   -2.0777   -9.9747    1.8873 H   0  0  0  0  0
   -6.1850  -11.2647    4.3537 H   0  0  0  0  0
   -2.4558  -12.3419    2.5063 H   0  0  0  0  0
   -5.4764  -13.3668    4.1059 H   0  0  0  0  0
   -3.8305   -4.3371    1.3640 H   0  0  0  0  0
   -6.3732   -3.6691    1.0799 H   0  0  0  0  0
   -5.5059   -4.3916   -1.5785 H   0  0  0  0  0
   -3.3590   -3.4245   -1.6356 H   0  0  0  0  0
   -6.5953   -2.2472   -1.2433 H   0  0  0  0  0
   -5.2450   -1.6664   -0.2381 H   0  0  0  0  0
   -5.0019   -1.9477   -1.9796 H   0  0  0  0  0
   -5.8438   -7.0569    0.5236 H   0  0  0  0  0
   -7.9379   -7.8632   -0.9802 H   0  0  0  0  0
   -7.1871   -8.7425    1.8589 H   0  0  0  0  0
   -6.7690   -9.5578    0.2750 H   0  0  0  0  0
  -10.0812   -8.1228   -0.9590 H   0  0  0  0  0
  -12.3296   -8.0379   -0.2902 H   0  0  0  0  0
  -12.3522   -9.6132    1.1096 H   0  0  0  0  0
  -12.4169   -8.2752    2.3829 H   0  0  0  0  0
  -12.1766   -3.4213    0.5219 H   0  0  0  0  0
  -12.0401   -2.6898   -1.7788 H   0  0  0  0  0
  -13.7667   -2.8789   -1.8297 H   0  0  0  0  0
  -13.6409   -5.0440   -2.8202 H   0  0  0  0  0
  -12.2001   -4.3688   -3.4691 H   0  0  0  0  0
  -11.9962   -6.6290   -2.0084 H   0  0  0  0  0
  -10.7815   -5.4336   -1.8178 H   0  0  0  0  0
  -14.9881   -2.1490   -0.3223 H   0  0  0  0  0
  -14.0933   -2.1677    2.5222 H   0  0  0  0  0
  -14.9670    0.1536    0.7419 H   0  0  0  0  0
  -13.2346   -0.4337    0.9157 H   0  0  0  0  0
  -12.8652   -0.5435    3.3106 H   0  0  0  0  0
  -18.0911   -1.9654    2.6107 H   0  0  0  0  0
  -16.9237   -1.6545   -0.1729 H   0  0  0  0  0
  -19.3589   -3.0655   -0.0049 H   0  0  0  0  0
  -17.7701   -4.6149   -1.1563 H   0  0  0  0  0
  -17.3772   -4.6476    1.5876 H   0  0  0  0  0
  -19.0182   -4.1282    2.0443 H   0  0  0  0  0
  -18.7919   -5.3177    0.7386 H   0  0  0  0  0
  -19.9959    1.6658   -0.3072 H   0  0  0  0  0
  -18.9767    2.6455   -2.1530 H   0  0  0  0  0
  -20.2673    1.9666   -3.1100 H   0  0  0  0  0
  -18.7299    0.5653   -4.1101 H   0  0  0  0  0
  -17.4647    1.1436   -3.0407 H   0  0  0  0  0
  -19.1447   -1.3354   -2.7760 H   0  0  0  0  0
  -17.5685   -1.0471   -2.1582 H   0  0  0  0  0
  -21.6698    0.2650   -3.2074 H   0  0  0  0  0
  -23.1682   -1.5614   -3.1158 H   0  0  0  0  0
  -22.2789   -1.5466   -0.3163 H   0  0  0  0  0
  -22.2611   -2.8550   -1.6484 H   0  0  0  0  0
  -24.2332   -4.1685   -2.0615 H   0  0  0  0  0
  -23.9181   -1.5547    1.3484 H   0  0  0  0  0
  -26.3373   -5.1065   -1.1454 H   0  0  0  0  0
  -26.0454   -2.4736    2.2425 H   0  0  0  0  0
  -27.8578   -4.9674    0.4543 H   0  0  0  0  0
  -24.2270    0.6975   -0.7235 H   0  0  0  0  0
  2  1  1  0  0  0
  2  5  1  0  0  0
  3  2  1  0  0  0
  3  4  2  0  0  0
  5  6  1  0  0  0
  6  7  4  0  0  0
  6  8  4  0  0  0
  8 10  4  0  0  0
 10 11  4  0  0  0
 11 12  1  0  0  0
  9 11  4  0  0  0
  7  9  4  0  0  0
 14 13  1  0  0  0
 14 17  1  0  0  0
 15 14  1  0  0  0
 15 16  2  0  0  0
 17 18  1  0  0  0
 18 19  1  0  0  0
 19 20  1  0  0  0
 20 21  1  0  0  0
 21 23  2  0  0  0
 21 22  1  0  0  0
 13  3  1  0  0  0
 25 24  1  0  0  0
 26 25  1  0  0  0
 26 27  2  0  0  0
 24 15  1  0  0  0
 29 28  1  0  0  0
 29 32  1  0  0  0
 30 29  1  0  0  0
 30 31  2  0  0  0
 32 33  1  0  0  0
 33 34  4  0  0  0
 33 35  4  0  0  0
 35 38  4  0  0  0
 35 37  4  0  0  0
 37 39  4  0  0  0
 37 36  4  0  0  0
 34 36  4  0  0  0
 39 41  4  0  0  0
 40 41  4  0  0  0
 38 40  4  0  0  0
 28 26  1  0  0  0
 43 42  1  0  0  0
 43 46  1  0  0  0
 44 43  1  0  0  0
 44 45  2  0  0  0
 46 47  1  0  0  0
 47 48  1  0  0  0
 48 49  1  0  0  0
 49 50  1  0  0  0
 42 30  1  0  0  0
 52 51  1  0  0  0
 52 55  1  0  0  0
 53 52  1  0  0  0
 53 54  2  0  0  0
 55 56  1  0  0  0
 56 57  4  0  0  0
 56 58  4  0  0  0
 58 60  4  0  0  0
 60 59  4  0  0  0
 57 59  4  0  0  0
 51 44  1  0  0  0
 62 61  1  0  0  0
 62 65  1  0  0  0
 63 62  1  0  0  0
 63 64  2  0  0  0
 65 66  1  0  0  0
 66 67  4  0  0  0
 66 68  4  0  0  0
 68 71  4  0  0  0
 68 70  4  0  0  0
 70 72  4  0  0  0
 70 69  4  0  0  0
 67 69  4  0  0  0
 72 74  4  0  0  0
 73 74  4  0  0  0
 71 73  4  0  0  0
 61 53  1  0  0  0
 76 75  1  0  0  0
 76 79  1  0  0  0
 77 76  1  0  0  0
 77 78  2  0  0  0
 79 81  1  0  0  0
 79 80  1  0  0  0
 75 63  1  0  0  0
 83 82  1  0  0  0
 83 86  1  0  0  0
 84 83  1  0  0  0
 84 85  2  0  0  0
 86 87  1  0  0  0
 87 88  4  0  0  0
 87 89  4  0  0  0
 89 91  4  0  0  0
 91 92  4  0  0  0
 92 93  1  0  0  0
 90 92  4  0  0  0
 88 90  4  0  0  0
 82 77  1  0  0  0
 95 94  1  0  0  0
 95 98  1  0  0  0
 96 95  1  0  0  0
 96 97  2  0  0  0
 98 99  1  0  0  0
 99100  4  0  0  0
 99101  4  0  0  0
101103  4  0  0  0
103104  4  0  0  0
104105  1  0  0  0
102104  4  0  0  0
100102  4  0  0  0
 94 84  1  0  0  0
107106  1  0  0  0
107110  1  0  0  0
108107  1  0  0  0
108109  2  0  0  0
110112  1  0  0  0
110111  1  0  0  0
106 96  1  0  0  0
114113  1  0  0  0
114117  1  0  0  0
115114  1  0  0  0
115116  2  0  0  0
117118  1  0  0  0
113108  1  0  0  0
120119  1  0  0  0
120123  1  0  0  0
121120  1  0  0  0
121122  2  0  0  0
123124  1  0  0  0
119115  1  0  0  0
127126  1  0  0  0
126129  1  0  0  0
126125  1  0  0  0
125131  1  0  0  0
131130  1  0  0  0
129130  1  0  0  0
127128  2  0  0  0
125121  1  0  0  0
133132  1  0  0  0
133136  1  0  0  0
134133  1  0  0  0
134135  2  0  0  0
136137  1  0  0  0
137138  1  0  0  0
137139  2  0  0  0
132127  1  0  0  0
141140  1  0  0  0
141144  1  0  0  0
142141  1  0  0  0
142143  2  0  0  0
144146  1  0  0  0
144145  1  0  0  0
140134  1  0  0  0
149148  1  0  0  0
148151  1  0  0  0
148147  1  0  0  0
147153  1  0  0  0
153152  1  0  0  0
151152  1  0  0  0
149150  2  0  0  0
147142  1  0  0  0
154155  1  0  0  0
155158  1  0  0  0
155156  1  0  0  0
156157  2  0  0  0
158159  1  0  0  0
159160  4  0  0  0
159161  4  0  0  0
161163  4  0  0  0
163164  4  0  0  0
164165  1  0  0  0
162164  4  0  0  0
160162  4  0  0  0
149154  1  0  0  0
118124  1  0  0  0
156166  1  0  0  0
  1167  1  0  0  0
  1168  1  0  0  0
  1169  1  0  0  0
  2170  1  0  0  0
  5171  1  0  0  0
  5172  1  0  0  0
  7173  1  0  0  0
  8174  1  0  0  0
  9175  1  0  0  0
 10176  1  0  0  0
 12177  1  0  0  0
 13178  1  0  0  0
 14179  1  0  0  0
 17180  1  0  0  0
 17181  1  0  0  0
 18182  1  0  0  0
 18183  1  0  0  0
 19184  1  0  0  0
 19185  1  0  0  0
 20186  1  0  0  0
 22187  1  0  0  0
 22188  1  0  0  0
 23189  1  0  0  0
 24190  1  0  0  0
 25191  1  0  0  0
 25192  1  0  0  0
 28193  1  0  0  0
 29194  1  0  0  0
 32195  1  0  0  0
 32196  1  0  0  0
 34197  1  0  0  0
 38198  1  0  0  0
 39199  1  0  0  0
 40200  1  0  0  0
 41201  1  0  0  0
 42202  1  0  0  0
 43203  1  0  0  0
 46204  1  0  0  0
 46205  1  0  0  0
 47206  1  0  0  0
 47207  1  0  0  0
 48208  1  0  0  0
 48209  1  0  0  0
 49210  1  0  0  0
 49211  1  0  0  0
 50212  1  0  0  0
 50213  1  0  0  0
 50214  1  0  0  0
 51215  1  0  0  0
 52216  1  0  0  0
 55217  1  0  0  0
 55218  1  0  0  0
 58219  1  0  0  0
 59220  1  0  0  0
 61221  1  0  0  0
 62222  1  0  0  0
 65223  1  0  0  0
 65224  1  0  0  0
 67225  1  0  0  0
 71226  1  0  0  0
 72227  1  0  0  0
 73228  1  0  0  0
 74229  1  0  0  0
 75230  1  0  0  0
 76231  1  0  0  0
 79232  1  0  0  0
 80233  1  0  0  0
 80234  1  0  0  0
 80235  1  0  0  0
 81236  1  0  0  0
 81237  1  0  0  0
 81238  1  0  0  0
 82239  1  0  0  0
 83240  1  0  0  0
 86241  1  0  0  0
 86242  1  0  0  0
 88243  1  0  0  0
 89244  1  0  0  0
 90245  1  0  0  0
 91246  1  0  0  0
 93247  1  0  0  0
 94248  1  0  0  0
 95249  1  0  0  0
 98250  1  0  0  0
 98251  1  0  0  0
100252  1  0  0  0
101253  1  0  0  0
102254  1  0  0  0
103255  1  0  0  0
105256  1  0  0  0
106257  1  0  0  0
107258  1  0  0  0
110259  1  0  0  0
111260  1  0  0  0
112261  1  0  0  0
112262  1  0  0  0
112263  1  0  0  0
113264  1  0  0  0
114265  1  0  0  0
117266  1  0  0  0
117267  1  0  0  0
119268  1  0  0  0
120269  1  0  0  0
123270  1  0  0  0
123271  1  0  0  0
126272  1  0  0  0
129273  1  0  0  0
129274  1  0  0  0
130275  1  0  0  0
130276  1  0  0  0
131277  1  0  0  0
131278  1  0  0  0
132279  1  0  0  0
133280  1  0  0  0
136281  1  0  0  0
136282  1  0  0  0
138283  1  0  0  0
140284  1  0  0  0
141285  1  0  0  0
144286  1  0  0  0
145287  1  0  0  0
146288  1  0  0  0
146289  1  0  0  0
146290  1  0  0  0
148291  1  0  0  0
151292  1  0  0  0
151293  1  0  0  0
152294  1  0  0  0
152295  1  0  0  0
153296  1  0  0  0
153297  1  0  0  0
154298  1  0  0  0
155299  1  0  0  0
158300  1  0  0  0
158301  1  0  0  0
160302  1  0  0  0
161303  1  0  0  0
162304  1  0  0  0
163305  1  0  0  0
165306  1  0  0  0
166307  1  0  0  0
M  END
$$$$
