2yer_ligand
  -I-interpret- 

 32 35  0  0  0  0  0  0  0  0999 V2000
   -2.4760   35.5230   13.0930 C   0  0  0  0  0
    1.2590   37.4840   12.5640 C   0  0  0  0  0
    2.4260   38.0550   12.2810 C   0  0  0  0  0
   -1.3590   36.3040   12.9980 C   0  0  0  0  0
    1.2870   36.0710   10.5950 C   0  0  0  0  0
   -2.3990   34.5430   12.1340 C   0  0  0  0  0
    0.6710   36.4820   11.7160 C   0  0  0  0  0
    3.1530   37.6920   11.1090 C   0  0  0  0  0
    2.5870   36.6630   10.2170 C   0  0  0  0  0
   -0.5560   35.8430   11.9870 C   0  0  0  0  0
    5.0320   37.7850    9.5660 C   0  0  0  0  0
    4.3390   38.2110   10.7470 C   0  0  0  0  0
    4.4590   36.8460    8.8220 C   0  0  0  0  0
    2.9430   35.2690    8.0920 C   0  0  0  0  0
    5.0320   39.2280   11.5750 C   0  0  0  0  0
    4.9320   36.3360    7.7640 N   0  0  0  0  0
   -1.1860   34.7480   11.4390 N   0  0  0  0  0
    4.0470   35.4030    7.3000 N   0  0  0  0  0
    3.2400   36.3150    9.1640 N   0  0  0  0  0
    1.9540   34.5590    8.0990 O   0  0  0  0  0
    5.5340   38.5430   12.7160 O   0  0  0  0  0
   -3.2887   35.6551   13.8073 H   0  0  0  0  0
    0.7305   37.7852   13.4685 H   0  0  0  0  0
    2.8323   38.8104   12.9536 H   0  0  0  0  0
   -1.1394   37.1640   13.6307 H   0  0  0  0  0
    0.8304   35.3052    9.9679 H   0  0  0  0  0
   -3.1320   33.7586   11.9454 H   0  0  0  0  0
    5.9940   38.2162    9.2891 H   0  0  0  0  0
    4.3492   40.0259   11.8670 H   0  0  0  0  0
    5.8394   39.7024   11.0171 H   0  0  0  0  0
    4.1964   34.8618    6.4484 H   0  0  0  0  0
    5.9934   39.1651   13.2848 H   0  0  0  0  0
  4  1  4  0  0  0
  6  1  4  0  0  0
  3  2  4  0  0  0
  7  2  4  0  0  0
  8  3  4  0  0  0
 10  4  4  0  0  0
  5  7  4  0  0  0
  9  5  4  0  0  0
 17  6  4  0  0  0
  7 10  1  0  0  0
  9  8  4  0  0  0
  8 12  1  0  0  0
 19  9  1  0  0  0
 10 17  4  0  0  0
 11 12  2  0  0  0
 13 11  1  0  0  0
 12 15  1  0  0  0
 13 16  2  0  0  0
 19 13  1  0  0  0
 14 18  1  0  0  0
 14 19  1  0  0  0
 14 20  2  0  0  0
 15 21  1  0  0  0
 16 18  1  0  0  0
  1 22  1  0  0  0
  2 23  1  0  0  0
  3 24  1  0  0  0
  4 25  1  0  0  0
  5 26  1  0  0  0
  6 27  1  0  0  0
 11 28  1  0  0  0
 15 29  1  0  0  0
 15 30  1  0  0  0
 18 31  1  0  0  0
 21 32  1  0  0  0
M  END
$$$$
