4qn9_ligand
  -I-interpret- 

 68 71  0  0  0  0  0  0  0  0999 V2000
   17.4710   19.7750  186.1190 C   0  0  0  0  0
   17.0440   21.0490  185.4210 C   0  0  0  0  0
   15.6130   21.3660  185.8810 C   0  0  0  0  0
   14.6240   20.2750  185.4730 C   0  0  0  0  0
   15.1520   18.9870  186.1120 C   0  0  0  0  0
   16.5800   18.6560  185.6530 C   0  0  0  0  0
   15.1370   22.7360  185.4140 C   0  0  0  0  0
   15.0080   22.7350  183.9120 C   0  0  0  0  0
   14.0420   21.6440  183.4450 C   0  0  0  0  0
   14.4740   20.2660  183.9410 C   0  0  0  0  0
   13.9540   21.6180  181.8980 C   0  0  0  0  0
   12.9650   20.6220  181.3360 C   0  0  0  0  0
   13.3280   19.2180  181.8290 C   0  0  0  0  0
   13.5020   19.2070  183.3860 C   0  0  0  0  0
   13.6500   22.9130  181.1680 C   0  0  0  0  0
   13.2270   22.4530  179.7830 C   0  0  0  0  0
   13.1490   20.9230  179.8460 C   0  0  0  0  0
   13.2710   20.5030  186.1560 C   0  0  0  0  0
   12.1190   20.3120  178.8850 C   0  0  0  0  0
   14.4790   18.7330  181.1020 O   0  0  0  0  0
   18.7870   19.3990  185.8240 O   0  0  0  0  0
   11.5390   20.9400  181.7650 C   0  0  0  0  0
   12.4280   20.7180  177.4480 C   0  0  0  0  0
   11.2240   20.5260  176.5350 C   0  0  0  0  0
   11.5450   20.8740  175.0950 C   0  0  0  0  0
   12.6120   20.4720  174.5450 O   0  0  0  0  0
   10.6840   21.5480  174.4960 O   0  0  0  0  0
   12.1380   18.7950  178.9770 C   0  0  0  0  0
   17.3993   19.9617  187.1905 H   0  0  0  0  0
   17.0786   20.9223  184.3389 H   0  0  0  0  0
   17.7173   21.8679  185.6742 H   0  0  0  0  0
   15.6481   21.3925  186.9701 H   0  0  0  0  0
   14.5000   18.1668  185.8114 H   0  0  0  0  0
   15.1664   19.1255  187.1931 H   0  0  0  0  0
   16.9069   17.7055  186.0747 H   0  0  0  0  0
   16.6208   18.5608  184.5679 H   0  0  0  0  0
   15.8581   23.4951  185.7172 H   0  0  0  0  0
   14.1687   22.9577  185.8627 H   0  0  0  0  0
   15.9888   22.5430  183.4770 H   0  0  0  0  0
   14.6220   23.7034  183.5936 H   0  0  0  0  0
   13.0641   21.8793  183.8650 H   0  0  0  0  0
   15.4618   19.9985  183.5656 H   0  0  0  0  0
   14.9916   21.3429  181.7088 H   0  0  0  0  0
   12.5147   18.5218  181.6242 H   0  0  0  0  0
   12.5230   19.4242  183.8133 H   0  0  0  0  0
   13.9144   18.2330  183.6494 H   0  0  0  0  0
   14.5069   23.5861  181.1396 H   0  0  0  0  0
   12.8782   23.5002  181.6656 H   0  0  0  0  0
   13.9398   22.7794  179.0257 H   0  0  0  0  0
   12.2662   22.8843  179.5020 H   0  0  0  0  0
   14.0486   20.4327  179.4739 H   0  0  0  0  0
   12.8623   21.4623  185.8385 H   0  0  0  0  0
   12.5848   19.7037  185.8760 H   0  0  0  0  0
   13.4071   20.5046  187.2375 H   0  0  0  0  0
   11.1344   20.6831  179.1695 H   0  0  0  0  0
   14.7047   17.8531  181.4125 H   0  0  0  0  0
   19.3879   20.0917  186.1082 H   0  0  0  0  0
   11.4735   20.9127  182.8527 H   0  0  0  0  0
   11.2665   21.9333  181.4082 H   0  0  0  0  0
   10.8598   20.2009  181.3401 H   0  0  0  0  0
   13.2398   20.0898  177.0814 H   0  0  0  0  0
   12.6987   21.7738  177.4408 H   0  0  0  0  0
   10.4273   21.1867  176.8767 H   0  0  0  0  0
   10.9283   19.4777  176.5754 H   0  0  0  0  0
   13.1305   19.9738  175.1811 H   0  0  0  0  0
   13.1300   18.4287  178.7128 H   0  0  0  0  0
   11.8963   18.4910  179.9955 H   0  0  0  0  0
   11.4012   18.3813  178.2885 H   0  0  0  0  0
  1  2  1  0  0  0
  1  6  1  0  0  0
  1 21  1  0  0  0
  2  3  1  0  0  0
  3  4  1  0  0  0
  3  7  1  0  0  0
  4  5  1  0  0  0
  4 10  1  0  0  0
  4 18  1  0  0  0
  5  6  1  0  0  0
  7  8  1  0  0  0
  8  9  1  0  0  0
  9 10  1  0  0  0
  9 11  1  0  0  0
 10 14  1  0  0  0
 11 12  1  0  0  0
 11 15  1  0  0  0
 12 13  1  0  0  0
 12 17  1  0  0  0
 12 22  1  0  0  0
 13 14  1  0  0  0
 13 20  1  0  0  0
 15 16  1  0  0  0
 16 17  1  0  0  0
 17 19  1  0  0  0
 19 23  1  0  0  0
 19 28  1  0  0  0
 23 24  1  0  0  0
 24 25  1  0  0  0
 25 26  1  0  0  0
 25 27  2  0  0  0
  1 29  1  0  0  0
  2 30  1  0  0  0
  2 31  1  0  0  0
  3 32  1  0  0  0
  5 33  1  0  0  0
  5 34  1  0  0  0
  6 35  1  0  0  0
  6 36  1  0  0  0
  7 37  1  0  0  0
  7 38  1  0  0  0
  8 39  1  0  0  0
  8 40  1  0  0  0
  9 41  1  0  0  0
 10 42  1  0  0  0
 11 43  1  0  0  0
 13 44  1  0  0  0
 14 45  1  0  0  0
 14 46  1  0  0  0
 15 47  1  0  0  0
 15 48  1  0  0  0
 16 49  1  0  0  0
 16 50  1  0  0  0
 17 51  1  0  0  0
 18 52  1  0  0  0
 18 53  1  0  0  0
 18 54  1  0  0  0
 19 55  1  0  0  0
 20 56  1  0  0  0
 21 57  1  0  0  0
 22 58  1  0  0  0
 22 59  1  0  0  0
 22 60  1  0  0  0
 23 61  1  0  0  0
 23 62  1  0  0  0
 24 63  1  0  0  0
 24 64  1  0  0  0
 26 65  1  0  0  0
 28 66  1  0  0  0
 28 67  1  0  0  0
 28 68  1  0  0  0
M  END
$$$$
