5f61_ligand
  -I-interpret- 

 72 75  0  0  0  0  0  0  0  0999 V2000
   -4.2140  -14.0560   -8.6910 C   0  0  0  0  0
   -4.0320  -12.5280   -6.8600 N   0  0  0  0  0
   -3.5050  -11.5180   -6.0310 C   0  0  0  0  0
   -4.0310  -10.0770   -4.2810 C   0  0  0  0  0
   -2.2520   -8.5650   -3.3420 C   0  0  0  0  0
    0.4620  -10.2800   -6.2830 C   0  0  0  0  0
    0.5950  -11.6370   -6.4990 C   0  0  0  0  0
    1.5460  -12.0850   -7.3910 C   0  0  0  0  0
    2.2460   -9.8350   -7.8370 C   0  0  0  0  0
   -0.7420  -16.7660  -14.8860 C   0  0  0  0  0
   -1.3190  -16.1250  -13.9530 N   0  3  0  0  0
   -0.5660  -15.0980  -13.3670 C   0  0  0  0  0
   -1.3320  -14.4330  -12.2430 C   0  0  0  0  0
   -1.8060  -15.2950  -11.2620 N   0  0  0  0  0
   -2.5480  -16.3040  -11.8670 C   0  0  0  0  0
   -1.7860  -16.9980  -12.9740 C   0  0  0  0  0
   -2.3720  -14.6280  -10.1320 C   0  0  0  0  0
   -3.7030  -14.7530   -9.7790 C   0  0  0  0  0
   -3.3990  -13.2150   -7.9400 C   0  0  0  0  0
   -4.3820  -11.0330   -5.1560 N   0  0  0  0  0
   -2.6970   -9.6330   -4.3230 C   0  0  0  0  0
   -1.8130  -10.1860   -5.2840 C   0  0  0  0  0
   -0.4800   -9.7500   -5.3580 N   0  0  0  0  0
    2.3650  -11.1950   -8.0600 C   0  0  0  0  0
    3.1580   -8.9890   -8.5440 N   0  0  0  0  0
    2.9490   -7.4080   -8.9020 S   0  0  0  0  0
    1.5800   -7.0270   -8.7710 O   0  0  0  0  0
    3.4580   -7.2360  -10.2220 O   0  0  0  0  0
    3.9520   -6.4220   -7.7990 C   0  0  0  0  0
    3.8800   -4.9670   -8.2330 C   0  0  0  0  0
    3.4630   -6.5710   -6.3700 C   0  0  0  0  0
    5.3730   -6.9470   -7.9370 C   0  0  0  0  0
    1.2990   -9.3740   -6.9440 C   0  0  0  0  0
   -2.2430  -11.1130   -6.1420 N   0  0  0  0  0
   -2.0680  -13.0860   -8.2850 C   0  0  0  0  0
   -1.5640  -13.7900   -9.3690 C   0  0  0  0  0
   -0.2670  -13.6620   -9.6510 F   0  0  0  0  0
   -5.2645  -14.1693   -8.4231 H   0  0  0  0  0
   -4.9935  -12.8053   -6.6624 H   0  0  0  0  0
   -4.7471   -9.6639   -3.5706 H   0  0  0  0  0
   -2.8478   -7.6647   -3.4920 H   0  0  0  0  0
   -2.3905   -8.9284   -2.3237 H   0  0  0  0  0
   -1.1990   -8.3372   -3.5078 H   0  0  0  0  0
   -0.0437  -12.3452   -5.9711 H   0  0  0  0  0
    1.6534  -13.1547   -7.5709 H   0  0  0  0  0
   -0.4823  -16.0784  -15.6909 H   0  0  0  0  0
    0.1637  -17.2324  -14.4985 H   0  0  0  0  0
   -1.4142  -17.5352  -15.2663 H   0  0  0  0  0
   -2.0973  -15.6517  -14.4120 H   0  0  0  0  0
   -0.3447  -14.3500  -14.1283 H   0  0  0  0  0
    0.3497  -15.5262  -12.9592 H   0  0  0  0  0
   -2.2047  -13.9611  -12.6943 H   0  0  0  0  0
   -0.6388  -13.7499  -11.7521 H   0  0  0  0  0
   -3.4383  -15.8514  -12.3037 H   0  0  0  0  0
   -2.7883  -17.0471  -11.1067 H   0  0  0  0  0
   -0.9192  -17.4819  -12.5238 H   0  0  0  0  0
   -2.4692  -17.6976  -13.4555 H   0  0  0  0  0
   -4.3570  -15.4039  -10.3592 H   0  0  0  0  0
   -0.1724   -9.0180   -4.7176 H   0  0  0  0  0
    3.1077  -11.5663   -8.7662 H   0  0  0  0  0
    4.0292   -9.4171   -8.8572 H   0  0  0  0  0
    4.2539   -4.8744   -9.2527 H   0  0  0  0  0
    2.8450   -4.6277   -8.1920 H   0  0  0  0  0
    4.4897   -4.3592   -7.5645 H   0  0  0  0  0
    2.4274   -6.2373   -6.3051 H   0  0  0  0  0
    3.5282   -7.6175   -6.0723 H   0  0  0  0  0
    4.0835   -5.9648   -5.7099 H   0  0  0  0  0
    5.3988   -8.0000   -7.6564 H   0  0  0  0  0
    5.7008   -6.8370   -8.9707 H   0  0  0  0  0
    6.0340   -6.3789   -7.2824 H   0  0  0  0  0
    1.2035   -8.3049   -6.7540 H   0  0  0  0  0
   -1.4148  -12.4324   -7.7068 H   0  0  0  0  0
  1 18  4  0  0  0
 19  1  4  0  0  0
  3  2  1  0  0  0
  2 19  1  0  0  0
 20  3  4  0  0  0
  3 34  4  0  0  0
  4 20  4  0  0  0
 21  4  4  0  0  0
 21  5  1  0  0  0
  6  7  4  0  0  0
 23  6  1  0  0  0
  6 33  4  0  0  0
  7  8  4  0  0  0
  8 24  4  0  0  0
  9 24  4  0  0  0
  9 25  1  0  0  0
 33  9  4  0  0  0
 11 10  1  0  0  0
 12 11  1  0  0  0
 16 11  1  0  0  0
 13 12  1  0  0  0
 14 13  1  0  0  0
 14 15  1  0  0  0
 17 14  1  0  0  0
 15 16  1  0  0  0
 18 17  4  0  0  0
 17 36  4  0  0  0
 19 35  4  0  0  0
 22 21  4  0  0  0
 22 23  1  0  0  0
 22 34  4  0  0  0
 25 26  1  0  0  0
 26 27  2  0  0  0
 26 28  2  0  0  0
 26 29  1  0  0  0
 29 30  1  0  0  0
 29 31  1  0  0  0
 29 32  1  0  0  0
 35 36  4  0  0  0
 36 37  1  0  0  0
  1 38  1  0  0  0
  2 39  1  0  0  0
  4 40  1  0  0  0
  5 41  1  0  0  0
  5 42  1  0  0  0
  5 43  1  0  0  0
  7 44  1  0  0  0
  8 45  1  0  0  0
 10 46  1  0  0  0
 10 47  1  0  0  0
 10 48  1  0  0  0
 11 49  1  0  0  0
 12 50  1  0  0  0
 12 51  1  0  0  0
 13 52  1  0  0  0
 13 53  1  0  0  0
 15 54  1  0  0  0
 15 55  1  0  0  0
 16 56  1  0  0  0
 16 57  1  0  0  0
 18 58  1  0  0  0
 23 59  1  0  0  0
 24 60  1  0  0  0
 25 61  1  0  0  0
 30 62  1  0  0  0
 30 63  1  0  0  0
 30 64  1  0  0  0
 31 65  1  0  0  0
 31 66  1  0  0  0
 31 67  1  0  0  0
 32 68  1  0  0  0
 32 69  1  0  0  0
 32 70  1  0  0  0
 33 71  1  0  0  0
 35 72  1  0  0  0
M  END
$$$$
