3avl_ligand
  -I-interpret- 

124124  0  0  0  0  0  0  0  0999 V2000
   -6.2260  -14.9730    4.3020 N   0  0  0  0  0
   -5.8400  -15.5130    5.6110 C   0  0  0  0  0
   -5.4590  -14.4060    6.6190 C   0  0  0  0  0
   -4.8390  -14.6850    7.6540 O   0  0  0  0  0
   -4.6790  -16.5440    5.4390 C   0  0  0  0  0
   -5.8370  -13.1580    6.3200 N   0  0  0  0  0
   -5.4040  -11.9250    7.0780 C   0  0  0  0  0
   -3.8840  -11.7070    7.2240 C   0  0  0  0  0
   -3.3990  -11.3100    8.2830 O   0  0  0  0  0
   -6.1160  -11.7710    8.4930 C   0  0  0  0  0
   -7.4510  -12.3020    8.4190 O   0  0  0  0  0
   -6.1470  -10.2630    8.9610 C   0  0  0  0  0
   -3.1320  -11.9610    6.1530 N   0  0  0  0  0
   -1.6750  -11.8070    6.1850 C   0  0  0  0  0
   -1.2870  -10.9550    4.9860 C   0  0  0  0  0
   -1.9740  -10.9860    3.9850 O   0  0  0  0  0
   -1.0110  -13.1940    6.0740 C   0  0  0  0  0
   -1.4520  -14.2080    7.1490 C   0  0  0  0  0
   -0.8840  -13.8080    8.5030 C   0  0  0  0  0
   -1.4570  -14.7690    9.5990 C   0  0  0  0  0
   -0.9680  -14.2560   10.8870 N   0  3  0  0  0
   -0.1900  -10.2040    5.0680 N   0  0  0  0  0
    0.2490   -9.3470    3.9330 C   0  0  0  0  0
    0.4240  -10.1690    2.6330 C   0  0  0  0  0
    0.1110   -9.7000    1.5040 O   0  0  0  0  0
    1.5850   -8.6210    4.2600 C   0  0  0  0  0
    1.7350   -7.3230    3.4580 C   0  0  0  0  0
    2.7440   -9.5350    3.9740 C   0  0  0  0  0
    1.0620   -6.1450    4.0870 C   0  0  0  0  0
    0.8980  -11.4070    2.8140 N   0  0  0  0  0
    1.1900  -12.3120    1.6820 C   0  0  0  0  0
    0.0180  -13.2820    1.4570 C   0  0  0  0  0
    0.1200  -14.1720    0.6310 O   0  0  0  0  0
    2.5270  -13.0860    1.8970 C   0  0  0  0  0
    2.5280  -13.9040    3.1650 C   0  0  0  0  0
    3.4320  -14.7310    3.3620 O   0  0  0  0  0
    1.6000  -13.7580    4.0030 O   0  0  0  0  0
   -1.0580  -13.1450    2.2380 N   0  0  0  0  0
   -2.2940  -13.9050    1.9560 C   0  0  0  0  0
   -3.4360  -13.1270    2.5890 C   0  0  0  0  0
   -3.7790  -13.2700    3.8100 O   0  0  0  0  0
   -2.1960  -15.3790    2.4070 C   0  0  0  0  0
   -3.4130  -16.2380    1.9570 C   0  0  0  0  0
   -4.4360  -15.7290    1.4930 O   0  0  0  0  0
   -3.2890  -17.5500    2.1220 N   0  0  0  0  0
   -3.9770  -12.2250    1.7680 N   0  0  0  0  0
   -4.9670  -11.2910    2.3190 C   0  0  0  0  0
   -6.2170  -12.0610    2.8330 C   0  0  0  0  0
   -6.8020  -11.6590    3.8460 O   0  0  0  0  0
   -5.3010  -10.1720    1.3350 C   0  0  0  0  0
   -4.2000   -9.0950    1.1990 C   0  0  0  0  0
   -4.6960   -8.0770    0.2120 C   0  0  0  0  0
   -3.8170   -8.4190    2.5750 C   0  0  0  0  0
   -6.5550  -13.1740    2.1610 N   0  0  0  0  0
   -7.6520  -14.1010    2.5530 C   0  0  0  0  0
   -7.4870  -14.7030    3.9460 C   0  0  0  0  0
   -8.4780  -14.9330    4.6550 O   0  0  0  0  0
   -7.7620  -15.2550    1.5490 C   0  0  0  0  0
   -8.5810  -14.8880    0.3360 C   0  0  0  0  0
   -9.4030  -13.9500    0.4490 O   0  0  0  0  0
   -8.3890  -15.5240   -0.7280 O   0  0  0  0  0
   -5.4875  -14.7925    3.6220 H   0  0  0  0  0
   -6.7092  -16.0207    6.0290 H   0  0  0  0  0
   -3.7900  -16.0304    5.0730 H   0  0  0  0  0
   -4.4617  -17.0084    6.4009 H   0  0  0  0  0
   -4.9781  -17.3100    4.7236 H   0  0  0  0  0
   -6.4617  -13.0299    5.5239 H   0  0  0  0  0
   -5.7494  -11.1310    6.4159 H   0  0  0  0  0
   -5.5426  -12.3315    9.2314 H   0  0  0  0  0
   -7.8792  -12.2084    9.2731 H   0  0  0  0  0
   -6.7243   -9.6744    8.2480 H   0  0  0  0  0
   -6.6097  -10.1990    9.9458 H   0  0  0  0  0
   -5.1283   -9.8784    9.0111 H   0  0  0  0  0
   -3.5813  -12.2698    5.2909 H   0  0  0  0  0
   -1.3501  -11.3387    7.1141 H   0  0  0  0  0
    0.0611  -13.0434    6.2009 H   0  0  0  0  0
   -1.3019  -13.6085    5.1088 H   0  0  0  0  0
   -1.0821  -15.1980    6.8824 H   0  0  0  0  0
   -2.5405  -14.2211    7.2056 H   0  0  0  0  0
   -1.1658  -12.7801    8.7311 H   0  0  0  0  0
    0.2034  -13.8806    8.4819 H   0  0  0  0  0
   -1.1289  -15.7952    9.4336 H   0  0  0  0  0
   -2.5464  -14.7920    9.5722 H   0  0  0  0  0
   -1.3140  -14.8491   11.6413 H   0  0  0  0  0
    0.0520  -14.2619   10.8888 H   0  0  0  0  0
   -1.3039  -13.3023   11.0214 H   0  0  0  0  0
    0.3607  -10.2164    5.9265 H   0  0  0  0  0
   -0.5352   -8.6058    3.7790 H   0  0  0  0  0
    1.5739   -8.3597    5.3182 H   0  0  0  0  0
    1.2674   -7.4847    2.4868 H   0  0  0  0  0
    2.7998   -7.0971    3.4006 H   0  0  0  0  0
    2.6594  -10.4305    4.5897 H   0  0  0  0  0
    2.7333   -9.8145    2.9205 H   0  0  0  0  0
    3.6766   -9.0203    4.2052 H   0  0  0  0  0
   -0.0050   -6.3460    4.1826 H   0  0  0  0  0
    1.4896   -5.9681    5.0739 H   0  0  0  0  0
    1.2126   -5.2653    3.4613 H   0  0  0  0  0
    1.0634  -11.7374    3.7647 H   0  0  0  0  0
    1.3112  -11.7030    0.7862 H   0  0  0  0  0
    3.3303  -12.3529    1.9707 H   0  0  0  0  0
    2.6573  -13.7691    1.0576 H   0  0  0  0  0
    0.9931  -13.0822    3.6922 H   0  0  0  0  0
   -1.0259  -12.5103    3.0358 H   0  0  0  0  0
   -2.4708  -13.9905    0.8838 H   0  0  0  0  0
   -2.1676  -15.3905    3.4966 H   0  0  0  0  0
   -1.3028  -15.8060    1.9509 H   0  0  0  0  0
   -4.0549  -18.1714    1.8618 H   0  0  0  0  0
   -2.4279  -17.9362    2.5089 H   0  0  0  0  0
   -3.7101  -12.1853    0.7843 H   0  0  0  0  0
   -4.5303  -10.7912    3.1837 H   0  0  0  0  0
   -6.1944   -9.6720    1.7090 H   0  0  0  0  0
   -5.4221  -10.6325    0.3545 H   0  0  0  0  0
   -3.2800   -9.5653    0.8520 H   0  0  0  0  0
   -4.8801   -8.5619   -0.7467 H   0  0  0  0  0
   -5.6219   -7.6359    0.5812 H   0  0  0  0  0
   -3.9447   -7.2971    0.0878 H   0  0  0  0  0
   -4.6981   -7.9381    2.9998 H   0  0  0  0  0
   -3.4501   -9.1808    3.2629 H   0  0  0  0  0
   -3.0395   -7.6735    2.4081 H   0  0  0  0  0
   -6.0215  -13.4003    1.3216 H   0  0  0  0  0
   -8.5542  -13.4894    2.5593 H   0  0  0  0  0
   -8.2546  -16.0896    2.0479 H   0  0  0  0  0
   -6.7560  -15.5058    1.2127 H   0  0  0  0  0
   -7.7176  -16.1944   -0.5820 H   0  0  0  0  0
  1  2  1  0  0  0
  1 56  1  0  0  0
  2  3  1  0  0  0
  2  5  1  0  0  0
  3  4  2  0  0  0
  3  6  1  0  0  0
  6  7  1  0  0  0
  7  8  1  0  0  0
  7 10  1  0  0  0
  8  9  2  0  0  0
  8 13  1  0  0  0
 10 11  1  0  0  0
 10 12  1  0  0  0
 13 14  1  0  0  0
 14 15  1  0  0  0
 14 17  1  0  0  0
 15 16  2  0  0  0
 15 22  1  0  0  0
 17 18  1  0  0  0
 18 19  1  0  0  0
 19 20  1  0  0  0
 20 21  1  0  0  0
 22 23  1  0  0  0
 23 24  1  0  0  0
 23 26  1  0  0  0
 24 25  2  0  0  0
 24 30  1  0  0  0
 26 27  1  0  0  0
 26 28  1  0  0  0
 27 29  1  0  0  0
 30 31  1  0  0  0
 31 32  1  0  0  0
 31 34  1  0  0  0
 32 33  2  0  0  0
 32 38  1  0  0  0
 34 35  1  0  0  0
 35 36  2  0  0  0
 35 37  1  0  0  0
 38 39  1  0  0  0
 39 40  1  0  0  0
 39 42  1  0  0  0
 40 41  2  0  0  0
 40 46  1  0  0  0
 42 43  1  0  0  0
 43 44  2  0  0  0
 43 45  1  0  0  0
 46 47  1  0  0  0
 47 48  1  0  0  0
 47 50  1  0  0  0
 48 49  2  0  0  0
 48 54  1  0  0  0
 50 51  1  0  0  0
 51 52  1  0  0  0
 51 53  1  0  0  0
 54 55  1  0  0  0
 55 56  1  0  0  0
 55 58  1  0  0  0
 56 57  2  0  0  0
 58 59  1  0  0  0
 59 60  2  0  0  0
 59 61  1  0  0  0
  1 62  1  0  0  0
  2 63  1  0  0  0
  5 64  1  0  0  0
  5 65  1  0  0  0
  5 66  1  0  0  0
  6 67  1  0  0  0
  7 68  1  0  0  0
 10 69  1  0  0  0
 11 70  1  0  0  0
 12 71  1  0  0  0
 12 72  1  0  0  0
 12 73  1  0  0  0
 13 74  1  0  0  0
 14 75  1  0  0  0
 17 76  1  0  0  0
 17 77  1  0  0  0
 18 78  1  0  0  0
 18 79  1  0  0  0
 19 80  1  0  0  0
 19 81  1  0  0  0
 20 82  1  0  0  0
 20 83  1  0  0  0
 21 84  1  0  0  0
 21 85  1  0  0  0
 21 86  1  0  0  0
 22 87  1  0  0  0
 23 88  1  0  0  0
 26 89  1  0  0  0
 27 90  1  0  0  0
 27 91  1  0  0  0
 28 92  1  0  0  0
 28 93  1  0  0  0
 28 94  1  0  0  0
 29 95  1  0  0  0
 29 96  1  0  0  0
 29 97  1  0  0  0
 30 98  1  0  0  0
 31 99  1  0  0  0
 34100  1  0  0  0
 34101  1  0  0  0
 37102  1  0  0  0
 38103  1  0  0  0
 39104  1  0  0  0
 42105  1  0  0  0
 42106  1  0  0  0
 45107  1  0  0  0
 45108  1  0  0  0
 46109  1  0  0  0
 47110  1  0  0  0
 50111  1  0  0  0
 50112  1  0  0  0
 51113  1  0  0  0
 52114  1  0  0  0
 52115  1  0  0  0
 52116  1  0  0  0
 53117  1  0  0  0
 53118  1  0  0  0
 53119  1  0  0  0
 54120  1  0  0  0
 55121  1  0  0  0
 58122  1  0  0  0
 58123  1  0  0  0
 61124  1  0  0  0
M  END
$$$$
