3ijh_ligand
  -I-interpret- 

 40 40  0  0  0  0  0  0  0  0999 V2000
   -9.6380    0.4070   -0.0820 C   0  0  0  0  0
   -8.7210    0.7670    0.6950 O   0  0  0  0  0
   -9.2740   -0.5000   -1.2580 C   0  0  0  0  0
  -10.4450   -0.6430   -2.0960 O   0  0  0  0  0
  -10.2770   -1.5500   -3.2070 C   0  0  0  0  0
  -11.5590   -1.6080   -4.0400 C   0  0  0  0  0
  -11.8360   -0.2110   -4.6140 C   0  0  0  0  0
  -13.0230   -0.2280   -5.4060 O   0  0  0  0  0
  -11.4190   -2.5550   -5.1000 O   0  0  0  0  0
  -10.0220   -2.9640   -2.6570 C   0  0  0  0  0
  -11.1460   -3.3990   -1.8790 O   0  0  0  0  0
   -8.7490   -2.8820   -1.8350 C   0  0  0  0  0
   -8.4880   -4.1600   -1.2500 O   0  0  0  0  0
   -8.9290   -1.8740   -0.6850 C   0  0  0  0  0
   -9.8980   -2.3030    0.2650 O   0  0  0  0  0
   -8.2770    0.0160   -2.1240 O   0  0  0  0  0
   -4.9220    1.2150   -2.8320 C   0  0  0  0  0
   -6.3900    0.8420   -2.9790 C   0  0  0  0  0
   -6.9540    0.2490   -1.6810 C   0  0  0  0  0
  -10.8580    0.6610    0.0520 O   0  0  0  0  0
   -7.8791    0.4434    0.3662 H   0  0  0  0  0
   -9.4458   -1.2033   -3.8210 H   0  0  0  0  0
  -12.3915   -1.9217   -3.4103 H   0  0  0  0  0
  -10.9953    0.0903   -5.2389 H   0  0  0  0  0
  -11.9667    0.4924   -3.7916 H   0  0  0  0  0
  -13.1840    0.6505   -5.7581 H   0  0  0  0  0
  -11.2463   -3.4240   -4.7305 H   0  0  0  0  0
   -9.9010   -3.6983   -3.4534 H   0  0  0  0  0
  -11.9256   -3.4358   -2.4380 H   0  0  0  0  0
   -7.9310   -2.5716   -2.4851 H   0  0  0  0  0
   -7.6833   -4.1137   -0.7286 H   0  0  0  0  0
   -7.9860   -1.8060   -0.1425 H   0  0  0  0  0
   -9.9757   -1.6456    0.9603 H   0  0  0  0  0
   -4.8141    1.9552   -2.0392 H   0  0  0  0  0
   -4.3457    0.3247   -2.5805 H   0  0  0  0  0
   -4.5584    1.6314   -3.7714 H   0  0  0  0  0
   -6.4783    0.0937   -3.7667 H   0  0  0  0  0
   -6.9526    1.7443   -3.2187 H   0  0  0  0  0
   -6.4279   -0.6262   -1.2998 H   0  0  0  0  0
   -6.8613    0.8825   -0.7988 H   0  0  0  0  0
  1  2  1  0  0  0
  3  1  1  0  0  0
  1 20  2  0  0  0
  3  4  1  0  0  0
  3 14  1  0  0  0
 16  3  1  0  0  0
  4  5  1  0  0  0
  5  6  1  0  0  0
  5 10  1  0  0  0
  6  7  1  0  0  0
  6  9  1  0  0  0
  7  8  1  0  0  0
 10 11  1  0  0  0
 12 10  1  0  0  0
 12 13  1  0  0  0
 14 12  1  0  0  0
 14 15  1  0  0  0
 19 16  1  0  0  0
 18 17  1  0  0  0
 18 19  1  0  0  0
  2 21  1  0  0  0
  5 22  1  0  0  0
  6 23  1  0  0  0
  7 24  1  0  0  0
  7 25  1  0  0  0
  8 26  1  0  0  0
  9 27  1  0  0  0
 10 28  1  0  0  0
 11 29  1  0  0  0
 12 30  1  0  0  0
 13 31  1  0  0  0
 14 32  1  0  0  0
 15 33  1  0  0  0
 17 34  1  0  0  0
 17 35  1  0  0  0
 17 36  1  0  0  0
 18 37  1  0  0  0
 18 38  1  0  0  0
 19 39  1  0  0  0
 19 40  1  0  0  0
M  END
$$$$
