5j87_ligand
  -I-interpret- 

 91 95  0  0  0  0  0  0  0  0999 V2000
   28.3930  -33.9520   99.1190 C   0  0  0  0  0
   27.3280  -33.9350  100.2290 C   0  0  0  0  0
   26.1040  -33.2940   99.5960 C   0  0  0  0  0
   25.1300  -33.9720   99.3040 O   0  0  0  0  0
   26.2760  -31.9900   99.3660 N   0  0  0  0  0
   25.4090  -31.2110   98.7180 C   0  0  0  0  0
   25.8890  -30.4260   97.6680 C   0  0  0  0  0
   24.0660  -31.1870   99.0950 C   0  0  0  0  0
   23.5810  -31.9330  100.1740 C   0  0  0  0  0
   24.1600  -31.7820  101.2480 O   0  0  0  0  0
   22.4910  -32.7140  100.0820 N   0  0  0  0  0
   22.0450  -33.4250  101.3010 C   0  0  0  0  0
   20.5810  -33.6340  101.3020 C   0  0  0  0  0
   20.2120  -34.2840  100.0980 O   0  0  0  0  0
   20.3090  -33.3410   99.0440 C   0  0  0  0  0
   21.7470  -32.8980   98.8300 C   0  0  0  0  0
   23.2150  -30.3410   98.4010 C   0  0  0  0  0
   23.7070  -29.5660   97.3560 C   0  0  0  0  0
   25.0380  -29.5820   96.9700 C   0  0  0  0  0
   25.4140  -28.7960   95.9360 N   0  0  0  0  0
   26.6490  -28.2910   95.7160 C   0  0  0  0  0
   27.8030  -28.3870   96.5150 C   0  0  0  0  0
   26.7230  -27.5940   94.5210 C   0  0  0  0  0
   25.7350  -27.5020   93.8070 O   0  0  0  0  0
   27.8660  -27.0310   94.1330 N   0  0  0  0  0
   27.8970  -26.2990   92.8600 C   0  0  0  0  0
   29.0170  -27.0980   94.9050 C   0  0  0  0  0
   29.0190  -27.7810   96.1070 C   0  0  0  0  0
   30.2080  -27.8610   96.8810 C   0  0  0  0  0
   31.4990  -28.0940   96.3600 C   0  0  0  0  0
   31.6810  -28.2420   95.0020 C   0  0  0  0  0
   30.0840  -27.7350   98.2530 C   0  0  0  0  0
   31.1970  -27.8340   99.0690 C   0  0  0  0  0
   32.4610  -28.0510   98.5610 C   0  0  0  0  0
   32.6310  -28.1640   97.1980 C   0  0  0  0  0
   33.8500  -28.4050   96.6480 N   0  0  0  0  0
   34.6770  -27.3980   96.2440 C   0  0  0  0  0
   34.4080  -26.2100   96.3060 O   0  0  0  0  0
   35.8740  -27.7830   95.6330 C   0  0  0  0  0
   36.8910  -26.8620   95.4010 C   0  0  0  0  0
   38.0850  -27.2090   94.7840 C   0  0  0  0  0
   38.2770  -28.5160   94.3610 C   0  0  0  0  0
   39.4710  -28.8990   93.7480 C   0  0  0  0  0
   39.1980  -29.8580   92.6010 C   0  0  0  0  0
   40.3480  -29.5990   94.7700 C   0  0  0  0  0
   40.2260  -27.6880   93.2160 C   0  0  0  0  0
   37.2670  -29.4330   94.5860 C   0  0  0  0  0
   36.0740  -29.0830   95.2060 C   0  0  0  0  0
   28.0262  -34.5350   98.2742 H   0  0  0  0  0
   28.5962  -32.9308   98.7965 H   0  0  0  0  0
   29.3086  -34.4022   99.5026 H   0  0  0  0  0
   27.6667  -33.3789  101.1032 H   0  0  0  0  0
   27.1125  -34.9387  100.5953 H   0  0  0  0  0
   27.1332  -31.5581   99.7112 H   0  0  0  0  0
   26.9428  -30.4769   97.3941 H   0  0  0  0  0
   22.3079  -32.8202  102.1689 H   0  0  0  0  0
   22.5327  -34.3994  101.3301 H   0  0  0  0  0
   20.0707  -32.6736  101.3748 H   0  0  0  0  0
   20.2961  -34.2485  102.1560 H   0  0  0  0  0
   19.7118  -32.4671   99.3042 H   0  0  0  0  0
   19.9495  -33.8075   98.1268 H   0  0  0  0  0
   22.2505  -33.6785   98.2595 H   0  0  0  0  0
   21.7224  -31.9364   98.3173 H   0  0  0  0  0
   22.1613  -30.2832   98.6739 H   0  0  0  0  0
   23.0157  -28.9179   96.8173 H   0  0  0  0  0
   27.7623  -28.9328   97.4576 H   0  0  0  0  0
   27.6320  -26.9750   92.0471 H   0  0  0  0  0
   27.1827  -25.4766   92.8978 H   0  0  0  0  0
   28.8993  -25.9041   92.6937 H   0  0  0  0  0
   29.2122  -26.0628   95.1850 H   0  0  0  0  0
   29.7244  -27.6473   94.2838 H   0  0  0  0  0
   31.0979  -29.0926   94.6491 H   0  0  0  0  0
   31.3512  -27.3370   94.4918 H   0  0  0  0  0
   32.7374  -28.4130   94.7948 H   0  0  0  0  0
   29.1033  -27.5566   98.6940 H   0  0  0  0  0
   31.0710  -27.7375  100.1474 H   0  0  0  0  0
   33.3169  -28.1323   99.2310 H   0  0  0  0  0
   34.1569  -29.3710   96.5334 H   0  0  0  0  0
   36.7444  -25.8288   95.7158 H   0  0  0  0  0
   38.8641  -26.4617   94.6334 H   0  0  0  0  0
   38.6953  -30.7463   92.9836 H   0  0  0  0  0
   38.5621  -29.3685   91.8633 H   0  0  0  0  0
   40.1414  -30.1446   92.1363 H   0  0  0  0  0
   40.5590  -28.9170   95.5937 H   0  0  0  0  0
   39.8296  -30.4796   95.1494 H   0  0  0  0  0
   41.2830  -29.9013   94.2983 H   0  0  0  0  0
   39.6077  -27.1690   92.4836 H   0  0  0  0  0
   40.4570  -27.0142   94.0411 H   0  0  0  0  0
   41.1517  -28.0172   92.7439 H   0  0  0  0  0
   37.4116  -30.4650   94.2663 H   0  0  0  0  0
   35.2966  -29.8322   95.3557 H   0  0  0  0  0
  1  2  1  0  0  0
  2  3  1  0  0  0
  3  4  2  0  0  0
  3  5  1  0  0  0
  5  6  1  0  0  0
  6  7  4  0  0  0
  6  8  4  0  0  0
  7 19  4  0  0  0
  8  9  1  0  0  0
  8 17  4  0  0  0
  9 10  2  0  0  0
  9 11  1  0  0  0
 11 12  1  0  0  0
 11 16  1  0  0  0
 12 13  1  0  0  0
 13 14  1  0  0  0
 14 15  1  0  0  0
 15 16  1  0  0  0
 17 18  4  0  0  0
 18 19  4  0  0  0
 19 20  1  0  0  0
 20 21  2  0  0  0
 21 22  1  0  0  0
 21 23  1  0  0  0
 22 28  2  0  0  0
 23 24  2  0  0  0
 23 25  1  0  0  0
 25 26  1  0  0  0
 25 27  1  0  0  0
 27 28  1  0  0  0
 28 29  1  0  0  0
 29 30  4  0  0  0
 29 32  4  0  0  0
 30 31  1  0  0  0
 30 35  4  0  0  0
 32 33  4  0  0  0
 33 34  4  0  0  0
 34 35  4  0  0  0
 35 36  1  0  0  0
 36 37  1  0  0  0
 37 38  2  0  0  0
 37 39  1  0  0  0
 39 40  4  0  0  0
 39 48  4  0  0  0
 40 41  4  0  0  0
 41 42  4  0  0  0
 42 43  1  0  0  0
 42 47  4  0  0  0
 43 44  1  0  0  0
 43 45  1  0  0  0
 43 46  1  0  0  0
 47 48  4  0  0  0
  1 49  1  0  0  0
  1 50  1  0  0  0
  1 51  1  0  0  0
  2 52  1  0  0  0
  2 53  1  0  0  0
  5 54  1  0  0  0
  7 55  1  0  0  0
 12 56  1  0  0  0
 12 57  1  0  0  0
 13 58  1  0  0  0
 13 59  1  0  0  0
 15 60  1  0  0  0
 15 61  1  0  0  0
 16 62  1  0  0  0
 16 63  1  0  0  0
 17 64  1  0  0  0
 18 65  1  0  0  0
 22 66  1  0  0  0
 26 67  1  0  0  0
 26 68  1  0  0  0
 26 69  1  0  0  0
 27 70  1  0  0  0
 27 71  1  0  0  0
 31 72  1  0  0  0
 31 73  1  0  0  0
 31 74  1  0  0  0
 32 75  1  0  0  0
 33 76  1  0  0  0
 34 77  1  0  0  0
 36 78  1  0  0  0
 40 79  1  0  0  0
 41 80  1  0  0  0
 44 81  1  0  0  0
 44 82  1  0  0  0
 44 83  1  0  0  0
 45 84  1  0  0  0
 45 85  1  0  0  0
 45 86  1  0  0  0
 46 87  1  0  0  0
 46 88  1  0  0  0
 46 89  1  0  0  0
 47 90  1  0  0  0
 48 91  1  0  0  0
M  END
$$$$
