4z2h_ligand
  -I-interpret- 

103104  0  0  0  0  0  0  0  0999 V2000
  -20.4980   -7.2570  -31.0630 C   0  0  0  0  0
  -21.0580   -6.1490  -30.3330 N   0  0  0  0  0
  -20.4210   -4.9820  -30.2190 C   0  0  0  0  0
  -19.3470   -4.7690  -30.8130 O   0  0  0  0  0
  -21.0290   -4.1290  -29.3680 N   0  0  0  0  0
  -20.6440   -2.8550  -29.1670 C   0  0  0  0  0
  -21.1480   -2.2520  -28.1800 N   0  0  0  0  0
  -19.6680   -2.2970  -29.9120 N   0  0  0  0  0
  -18.9220   -1.1090  -29.5430 C   0  0  0  0  0
  -19.0550    0.0150  -30.5770 C   0  0  0  0  0
  -20.3940    0.5700  -30.4700 N   0  0  0  0  0
  -21.1780    0.8960  -31.4860 C   0  0  0  0  0
  -20.9040    0.8830  -32.6890 O   0  0  0  0  0
  -22.5050    1.2500  -31.0340 O   0  0  0  0  0
  -23.2740    1.9860  -31.9970 C   0  0  0  0  0
  -24.6080    1.2890  -32.2480 C   0  0  0  0  0
  -25.3730    1.0970  -30.9340 C   0  0  0  0  0
  -23.4750    3.4200  -31.4380 C   0  0  0  0  0
  -22.1890    4.2330  -31.3950 C   0  0  0  0  0
  -24.4400    4.1920  -32.2690 C   0  0  0  0  0
  -24.1630    4.4790  -33.4180 O   0  0  0  0  0
  -25.7150    4.5090  -31.6500 O   0  0  0  0  0
  -26.6530    5.2940  -32.3900 C   0  0  0  0  0
  -26.8270    6.6520  -31.6970 C   0  0  0  0  0
  -25.5770    7.1900  -31.0260 C   0  0  0  0  0
  -27.9790    4.5100  -32.4950 C   0  0  0  0  0
  -29.0480    5.3930  -32.8230 O   0  0  0  0  0
  -28.3270    3.8160  -31.1770 C   0  0  0  0  0
  -27.8450    3.5580  -33.6680 C   0  0  0  0  0
  -28.9010    2.4630  -33.8160 C   0  0  0  0  0
  -30.3540    2.9540  -33.9130 C   0  0  0  0  0
  -27.7910    4.3790  -34.8340 O   0  0  0  0  0
  -27.5510    3.6530  -36.0520 C   0  0  0  0  0
  -26.1820    4.0560  -36.6260 C   0  0  0  0  0
  -28.6270    4.0080  -37.0930 C   0  0  0  0  0
  -27.4850    2.2210  -35.7820 O   0  0  0  0  0
  -28.5440    1.6430  -35.0560 C   0  0  0  0  0
  -28.1100    0.2120  -34.7710 C   0  0  0  0  0
  -29.3680   -0.5860  -34.4410 C   0  0  0  0  0
  -26.9950    0.0840  -33.6950 C   0  0  0  0  0
  -25.5270   -0.0290  -34.2080 C   0  0  0  0  0
  -25.1640    1.0630  -35.0710 O   0  0  0  0  0
  -25.3730   -1.3240  -34.9680 C   0  0  0  0  0
  -24.5030   -0.0160  -33.0560 C   0  0  0  0  0
  -24.7060   -1.1830  -32.2300 O   0  0  0  0  0
  -23.4720   -1.6380  -31.6970 C   0  0  0  0  0
  -23.5400   -3.0320  -31.2660 C   0  0  0  0  0
  -23.6070   -4.2440  -30.8650 C   0  0  0  0  0
  -20.3392   -6.9637  -32.1007 H   0  0  0  0  0
  -19.5461   -7.5417  -30.6148 H   0  0  0  0  0
  -21.1864   -8.1012  -31.0240 H   0  0  0  0  0
  -21.9698   -6.2597  -29.8894 H   0  0  0  0  0
  -21.8157   -2.7315  -27.5761 H   0  0  0  0  0
  -19.4376   -2.7430  -30.7999 H   0  0  0  0  0
  -17.8686   -1.3813  -29.4769 H   0  0  0  0  0
  -19.3202   -0.7432  -28.5966 H   0  0  0  0  0
  -18.8893   -0.3761  -31.5808 H   0  0  0  0  0
  -18.3111    0.7891  -30.3886 H   0  0  0  0  0
  -20.7617    0.7215  -29.5307 H   0  0  0  0  0
  -22.7566    2.0365  -32.9550 H   0  0  0  0  0
  -25.1814    1.9573  -32.8904 H   0  0  0  0  0
  -24.7779    0.4870  -30.2544 H   0  0  0  0  0
  -25.5624    2.0696  -30.4799 H   0  0  0  0  0
  -26.3209    0.5983  -31.1364 H   0  0  0  0  0
  -23.8470    3.2734  -30.4240 H   0  0  0  0  0
  -21.4632    3.7291  -30.7567 H   0  0  0  0  0
  -21.7854    4.3258  -32.4033 H   0  0  0  0  0
  -22.4006    5.2244  -30.9943 H   0  0  0  0  0
  -26.2980    5.4871  -33.4023 H   0  0  0  0  0
  -27.5718    6.5137  -30.9133 H   0  0  0  0  0
  -27.1037    7.3684  -32.4705 H   0  0  0  0  0
  -25.2453    6.4872  -30.2617 H   0  0  0  0  0
  -24.7916    7.3157  -31.7713 H   0  0  0  0  0
  -25.7993    8.1522  -30.5647 H   0  0  0  0  0
  -29.8659    4.8942  -32.8853 H   0  0  0  0  0
  -27.5326    3.1172  -30.9150 H   0  0  0  0  0
  -28.4292    4.5634  -30.3902 H   0  0  0  0  0
  -29.2663    3.2746  -31.2899 H   0  0  0  0  0
  -26.9449    2.9673  -33.4975 H   0  0  0  0  0
  -28.8762    1.8738  -32.8993 H   0  0  0  0  0
  -30.6097    3.5087  -33.0102 H   0  0  0  0  0
  -30.4595    3.6033  -34.7821 H   0  0  0  0  0
  -31.0197    2.0970  -34.0152 H   0  0  0  0  0
  -26.1768    5.1262  -36.8325 H   0  0  0  0  0
  -25.4022    3.8207  -35.9017 H   0  0  0  0  0
  -26.0003    3.5057  -37.5491 H   0  0  0  0  0
  -29.6096    3.7427  -36.7029 H   0  0  0  0  0
  -28.5930    5.0779  -37.2985 H   0  0  0  0  0
  -28.4380    3.4540  -38.0125 H   0  0  0  0  0
  -29.4784    1.6351  -35.6172 H   0  0  0  0  0
  -27.6276   -0.1995  -35.6576 H   0  0  0  0  0
  -29.8536   -0.1515  -33.5672 H   0  0  0  0  0
  -30.0501   -0.5543  -35.2906 H   0  0  0  0  0
  -29.0958   -1.6202  -34.2303 H   0  0  0  0  0
  -27.1978   -0.8467  -33.1651 H   0  0  0  0  0
  -27.0368    1.0040  -33.1119 H   0  0  0  0  0
  -24.2557    0.9517  -35.3612 H   0  0  0  0  0
  -25.5984   -2.1608  -34.3069 H   0  0  0  0  0
  -26.0610   -1.3317  -35.8134 H   0  0  0  0  0
  -24.3488   -1.4114  -35.3306 H   0  0  0  0  0
  -23.4917   -0.0527  -33.4611 H   0  0  0  0  0
  -23.2302   -1.0251  -30.8286 H   0  0  0  0  0
  -22.7152   -1.5601  -32.4776 H   0  0  0  0  0
  1  2  1  0  0  0
  2  3  1  0  0  0
  3  4  2  0  0  0
  3  5  1  0  0  0
  5  6  4  0  0  0
  6  7  2  0  0  0
  6  8  1  0  0  0
  8  9  1  0  0  0
  9 10  1  0  0  0
 10 11  1  0  0  0
 11 12  1  0  0  0
 12 13  2  0  0  0
 12 14  1  0  0  0
 14 15  1  0  0  0
 15 16  1  0  0  0
 15 18  1  0  0  0
 16 17  1  0  0  0
 16 44  1  0  0  0
 18 19  1  0  0  0
 18 20  1  0  0  0
 20 21  2  0  0  0
 20 22  1  0  0  0
 22 23  1  0  0  0
 23 24  1  0  0  0
 23 26  1  0  0  0
 24 25  1  0  0  0
 26 27  1  0  0  0
 26 28  1  0  0  0
 26 29  1  0  0  0
 29 30  1  0  0  0
 29 32  1  0  0  0
 30 31  1  0  0  0
 30 37  1  0  0  0
 32 33  1  0  0  0
 33 34  1  0  0  0
 33 35  1  0  0  0
 33 36  1  0  0  0
 36 37  1  0  0  0
 37 38  1  0  0  0
 38 39  1  0  0  0
 38 40  1  0  0  0
 40 41  1  0  0  0
 41 42  1  0  0  0
 41 43  1  0  0  0
 41 44  1  0  0  0
 44 45  1  0  0  0
 45 46  1  0  0  0
 46 47  1  0  0  0
 47 48  3  0  0  0
  1 49  1  0  0  0
  1 50  1  0  0  0
  1 51  1  0  0  0
  2 52  1  0  0  0
  7 53  1  0  0  0
  8 54  1  0  0  0
  9 55  1  0  0  0
  9 56  1  0  0  0
 10 57  1  0  0  0
 10 58  1  0  0  0
 11 59  1  0  0  0
 15 60  1  0  0  0
 16 61  1  0  0  0
 17 62  1  0  0  0
 17 63  1  0  0  0
 17 64  1  0  0  0
 18 65  1  0  0  0
 19 66  1  0  0  0
 19 67  1  0  0  0
 19 68  1  0  0  0
 23 69  1  0  0  0
 24 70  1  0  0  0
 24 71  1  0  0  0
 25 72  1  0  0  0
 25 73  1  0  0  0
 25 74  1  0  0  0
 27 75  1  0  0  0
 28 76  1  0  0  0
 28 77  1  0  0  0
 28 78  1  0  0  0
 29 79  1  0  0  0
 30 80  1  0  0  0
 31 81  1  0  0  0
 31 82  1  0  0  0
 31 83  1  0  0  0
 34 84  1  0  0  0
 34 85  1  0  0  0
 34 86  1  0  0  0
 35 87  1  0  0  0
 35 88  1  0  0  0
 35 89  1  0  0  0
 37 90  1  0  0  0
 38 91  1  0  0  0
 39 92  1  0  0  0
 39 93  1  0  0  0
 39 94  1  0  0  0
 40 95  1  0  0  0
 40 96  1  0  0  0
 42 97  1  0  0  0
 43 98  1  0  0  0
 43 99  1  0  0  0
 43100  1  0  0  0
 44101  1  0  0  0
 46102  1  0  0  0
 46103  1  0  0  0
M  END
$$$$
