4ydq_ligand
  -I-interpret- 

 42 44  0  0  0  0  0  0  0  0999 V2000
  179.1800    9.7600   31.0350 O   0  0  0  0  0
  178.5260   10.7990   31.4530 C   0  0  0  0  0
  177.0830   11.0780   31.0040 C   0  0  0  0  0
  176.3140    9.8310   30.5370 C   0  0  0  0  0
  176.9300    9.2480   29.3330 N   0  3  0  0  0
  176.1080    8.1050   28.7960 C   0  0  0  0  0
  175.6970    7.0840   29.8450 C   0  0  0  0  0
  175.1980    7.7080   31.0790 C   0  0  0  0  0
  176.1480    8.7980   31.6030 C   0  0  0  0  0
  175.5980    9.3790   32.7730 O   0  0  0  0  0
  179.1640   11.8130   32.4120 C   0  0  0  0  0
  180.5650   11.6350   32.3650 N   0  0  0  0  0
  181.3270   12.1480   31.2530 C   0  0  0  0  0
  180.7490   12.7450   30.3530 O   0  0  0  0  0
  182.7740   11.9580   31.2140 C   0  0  0  0  0
  183.5500   12.4690   30.1100 C   0  0  0  0  0
  181.2080   10.9270   33.3940 C   0  0  0  0  0
  182.5900   10.7240   33.3480 N   0  0  0  0  0
  183.3950   11.2790   32.2060 C   0  0  0  0  0
  184.7410   11.0790   32.1900 C   0  0  0  0  0
  185.5100   11.5820   31.1140 C   0  0  0  0  0
  187.4090   11.2210   31.1760 Br  0  0  0  0  0
  184.8840   12.2820   30.0950 C   0  0  0  0  0
  185.9260   12.9170   28.7790 Cl  0  0  0  0  0
  177.1372   11.7586   30.1543 H   0  0  0  0  0
  176.5505   11.4793   31.8663 H   0  0  0  0  0
  175.3100   10.1749   30.2884 H   0  0  0  0  0
  177.8546    8.8951   29.5799 H   0  0  0  0  0
  176.9885    9.9709   28.6158 H   0  0  0  0  0
  176.7239    7.5829   28.0638 H   0  0  0  0  0
  175.1921    8.5323   28.3877 H   0  0  0  0  0
  176.5771    6.4939   30.1006 H   0  0  0  0  0
  174.8923    6.4795   29.4265 H   0  0  0  0  0
  175.1161    6.9337   31.8418 H   0  0  0  0  0
  174.2366    8.1724   30.8598 H   0  0  0  0  0
  177.1197    8.3714   31.8517 H   0  0  0  0  0
  176.1910   10.0594   33.1002 H   0  0  0  0  0
  178.7976   11.6548   33.4263 H   0  0  0  0  0
  178.9028   12.8287   32.1151 H   0  0  0  0  0
  183.0608   13.0020   29.2948 H   0  0  0  0  0
  180.6281   10.5353   34.2297 H   0  0  0  0  0
  185.2239   10.5345   33.0014 H   0  0  0  0  0
  1  2  2  0  0  0
  2  3  1  0  0  0
  2 11  1  0  0  0
  3  4  1  0  0  0
  4  5  1  0  0  0
  4  9  1  0  0  0
  5  6  1  0  0  0
  6  7  1  0  0  0
  7  8  1  0  0  0
  8  9  1  0  0  0
  9 10  1  0  0  0
 11 12  1  0  0  0
 12 13  1  0  0  0
 12 17  1  0  0  0
 13 14  2  0  0  0
 13 15  1  0  0  0
 15 16  4  0  0  0
 15 19  4  0  0  0
 16 23  4  0  0  0
 17 18  2  0  0  0
 18 19  1  0  0  0
 19 20  4  0  0  0
 20 21  4  0  0  0
 21 22  1  0  0  0
 21 23  4  0  0  0
 23 24  1  0  0  0
  3 25  1  0  0  0
  3 26  1  0  0  0
  4 27  1  0  0  0
  5 28  1  0  0  0
  5 29  1  0  0  0
  6 30  1  0  0  0
  6 31  1  0  0  0
  7 32  1  0  0  0
  7 33  1  0  0  0
  8 34  1  0  0  0
  8 35  1  0  0  0
  9 36  1  0  0  0
 10 37  1  0  0  0
 11 38  1  0  0  0
 11 39  1  0  0  0
 16 40  1  0  0  0
 17 41  1  0  0  0
 20 42  1  0  0  0
M  END
$$$$
