2x4s_ligand
  -I-interpret- 

137136  0  0  0  0  0  0  0  0999 V2000
    7.8780    7.9370   27.1780 N   0  3  0  0  0
    6.6510    7.3450   27.6980 C   0  0  0  0  0
    5.6560    7.0140   26.5910 C   0  0  0  0  0
    5.2090    7.8860   25.8450 O   0  0  0  0  0
    6.0140    8.2600   28.7280 C   0  0  0  0  0
    5.3180    5.7350   26.5010 N   0  0  0  0  0
    4.3840    5.2310   25.5070 C   0  0  0  0  0
    3.0830    6.0250   25.4950 C   0  0  0  0  0
    2.8480    6.8860   26.3490 O   0  0  0  0  0
    4.0790    3.7710   25.8200 C   0  0  0  0  0
    3.9040    2.8690   24.6270 C   0  0  0  0  0
    4.4310    1.2080   25.0960 S   0  0  0  0  0
    6.1370    1.5420   25.5230 C   0  0  0  0  0
    2.2370    5.7230   24.5170 N   0  0  0  0  0
    0.9290    6.3510   24.4060 C   0  0  0  0  0
   -0.1330    5.4760   25.0630 C   0  0  0  0  0
   -0.1260    4.2560   24.9110 O   0  0  0  0  0
    0.5880    6.5890   22.9370 C   0  0  0  0  0
   -0.8580    6.9930   22.7310 C   0  0  0  0  0
   -1.3080    7.9720   23.3670 O   0  0  0  0  0
   -1.5420    6.3280   21.9210 O   0  0  0  0  0
   -1.0490    6.1070   25.7900 N   0  0  0  0  0
   -2.0550    5.3850   26.5640 C   0  0  0  0  0
   -3.2910    4.9630   25.7660 C   0  0  0  0  0
   -4.0770    4.1340   26.2240 O   0  0  0  0  0
   -2.4920    6.2280   27.7610 C   0  0  0  0  0
   -3.8060    5.8820   28.1630 O   0  0  0  0  0
   -3.4640    5.5300   24.5780 N   0  0  0  0  0
   -4.6820    5.3050   23.8100 C   0  0  0  0  0
   -4.7480    3.9500   23.0980 C   0  0  0  0  0
   -3.9010    3.6280   22.2610 O   0  0  0  0  0
   -4.9090    6.4430   22.8050 C   0  0  0  0  0
   -5.0550    7.8050   23.4790 C   0  0  0  0  0
   -4.0700    8.4190   23.8950 O   0  0  0  0  0
   -6.2870    8.2870   23.5700 N   0  0  0  0  0
   -5.7600    3.1620   23.4530 N   0  0  0  0  0
   -6.1380    1.9770   22.6910 C   0  0  0  0  0
   -6.5200    2.4010   21.2740 C   0  0  0  0  0
   -7.3440    3.2970   21.0930 O   0  0  0  0  0
   -7.3570    1.2820   23.3310 C   0  0  0  0  0
   -7.0030    0.7810   24.6270 O   0  0  0  0  0
   -7.8500    0.1380   22.4550 C   0  0  0  0  0
   -5.9360    1.7740   20.2630 N   0  0  0  0  0
   -6.2170    2.2110   18.9050 C   0  0  0  0  0
   -6.3840    1.0530   17.9300 C   0  0  0  0  0
   -5.4070    0.4240   17.5280 O   0  0  0  0  0
   -5.1200    3.1560   18.4230 C   0  0  0  0  0
   -5.5010    3.9090   17.1530 C   0  0  0  0  0
   -6.8470    4.5750   17.3520 C   0  0  0  0  0
   -4.4380    4.9250   16.7640 C   0  0  0  0  0
   -7.6250    0.7910   17.5330 N   0  0  0  0  0
   -7.9250   -0.3830   16.7150 C   0  0  0  0  0
   -8.2430   -0.0480   15.2660 C   0  0  0  0  0
   -8.9180    0.9390   14.9840 O   0  0  0  0  0
   -9.0630   -1.1810   17.3450 C   0  0  0  0  0
   -8.6820   -1.8000   18.6790 C   0  0  0  0  0
   -9.8680   -2.3660   19.4290 C   0  0  0  0  0
  -10.8120   -1.5980   19.7230 O   0  0  0  0  0
   -9.8450   -3.5790   19.7330 O   0  0  0  0  0
   -7.7520   -0.8840   14.3530 N   0  0  0  0  0
   -7.8760   -0.6310   12.9180 C   0  0  0  0  0
   -9.2400   -1.0350   12.3940 C   0  0  0  0  0
   -9.9570   -1.7870   13.0520 O   0  0  0  0  0
   -6.7950   -1.3830   12.1350 C   0  0  0  0  0
   -5.3380   -1.0100   12.4160 C   0  0  0  0  0
   -4.3980   -1.7850   11.5090 C   0  0  0  0  0
   -5.1270    0.4840   12.2460 C   0  0  0  0  0
   -9.6410   -0.6300   11.3010 O   0  0  0  0  0
    8.2913    7.3092   26.4885 H   0  0  0  0  0
    7.6627    8.8320   26.7387 H   0  0  0  0  0
    8.5353    8.0824   27.9443 H   0  0  0  0  0
    6.9249    6.4053   28.1775 H   0  0  0  0  0
    5.6994    9.1852   28.2451 H   0  0  0  0  0
    5.1476    7.7644   29.1659 H   0  0  0  0  0
    6.7392    8.4852   29.5100 H   0  0  0  0  0
    5.7320    5.0746   27.1590 H   0  0  0  0  0
    4.8431    5.3320   24.5236 H   0  0  0  0  0
    3.1293    3.7623   26.3550 H   0  0  0  0  0
    4.9372    3.3884   26.3725 H   0  0  0  0  0
    4.5035    3.2310   23.7917 H   0  0  0  0  0
    2.8595    2.8573   24.3154 H   0  0  0  0  0
    6.6557    1.9452   24.6532 H   0  0  0  0  0
    6.1714    2.2668   26.3364 H   0  0  0  0  0
    6.6191    0.6167   25.8385 H   0  0  0  0  0
    2.5126    5.0292   23.8219 H   0  0  0  0  0
    0.9527    7.3116   24.9206 H   0  0  0  0  0
    0.7549    5.6558   22.3990 H   0  0  0  0  0
    1.2177    7.4015   22.5744 H   0  0  0  0  0
   -1.0025    5.6268   21.5484 H   0  0  0  0  0
   -1.0494    7.1268   25.8080 H   0  0  0  0  0
   -1.5706    4.4627   26.8848 H   0  0  0  0  0
   -2.4757    7.2800   27.4763 H   0  0  0  0  0
   -1.8093    6.0435   28.5904 H   0  0  0  0  0
   -4.0619    6.4214   28.9148 H   0  0  0  0  0
   -2.7338    6.1319   24.1973 H   0  0  0  0  0
   -5.4846    5.2910   24.5474 H   0  0  0  0  0
   -5.8342    6.2349   22.2676 H   0  0  0  0  0
   -4.0407    6.4866   22.1475 H   0  0  0  0  0
   -6.4475    9.1992   23.9973 H   0  0  0  0  0
   -7.0742    7.7456   23.2127 H   0  0  0  0  0
   -6.2923    3.3959   24.2910 H   0  0  0  0  0
   -5.2944    1.2868   22.6805 H   0  0  0  0  0
   -8.1596    2.0131   23.4281 H   0  0  0  0  0
   -7.7647    0.3495   25.0210 H   0  0  0  0  0
   -8.1397    0.5280   21.4793 H   0  0  0  0  0
   -7.0519   -0.5942   22.3326 H   0  0  0  0  0
   -8.7100   -0.3358   22.9283 H   0  0  0  0  0
   -5.2988    0.9963   20.4350 H   0  0  0  0  0
   -7.1717    2.7364   18.9312 H   0  0  0  0  0
   -4.2372    2.5560   18.2021 H   0  0  0  0  0
   -4.9469    3.8927   19.2075 H   0  0  0  0  0
   -5.5709    3.1968   16.3308 H   0  0  0  0  0
   -7.5987    3.8153   17.5664 H   0  0  0  0  0
   -6.7856    5.2731   18.1869 H   0  0  0  0  0
   -7.1218    5.1141   16.4454 H   0  0  0  0  0
   -4.3164    5.6484   17.5702 H   0  0  0  0  0
   -3.4927    4.4112   16.5895 H   0  0  0  0  0
   -4.7459    5.4409   15.8545 H   0  0  0  0  0
   -8.3811    1.4198   17.8037 H   0  0  0  0  0
   -7.0186   -0.9880   16.6913 H   0  0  0  0  0
   -9.3193   -1.9914   16.6627 H   0  0  0  0  0
   -9.8929   -0.4964   17.5202 H   0  0  0  0  0
   -8.2431   -1.0156   19.2955 H   0  0  0  0  0
   -7.9932   -2.6208   18.4793 H   0  0  0  0  0
  -10.6207   -0.7169   19.3933 H   0  0  0  0  0
   -7.2735   -1.7290   14.6650 H   0  0  0  0  0
   -7.7499    0.4421   12.7744 H   0  0  0  0  0
   -6.9655   -1.1379   11.0867 H   0  0  0  0  0
   -6.8934   -2.4288   12.4261 H   0  0  0  0  0
   -5.1131   -1.2760   13.4488 H   0  0  0  0  0
   -4.5273   -2.8534   11.6817 H   0  0  0  0  0
   -4.6261   -1.5536   10.4686 H   0  0  0  0  0
   -3.3684   -1.5022   11.7282 H   0  0  0  0  0
   -5.3749    0.7707   11.2240 H   0  0  0  0  0
   -5.7706    1.0221   12.9420 H   0  0  0  0  0
   -4.0845    0.7280   12.4504 H   0  0  0  0  0
   -8.9772   -0.0571   10.9101 H   0  0  0  0  0
  1  2  1  0  0  0
  2  3  1  0  0  0
  2  5  1  0  0  0
  3  4  2  0  0  0
  3  6  1  0  0  0
  6  7  1  0  0  0
  7  8  1  0  0  0
  7 10  1  0  0  0
  8  9  2  0  0  0
  8 14  1  0  0  0
 10 11  1  0  0  0
 11 12  1  0  0  0
 12 13  1  0  0  0
 14 15  1  0  0  0
 15 16  1  0  0  0
 15 18  1  0  0  0
 16 17  2  0  0  0
 16 22  1  0  0  0
 18 19  1  0  0  0
 19 20  2  0  0  0
 19 21  1  0  0  0
 22 23  1  0  0  0
 23 24  1  0  0  0
 23 26  1  0  0  0
 24 25  2  0  0  0
 24 28  1  0  0  0
 26 27  1  0  0  0
 28 29  1  0  0  0
 29 30  1  0  0  0
 29 32  1  0  0  0
 30 31  2  0  0  0
 30 36  1  0  0  0
 32 33  1  0  0  0
 33 34  2  0  0  0
 33 35  1  0  0  0
 36 37  1  0  0  0
 37 38  1  0  0  0
 37 40  1  0  0  0
 38 39  2  0  0  0
 38 43  1  0  0  0
 40 41  1  0  0  0
 40 42  1  0  0  0
 43 44  1  0  0  0
 44 45  1  0  0  0
 44 47  1  0  0  0
 45 46  2  0  0  0
 45 51  1  0  0  0
 47 48  1  0  0  0
 48 49  1  0  0  0
 48 50  1  0  0  0
 51 52  1  0  0  0
 52 53  1  0  0  0
 52 55  1  0  0  0
 53 54  2  0  0  0
 53 60  1  0  0  0
 55 56  1  0  0  0
 56 57  1  0  0  0
 57 58  1  0  0  0
 57 59  2  0  0  0
 60 61  1  0  0  0
 61 62  1  0  0  0
 61 64  1  0  0  0
 62 63  2  0  0  0
 62 68  1  0  0  0
 64 65  1  0  0  0
 65 66  1  0  0  0
 65 67  1  0  0  0
  1 69  1  0  0  0
  1 70  1  0  0  0
  1 71  1  0  0  0
  2 72  1  0  0  0
  5 73  1  0  0  0
  5 74  1  0  0  0
  5 75  1  0  0  0
  6 76  1  0  0  0
  7 77  1  0  0  0
 10 78  1  0  0  0
 10 79  1  0  0  0
 11 80  1  0  0  0
 11 81  1  0  0  0
 13 82  1  0  0  0
 13 83  1  0  0  0
 13 84  1  0  0  0
 14 85  1  0  0  0
 15 86  1  0  0  0
 18 87  1  0  0  0
 18 88  1  0  0  0
 21 89  1  0  0  0
 22 90  1  0  0  0
 23 91  1  0  0  0
 26 92  1  0  0  0
 26 93  1  0  0  0
 27 94  1  0  0  0
 28 95  1  0  0  0
 29 96  1  0  0  0
 32 97  1  0  0  0
 32 98  1  0  0  0
 35 99  1  0  0  0
 35100  1  0  0  0
 36101  1  0  0  0
 37102  1  0  0  0
 40103  1  0  0  0
 41104  1  0  0  0
 42105  1  0  0  0
 42106  1  0  0  0
 42107  1  0  0  0
 43108  1  0  0  0
 44109  1  0  0  0
 47110  1  0  0  0
 47111  1  0  0  0
 48112  1  0  0  0
 49113  1  0  0  0
 49114  1  0  0  0
 49115  1  0  0  0
 50116  1  0  0  0
 50117  1  0  0  0
 50118  1  0  0  0
 51119  1  0  0  0
 52120  1  0  0  0
 55121  1  0  0  0
 55122  1  0  0  0
 56123  1  0  0  0
 56124  1  0  0  0
 58125  1  0  0  0
 60126  1  0  0  0
 61127  1  0  0  0
 64128  1  0  0  0
 64129  1  0  0  0
 65130  1  0  0  0
 66131  1  0  0  0
 66132  1  0  0  0
 66133  1  0  0  0
 67134  1  0  0  0
 67135  1  0  0  0
 67136  1  0  0  0
 68137  1  0  0  0
M  END
$$$$
