### 
### Created by X-TOOL on Mon Sep 10 21:13:02 2018
### 

@<TRIPOS>MOLECULE
2x4s_ligand
  134   133     1     0     0
SMALL
GAST_HUCK


@<TRIPOS>ATOM
      1 N           7.8780    7.9370   27.1780 N.4       1 ALA         0.2377
      2 CA          6.6510    7.3450   27.6980 C.3       1 ALA         0.0621
      3 C           5.6560    7.0140   26.5910 C.2       1 ALA         0.2264
      4 O           5.2090    7.8860   25.8450 O.2       1 ALA        -0.3907
      5 CB          6.0140    8.2600   28.7280 C.3       1 ALA        -0.0040
      6 N           5.3180    5.7350   26.5010 N.am      1 MET        -0.2610
      7 CA          4.3840    5.2310   25.5070 C.3       1 MET         0.1318
      8 C           3.0830    6.0250   25.4950 C.2       1 MET         0.2040
      9 O           2.8480    6.8860   26.3490 O.2       1 MET        -0.3944
     10 CB          4.0790    3.7710   25.8200 C.3       1 MET        -0.0034
     11 CG          3.9040    2.8690   24.6270 C.3       1 MET        -0.0024
     12 SD          4.4310    1.2080   25.0960 S.3       1 MET        -0.1639
     13 CE          6.1370    1.5420   25.5230 C.3       1 MET        -0.0181
     14 N           2.2370    5.7230   24.5170 N.am      1 ASP        -0.2622
     15 CA          0.9290    6.3510   24.4060 C.3       1 ASP         0.1423
     16 C          -0.1330    5.4760   25.0630 C.2       1 ASP         0.2057
     17 O          -0.1260    4.2560   24.9110 O.2       1 ASP        -0.3943
     18 CB          0.5880    6.5890   22.9370 C.3       1 ASP         0.0406
     19 CG         -0.8580    6.9930   22.7310 C.2       1 ASP         0.0393
     20 OD1        -1.3080    7.9720   23.3670 O.co2     1 ASP        -0.5688
     21 OD2        -1.5420    6.3280   21.9210 O.co2     1 ASP        -0.5688
     22 N          -1.0490    6.1070   25.7900 N.am      1 SER        -0.2615
     23 CA         -2.0550    5.3850   26.5640 C.3       1 SER         0.1539
     24 C          -3.2910    4.9630   25.7660 C.2       1 SER         0.2063
     25 O          -4.0770    4.1340   26.2240 O.2       1 SER        -0.3943
     26 CB         -2.4920    6.2280   27.7610 C.3       1 SER         0.0843
     27 OG         -3.8060    5.8820   28.1630 O.3       1 SER        -0.3903
     28 N          -3.4640    5.5300   24.5780 N.am      1 ASN        -0.2615
     29 CA         -4.6820    5.3050   23.8100 C.3       1 ASN         0.1476
     30 C          -4.7480    3.9500   23.0980 C.2       1 ASN         0.2063
     31 O          -3.9010    3.6280   22.2610 O.2       1 ASN        -0.3942
     32 CB         -4.9090    6.4430   22.8050 C.3       1 ASN         0.0773
     33 CG         -5.0550    7.8050   23.4790 C.2       1 ASN         0.1780
     34 OD1        -4.0700    8.4190   23.8950 O.2       1 ASN        -0.3970
     35 ND2        -6.2870    8.2870   23.5700 N.am      1 ASN        -0.3007
     36 N          -5.7600    3.1620   23.4530 N.am      1 THR        -0.2612
     37 CA         -6.1380    1.9770   22.6910 C.3       1 THR         0.1565
     38 C          -6.5200    2.4010   21.2740 C.2       1 THR         0.2065
     39 O          -7.3440    3.2970   21.0930 O.2       1 THR        -0.3943
     40 CB         -7.3570    1.2820   23.3310 C.3       1 THR         0.0924
     41 OG1        -7.0030    0.7810   24.6270 O.3       1 THR        -0.3874
     42 CG2        -7.8500    0.1380   22.4550 C.3       1 THR        -0.0346
     43 N          -5.9360    1.7740   20.2630 N.am      1 LEU        -0.2636
     44 CA         -6.2170    2.2110   18.9050 C.3       1 LEU         0.1312
     45 C          -6.3840    1.0530   17.9300 C.2       1 LEU         0.2039
     46 O          -5.4070    0.4240   17.5280 O.2       1 LEU        -0.3944
     47 CB         -5.1200    3.1560   18.4230 C.3       1 LEU        -0.0101
     48 CG         -5.5010    3.9090   17.1530 C.3       1 LEU        -0.0425
     49 CD1        -6.8470    4.5750   17.3520 C.3       1 LEU        -0.0625
     50 CD2        -4.4380    4.9250   16.7640 C.3       1 LEU        -0.0625
     51 N          -7.6250    0.7910   17.5330 N.am      1 GLU        -0.2636
     52 CA         -7.9250   -0.3830   16.7150 C.3       1 GLU         0.1324
     53 C          -8.2430   -0.0480   15.2660 C.2       1 GLU         0.2034
     54 O          -8.9180    0.9390   14.9840 O.2       1 GLU        -0.3944
     55 CB         -9.0630   -1.1810   17.3450 C.3       1 GLU        -0.0008
     56 CG         -8.6820   -1.8000   18.6790 C.3       1 GLU         0.0044
     57 CD         -9.8680   -2.3660   19.4290 C.2       1 GLU         0.0350
     58 OE1       -10.8120   -1.5980   19.7230 O.co2     1 GLU        -0.5690
     59 OE2        -9.8450   -3.5790   19.7330 O.co2     1 GLU        -0.5690
     60 N          -7.7520   -0.8840   14.3530 N.am      1 LEU        -0.2695
     61 CA         -7.8760   -0.6310   12.9180 C.3       1 LEU         0.0946
     62 C          -9.2400   -1.0350   12.3940 C.2       1 LEU         0.0601
     63 O          -9.9570   -1.7870   13.0520 O.co2     1 LEU        -0.5666
     64 CB         -6.7950   -1.3830   12.1350 C.3       1 LEU        -0.0156
     65 CG         -5.3380   -1.0100   12.4160 C.3       1 LEU        -0.0431
     66 CD1        -4.3980   -1.7850   11.5090 C.3       1 LEU        -0.0625
     67 CD2        -5.1270    0.4840   12.2460 C.3       1 LEU        -0.0625
     68 OXT        -9.6410   -0.6300   11.3010 O.co2     1 LEU        -0.5666
     69 H           8.2913    7.3092   26.4885 H         1 ALA         0.2015
     70 H           7.6627    8.8320   26.7387 H         1 ALA         0.2015
     71 H           8.5353    8.0824   27.9443 H         1 ALA         0.2015
     72 H           6.9249    6.4053   28.1775 H         1 ALA         0.1095
     73 H           5.6994    9.1852   28.2451 H         1 ALA         0.0310
     74 H           5.1476    7.7644   29.1659 H         1 ALA         0.0310
     75 H           6.7392    8.4852   29.5100 H         1 ALA         0.0310
     76 H           5.7320    5.0746   27.1590 H         1 MET         0.1884
     77 H           4.8431    5.3320   24.5236 H         1 MET         0.0800
     78 H           3.1293    3.7623   26.3550 H         1 MET         0.0320
     79 H           4.9372    3.3884   26.3725 H         1 MET         0.0320
     80 H           4.5035    3.2310   23.7917 H         1 MET         0.0378
     81 H           2.8595    2.8573   24.3154 H         1 MET         0.0378
     82 H           6.6557    1.9452   24.6532 H         1 MET         0.0340
     83 H           6.1714    2.2668   26.3364 H         1 MET         0.0340
     84 H           6.6191    0.6167   25.8385 H         1 MET         0.0340
     85 H           2.5126    5.0292   23.8219 H         1 ASP         0.1884
     86 H           0.9527    7.3116   24.9206 H         1 ASP         0.0819
     87 H           0.7549    5.6558   22.3990 H         1 ASP         0.0478
     88 H           1.2177    7.4015   22.5744 H         1 ASP         0.0478
     89 H          -1.0494    7.1268   25.8080 H         1 SER         0.1884
     90 H          -1.5706    4.4627   26.8848 H         1 SER         0.0823
     91 H          -2.4757    7.2800   27.4763 H         1 SER         0.0606
     92 H          -1.8093    6.0435   28.5904 H         1 SER         0.0606
     93 H          -4.4131    6.0363   27.4355 H         1 SER         0.2097
     94 H          -2.7338    6.1319   24.1973 H         1 ASN         0.1885
     95 H          -5.4846    5.2910   24.5474 H         1 ASN         0.0826
     96 H          -5.8342    6.2349   22.2676 H         1 ASN         0.0551
     97 H          -4.0407    6.4866   22.1475 H         1 ASN         0.0551
     98 H          -6.4475    9.1992   23.9973 H         1 ASN         0.1814
     99 H          -7.0742    7.7456   23.2127 H         1 ASN         0.1814
    100 H          -6.2923    3.3959   24.2910 H         1 THR         0.1884
    101 H          -5.2944    1.2868   22.6805 H         1 THR         0.0826
    102 H          -8.1596    2.0131   23.4281 H         1 THR         0.0639
    103 H          -7.7647    0.3495   25.0210 H         1 THR         0.2101
    104 H          -8.1397    0.5280   21.4793 H         1 THR         0.0257
    105 H          -7.0519   -0.5942   22.3326 H         1 THR         0.0257
    106 H          -8.7100   -0.3358   22.9283 H         1 THR         0.0257
    107 H          -5.2988    0.9963   20.4350 H         1 LEU         0.1883
    108 H          -7.1717    2.7364   18.9312 H         1 LEU         0.0800
    109 H          -4.2372    2.5560   18.2021 H         1 LEU         0.0315
    110 H          -4.9469    3.8927   19.2075 H         1 LEU         0.0315
    111 H          -5.5709    3.1968   16.3308 H         1 LEU         0.0298
    112 H          -7.5987    3.8153   17.5664 H         1 LEU         0.0232
    113 H          -6.7856    5.2731   18.1869 H         1 LEU         0.0232
    114 H          -7.1218    5.1141   16.4454 H         1 LEU         0.0232
    115 H          -4.3164    5.6484   17.5702 H         1 LEU         0.0232
    116 H          -3.4927    4.4112   16.5895 H         1 LEU         0.0232
    117 H          -4.7459    5.4409   15.8545 H         1 LEU         0.0232
    118 H          -8.3811    1.4198   17.8037 H         1 GLU         0.1883
    119 H          -7.0186   -0.9880   16.6913 H         1 GLU         0.0801
    120 H          -9.3193   -1.9914   16.6627 H         1 GLU         0.0330
    121 H          -9.8929   -0.4964   17.5202 H         1 GLU         0.0330
    122 H          -8.2431   -1.0156   19.2955 H         1 GLU         0.0433
    123 H          -7.9932   -2.6208   18.4793 H         1 GLU         0.0433
    124 H          -7.2735   -1.7290   14.6650 H         1 LEU         0.1875
    125 H          -7.7499    0.4421   12.7744 H         1 LEU         0.0726
    126 H          -6.9655   -1.1379   11.0867 H         1 LEU         0.0308
    127 H          -6.8934   -2.4288   12.4261 H         1 LEU         0.0308
    128 H          -5.1131   -1.2760   13.4488 H         1 LEU         0.0297
    129 H          -4.5273   -2.8534   11.6817 H         1 LEU         0.0232
    130 H          -4.6261   -1.5536   10.4686 H         1 LEU         0.0232
    131 H          -3.3684   -1.5022   11.7282 H         1 LEU         0.0232
    132 H          -5.3749    0.7707   11.2240 H         1 LEU         0.0232
    133 H          -5.7706    1.0221   12.9420 H         1 LEU         0.0232
    134 H          -4.0845    0.7280   12.4504 H         1 LEU         0.0232
@<TRIPOS>BOND
     1    1    2 1  
     2    2    3 1  
     3    2    5 1  
     4    3    4 2  
     5    3    6 am 
     6    6    7 1  
     7    7    8 1  
     8    7   10 1  
     9    8    9 2  
    10    8   14 am 
    11   10   11 1  
    12   11   12 1  
    13   12   13 1  
    14   14   15 1  
    15   15   16 1  
    16   15   18 1  
    17   16   17 2  
    18   16   22 am 
    19   18   19 1  
    20   19   20 ar 
    21   19   21 ar 
    22   22   23 1  
    23   23   24 1  
    24   23   26 1  
    25   24   25 2  
    26   24   28 am 
    27   26   27 1  
    28   28   29 1  
    29   29   30 1  
    30   29   32 1  
    31   30   31 2  
    32   30   36 am 
    33   32   33 1  
    34   33   34 2  
    35   33   35 am 
    36   36   37 1  
    37   37   38 1  
    38   37   40 1  
    39   38   39 2  
    40   38   43 am 
    41   40   41 1  
    42   40   42 1  
    43   43   44 1  
    44   44   45 1  
    45   44   47 1  
    46   45   46 2  
    47   45   51 am 
    48   47   48 1  
    49   48   49 1  
    50   48   50 1  
    51   51   52 1  
    52   52   53 1  
    53   52   55 1  
    54   53   54 2  
    55   53   60 am 
    56   55   56 1  
    57   56   57 1  
    58   57   58 ar 
    59   57   59 ar 
    60   60   61 1  
    61   61   62 1  
    62   61   64 1  
    63   62   63 ar 
    64   62   68 ar 
    65   64   65 1  
    66   65   66 1  
    67   65   67 1  
    68    1   69 1  
    69    1   70 1  
    70    1   71 1  
    71    2   72 1  
    72    5   73 1  
    73    5   74 1  
    74    5   75 1  
    75    6   76 1  
    76    7   77 1  
    77   10   78 1  
    78   10   79 1  
    79   11   80 1  
    80   11   81 1  
    81   13   82 1  
    82   13   83 1  
    83   13   84 1  
    84   14   85 1  
    85   15   86 1  
    86   18   87 1  
    87   18   88 1  
    88   22   89 1  
    89   23   90 1  
    90   26   91 1  
    91   26   92 1  
    92   27   93 1  
    93   28   94 1  
    94   29   95 1  
    95   32   96 1  
    96   32   97 1  
    97   35   98 1  
    98   35   99 1  
    99   36  100 1  
   100   37  101 1  
   101   40  102 1  
   102   41  103 1  
   103   42  104 1  
   104   42  105 1  
   105   42  106 1  
   106   43  107 1  
   107   44  108 1  
   108   47  109 1  
   109   47  110 1  
   110   48  111 1  
   111   49  112 1  
   112   49  113 1  
   113   49  114 1  
   114   50  115 1  
   115   50  116 1  
   116   50  117 1  
   117   51  118 1  
   118   52  119 1  
   119   55  120 1  
   120   55  121 1  
   121   56  122 1  
   122   56  123 1  
   123   60  124 1  
   124   61  125 1  
   125   64  126 1  
   126   64  127 1  
   127   65  128 1  
   128   66  129 1  
   129   66  130 1  
   130   66  131 1  
   131   67  132 1  
   132   67  133 1  
   133   67  134 1  
@<TRIPOS>SUBSTRUCTURE
     1 ALA         1

