4h5c_ligand
  -I-interpret- 

 46 47  0  0  0  0  0  0  0  0999 V2000
   14.7700   36.4560   -8.0540 O   0  0  0  0  0
   14.9980   35.2520   -7.1580 P   0  0  0  0  0
   16.4280   35.2730   -6.6610 O   0  0  0  0  0
   14.0320   35.1990   -5.9720 O   0  0  0  0  0
   14.8340   33.7220   -8.1170 C   0  0  0  0  0
   16.0600   33.7480   -9.5160 P   0  0  0  0  0
   17.5490   33.5580   -8.9190 O   0  0  0  0  0
   15.9280   32.4540  -10.4190 O   0  0  0  0  0
   15.9610   35.0180  -10.3530 O   0  0  0  0  0
   15.0610   32.5500   -7.1930 N   0  0  0  0  0
   14.7930   31.3010   -7.6180 C   0  0  0  0  0
   15.5450   30.2390   -7.0720 C   0  0  0  0  0
   13.8360   31.0770   -8.5700 N   0  0  0  0  0
   13.5640   29.7890   -9.0390 C   0  0  0  0  0
   14.3210   28.7470   -8.4990 C   0  0  0  0  0
   15.3400   28.9380   -7.5200 C   0  0  0  0  0
   16.1300   27.8560   -6.9870 C   0  0  0  0  0
   16.1870   26.6340   -7.6790 C   0  0  0  0  0
   16.9260   25.5040   -7.2060 C   0  0  0  0  0
   16.8620   27.9350   -5.7640 C   0  0  0  0  0
   17.6170   26.8340   -5.2880 C   0  0  0  0  0
   17.6610   25.5990   -5.9970 C   0  0  0  0  0
   18.3300   24.4430   -5.5730 O   0  0  0  0  0
   19.1900   24.4860   -4.4200 C   0  0  0  0  0
   20.5410   24.9860   -4.8400 C   0  0  0  0  0
   19.4140   23.0650   -3.9290 C   0  0  0  0  0
   13.8646   36.4492   -8.3730 H   0  0  0  0  0
   13.1287   35.1860   -6.2968 H   0  0  0  0  0
   13.8369   33.6317   -8.5480 H   0  0  0  0  0
   17.5831   32.7527   -8.3975 H   0  0  0  0  0
   15.9939   31.6716   -9.8666 H   0  0  0  0  0
   15.4164   32.7040   -6.2494 H   0  0  0  0  0
   16.2870   30.4382   -6.2987 H   0  0  0  0  0
   12.7967   29.6061   -9.7913 H   0  0  0  0  0
   14.1221   27.7326   -8.8447 H   0  0  0  0  0
   15.6432   26.5431   -8.6193 H   0  0  0  0  0
   16.9241   24.5731   -7.7730 H   0  0  0  0  0
   16.8399   28.8587   -5.1858 H   0  0  0  0  0
   18.1768   26.9344   -4.3582 H   0  0  0  0  0
   18.7376   25.1207   -3.6580 H   0  0  0  0  0
   20.9598   24.3127   -5.5880 H   0  0  0  0  0
   20.4415   25.9853   -5.2638 H   0  0  0  0  0
   21.1996   25.0219   -3.9722 H   0  0  0  0  0
   18.4560   22.6190   -3.6618 H   0  0  0  0  0
   19.8814   22.4782   -4.7197 H   0  0  0  0  0
   20.0646   23.0824   -3.0547 H   0  0  0  0  0
  1  2  1  0  0  0
  2  3  2  0  0  0
  2  4  1  0  0  0
  2  5  1  0  0  0
  5  6  1  0  0  0
  5 10  1  0  0  0
  6  7  1  0  0  0
  6  8  1  0  0  0
  6  9  2  0  0  0
 10 11  1  0  0  0
 11 12  4  0  0  0
 11 13  4  0  0  0
 12 16  4  0  0  0
 13 14  4  0  0  0
 14 15  4  0  0  0
 15 16  4  0  0  0
 16 17  1  0  0  0
 17 18  4  0  0  0
 17 20  4  0  0  0
 18 19  4  0  0  0
 19 22  4  0  0  0
 20 21  4  0  0  0
 21 22  4  0  0  0
 22 23  1  0  0  0
 23 24  1  0  0  0
 24 25  1  0  0  0
 24 26  1  0  0  0
  1 27  1  0  0  0
  4 28  1  0  0  0
  5 29  1  0  0  0
  7 30  1  0  0  0
  8 31  1  0  0  0
 10 32  1  0  0  0
 12 33  1  0  0  0
 14 34  1  0  0  0
 15 35  1  0  0  0
 18 36  1  0  0  0
 19 37  1  0  0  0
 20 38  1  0  0  0
 21 39  1  0  0  0
 24 40  1  0  0  0
 25 41  1  0  0  0
 25 42  1  0  0  0
 25 43  1  0  0  0
 26 44  1  0  0  0
 26 45  1  0  0  0
 26 46  1  0  0  0
M  END
$$$$
