### 
### Created by X-TOOL on Mon Sep 10 21:13:09 2018
### 

@<TRIPOS>MOLECULE
4h5c_ligand
   42    43     1     0     0
SMALL
GAST_HUCK


@<TRIPOS>ATOM
      1 O5         14.7700   36.4560   -8.0540 O.co2     1 YS4        -0.5598
      2 P2         14.9980   35.2520   -7.1580 P.3       1 YS4         0.1025
      3 O6         16.4280   35.2730   -6.6610 O.co2     1 YS4        -0.5598
      4 O7         14.0320   35.1990   -5.9720 O.co2     1 YS4        -0.5598
      5 C13        14.8340   33.7220   -8.1170 C.3       1 YS4         0.1784
      6 P1         16.0600   33.7480   -9.5160 P.3       1 YS4         0.1025
      7 O3         17.5490   33.5580   -8.9190 O.co2     1 YS4        -0.5598
      8 O2         15.9280   32.4540  -10.4190 O.co2     1 YS4        -0.5598
      9 O4         15.9610   35.0180  -10.3530 O.co2     1 YS4        -0.5598
     10 N1         15.0610   32.5500   -7.1930 N.pl3     1 YS4        -0.2780
     11 C12        14.7930   31.3010   -7.6180 C.ar      1 YS4         0.1098
     12 C11        15.5450   30.2390   -7.0720 C.ar      1 YS4        -0.0132
     13 N2         13.8360   31.0770   -8.5700 N.ar      1 YS4        -0.2894
     14 C14        13.5640   29.7890   -9.0390 C.ar      1 YS4        -0.0069
     15 C15        14.3210   28.7470   -8.4990 C.ar      1 YS4        -0.0441
     16 C10        15.3400   28.9380   -7.5200 C.ar      1 YS4        -0.0185
     17 C9         16.1300   27.8560   -6.9870 C.ar      1 YS4        -0.0226
     18 C6         16.1870   26.6340   -7.6790 C.ar      1 YS4        -0.0590
     19 C5         16.9260   25.5040   -7.2060 C.ar      1 YS4        -0.0294
     20 C8         16.8620   27.9350   -5.7640 C.ar      1 YS4        -0.0590
     21 C7         17.6170   26.8340   -5.2880 C.ar      1 YS4        -0.0294
     22 C4         17.6610   25.5990   -5.9970 C.ar      1 YS4         0.0950
     23 O1         18.3300   24.4430   -5.5730 O.3       1 YS4        -0.3130
     24 C2         19.1900   24.4860   -4.4200 C.3       1 YS4         0.0766
     25 C1         20.5410   24.9860   -4.8400 C.3       1 YS4        -0.0344
     26 C3         19.4140   23.0650   -3.9290 C.3       1 YS4        -0.0344
     27 H1         13.8185   33.6567   -8.5348 H         1 YS4         0.0946
     28 H2         15.4199   32.7055   -6.2401 H         1 YS4         0.1829
     29 H3         16.2829   30.4371   -6.3030 H         1 YS4         0.0589
     30 H4         12.8009   29.6072   -9.7871 H         1 YS4         0.0771
     31 H5         14.1232   27.7382   -8.8428 H         1 YS4         0.0586
     32 H6         15.6462   26.5436   -8.6141 H         1 YS4         0.0615
     33 H7         16.9241   24.5782   -7.7699 H         1 YS4         0.0552
     34 H8         16.8400   28.8537   -5.1890 H         1 YS4         0.0615
     35 H9         18.1737   26.9339   -4.3633 H         1 YS4         0.0552
     36 H10        18.7553   25.1193   -3.6326 H         1 YS4         0.0646
     37 H11        21.2067   25.0227   -3.9650 H         1 YS4         0.0258
     38 H12        20.4420   25.9945   -5.2679 H         1 YS4         0.0258
     39 H13        20.9648   24.3074   -5.5949 H         1 YS4         0.0258
     40 H14        20.0705   23.0812   -3.0466 H         1 YS4         0.0258
     41 H15        19.8858   22.4717   -4.7261 H         1 YS4         0.0258
     42 H16        18.4479   22.6138   -3.6589 H         1 YS4         0.0258
@<TRIPOS>BOND
     1    1    2 ar 
     2    2    3 ar 
     3    2    4 ar 
     4    2    5 1  
     5    5    6 1  
     6    5   10 1  
     7    6    7 ar 
     8    6    8 ar 
     9    6    9 ar 
    10   10   11 1  
    11   11   12 ar 
    12   11   13 ar 
    13   12   16 ar 
    14   13   14 ar 
    15   14   15 ar 
    16   15   16 ar 
    17   16   17 1  
    18   17   18 ar 
    19   17   20 ar 
    20   18   19 ar 
    21   19   22 ar 
    22   20   21 ar 
    23   21   22 ar 
    24   22   23 1  
    25   23   24 1  
    26   24   25 1  
    27   24   26 1  
    28    5   27 1  
    29   10   28 1  
    30   12   29 1  
    31   14   30 1  
    32   15   31 1  
    33   18   32 1  
    34   19   33 1  
    35   20   34 1  
    36   21   35 1  
    37   24   36 1  
    38   25   37 1  
    39   25   38 1  
    40   25   39 1  
    41   26   40 1  
    42   26   41 1  
    43   26   42 1  
@<TRIPOS>SUBSTRUCTURE
     1 YS4         1

