2jbp_ligand
  -I-interpret- 

 41 45  0  0  0  0  0  0  0  0999 V2000
   28.9470   62.5480  193.9480 C   0  0  0  0  0
   28.7840   61.6320  194.9830 C   0  0  0  0  0
   27.5760   60.9630  195.1600 C   0  0  0  0  0
   27.4440   60.0330  196.1860 C   0  0  0  0  0
   28.5200   59.7770  197.0330 C   0  0  0  0  0
   29.7230   60.4510  196.8600 C   0  0  0  0  0
   29.8570   61.3790  195.8320 C   0  0  0  0  0
   31.0220   62.0140  195.6420 N   0  0  0  0  0
   31.1930   62.8890  194.6650 C   0  0  0  0  0
   30.1660   63.2000  193.7770 C   0  0  0  0  0
   30.3550   64.1790  192.8010 C   0  0  0  0  0
   29.5760   64.2370  191.6460 C   0  0  0  0  0
   31.3160   65.1000  192.9870 N   0  0  0  0  0
   31.5540   66.0640  192.1140 C   0  0  0  0  0
   30.8030   66.1600  190.9470 C   0  0  0  0  0
   29.7910   65.2390  190.7030 C   0  0  0  0  0
   28.9580   65.3700  189.5940 C   0  0  0  0  0
   29.1460   66.1820  188.5540 C   0  0  0  0  0
   28.1390   66.0410  187.6940 C   0  0  0  0  0
   27.8180   66.6050  186.4630 C   0  0  0  0  0
   28.4900   67.5190  185.9870 O   0  0  0  0  0
   26.7470   66.1020  185.7140 N   0  0  0  0  0
   25.9140   64.9530  186.1420 C   0  0  0  0  0
   25.9170   64.7510  187.6580 C   0  0  0  0  0
   27.2840   65.1010  188.2450 C   0  0  0  0  0
   27.8200   64.7060  189.3970 N   0  0  0  0  0
   28.1192   62.7556  193.2699 H   0  0  0  0  0
   26.7358   61.1674  194.4964 H   0  0  0  0  0
   26.5006   59.5056  196.3270 H   0  0  0  0  0
   28.4180   59.0453  197.8344 H   0  0  0  0  0
   30.5605   60.2529  197.5288 H   0  0  0  0  0
   32.1605   63.3783  194.5521 H   0  0  0  0  0
   28.7952   63.4947  191.4804 H   0  0  0  0  0
   32.3443   66.7887  192.3101 H   0  0  0  0  0
   31.0071   66.9532  190.2278 H   0  0  0  0  0
   29.9926   66.8568  188.4270 H   0  0  0  0  0
   26.5280   66.5511  184.8248 H   0  0  0  0  0
   26.3258   64.0534  185.6845 H   0  0  0  0  0
   24.8875   65.1517  185.8337 H   0  0  0  0  0
   25.6966   63.7059  187.8753 H   0  0  0  0  0
   25.1646   65.4025  188.1025 H   0  0  0  0  0
  1  2  4  0  0  0
  1 10  4  0  0  0
  2  3  4  0  0  0
  2  7  4  0  0  0
  3  4  4  0  0  0
  4  5  4  0  0  0
  5  6  4  0  0  0
  6  7  4  0  0  0
  7  8  4  0  0  0
  8  9  4  0  0  0
  9 10  4  0  0  0
 10 11  1  0  0  0
 11 12  4  0  0  0
 11 13  4  0  0  0
 12 16  4  0  0  0
 13 14  4  0  0  0
 14 15  4  0  0  0
 15 16  4  0  0  0
 16 17  1  0  0  0
 17 18  4  0  0  0
 17 26  4  0  0  0
 18 19  4  0  0  0
 19 20  1  0  0  0
 19 25  4  0  0  0
 20 21  2  0  0  0
 20 22  1  0  0  0
 22 23  1  0  0  0
 23 24  1  0  0  0
 24 25  1  0  0  0
 25 26  4  0  0  0
  1 27  1  0  0  0
  3 28  1  0  0  0
  4 29  1  0  0  0
  5 30  1  0  0  0
  6 31  1  0  0  0
  9 32  1  0  0  0
 12 33  1  0  0  0
 14 34  1  0  0  0
 15 35  1  0  0  0
 18 36  1  0  0  0
 22 37  1  0  0  0
 23 38  1  0  0  0
 23 39  1  0  0  0
 24 40  1  0  0  0
 24 41  1  0  0  0
M  END
$$$$
