### 
### Created by X-TOOL on Mon Aug  2 16:10:41 2021
### 

@<TRIPOS>MOLECULE
6em6_ligand
  260   261     1     0     0
SMALL
GAST_HUCK


@<TRIPOS>ATOM
      1 N           8.2510    0.2620  -35.7530 N.4       1 THR         0.2398
      2 CA          6.8810    0.7450  -35.8530 C.3       1 THR         0.0910
      3 C           6.6930    1.9160  -34.8970 C.2       1 THR         0.2293
      4 O           7.4840    2.0900  -33.9680 O.2       1 THR        -0.3906
      5 CB          5.8560   -0.3230  -35.4930 C.3       1 THR         0.1120
      6 OG1         6.0050   -0.6460  -34.1130 O.3       1 THR        -0.3840
      7 CG2         6.0360   -1.5930  -36.3510 C.3       1 THR        -0.0314
      8 N           5.6320    2.6920  -35.1160 N.am      1 THR        -0.2585
      9 CA          5.3680    3.8200  -34.2300 C.3       1 THR         0.1566
     10 C           5.1250    3.3420  -32.8050 C.2       1 THR         0.2066
     11 O           5.6080    3.9580  -31.8470 O.2       1 THR        -0.3943
     12 CB          4.1770    4.6320  -34.7420 C.3       1 THR         0.0924
     13 OG1         4.4610    5.1000  -36.0660 O.3       1 THR        -0.3874
     14 CG2         3.9490    5.8490  -33.8550 C.3       1 THR        -0.0346
     15 N           4.3880    2.2350  -32.6430 N.am      1 THR        -0.2621
     16 CA          4.1540    1.6960  -31.3050 C.3       1 THR         0.1390
     17 C           5.4650    1.3370  -30.6150 C.2       1 THR         0.2057
     18 O           5.6660    1.6350  -29.4320 O.2       1 THR        -0.3942
     19 CB          3.2350    0.4730  -31.3850 C.3       1 THR         0.0163
     20 CG          3.0250   -0.1880  -30.0440 C.ar      1 THR        -0.0493
     21 CD1         2.3070    0.4500  -29.0400 C.ar      1 THR        -0.0685
     22 CD2         3.5570   -1.4450  -29.7690 C.ar      1 THR        -0.0685
     23 CE1         2.1210   -0.1430  -27.8050 C.ar      1 THR        -0.0398
     24 CE2         3.3730   -2.0390  -28.5410 C.ar      1 THR        -0.0398
     25 CZ          2.6550   -1.3830  -27.5600 C.ar      1 THR         0.0805
     26 OH          2.4580   -1.9630  -26.3190 O.3       1 THR        -0.3376
     27 N           6.3820    0.7020  -31.3410 N.am      1 THR        -0.2639
     28 CA          7.6600    0.3570  -30.7310 C.3       1 THR         0.1282
     29 C           8.4320    1.6030  -30.3450 C.2       1 THR         0.2037
     30 O           9.0950    1.6300  -29.3020 O.2       1 THR        -0.3944
     31 CB          8.4880   -0.5100  -31.6780 C.3       1 THR        -0.0244
     32 N           8.3580    2.6490  -31.1770 N.am      1 THR        -0.2622
     33 CA          9.0110    3.9050  -30.8360 C.3       1 THR         0.1423
     34 C           8.4270    4.5010  -29.5580 C.2       1 THR         0.2057
     35 O           9.1590    5.0830  -28.7550 O.2       1 THR        -0.3943
     36 CB          8.8800    4.8910  -31.9900 C.3       1 THR         0.0406
     37 CG          9.6390    4.4450  -33.2520 C.2       1 THR         0.0393
     38 OD1        10.5070    3.5530  -33.1640 O.co2     1 THR        -0.5688
     39 OD2         9.3630    5.0230  -34.3250 O.co2     1 THR        -0.5688
     40 N           7.1130    4.3670  -29.3620 N.am      1 THR        -0.2618
     41 CA          6.4700    4.8570  -28.1400 C.3       1 THR         0.1404
     42 C           6.9930    4.1150  -26.9210 C.2       1 THR         0.2060
     43 O           7.3470    4.7230  -25.9080 O.2       1 THR        -0.3942
     44 CB          4.9520    4.6990  -28.2670 C.3       1 THR         0.0214
     45 CG          4.1810    5.1420  -27.0540 C.ar      1 THR        -0.0386
     46 CD1         4.3180    6.4320  -26.5600 C.ar      1 THR        -0.0601
     47 CD2         3.2890    4.2800  -26.4400 C.ar      1 THR        -0.0601
     48 CE1         3.5950    6.8350  -25.4490 C.ar      1 THR        -0.0686
     49 CE2         2.5570    4.6890  -25.3380 C.ar      1 THR        -0.0686
     50 CZ          2.7100    5.9620  -24.8510 C.ar      1 THR        -0.0687
     51 N           7.0690    2.7850  -27.0020 N.am      1 THR        -0.2633
     52 CA          7.6420    2.0300  -25.8970 C.3       1 THR         0.1335
     53 C           9.0720    2.4920  -25.6330 C.2       1 THR         0.2041
     54 O           9.4720    2.6940  -24.4800 O.2       1 THR        -0.3944
     55 CB          7.5620    0.5190  -26.2040 C.3       1 THR        -0.0037
     56 CG1         6.1140    0.0910  -26.4730 C.3       1 THR        -0.0491
     57 CG2         8.1880   -0.2960  -25.0860 C.3       1 THR        -0.0582
     58 CD1         5.1240    0.3410  -25.3390 C.3       1 THR        -0.0648
     59 N           9.8500    2.7160  -26.6960 N.am      1 THR        -0.2640
     60 CA         11.2400    3.1200  -26.5380 C.3       1 THR         0.1282
     61 C          11.3810    4.4920  -25.8830 C.2       1 THR         0.2037
     62 O          12.4190    4.7700  -25.2690 O.2       1 THR        -0.3944
     63 CB         11.9310    3.1170  -27.8980 C.3       1 THR        -0.0244
     64 N          10.3500    5.3390  -25.9700 N.am      1 THR        -0.2616
     65 CA         10.4430    6.6850  -25.4200 C.3       1 THR         0.1539
     66 C          10.5840    6.6720  -23.9100 C.2       1 THR         0.2060
     67 O          11.0990    7.6230  -23.3280 O.2       1 THR        -0.3943
     68 CB          9.2050    7.5050  -25.8040 C.3       1 THR         0.0843
     69 OG          8.0840    7.1580  -25.0030 O.3       1 THR        -0.3903
     70 N          10.1350    5.6220  -23.2550 N.am      1 THR        -0.2663
     71 CA         10.1120    5.6060  -21.8260 C.3       1 THR         0.1201
     72 C           9.0050    6.4320  -21.2030 C.2       1 THR         0.2007
     73 O           8.9370    6.5090  -19.9670 O.2       1 THR        -0.3947
     74 N           8.1330    7.0360  -22.0050 N.am      1 THR        -0.2640
     75 CA          7.0390    7.8440  -21.4760 C.3       1 THR         0.1311
     76 C           5.6920    7.1480  -21.6520 C.2       1 THR         0.2040
     77 O           4.7240    7.7450  -22.1400 O.2       1 THR        -0.3944
     78 CB          7.0480    9.2230  -22.1580 C.3       1 THR        -0.0092
     79 CG          8.2920   10.0260  -21.7910 C.3       1 THR        -0.0156
     80 CD          8.2830   11.4160  -22.3990 C.3       1 THR         0.0627
     81 NE          7.2030   12.2520  -21.8740 N.pl3     1 THR        -0.2723
     82 CZ          7.2730   12.9690  -20.7510 C.cat     1 THR         0.2882
     83 NH1         8.3610   12.9520  -19.9880 N.pl3     1 THR        -0.2849
     84 NH2         6.2310   13.6940  -20.3650 N.pl3     1 THR        -0.2849
     85 N           5.6270    5.8640  -21.3010 N.am      1 THR        -0.2613
     86 CA          4.3720    5.1300  -21.3800 C.3       1 THR         0.1565
     87 C           3.5730    5.1530  -20.0800 C.2       1 THR         0.2063
     88 O           2.4050    4.7390  -20.0860 O.2       1 THR        -0.3943
     89 CB          4.6510    3.6720  -21.7580 C.3       1 THR         0.0924
     90 OG1         5.4730    3.1120  -20.7380 O.3       1 THR        -0.3874
     91 CG2         5.3610    3.5870  -23.0980 C.3       1 THR        -0.0346
     92 N           4.1700    5.6000  -18.9750 N.am      1 THR        -0.2663
     93 CA          3.4870    5.6730  -17.7020 C.3       1 THR         0.1201
     94 C           2.8090    7.0200  -17.4920 C.2       1 THR         0.2007
     95 O           2.8360    7.9070  -18.3420 O.2       1 THR        -0.3947
     96 N           2.1880    7.1720  -16.3310 N.am      1 THR        -0.2642
     97 CA          1.4490    8.4030  -16.0800 C.3       1 THR         0.1282
     98 C           2.4070    9.5870  -16.1380 C.2       1 THR         0.2036
     99 O           3.5620    9.4920  -15.7130 O.2       1 THR        -0.3944
    100 CB          0.7350    8.3320  -14.7300 C.3       1 THR        -0.0244
    101 N           1.9160   10.7020  -16.6720 N.am      1 THR        -0.2637
    102 CA          2.7570   11.8440  -17.0170 C.3       1 THR         0.1311
    103 C           2.4680   13.0070  -16.0840 C.2       1 THR         0.2040
    104 O           1.3080   13.4040  -15.9220 O.2       1 THR        -0.3944
    105 CB          2.5160   12.2670  -18.4670 C.3       1 THR        -0.0092
    106 CG          3.0220   11.2490  -19.4970 C.3       1 THR        -0.0156
    107 CD          2.3120   11.2830  -20.8360 C.3       1 THR         0.0627
    108 NE          0.8700   11.0230  -20.7210 N.pl3     1 THR        -0.2723
    109 CZ          0.0880   10.6200  -21.7200 C.cat     1 THR         0.2882
    110 NH1         0.5800   10.4180  -22.9400 N.pl3     1 THR        -0.2849
    111 NH2        -1.2080   10.4170  -21.5180 N.pl3     1 THR        -0.2849
    112 N           3.5260   13.5330  -15.4750 N.am      1 THR        -0.2616
    113 CA          3.4430   14.7030  -14.6190 C.3       1 THR         0.1476
    114 C           3.3660   15.9770  -15.4430 C.2       1 THR         0.2062
    115 O           3.8330   16.0560  -16.5820 O.2       1 THR        -0.3942
    116 CB          4.6650   14.7990  -13.7180 C.3       1 THR         0.0773
    117 CG          4.6810   13.7410  -12.6520 C.2       1 THR         0.1780
    118 OD1         3.6330   13.2860  -12.1990 O.2       1 THR        -0.3970
    119 ND2         5.8740   13.3500  -12.2330 N.am      1 THR        -0.3007
    120 N           2.8130   17.0030  -14.8160 N.am      1 THR        -0.2639
    121 CA          2.7380   18.2980  -15.4590 C.3       1 THR         0.1282
    122 C           4.0940   18.9910  -15.4390 C.2       1 THR         0.2031
    123 O           5.0490   18.5460  -14.7870 O.2       1 THR        -0.3944
    124 CB          1.6860   19.1570  -14.7690 C.3       1 THR        -0.0244
    125 N           4.1510   20.0600  -16.2380 N.am      1 THR        -0.2692
    126 CA          5.0520   21.2150  -16.1670 C.3       1 THR         0.0967
    127 C           5.8330   21.3020  -17.4770 C.2       1 THR         0.0603
    128 O           5.7070   22.3430  -18.1330 O.co2     1 THR        -0.5666
    129 CB          5.9350   21.2040  -14.9030 C.3       1 THR        -0.0118
    130 CG1         5.0980   21.7000  -13.7360 C.3       1 THR        -0.0590
    131 CG2         7.1100   22.1220  -15.0220 C.3       1 THR        -0.0590
    132 OXT         6.5160   20.3860  -17.9440 O.co2     1 THR        -0.5666
    133 H1          8.8875    1.0034  -36.0003 H         1 THR         0.2016
    134 H2          8.3800   -0.5153  -36.3817 H         1 THR         0.2016
    135 H3          8.4339   -0.0364  -34.8077 H         1 THR         0.2016
    136 H4          6.7000    1.0788  -36.8854 H         1 THR         0.1125
    137 H5          4.8464    0.0783  -35.6653 H         1 THR         0.0674
    138 H6          5.8599    0.1331  -33.5891 H         1 THR         0.2102
    139 H7          5.2809   -2.3395  -36.0638 H         1 THR         0.0258
    140 H8          7.0418   -2.0070  -36.1868 H         1 THR         0.0258
    141 H9          5.9135   -1.3378  -37.4139 H         1 THR         0.0258
    142 H10         5.0201    2.5019  -35.8837 H         1 THR         0.1885
    143 H11         6.2542    4.4717  -34.2274 H         1 THR         0.0826
    144 H12         3.2760    4.0010  -34.7496 H         1 THR         0.0639
    145 H13         4.6106    4.3565  -36.6382 H         1 THR         0.2101
    146 H14         3.0908    6.4233  -34.2340 H         1 THR         0.0257
    147 H15         4.8476    6.4833  -33.8646 H         1 THR         0.0257
    148 H16         3.7438    5.5194  -32.8258 H         1 THR         0.0257
    149 H17         3.9966    1.7759  -33.4405 H         1 THR         0.1885
    150 H18         3.6516    2.4691  -30.7051 H         1 THR         0.0821
    151 H19         3.6836   -0.2598  -32.0718 H         1 THR         0.0453
    152 H20         2.2579    0.7923  -31.7766 H         1 THR         0.0453
    153 H21         1.8850    1.4305  -29.2285 H         1 THR         0.0530
    154 H22         4.1245   -1.9635  -30.5333 H         1 THR         0.0530
    155 H23         1.5563    0.3690  -27.0343 H         1 THR         0.0525
    156 H24         3.7907   -3.0197  -28.3441 H         1 THR         0.0525
    157 H25         1.9927   -2.7845  -26.4249 H         1 THR         0.2458
    158 H26         6.1963    0.4642  -32.2944 H         1 THR         0.1883
    159 H27         7.4602   -0.2216  -29.8171 H         1 THR         0.0797
    160 H28         9.4474   -0.7601  -31.2016 H         1 THR         0.0277
    161 H29         8.6748    0.0416  -32.6112 H         1 THR         0.0277
    162 H30         7.9380   -1.4357  -31.9030 H         1 THR         0.0277
    163 H31         7.8524    2.5675  -32.0359 H         1 THR         0.1884
    164 H32        10.0794    3.7053  -30.6668 H         1 THR         0.0819
    165 H33         9.2789    5.8638  -31.6667 H         1 THR         0.0478
    166 H34         7.8143    4.9968  -32.2412 H         1 THR         0.0478
    167 H35         6.5561    3.9229  -30.0639 H         1 THR         0.1885
    168 H36         6.7040    5.9254  -28.0225 H         1 THR         0.0823
    169 H37         4.7299    3.6369  -28.4476 H         1 THR         0.0474
    170 H38         4.6141    5.2957  -29.1271 H         1 THR         0.0474
    171 H39         4.9935    7.1270  -27.0455 H         1 THR         0.0557
    172 H40         3.1622    3.2749  -26.8256 H         1 THR         0.0557
    173 H41         3.7245    7.8347  -25.0503 H         1 THR         0.0599
    174 H42         1.8646    4.0046  -24.8613 H         1 THR         0.0599
    175 H43         2.1326    6.2837  -23.9919 H         1 THR         0.0559
    176 H44         6.7346    2.3103  -27.8162 H         1 THR         0.1883
    177 H45         7.0478    2.2273  -24.9926 H         1 THR         0.0803
    178 H46         8.1417    0.3304  -27.1196 H         1 THR         0.0345
    179 H47         6.1156   -0.9879  -26.6873 H         1 THR         0.0267
    180 H48         5.7589    0.6400  -27.3576 H         1 THR         0.0267
    181 H49         9.2229    0.0392  -24.9231 H         1 THR         0.0235
    182 H50         8.1868   -1.3605  -25.3632 H         1 THR         0.0235
    183 H51         7.6079   -0.1571  -24.1618 H         1 THR         0.0235
    184 H52         4.1243   -0.0030  -25.6426 H         1 THR         0.0230
    185 H53         5.0887    1.4171  -25.1136 H         1 THR         0.0230
    186 H54         5.4453   -0.2109  -24.4434 H         1 THR         0.0230
    187 H55         9.4715    2.6044  -27.6149 H         1 THR         0.1883
    188 H56        11.7377    2.3826  -25.8910 H         1 THR         0.0797
    189 H57        12.9808    3.4224  -27.7766 H         1 THR         0.0277
    190 H58        11.4197    3.8214  -28.5706 H         1 THR         0.0277
    191 H59        11.8909    2.1051  -28.3275 H         1 THR         0.0277
    192 H60         9.5054    5.0453  -26.4177 H         1 THR         0.1884
    193 H61        11.3334    7.1693  -25.8475 H         1 THR         0.0823
    194 H62         8.9629    7.3144  -26.8600 H         1 THR         0.0606
    195 H63         9.4265    8.5735  -25.6657 H         1 THR         0.0606
    196 H64         7.8846    6.2368  -25.1215 H         1 THR         0.2097
    197 H65         9.8061    4.8261  -23.7633 H         1 THR         0.1881
    198 H66        11.0752    5.9941  -21.4631 H         1 THR         0.0763
    199 H67         9.9890    4.5637  -21.4966 H         1 THR         0.0763
    200 H68         8.2293    6.9340  -22.9951 H         1 THR         0.1883
    201 H69         7.2066    7.9894  -20.3986 H         1 THR         0.0800
    202 H70         6.1559    9.7832  -21.8412 H         1 THR         0.0313
    203 H71         7.0240    9.0815  -23.2486 H         1 THR         0.0313
    204 H72         9.1799    9.4875  -22.1538 H         1 THR         0.0301
    205 H73         8.3418   10.1196  -20.6961 H         1 THR         0.0301
    206 H74         8.1594   11.3235  -23.4881 H         1 THR         0.0689
    207 H75         9.2444   11.9031  -22.1791 H         1 THR         0.0689
    208 H76         6.3246   12.2897  -22.4105 H         1 THR         0.2642
    209 H77         8.3936   13.5133  -19.1250 H         1 THR         0.2615
    210 H78         9.1716   12.3775  -20.2597 H         1 THR         0.2615
    211 H79         5.3789   13.7196  -20.9431 H         1 THR         0.2615
    212 H80         6.2742   14.2312  -19.4872 H         1 THR         0.2615
    213 H81         6.4513    5.3983  -20.9790 H         1 THR         0.1884
    214 H82         3.7582    5.5913  -22.1677 H         1 THR         0.0826
    215 H83         3.7022    3.1185  -21.8171 H         1 THR         0.0639
    216 H84         5.6622    2.2050  -20.9477 H         1 THR         0.2101
    217 H85         5.5498    2.5322  -23.3466 H         1 THR         0.0257
    218 H86         6.3176    4.1271  -23.0411 H         1 THR         0.0257
    219 H87         4.7299    4.0400  -23.8768 H         1 THR         0.0257
    220 H88         5.1239    5.8953  -19.0281 H         1 THR         0.1881
    221 H89         4.2197    5.5154  -16.8968 H         1 THR         0.0763
    222 H90         2.7237    4.8819  -17.6632 H         1 THR         0.0763
    223 H91         2.2259    6.4526  -15.6374 H         1 THR         0.1883
    224 H92         0.6905    8.5269  -16.8670 H         1 THR         0.0797
    225 H93         0.1833    9.2678  -14.5574 H         1 THR         0.0277
    226 H94         1.4766    8.1907  -13.9300 H         1 THR         0.0277
    227 H95         0.0314    7.4865  -14.7313 H         1 THR         0.0277
    228 H96         0.9326   10.7601  -16.8437 H         1 THR         0.1883
    229 H97         3.8116   11.5524  -16.9044 H         1 THR         0.0800
    230 H98         3.0320   13.2228  -18.6406 H         1 THR         0.0313
    231 H99         1.4344   12.4022  -18.6144 H         1 THR         0.0313
    232 H100        2.8980   10.2425  -19.0709 H         1 THR         0.0301
    233 H101        4.0903   11.4439  -19.6726 H         1 THR         0.0301
    234 H102        2.7564   10.5177  -21.4893 H         1 THR         0.0689
    235 H103        2.4555   12.2768  -21.2851 H         1 THR         0.0689
    236 H104        0.4322   11.1630  -19.7993 H         1 THR         0.2642
    237 H105       -0.0407   10.1061  -23.7005 H         1 THR         0.2615
    238 H106        1.5815   10.5735  -23.1237 H         1 THR         0.2615
    239 H107       -1.6131   10.5664  -20.5829 H         1 THR         0.2615
    240 H108       -1.8087   10.1101  -22.2964 H         1 THR         0.2615
    241 H109        4.4187   13.1039  -15.6125 H         1 THR         0.1885
    242 H110        2.5397   14.6200  -13.9968 H         1 THR         0.0826
    243 H111        4.6692   15.7868  -13.2340 H         1 THR         0.0551
    244 H112        5.5682   14.6897  -14.3364 H         1 THR         0.0551
    245 H113        5.9499   12.6483  -11.5246 H         1 THR         0.1814
    246 H114        6.6995   13.7563  -12.6248 H         1 THR         0.1814
    247 H115        2.4452   16.8832  -13.8938 H         1 THR         0.1883
    248 H116        2.4385   18.1515  -16.5072 H         1 THR         0.0797
    249 H117        1.6338   20.1391  -15.2618 H         1 THR         0.0277
    250 H118        1.9582   19.2914  -13.7117 H         1 THR         0.0277
    251 H119        0.7065   18.6610  -14.8353 H         1 THR         0.0277
    252 H120        3.4887   20.0747  -16.9871 H         1 THR         0.1875
    253 H121        4.4273   22.1179  -16.1007 H         1 THR         0.0729
    254 H122        6.2868   20.1791  -14.7138 H         1 THR         0.0336
    255 H123        5.7086   21.7008  -12.8210 H         1 THR         0.0234
    256 H124        4.2316   21.0365  -13.5980 H         1 THR         0.0234
    257 H125        4.7479   22.7218  -13.9440 H         1 THR         0.0234
    258 H126        7.7455   21.7974  -15.8591 H         1 THR         0.0234
    259 H127        7.6916   22.0961  -14.0887 H         1 THR         0.0234
    260 H128        6.7570   23.1475  -15.2058 H         1 THR         0.0234
@<TRIPOS>BOND
     1    1    2 1  
     2    2    3 1  
     3    2    5 1  
     4    3    4 2  
     5    3    8 am 
     6    5    6 1  
     7    5    7 1  
     8    8    9 1  
     9    9   10 1  
    10    9   12 1  
    11   10   11 2  
    12   10   15 am 
    13   12   13 1  
    14   12   14 1  
    15   15   16 1  
    16   16   17 1  
    17   16   19 1  
    18   17   18 2  
    19   17   27 am 
    20   19   20 1  
    21   20   21 ar 
    22   20   22 ar 
    23   21   23 ar 
    24   22   24 ar 
    25   23   25 ar 
    26   24   25 ar 
    27   25   26 1  
    28   27   28 1  
    29   28   29 1  
    30   28   31 1  
    31   29   30 2  
    32   29   32 am 
    33   32   33 1  
    34   33   34 1  
    35   33   36 1  
    36   34   35 2  
    37   34   40 am 
    38   36   37 1  
    39   37   38 ar 
    40   37   39 ar 
    41   40   41 1  
    42   41   42 1  
    43   41   44 1  
    44   42   43 2  
    45   42   51 am 
    46   44   45 1  
    47   45   46 ar 
    48   45   47 ar 
    49   46   48 ar 
    50   47   49 ar 
    51   48   50 ar 
    52   49   50 ar 
    53   51   52 1  
    54   52   53 1  
    55   52   55 1  
    56   53   54 2  
    57   53   59 am 
    58   55   56 1  
    59   55   57 1  
    60   56   58 1  
    61   59   60 1  
    62   60   61 1  
    63   60   63 1  
    64   61   62 2  
    65   61   64 am 
    66   64   65 1  
    67   65   66 1  
    68   65   68 1  
    69   66   67 2  
    70   66   70 am 
    71   68   69 1  
    72   70   71 1  
    73   71   72 1  
    74   72   73 2  
    75   72   74 am 
    76   74   75 1  
    77   75   76 1  
    78   75   78 1  
    79   76   77 2  
    80   76   85 am 
    81   78   79 1  
    82   79   80 1  
    83   80   81 1  
    84   81   82 ar 
    85   82   83 ar 
    86   82   84 ar 
    87   85   86 1  
    88   86   87 1  
    89   86   89 1  
    90   87   88 2  
    91   87   92 am 
    92   89   90 1  
    93   89   91 1  
    94   92   93 1  
    95   93   94 1  
    96   94   95 2  
    97   94   96 am 
    98   96   97 1  
    99   97   98 1  
   100   97  100 1  
   101   98   99 2  
   102   98  101 am 
   103  101  102 1  
   104  102  103 1  
   105  102  105 1  
   106  103  104 2  
   107  103  112 am 
   108  105  106 1  
   109  106  107 1  
   110  107  108 1  
   111  108  109 ar 
   112  109  110 ar 
   113  109  111 ar 
   114  112  113 1  
   115  113  114 1  
   116  113  116 1  
   117  114  115 2  
   118  114  120 am 
   119  116  117 1  
   120  117  118 2  
   121  117  119 am 
   122  120  121 1  
   123  121  122 1  
   124  121  124 1  
   125  122  123 2  
   126  122  125 am 
   127  125  126 1  
   128  126  127 1  
   129  126  129 1  
   130  127  128 ar 
   131  127  132 ar 
   132  129  130 1  
   133  129  131 1  
   134    1  133 1  
   135    1  134 1  
   136    1  135 1  
   137    2  136 1  
   138    5  137 1  
   139    6  138 1  
   140    7  139 1  
   141    7  140 1  
   142    7  141 1  
   143    8  142 1  
   144    9  143 1  
   145   12  144 1  
   146   13  145 1  
   147   14  146 1  
   148   14  147 1  
   149   14  148 1  
   150   15  149 1  
   151   16  150 1  
   152   19  151 1  
   153   19  152 1  
   154   21  153 1  
   155   22  154 1  
   156   23  155 1  
   157   24  156 1  
   158   26  157 1  
   159   27  158 1  
   160   28  159 1  
   161   31  160 1  
   162   31  161 1  
   163   31  162 1  
   164   32  163 1  
   165   33  164 1  
   166   36  165 1  
   167   36  166 1  
   168   40  167 1  
   169   41  168 1  
   170   44  169 1  
   171   44  170 1  
   172   46  171 1  
   173   47  172 1  
   174   48  173 1  
   175   49  174 1  
   176   50  175 1  
   177   51  176 1  
   178   52  177 1  
   179   55  178 1  
   180   56  179 1  
   181   56  180 1  
   182   57  181 1  
   183   57  182 1  
   184   57  183 1  
   185   58  184 1  
   186   58  185 1  
   187   58  186 1  
   188   59  187 1  
   189   60  188 1  
   190   63  189 1  
   191   63  190 1  
   192   63  191 1  
   193   64  192 1  
   194   65  193 1  
   195   68  194 1  
   196   68  195 1  
   197   69  196 1  
   198   70  197 1  
   199   71  198 1  
   200   71  199 1  
   201   74  200 1  
   202   75  201 1  
   203   78  202 1  
   204   78  203 1  
   205   79  204 1  
   206   79  205 1  
   207   80  206 1  
   208   80  207 1  
   209   81  208 1  
   210   83  209 1  
   211   83  210 1  
   212   84  211 1  
   213   84  212 1  
   214   85  213 1  
   215   86  214 1  
   216   89  215 1  
   217   90  216 1  
   218   91  217 1  
   219   91  218 1  
   220   91  219 1  
   221   92  220 1  
   222   93  221 1  
   223   93  222 1  
   224   96  223 1  
   225   97  224 1  
   226  100  225 1  
   227  100  226 1  
   228  100  227 1  
   229  101  228 1  
   230  102  229 1  
   231  105  230 1  
   232  105  231 1  
   233  106  232 1  
   234  106  233 1  
   235  107  234 1  
   236  107  235 1  
   237  108  236 1  
   238  110  237 1  
   239  110  238 1  
   240  111  239 1  
   241  111  240 1  
   242  112  241 1  
   243  113  242 1  
   244  116  243 1  
   245  116  244 1  
   246  119  245 1  
   247  119  246 1  
   248  120  247 1  
   249  121  248 1  
   250  124  249 1  
   251  124  250 1  
   252  124  251 1  
   253  125  252 1  
   254  126  253 1  
   255  129  254 1  
   256  130  255 1  
   257  130  256 1  
   258  130  257 1  
   259  131  258 1  
   260  131  259 1  
   261  131  260 1  
@<TRIPOS>SUBSTRUCTURE
     1 THR         1

