6em6_ligand
  -I-interpret- 

260261  0  0  0  0  0  0  0  0999 V2000
    8.2510    0.2620  -35.7530 N   0  3  0  0  0
    6.8810    0.7450  -35.8530 C   0  0  0  0  0
    6.6930    1.9160  -34.8970 C   0  0  0  0  0
    7.4840    2.0900  -33.9680 O   0  0  0  0  0
    5.8560   -0.3230  -35.4930 C   0  0  0  0  0
    6.0050   -0.6460  -34.1130 O   0  0  0  0  0
    6.0360   -1.5930  -36.3510 C   0  0  0  0  0
    5.6320    2.6920  -35.1160 N   0  0  0  0  0
    5.3680    3.8200  -34.2300 C   0  0  0  0  0
    5.1250    3.3420  -32.8050 C   0  0  0  0  0
    5.6080    3.9580  -31.8470 O   0  0  0  0  0
    4.1770    4.6320  -34.7420 C   0  0  0  0  0
    4.4610    5.1000  -36.0660 O   0  0  0  0  0
    3.9490    5.8490  -33.8550 C   0  0  0  0  0
    4.3880    2.2350  -32.6430 N   0  0  0  0  0
    4.1540    1.6960  -31.3050 C   0  0  0  0  0
    5.4650    1.3370  -30.6150 C   0  0  0  0  0
    5.6660    1.6350  -29.4320 O   0  0  0  0  0
    3.2350    0.4730  -31.3850 C   0  0  0  0  0
    3.0250   -0.1880  -30.0440 C   0  0  0  0  0
    2.3070    0.4500  -29.0400 C   0  0  0  0  0
    3.5570   -1.4450  -29.7690 C   0  0  0  0  0
    2.1210   -0.1430  -27.8050 C   0  0  0  0  0
    3.3730   -2.0390  -28.5410 C   0  0  0  0  0
    2.6550   -1.3830  -27.5600 C   0  0  0  0  0
    2.4580   -1.9630  -26.3190 O   0  0  0  0  0
    6.3820    0.7020  -31.3410 N   0  0  0  0  0
    7.6600    0.3570  -30.7310 C   0  0  0  0  0
    8.4320    1.6030  -30.3450 C   0  0  0  0  0
    9.0950    1.6300  -29.3020 O   0  0  0  0  0
    8.4880   -0.5100  -31.6780 C   0  0  0  0  0
    8.3580    2.6490  -31.1770 N   0  0  0  0  0
    9.0110    3.9050  -30.8360 C   0  0  0  0  0
    8.4270    4.5010  -29.5580 C   0  0  0  0  0
    9.1590    5.0830  -28.7550 O   0  0  0  0  0
    8.8800    4.8910  -31.9900 C   0  0  0  0  0
    9.6390    4.4450  -33.2520 C   0  0  0  0  0
   10.5070    3.5530  -33.1640 O   0  0  0  0  0
    9.3630    5.0230  -34.3250 O   0  0  0  0  0
    7.1130    4.3670  -29.3620 N   0  0  0  0  0
    6.4700    4.8570  -28.1400 C   0  0  0  0  0
    6.9930    4.1150  -26.9210 C   0  0  0  0  0
    7.3470    4.7230  -25.9080 O   0  0  0  0  0
    4.9520    4.6990  -28.2670 C   0  0  0  0  0
    4.1810    5.1420  -27.0540 C   0  0  0  0  0
    4.3180    6.4320  -26.5600 C   0  0  0  0  0
    3.2890    4.2800  -26.4400 C   0  0  0  0  0
    3.5950    6.8350  -25.4490 C   0  0  0  0  0
    2.5570    4.6890  -25.3380 C   0  0  0  0  0
    2.7100    5.9620  -24.8510 C   0  0  0  0  0
    7.0690    2.7850  -27.0020 N   0  0  0  0  0
    7.6420    2.0300  -25.8970 C   0  0  0  0  0
    9.0720    2.4920  -25.6330 C   0  0  0  0  0
    9.4720    2.6940  -24.4800 O   0  0  0  0  0
    7.5620    0.5190  -26.2040 C   0  0  0  0  0
    6.1140    0.0910  -26.4730 C   0  0  0  0  0
    8.1880   -0.2960  -25.0860 C   0  0  0  0  0
    5.1240    0.3410  -25.3390 C   0  0  0  0  0
    9.8500    2.7160  -26.6960 N   0  0  0  0  0
   11.2400    3.1200  -26.5380 C   0  0  0  0  0
   11.3810    4.4920  -25.8830 C   0  0  0  0  0
   12.4190    4.7700  -25.2690 O   0  0  0  0  0
   11.9310    3.1170  -27.8980 C   0  0  0  0  0
   10.3500    5.3390  -25.9700 N   0  0  0  0  0
   10.4430    6.6850  -25.4200 C   0  0  0  0  0
   10.5840    6.6720  -23.9100 C   0  0  0  0  0
   11.0990    7.6230  -23.3280 O   0  0  0  0  0
    9.2050    7.5050  -25.8040 C   0  0  0  0  0
    8.0840    7.1580  -25.0030 O   0  0  0  0  0
   10.1350    5.6220  -23.2550 N   0  0  0  0  0
   10.1120    5.6060  -21.8260 C   0  0  0  0  0
    9.0050    6.4320  -21.2030 C   0  0  0  0  0
    8.9370    6.5090  -19.9670 O   0  0  0  0  0
    8.1330    7.0360  -22.0050 N   0  0  0  0  0
    7.0390    7.8440  -21.4760 C   0  0  0  0  0
    5.6920    7.1480  -21.6520 C   0  0  0  0  0
    4.7240    7.7450  -22.1400 O   0  0  0  0  0
    7.0480    9.2230  -22.1580 C   0  0  0  0  0
    8.2920   10.0260  -21.7910 C   0  0  0  0  0
    8.2830   11.4160  -22.3990 C   0  0  0  0  0
    7.2030   12.2520  -21.8740 N   0  0  0  0  0
    7.2730   12.9690  -20.7510 C   0  0  0  0  0
    8.3610   12.9520  -19.9880 N   0  0  0  0  0
    6.2310   13.6940  -20.3650 N   0  0  0  0  0
    5.6270    5.8640  -21.3010 N   0  0  0  0  0
    4.3720    5.1300  -21.3800 C   0  0  0  0  0
    3.5730    5.1530  -20.0800 C   0  0  0  0  0
    2.4050    4.7390  -20.0860 O   0  0  0  0  0
    4.6510    3.6720  -21.7580 C   0  0  0  0  0
    5.4730    3.1120  -20.7380 O   0  0  0  0  0
    5.3610    3.5870  -23.0980 C   0  0  0  0  0
    4.1700    5.6000  -18.9750 N   0  0  0  0  0
    3.4870    5.6730  -17.7020 C   0  0  0  0  0
    2.8090    7.0200  -17.4920 C   0  0  0  0  0
    2.8360    7.9070  -18.3420 O   0  0  0  0  0
    2.1880    7.1720  -16.3310 N   0  0  0  0  0
    1.4490    8.4030  -16.0800 C   0  0  0  0  0
    2.4070    9.5870  -16.1380 C   0  0  0  0  0
    3.5620    9.4920  -15.7130 O   0  0  0  0  0
    0.7350    8.3320  -14.7300 C   0  0  0  0  0
    1.9160   10.7020  -16.6720 N   0  0  0  0  0
    2.7570   11.8440  -17.0170 C   0  0  0  0  0
    2.4680   13.0070  -16.0840 C   0  0  0  0  0
    1.3080   13.4040  -15.9220 O   0  0  0  0  0
    2.5160   12.2670  -18.4670 C   0  0  0  0  0
    3.0220   11.2490  -19.4970 C   0  0  0  0  0
    2.3120   11.2830  -20.8360 C   0  0  0  0  0
    0.8700   11.0230  -20.7210 N   0  0  0  0  0
    0.0880   10.6200  -21.7200 C   0  0  0  0  0
    0.5800   10.4180  -22.9400 N   0  0  0  0  0
   -1.2080   10.4170  -21.5180 N   0  0  0  0  0
    3.5260   13.5330  -15.4750 N   0  0  0  0  0
    3.4430   14.7030  -14.6190 C   0  0  0  0  0
    3.3660   15.9770  -15.4430 C   0  0  0  0  0
    3.8330   16.0560  -16.5820 O   0  0  0  0  0
    4.6650   14.7990  -13.7180 C   0  0  0  0  0
    4.6810   13.7410  -12.6520 C   0  0  0  0  0
    3.6330   13.2860  -12.1990 O   0  0  0  0  0
    5.8740   13.3500  -12.2330 N   0  0  0  0  0
    2.8130   17.0030  -14.8160 N   0  0  0  0  0
    2.7380   18.2980  -15.4590 C   0  0  0  0  0
    4.0940   18.9910  -15.4390 C   0  0  0  0  0
    5.0490   18.5460  -14.7870 O   0  0  0  0  0
    1.6860   19.1570  -14.7690 C   0  0  0  0  0
    4.1510   20.0600  -16.2380 N   0  0  0  0  0
    5.0520   21.2150  -16.1670 C   0  0  0  0  0
    5.8330   21.3020  -17.4770 C   0  0  0  0  0
    5.7070   22.3430  -18.1330 O   0  0  0  0  0
    5.9350   21.2040  -14.9030 C   0  0  0  0  0
    5.0980   21.7000  -13.7360 C   0  0  0  0  0
    7.1100   22.1220  -15.0220 C   0  0  0  0  0
    6.5160   20.3860  -17.9440 O   0  0  0  0  0
    8.8941    1.0130  -36.0035 H   0  0  0  0  0
    8.4349   -0.0397  -34.7962 H   0  0  0  0  0
    8.3803   -0.5244  -36.3896 H   0  0  0  0  0
    6.7201    1.0387  -36.8903 H   0  0  0  0  0
    4.8571    0.0664  -35.6897 H   0  0  0  0  0
    5.8919    0.1481  -33.5856 H   0  0  0  0  0
    7.0307   -2.0057  -36.1827 H   0  0  0  0  0
    5.2833   -2.3296  -36.0698 H   0  0  0  0  0
    5.9206   -1.3376  -37.4044 H   0  0  0  0  0
    5.0079    2.4981  -35.8991 H   0  0  0  0  0
    6.2462    4.4655  -34.2227 H   0  0  0  0  0
    3.2921    3.9956  -34.7345 H   0  0  0  0  0
    3.7154    5.6102  -36.3906 H   0  0  0  0  0
    3.7459    5.5210  -32.8355 H   0  0  0  0  0
    4.8401    6.4766  -33.8654 H   0  0  0  0  0
    3.0984    6.4172  -34.2315 H   0  0  0  0  0
    3.9888    1.7667  -33.4565 H   0  0  0  0  0
    3.6669    2.4669  -30.7078 H   0  0  0  0  0
    3.7042   -0.2550  -32.0467 H   0  0  0  0  0
    2.2635    0.8080  -31.7484 H   0  0  0  0  0
    1.8827    1.4360  -29.2295 H   0  0  0  0  0
    4.1276   -1.9664  -30.5375 H   0  0  0  0  0
    1.5531    0.3718  -27.0300 H   0  0  0  0  0
    3.7930   -3.0251  -28.3430 H   0  0  0  0  0
    2.8864   -2.8218  -26.2968 H   0  0  0  0  0
    6.1926    0.4595  -32.3135 H   0  0  0  0  0
    7.4580   -0.2119  -29.8234 H   0  0  0  0  0
    7.9419   -1.4268  -31.9002 H   0  0  0  0  0
    8.6724    0.0376  -32.6022 H   0  0  0  0  0
    9.4383   -0.7572  -31.2049 H   0  0  0  0  0
    7.8423    2.5659  -32.0531 H   0  0  0  0  0
   10.0673    3.7033  -30.6582 H   0  0  0  0  0
    9.3055    5.8404  -31.6651 H   0  0  0  0  0
    7.8231    4.9629  -32.2466 H   0  0  0  0  0
    8.6713    5.6703  -34.1697 H   0  0  0  0  0
    6.5450    3.9140  -30.0780 H   0  0  0  0  0
    6.7075    5.9127  -28.0090 H   0  0  0  0  0
    4.7502    3.6368  -28.4055 H   0  0  0  0  0
    4.6322    5.3277  -29.0980 H   0  0  0  0  0
    4.9973    7.1308  -27.0482 H   0  0  0  0  0
    3.1615    3.2693  -26.8277 H   0  0  0  0  0
    3.7252    7.8402  -25.0481 H   0  0  0  0  0
    1.8608    4.0008  -24.8587 H   0  0  0  0  0
    2.1294    6.2855  -23.9871 H   0  0  0  0  0
    6.7279    2.3008  -27.8325 H   0  0  0  0  0
    7.0714    2.2125  -24.9864 H   0  0  0  0  0
    8.1350    0.3246  -27.1107 H   0  0  0  0  0
    6.1365   -0.9876  -26.6289 H   0  0  0  0  0
    5.7696    0.6868  -27.3183 H   0  0  0  0  0
    9.2355   -0.0155  -24.9763 H   0  0  0  0  0
    7.6582   -0.0990  -24.1540 H   0  0  0  0  0
    8.1180   -1.3565  -25.3281 H   0  0  0  0  0
    5.4435   -0.2063  -24.4522 H   0  0  0  0  0
    5.0900    1.4075  -25.1167 H   0  0  0  0  0
    4.1338   -0.0003  -25.6410 H   0  0  0  0  0
    9.4640    2.6022  -27.6332 H   0  0  0  0  0
   11.7164    2.3993  -25.8733 H   0  0  0  0  0
   11.8905    2.1139  -28.3225 H   0  0  0  0  0
   11.4234    3.8152  -28.5635 H   0  0  0  0  0
   12.9710    3.4198  -27.7764 H   0  0  0  0  0
    9.4885    5.0394  -26.4266 H   0  0  0  0  0
   11.3375    7.1423  -25.8429 H   0  0  0  0  0
    8.9627    7.2982  -26.8464 H   0  0  0  0  0
    9.4275    8.5607  -25.6490 H   0  0  0  0  0
    7.3275    7.6869  -25.2670 H   0  0  0  0  0
    9.7995    4.8102  -23.7735 H   0  0  0  0  0
   11.0561    6.0333  -21.4881 H   0  0  0  0  0
    9.9467    4.5723  -21.5223 H   0  0  0  0  0
    8.2313    6.9319  -23.0149 H   0  0  0  0  0
    7.1867    7.9759  -20.4041 H   0  0  0  0  0
    6.1708    9.7770  -21.8239 H   0  0  0  0  0
    7.0427    9.0722  -23.2375 H   0  0  0  0  0
    9.1623    9.4948  -22.1765 H   0  0  0  0  0
    8.3171   10.1323  -20.7065 H   0  0  0  0  0
    8.1344   11.3113  -23.4737 H   0  0  0  0  0
    9.2297   11.8965  -22.1522 H   0  0  0  0  0
    6.3331   12.2894  -22.4053 H   0  0  0  0  0
    8.3851   13.4905  -19.1220 H   0  0  0  0  0
    9.1720   12.4005  -20.2683 H   0  0  0  0  0
    5.3794   13.7022  -20.9263 H   0  0  0  0  0
    6.4678    5.3890  -20.9726 H   0  0  0  0  0
    3.7716    5.6291  -22.1406 H   0  0  0  0  0
    3.7124    3.1248  -21.8456 H   0  0  0  0  0
    5.6642    2.1954  -20.9499 H   0  0  0  0  0
    4.7347    4.0362  -23.8687 H   0  0  0  0  0
    6.3086    4.1226  -23.0403 H   0  0  0  0  0
    5.5475    2.5414  -23.3432 H   0  0  0  0  0
    5.1430    5.9012  -19.0291 H   0  0  0  0  0
    4.2254    5.5372  -16.9118 H   0  0  0  0  0
    2.7193    4.8994  -17.6833 H   0  0  0  0  0
    2.2267    6.4383  -15.6235 H   0  0  0  0  0
    0.6862    8.5333  -16.8476 H   0  0  0  0  0
    0.0382    7.4938  -14.7326 H   0  0  0  0  0
    1.4709    8.1919  -13.9382 H   0  0  0  0  0
    0.1887    9.2598  -14.5601 H   0  0  0  0  0
    0.9129   10.7612  -16.8472 H   0  0  0  0  0
    3.8009   11.5504  -16.9071 H   0  0  0  0  0
    3.0618   13.1962  -18.6310 H   0  0  0  0  0
    1.4389   12.3626  -18.6044 H   0  0  0  0  0
    2.8466   10.2601  -19.0735 H   0  0  0  0  0
    4.0674   11.4902  -19.6896 H   0  0  0  0  0
    2.7435   10.5029  -21.4632 H   0  0  0  0  0
    2.4394   12.2804  -21.2568 H   0  0  0  0  0
    0.4364   11.1616  -19.8082 H   0  0  0  0  0
   -0.0357   10.1140  -23.6943 H   0  0  0  0  0
    1.5727   10.5672  -23.1207 H   0  0  0  0  0
   -1.6101   10.5698  -20.5931 H   0  0  0  0  0
    4.4366   13.0953  -15.6152 H   0  0  0  0  0
    2.5403   14.5960  -14.0175 H   0  0  0  0  0
    4.6431   15.7711  -13.2255 H   0  0  0  0  0
    5.5508   14.6634  -14.3385 H   0  0  0  0  0
    5.9513   12.6415  -11.5033 H   0  0  0  0  0
    6.7161   13.7572  -12.6398 H   0  0  0  0  0
    2.4379   16.8808  -13.8754 H   0  0  0  0  0
    2.4501   18.1556  -16.5006 H   0  0  0  0  0
    0.7159   18.6644  -14.8354 H   0  0  0  0  0
    1.9568   19.2893  -13.7215 H   0  0  0  0  0
    1.6352   20.1298  -15.2581 H   0  0  0  0  0
    3.4754   20.0750  -17.0020 H   0  0  0  0  0
    4.4695   22.1301  -16.0601 H   0  0  0  0  0
    5.1538   22.9602  -17.6486 H   0  0  0  0  0
    6.2983   20.1860  -14.7620 H   0  0  0  0  0
    4.7517   22.7125  -13.9433 H   0  0  0  0  0
    4.2399   21.0418  -13.6003 H   0  0  0  0  0
    5.7041   21.7003  -12.8301 H   0  0  0  0  0
    7.7259   21.8141  -15.8670 H   0  0  0  0  0
    6.7584   23.1416  -15.1795 H   0  0  0  0  0
    7.6990   22.0769  -14.1059 H   0  0  0  0  0
  1  2  1  0  0  0
  2  3  1  0  0  0
  2  5  1  0  0  0
  3  4  2  0  0  0
  3  8  1  0  0  0
  5  6  1  0  0  0
  5  7  1  0  0  0
  8  9  1  0  0  0
  9 10  1  0  0  0
  9 12  1  0  0  0
 10 11  2  0  0  0
 10 15  1  0  0  0
 12 13  1  0  0  0
 12 14  1  0  0  0
 15 16  1  0  0  0
 16 17  1  0  0  0
 16 19  1  0  0  0
 17 18  2  0  0  0
 17 27  1  0  0  0
 19 20  1  0  0  0
 20 21  4  0  0  0
 20 22  4  0  0  0
 21 23  4  0  0  0
 22 24  4  0  0  0
 23 25  4  0  0  0
 24 25  4  0  0  0
 25 26  1  0  0  0
 27 28  1  0  0  0
 28 29  1  0  0  0
 28 31  1  0  0  0
 29 30  2  0  0  0
 29 32  1  0  0  0
 32 33  1  0  0  0
 33 34  1  0  0  0
 33 36  1  0  0  0
 34 35  2  0  0  0
 34 40  1  0  0  0
 36 37  1  0  0  0
 37 38  2  0  0  0
 37 39  1  0  0  0
 40 41  1  0  0  0
 41 42  1  0  0  0
 41 44  1  0  0  0
 42 43  2  0  0  0
 42 51  1  0  0  0
 44 45  1  0  0  0
 45 46  4  0  0  0
 45 47  4  0  0  0
 46 48  4  0  0  0
 47 49  4  0  0  0
 48 50  4  0  0  0
 49 50  4  0  0  0
 51 52  1  0  0  0
 52 53  1  0  0  0
 52 55  1  0  0  0
 53 54  2  0  0  0
 53 59  1  0  0  0
 55 56  1  0  0  0
 55 57  1  0  0  0
 56 58  1  0  0  0
 59 60  1  0  0  0
 60 61  1  0  0  0
 60 63  1  0  0  0
 61 62  2  0  0  0
 61 64  1  0  0  0
 64 65  1  0  0  0
 65 66  1  0  0  0
 65 68  1  0  0  0
 66 67  2  0  0  0
 66 70  1  0  0  0
 68 69  1  0  0  0
 70 71  1  0  0  0
 71 72  1  0  0  0
 72 73  2  0  0  0
 72 74  1  0  0  0
 74 75  1  0  0  0
 75 76  1  0  0  0
 75 78  1  0  0  0
 76 77  2  0  0  0
 76 85  1  0  0  0
 78 79  1  0  0  0
 79 80  1  0  0  0
 80 81  1  0  0  0
 81 82  1  0  0  0
 82 83  1  0  0  0
 82 84  2  0  0  0
 85 86  1  0  0  0
 86 87  1  0  0  0
 86 89  1  0  0  0
 87 88  2  0  0  0
 87 92  1  0  0  0
 89 90  1  0  0  0
 89 91  1  0  0  0
 92 93  1  0  0  0
 93 94  1  0  0  0
 94 95  2  0  0  0
 94 96  1  0  0  0
 96 97  1  0  0  0
 97 98  1  0  0  0
 97100  1  0  0  0
 98 99  2  0  0  0
 98101  1  0  0  0
101102  1  0  0  0
102103  1  0  0  0
102105  1  0  0  0
103104  2  0  0  0
103112  1  0  0  0
105106  1  0  0  0
106107  1  0  0  0
107108  1  0  0  0
108109  1  0  0  0
109110  1  0  0  0
109111  2  0  0  0
112113  1  0  0  0
113114  1  0  0  0
113116  1  0  0  0
114115  2  0  0  0
114120  1  0  0  0
116117  1  0  0  0
117118  2  0  0  0
117119  1  0  0  0
120121  1  0  0  0
121122  1  0  0  0
121124  1  0  0  0
122123  2  0  0  0
122125  1  0  0  0
125126  1  0  0  0
126127  1  0  0  0
126129  1  0  0  0
127128  1  0  0  0
127132  2  0  0  0
129130  1  0  0  0
129131  1  0  0  0
  1133  1  0  0  0
  1134  1  0  0  0
  1135  1  0  0  0
  2136  1  0  0  0
  5137  1  0  0  0
  6138  1  0  0  0
  7139  1  0  0  0
  7140  1  0  0  0
  7141  1  0  0  0
  8142  1  0  0  0
  9143  1  0  0  0
 12144  1  0  0  0
 13145  1  0  0  0
 14146  1  0  0  0
 14147  1  0  0  0
 14148  1  0  0  0
 15149  1  0  0  0
 16150  1  0  0  0
 19151  1  0  0  0
 19152  1  0  0  0
 21153  1  0  0  0
 22154  1  0  0  0
 23155  1  0  0  0
 24156  1  0  0  0
 26157  1  0  0  0
 27158  1  0  0  0
 28159  1  0  0  0
 31160  1  0  0  0
 31161  1  0  0  0
 31162  1  0  0  0
 32163  1  0  0  0
 33164  1  0  0  0
 36165  1  0  0  0
 36166  1  0  0  0
 39167  1  0  0  0
 40168  1  0  0  0
 41169  1  0  0  0
 44170  1  0  0  0
 44171  1  0  0  0
 46172  1  0  0  0
 47173  1  0  0  0
 48174  1  0  0  0
 49175  1  0  0  0
 50176  1  0  0  0
 51177  1  0  0  0
 52178  1  0  0  0
 55179  1  0  0  0
 56180  1  0  0  0
 56181  1  0  0  0
 57182  1  0  0  0
 57183  1  0  0  0
 57184  1  0  0  0
 58185  1  0  0  0
 58186  1  0  0  0
 58187  1  0  0  0
 59188  1  0  0  0
 60189  1  0  0  0
 63190  1  0  0  0
 63191  1  0  0  0
 63192  1  0  0  0
 64193  1  0  0  0
 65194  1  0  0  0
 68195  1  0  0  0
 68196  1  0  0  0
 69197  1  0  0  0
 70198  1  0  0  0
 71199  1  0  0  0
 71200  1  0  0  0
 74201  1  0  0  0
 75202  1  0  0  0
 78203  1  0  0  0
 78204  1  0  0  0
 79205  1  0  0  0
 79206  1  0  0  0
 80207  1  0  0  0
 80208  1  0  0  0
 81209  1  0  0  0
 83210  1  0  0  0
 83211  1  0  0  0
 84212  1  0  0  0
 85213  1  0  0  0
 86214  1  0  0  0
 89215  1  0  0  0
 90216  1  0  0  0
 91217  1  0  0  0
 91218  1  0  0  0
 91219  1  0  0  0
 92220  1  0  0  0
 93221  1  0  0  0
 93222  1  0  0  0
 96223  1  0  0  0
 97224  1  0  0  0
100225  1  0  0  0
100226  1  0  0  0
100227  1  0  0  0
101228  1  0  0  0
102229  1  0  0  0
105230  1  0  0  0
105231  1  0  0  0
106232  1  0  0  0
106233  1  0  0  0
107234  1  0  0  0
107235  1  0  0  0
108236  1  0  0  0
110237  1  0  0  0
110238  1  0  0  0
111239  1  0  0  0
112240  1  0  0  0
113241  1  0  0  0
116242  1  0  0  0
116243  1  0  0  0
119244  1  0  0  0
119245  1  0  0  0
120246  1  0  0  0
121247  1  0  0  0
124248  1  0  0  0
124249  1  0  0  0
124250  1  0  0  0
125251  1  0  0  0
126252  1  0  0  0
128253  1  0  0  0
129254  1  0  0  0
130255  1  0  0  0
130256  1  0  0  0
130257  1  0  0  0
131258  1  0  0  0
131259  1  0  0  0
131260  1  0  0  0
M  END
$$$$
