4h3f_ligand
  -I-interpret- 

 55 59  0  0  0  0  0  0  0  0999 V2000
   21.8620   10.3850   21.5640 C   0  0  0  0  0
   21.1720   11.6730   22.0590 C   0  0  0  0  0
   22.4630   11.3560   24.1820 N   0  0  0  0  0
   22.4780    9.9840   23.9550 C   0  0  0  0  0
   21.8150   12.2610   23.3420 C   0  0  0  0  0
   22.1740    9.5010   22.7020 N   0  0  0  0  0
   23.1090   10.7540   20.7800 C   0  0  0  0  0
   19.5370   10.1670   21.3280 N   0  0  0  0  0
   20.7860    9.7190   20.7100 C   0  0  0  0  0
   19.6950   11.3040   22.2440 C   0  0  0  0  0
   24.4860   10.6230   21.2060 C   0  0  0  0  0
   25.4310   11.0600   20.2420 C   0  0  0  0  0
   23.0970   11.4220   19.2090 S   0  0  0  0  0
   24.7930   11.5310   19.0810 C   0  0  0  0  0
   18.3400    9.5550   21.0370 C   0  0  0  0  0
   29.7790    9.2640   23.9810 N   0  0  0  0  0
   22.7720    9.1390   24.9360 N   0  0  0  0  0
   26.9210   11.0300   20.4680 C   0  0  0  0  0
   29.3580    9.7690   23.0340 C   0  0  0  0  0
   21.7440   13.4670   23.5620 O   0  0  0  0  0
   18.3940    8.5740   20.1010 N   0  0  0  0  0
   27.4740   10.4230   21.6210 C   0  0  0  0  0
   23.1720   11.9050   25.3740 C   0  0  0  0  0
   28.8650   10.3990   21.8500 C   0  0  0  0  0
   27.8260   11.6220   19.5440 C   0  0  0  0  0
   17.1090    9.9060   21.6560 C   0  0  0  0  0
   29.2280   11.6010   19.7670 C   0  0  0  0  0
   17.2840    7.9010   19.7290 C   0  0  0  0  0
   29.7600   10.9860   20.9270 C   0  0  0  0  0
   15.9430    9.2020   21.2700 C   0  0  0  0  0
   16.0290    8.1820   20.2890 C   0  0  0  0  0
   17.3610    6.8960   18.7670 O   0  0  0  0  0
   18.6700    6.6660   18.2430 C   0  0  0  0  0
   21.2891   12.4783   21.3338 H   0  0  0  0  0
   22.1642    8.4917   22.5552 H   0  0  0  0  0
   20.8783    8.6331   20.6920 H   0  0  0  0  0
   20.8555    9.9958   19.6580 H   0  0  0  0  0
   19.0170   12.1285   22.0237 H   0  0  0  0  0
   19.4405   11.0611   23.2757 H   0  0  0  0  0
   24.7714   10.2246   22.1796 H   0  0  0  0  0
   25.3179   11.9178   18.2075 H   0  0  0  0  0
   22.9897    9.4943   25.8670 H   0  0  0  0  0
   26.8076    9.9625   22.3503 H   0  0  0  0  0
   22.7441   11.4750   26.2796 H   0  0  0  0  0
   24.2303   11.6509   25.3146 H   0  0  0  0  0
   23.0579   12.9888   25.3958 H   0  0  0  0  0
   27.4352   12.1015   18.6465 H   0  0  0  0  0
   17.0643   10.6950   22.4067 H   0  0  0  0  0
   29.8990   12.0608   19.0414 H   0  0  0  0  0
   30.8354   10.9660   21.1037 H   0  0  0  0  0
   14.9825    9.4433   21.7254 H   0  0  0  0  0
   15.1421    7.6300   19.9778 H   0  0  0  0  0
   19.0379    7.5787   17.7744 H   0  0  0  0  0
   19.3389    6.3772   19.0537 H   0  0  0  0  0
   18.6284    5.8672   17.5026 H   0  0  0  0  0
  1  2  1  0  0  0
  1  6  1  0  0  0
  7  1  1  0  0  0
  1  9  1  0  0  0
  2  5  1  0  0  0
  2 10  1  0  0  0
  4  3  4  0  0  0
  5  3  1  0  0  0
  3 23  1  0  0  0
  6  4  1  0  0  0
  4 17  2  0  0  0
  5 20  2  0  0  0
 11  7  4  0  0  0
 13  7  4  0  0  0
  9  8  1  0  0  0
  8 10  1  0  0  0
  8 15  1  0  0  0
 12 11  4  0  0  0
 12 14  4  0  0  0
 18 12  1  0  0  0
 14 13  4  0  0  0
 15 21  4  0  0  0
 15 26  4  0  0  0
 19 16  3  0  0  0
 22 18  4  0  0  0
 18 25  4  0  0  0
 24 19  1  0  0  0
 21 28  4  0  0  0
 22 24  4  0  0  0
 24 29  4  0  0  0
 25 27  4  0  0  0
 26 30  4  0  0  0
 27 29  4  0  0  0
 28 31  4  0  0  0
 28 32  1  0  0  0
 30 31  4  0  0  0
 32 33  1  0  0  0
  2 34  1  0  0  0
  6 35  1  0  0  0
  9 36  1  0  0  0
  9 37  1  0  0  0
 10 38  1  0  0  0
 10 39  1  0  0  0
 11 40  1  0  0  0
 14 41  1  0  0  0
 17 42  1  0  0  0
 22 43  1  0  0  0
 23 44  1  0  0  0
 23 45  1  0  0  0
 23 46  1  0  0  0
 25 47  1  0  0  0
 26 48  1  0  0  0
 27 49  1  0  0  0
 29 50  1  0  0  0
 30 51  1  0  0  0
 31 52  1  0  0  0
 33 53  1  0  0  0
 33 54  1  0  0  0
 33 55  1  0  0  0
M  END
$$$$
