4ke0_ligand
  -I-interpret- 

 79 83  0  0  0  0  0  0  0  0999 V2000
   29.2900    0.1920   10.7140 C   0  0  0  0  0
   28.0370   -0.5240   11.2250 C   0  0  0  0  0
   27.4650    0.8270   11.7140 C   0  0  0  0  0
   28.7860    1.5110   11.3470 C   0  0  0  0  0
   29.5470    1.9580   12.6110 C   0  0  0  0  0
   28.6310    2.5870   10.4100 O   0  0  0  0  0
   29.7640    3.2720   10.0740 C   0  0  0  0  0
   29.7600    4.0180    8.8880 C   0  0  0  0  0
   30.9010    4.7300    8.5000 C   0  0  0  0  0
   32.0380    4.7110    9.2980 C   0  0  0  0  0
   33.2990    5.4800    8.8900 C   0  0  0  0  0
   34.3420    4.5010    8.3220 C   0  0  0  0  0
   32.0370    3.9770   10.4780 C   0  0  0  0  0
   30.9050    3.2650   10.8860 C   0  0  0  0  0
   30.9570    2.4480   12.2150 C   0  0  0  0  0
   31.6080    3.2050   13.3270 N   0  3  0  0  0
   31.0010    4.5240   13.6320 C   0  0  0  0  0
   32.0320    5.3850   14.3540 C   0  0  0  0  0
   33.1630    5.4830   13.5070 O   0  0  0  0  0
   31.5340    6.7940   14.7140 C   0  0  0  0  0
   32.6370    7.5870   15.4370 C   0  0  0  0  0
   32.1340    8.9420   15.9500 C   0  0  0  0  0
   31.5870    9.0370   17.2340 C   0  0  0  0  0
   32.2190   10.0810   15.1400 C   0  0  0  0  0
   31.7450   11.3070   15.6300 C   0  0  0  0  0
   31.1910   11.4000   16.9150 C   0  0  0  0  0
   31.1170   10.2570   17.7240 C   0  0  0  0  0
   30.5060   10.3240   19.1440 C   0  0  0  0  0
   28.9510   10.3560   19.1200 C   0  0  0  0  0
   28.3030    9.1000   18.4700 C   0  0  0  0  0
   27.9740    9.3500   16.9720 C   0  0  0  0  0
   27.1720    8.2010   16.3290 C   0  0  0  0  0
   27.9830    6.9090   16.1490 C   0  0  0  0  0
   29.1190    7.0760   15.1390 C   0  0  0  0  0
   28.8850    7.5100   14.0110 O   0  0  0  0  0
   30.3310    6.6990   15.5620 N   0  0  0  0  0
   29.5476    0.1562    9.6555 H   0  0  0  0  0
   30.2795   -0.1915   10.9628 H   0  0  0  0  0
   28.1312   -1.3593   11.9189 H   0  0  0  0  0
   27.4539   -1.1507   10.5503 H   0  0  0  0  0
   27.0630    0.9183   12.7230 H   0  0  0  0  0
   26.5241    1.2013   11.3107 H   0  0  0  0  0
   29.6340    1.1175   13.2996 H   0  0  0  0  0
   29.0029    2.7687   13.0956 H   0  0  0  0  0
   28.8656    4.0440    8.2655 H   0  0  0  0  0
   30.8974    5.2999    7.5709 H   0  0  0  0  0
   33.7137    5.9835    9.7632 H   0  0  0  0  0
   33.0426    6.2168    8.1288 H   0  0  0  0  0
   34.5979    3.7632    9.0825 H   0  0  0  0  0
   33.9274    3.9964    7.4494 H   0  0  0  0  0
   35.2368    5.0525    8.0333 H   0  0  0  0  0
   32.9344    3.9560   11.0963 H   0  0  0  0  0
   31.5829    1.5745   12.0323 H   0  0  0  0  0
   32.5690    3.3847   13.0361 H   0  0  0  0  0
   31.5086    2.6352   14.1671 H   0  0  0  0  0
   30.1241    4.3893   14.2652 H   0  0  0  0  0
   30.6951    5.0124   12.7068 H   0  0  0  0  0
   32.2612    4.9061   15.3060 H   0  0  0  0  0
   33.8346    6.0209   13.9328 H   0  0  0  0  0
   31.2789    7.3219   13.7951 H   0  0  0  0  0
   33.4434    7.7710   14.7272 H   0  0  0  0  0
   32.9693    7.0017   16.2944 H   0  0  0  0  0
   31.5269    8.1469   17.8602 H   0  0  0  0  0
   32.6485   10.0158   14.1403 H   0  0  0  0  0
   31.8080   12.1976   15.0048 H   0  0  0  0  0
   30.8196   12.3564   17.2832 H   0  0  0  0  0
   30.8548   11.2414   19.6181 H   0  0  0  0  0
   30.8165    9.4313   19.6870 H   0  0  0  0  0
   28.6543   11.2186   18.5234 H   0  0  0  0  0
   28.6121   10.3959   20.1552 H   0  0  0  0  0
   27.3760    8.8742   18.9971 H   0  0  0  0  0
   29.0067    8.2704   18.5382 H   0  0  0  0  0
   28.9188    9.4354   16.4352 H   0  0  0  0  0
   27.3655   10.2524   16.9127 H   0  0  0  0  0
   26.8631    8.5333   15.3379 H   0  0  0  0  0
   26.3383    7.9732   16.9932 H   0  0  0  0  0
   27.3106    6.1354   15.7782 H   0  0  0  0  0
   28.4212    6.6467   17.1120 H   0  0  0  0  0
   30.4269    6.3313   16.5086 H   0  0  0  0  0
  1  2  1  0  0  0
  1  4  1  0  0  0
  2  3  1  0  0  0
  3  4  1  0  0  0
  4  5  1  0  0  0
  4  6  1  0  0  0
  5 15  1  0  0  0
  6  7  1  0  0  0
  7  8  4  0  0  0
  7 14  4  0  0  0
  8  9  4  0  0  0
  9 10  4  0  0  0
 10 11  1  0  0  0
 10 13  4  0  0  0
 11 12  1  0  0  0
 13 14  4  0  0  0
 14 15  1  0  0  0
 15 16  1  0  0  0
 16 17  1  0  0  0
 17 18  1  0  0  0
 18 19  1  0  0  0
 18 20  1  0  0  0
 20 21  1  0  0  0
 20 36  1  0  0  0
 21 22  1  0  0  0
 22 23  4  0  0  0
 22 24  4  0  0  0
 23 27  4  0  0  0
 24 25  4  0  0  0
 25 26  4  0  0  0
 26 27  4  0  0  0
 27 28  1  0  0  0
 28 29  1  0  0  0
 29 30  1  0  0  0
 30 31  1  0  0  0
 31 32  1  0  0  0
 32 33  1  0  0  0
 33 34  1  0  0  0
 34 35  2  0  0  0
 34 36  1  0  0  0
  1 37  1  0  0  0
  1 38  1  0  0  0
  2 39  1  0  0  0
  2 40  1  0  0  0
  3 41  1  0  0  0
  3 42  1  0  0  0
  5 43  1  0  0  0
  5 44  1  0  0  0
  8 45  1  0  0  0
  9 46  1  0  0  0
 11 47  1  0  0  0
 11 48  1  0  0  0
 12 49  1  0  0  0
 12 50  1  0  0  0
 12 51  1  0  0  0
 13 52  1  0  0  0
 15 53  1  0  0  0
 16 54  1  0  0  0
 16 55  1  0  0  0
 17 56  1  0  0  0
 17 57  1  0  0  0
 18 58  1  0  0  0
 19 59  1  0  0  0
 20 60  1  0  0  0
 21 61  1  0  0  0
 21 62  1  0  0  0
 23 63  1  0  0  0
 24 64  1  0  0  0
 25 65  1  0  0  0
 26 66  1  0  0  0
 28 67  1  0  0  0
 28 68  1  0  0  0
 29 69  1  0  0  0
 29 70  1  0  0  0
 30 71  1  0  0  0
 30 72  1  0  0  0
 31 73  1  0  0  0
 31 74  1  0  0  0
 32 75  1  0  0  0
 32 76  1  0  0  0
 33 77  1  0  0  0
 33 78  1  0  0  0
 36 79  1  0  0  0
M  END
$$$$
