5apr_ligand
  -I-interpret- 

107109  0  0  0  0  0  0  0  0999 V2000
   37.2540   72.3440  102.0190 N   0  3  0  0  0
   37.5550   71.0520  101.3940 C   0  0  0  0  0
   38.7290   70.3720  102.0830 C   0  0  0  0  0
   39.6710   71.0540  102.5440 O   0  0  0  0  0
   37.7740   71.4190   99.9290 C   0  0  0  0  0
   37.5010   72.8660   99.7250 C   0  0  0  0  0
   37.4700   73.4840  101.1120 C   0  0  0  0  0
   38.7150   69.0470  102.1650 N   0  0  0  0  0
   39.7790   68.2350  102.7810 C   0  0  0  0  0
   40.6510   67.5130  101.7640 C   0  0  0  0  0
   40.2240   67.1610  100.6570 O   0  0  0  0  0
   39.1980   67.2010  103.7730 C   0  0  0  0  0
   38.8180   67.8360  105.0840 C   0  0  0  0  0
   39.8080   68.1680  106.0170 C   0  0  0  0  0
   37.4950   68.1180  105.3750 C   0  0  0  0  0
   39.4720   68.7740  107.2250 C   0  0  0  0  0
   37.1310   68.7290  106.5770 C   0  0  0  0  0
   38.1290   69.0560  107.5070 C   0  0  0  0  0
   41.9030   67.2330  102.1020 N   0  0  0  0  0
   42.7440   66.4800  101.1350 C   0  0  0  0  0
   43.7870   65.7310  101.9890 C   0  0  0  0  0
   44.8680   66.2540  102.2690 O   0  0  0  0  0
   43.2690   67.2700   99.9670 C   0  0  0  0  0
   43.9200   66.2070   98.6290 S   0  0  0  0  0
   43.3300   64.5490  102.3590 N   0  0  0  0  0
   43.9210   63.5140  103.1770 C   0  0  0  0  0
   43.3850   63.5540  104.5890 C   0  0  0  0  0
   42.8780   64.9380  105.0710 C   0  0  0  0  0
   41.7430   64.8700  106.1190 C   0  0  0  0  0
   44.0440   65.7060  105.7490 C   0  0  0  0  0
   44.2940   62.2080  102.4780 C   0  0  0  0  0
   43.1140   61.5250  102.0020 O   0  0  0  0  0
   45.2250   62.3060  101.2740 C   0  0  0  0  0
   46.6270   62.6440  101.7960 C   0  0  0  0  0
   46.8870   63.8050  102.0020 O   0  0  0  0  0
   47.4500   61.6020  101.7350 N   0  0  0  0  0
   48.9070   61.5880  101.8500 C   0  0  0  0  0
   49.5850   62.4250  100.7520 C   0  0  0  0  0
   50.3880   63.3290  101.0150 O   0  0  0  0  0
   49.4180   60.1510  101.8840 C   0  0  0  0  0
   50.0260   59.5220  103.1130 C   0  0  0  0  0
   51.1000   58.5090  102.6790 C   0  0  0  0  0
   50.7010   60.5300  104.0440 C   0  0  0  0  0
   49.2030   62.0860   99.5390 N   0  0  0  0  0
   49.7080   62.7550   98.3260 C   0  0  0  0  0
   48.4720   63.1830   97.5260 C   0  0  0  0  0
   47.7280   62.3670   96.9700 O   0  0  0  0  0
   48.3130   64.4940   97.5350 N   0  0  0  0  0
   47.1800   65.1100   96.8420 C   0  0  0  0  0
   46.7380   66.3670   97.5730 C   0  0  0  0  0
   45.9000   66.0760   99.1280 S   0  0  0  0  0
   37.8799   72.4575  102.8164 H   0  0  0  0  0
   36.2692   72.3396  102.2845 H   0  0  0  0  0
   36.7676   70.3036  101.4838 H   0  0  0  0  0
   37.0974   70.8337   99.3062 H   0  0  0  0  0
   38.8071   71.2054   99.6549 H   0  0  0  0  0
   36.5571   73.0204   99.2021 H   0  0  0  0  0
   38.2669   73.3290   99.1029 H   0  0  0  0  0
   36.6864   74.2357  101.2069 H   0  0  0  0  0
   38.3912   74.0196  101.3413 H   0  0  0  0  0
   37.9108   68.5564  101.7739 H   0  0  0  0  0
   40.4093   68.9460  103.3151 H   0  0  0  0  0
   39.9600   66.4460  103.9662 H   0  0  0  0  0
   38.3015   66.7673  103.3299 H   0  0  0  0  0
   40.8527   67.9498  105.7954 H   0  0  0  0  0
   36.7218   67.8582  104.6520 H   0  0  0  0  0
   40.2489   69.0273  107.9464 H   0  0  0  0  0
   36.0848   68.9490  106.7897 H   0  0  0  0  0
   37.8591   69.5303  108.4506 H   0  0  0  0  0
   42.2792   67.5272  103.0033 H   0  0  0  0  0
   42.1421   65.7649  100.5742 H   0  0  0  0  0
   44.0875   67.8937  100.3264 H   0  0  0  0  0
   42.4428   67.8522   99.5590 H   0  0  0  0  0
   42.3987   64.3278  102.0067 H   0  0  0  0  0
   44.9717   63.7416  103.3568 H   0  0  0  0  0
   44.2130   63.2814  105.2434 H   0  0  0  0  0
   42.5267   62.8827  104.6145 H   0  0  0  0  0
   42.4950   65.4294  104.1766 H   0  0  0  0  0
   40.8871   64.3469  105.6924 H   0  0  0  0  0
   42.0956   64.3341  107.0003 H   0  0  0  0  0
   41.4491   65.8812  106.4005 H   0  0  0  0  0
   44.4072   65.1331  106.6022 H   0  0  0  0  0
   44.8528   65.8435  105.0313 H   0  0  0  0  0
   43.6881   66.6789  106.0880 H   0  0  0  0  0
   44.8302   61.6772  103.2647 H   0  0  0  0  0
   43.3716   60.7088  101.5671 H   0  0  0  0  0
   44.8786   63.0792  100.5883 H   0  0  0  0  0
   45.2404   61.3626  100.7283 H   0  0  0  0  0
   47.0074   60.6947  101.5890 H   0  0  0  0  0
   49.1776   62.0632  102.7929 H   0  0  0  0  0
   50.2480   60.1667  101.1777 H   0  0  0  0  0
   48.5138   59.5630  101.7266 H   0  0  0  0  0
   49.2046   59.0559  103.6573 H   0  0  0  0  0
   50.6414   57.7381  102.0597 H   0  0  0  0  0
   51.8731   59.0233  102.1081 H   0  0  0  0  0
   51.5436   58.0506  103.5629 H   0  0  0  0  0
   51.5016   61.0390  103.5072 H   0  0  0  0  0
   49.9657   61.2608  104.3806 H   0  0  0  0  0
   51.1152   60.0062  104.9055 H   0  0  0  0  0
   48.5287   61.3280   99.4336 H   0  0  0  0  0
   50.3276   63.6148   98.5810 H   0  0  0  0  0
   50.3404   62.0855   97.7430 H   0  0  0  0  0
   48.9847   65.0819   98.0285 H   0  0  0  0  0
   46.3510   64.4028   96.8151 H   0  0  0  0  0
   47.4825   65.3743   95.8287 H   0  0  0  0  0
   46.0288   66.8786   96.9223 H   0  0  0  0  0
   47.6404   66.9341   97.8012 H   0  0  0  0  0
  2  1  1  0  0  0
  2  5  1  0  0  0
  3  2  1  0  0  0
  3  4  2  0  0  0
  5  6  1  0  0  0
  6  7  1  0  0  0
  1  7  1  0  0  0
 10  9  1  0  0  0
  9 12  1  0  0  0
  9  8  1  0  0  0
 12 13  1  0  0  0
 13 15  4  0  0  0
 13 14  4  0  0  0
 14 16  4  0  0  0
 16 18  4  0  0  0
 17 18  4  0  0  0
 15 17  4  0  0  0
 10 11  2  0  0  0
 20 21  1  0  0  0
 23 20  1  0  0  0
 20 19  1  0  0  0
 24 23  1  0  0  0
 21 22  2  0  0  0
 25 26  1  0  0  0
 26 31  1  0  0  0
 26 27  1  0  0  0
 27 28  1  0  0  0
 28 30  1  0  0  0
 28 29  1  0  0  0
 31 33  1  0  0  0
 31 32  1  0  0  0
 33 34  1  0  0  0
 34 35  2  0  0  0
 37 38  1  0  0  0
 37 40  1  0  0  0
 36 37  1  0  0  0
 40 41  1  0  0  0
 41 43  1  0  0  0
 41 42  1  0  0  0
 38 39  2  0  0  0
 45 46  1  0  0  0
 44 45  1  0  0  0
 46 47  2  0  0  0
 49 48  1  0  0  0
 50 49  1  0  0  0
 51 50  1  0  0  0
  8  3  1  0  0  0
 19 10  1  0  0  0
 38 44  1  0  0  0
 21 25  1  0  0  0
 34 36  1  0  0  0
 51 24  1  0  0  0
 46 48  1  0  0  0
  1 52  1  0  0  0
  1 53  1  0  0  0
  2 54  1  0  0  0
  5 55  1  0  0  0
  5 56  1  0  0  0
  6 57  1  0  0  0
  6 58  1  0  0  0
  7 59  1  0  0  0
  7 60  1  0  0  0
  8 61  1  0  0  0
  9 62  1  0  0  0
 12 63  1  0  0  0
 12 64  1  0  0  0
 14 65  1  0  0  0
 15 66  1  0  0  0
 16 67  1  0  0  0
 17 68  1  0  0  0
 18 69  1  0  0  0
 19 70  1  0  0  0
 20 71  1  0  0  0
 23 72  1  0  0  0
 23 73  1  0  0  0
 25 74  1  0  0  0
 26 75  1  0  0  0
 27 76  1  0  0  0
 27 77  1  0  0  0
 28 78  1  0  0  0
 29 79  1  0  0  0
 29 80  1  0  0  0
 29 81  1  0  0  0
 30 82  1  0  0  0
 30 83  1  0  0  0
 30 84  1  0  0  0
 31 85  1  0  0  0
 32 86  1  0  0  0
 33 87  1  0  0  0
 33 88  1  0  0  0
 36 89  1  0  0  0
 37 90  1  0  0  0
 40 91  1  0  0  0
 40 92  1  0  0  0
 41 93  1  0  0  0
 42 94  1  0  0  0
 42 95  1  0  0  0
 42 96  1  0  0  0
 43 97  1  0  0  0
 43 98  1  0  0  0
 43 99  1  0  0  0
 44100  1  0  0  0
 45101  1  0  0  0
 45102  1  0  0  0
 48103  1  0  0  0
 49104  1  0  0  0
 49105  1  0  0  0
 50106  1  0  0  0
 50107  1  0  0  0
M  END
$$$$
