4hlm_ligand
  -I-interpret- 

 29 31  0  0  0  0  0  0  0  0999 V2000
   -7.3660   37.8310   -9.6990 C   0  0  0  0  0
   -7.1950   37.9870   -8.3110 C   0  0  0  0  0
   -7.6480   39.0670   -7.6210 O   0  0  0  0  0
   -6.5440   37.0140   -7.5500 C   0  0  0  0  0
   -6.4320   37.2290   -6.2110 O   0  0  0  0  0
   -6.0450   35.8760   -8.1610 C   0  0  0  0  0
   -6.2040   35.7200   -9.5410 C   0  0  0  0  0
   -6.8690   36.6720  -10.3360 C   0  0  0  0  0
   -6.9700   36.4390  -11.7320 C   0  0  0  0  0
   -6.2050   35.4000  -12.1940 O   0  0  0  0  0
   -6.1170   35.1230  -13.5390 C   0  0  0  0  0
   -5.2520   34.1240  -13.9610 C   0  0  0  0  0
   -5.1370   33.8620  -15.3260 C   0  0  0  0  0
   -5.8740   34.6120  -16.2500 C   0  0  0  0  0
   -6.7560   35.6150  -15.8080 C   0  0  0  0  0
   -6.8850   35.8560  -14.4420 C   0  0  0  0  0
   -7.7400   36.8600  -13.9810 C   0  0  0  0  0
   -8.4960   37.4310  -14.7600 O   0  0  0  0  0
   -7.7730   37.1640  -12.6190 C   0  0  0  0  0
   -7.8783   38.5989  -10.2786 H   0  0  0  0  0
   -7.4249   38.9687   -6.6925 H   0  0  0  0  0
   -5.9681   36.4918   -5.8074 H   0  0  0  0  0
   -5.5351   35.1122   -7.5739 H   0  0  0  0  0
   -5.7981   34.8284  -10.0188 H   0  0  0  0  0
   -4.6712   33.5526  -13.2370 H   0  0  0  0  0
   -4.4719   33.0717  -15.6740 H   0  0  0  0  0
   -5.7640   34.4180  -17.3169 H   0  0  0  0  0
   -7.3324   36.1974  -16.5268 H   0  0  0  0  0
   -8.4194   37.9601  -12.2494 H   0  0  0  0  0
  1  2  4  0  0  0
  1  8  4  0  0  0
  2  3  1  0  0  0
  2  4  4  0  0  0
  4  5  1  0  0  0
  4  6  4  0  0  0
  6  7  4  0  0  0
  7  8  4  0  0  0
  8  9  1  0  0  0
  9 10  1  0  0  0
  9 19  2  0  0  0
 10 11  1  0  0  0
 11 12  4  0  0  0
 11 16  4  0  0  0
 12 13  4  0  0  0
 13 14  4  0  0  0
 14 15  4  0  0  0
 15 16  4  0  0  0
 16 17  1  0  0  0
 17 18  2  0  0  0
 17 19  1  0  0  0
  1 20  1  0  0  0
  3 21  1  0  0  0
  5 22  1  0  0  0
  6 23  1  0  0  0
  7 24  1  0  0  0
 12 25  1  0  0  0
 13 26  1  0  0  0
 14 27  1  0  0  0
 15 28  1  0  0  0
 19 29  1  0  0  0
M  END
$$$$
