6ej4_ligand
  -I-interpret- 

 35 38  0  0  0  0  0  0  0  0999 V2000
    4.1160   31.9770    8.9870 C   0  0  0  0  0
    2.8740   32.5080    8.6270 C   0  0  0  0  0
    2.7600   33.8020    8.3470 N   0  0  0  0  0
    1.7490   31.6860    8.5620 C   0  0  0  0  0
    1.8670   30.3280    8.8530 C   0  0  0  0  0
    3.1090   29.7980    9.2060 C   0  0  0  0  0
    4.2460   30.6140    9.2880 C   0  0  0  0  0
    5.4860   30.0530    9.6330 C   0  0  0  0  0
    5.6250   29.1240   10.6720 C   0  0  0  0  0
    6.8230   28.5850   10.9710 C   0  0  0  0  0
    6.6340   30.3870    8.9190 C   0  0  0  0  0
    7.8600   29.8050    9.2710 N   0  0  0  0  0
    7.9230   28.9220   10.2790 C   0  0  0  0  0
    8.9610   28.2520   10.7730 N   0  0  0  0  0
    8.5300   27.4930   11.7730 C   0  0  0  0  0
    7.2240   27.7010   11.8910 C   0  0  0  0  0
    6.4670   27.0920   12.8090 C   0  0  0  0  0
    5.3140   26.4000   12.4360 C   0  0  0  0  0
    4.5180   25.7590   13.3840 C   0  0  0  0  0
    4.8740   25.7930   14.7280 C   0  0  0  0  0
    6.0380   26.4800   15.1190 N   0  0  0  0  0
    6.8340   27.1290   14.1560 C   0  0  0  0  0
    4.9895   32.6273    9.0340 H   0  0  0  0  0
    3.5789   34.4082    8.3947 H   0  0  0  0  0
    1.8536   34.1890    8.0844 H   0  0  0  0  0
    0.7813   32.1040    8.2847 H   0  0  0  0  0
    0.9910   29.6812    8.8050 H   0  0  0  0  0
    3.1963   28.7330    9.4213 H   0  0  0  0  0
    4.7478   28.8318   11.2493 H   0  0  0  0  0
    6.5798   31.0957    8.0926 H   0  0  0  0  0
    9.1356   26.8235   12.3838 H   0  0  0  0  0
    5.0307   26.3600   11.3842 H   0  0  0  0  0
    3.6168   25.2312   13.0720 H   0  0  0  0  0
    4.2561   25.2913   15.4727 H   0  0  0  0  0
    7.7357   27.6598   14.4614 H   0  0  0  0  0
  1  2  4  0  0  0
  1  7  4  0  0  0
  2  3  1  0  0  0
  2  4  4  0  0  0
  4  5  4  0  0  0
  5  6  4  0  0  0
  6  7  4  0  0  0
  7  8  1  0  0  0
  8  9  4  0  0  0
  8 11  4  0  0  0
  9 10  4  0  0  0
 10 13  4  0  0  0
 10 16  4  0  0  0
 11 12  4  0  0  0
 12 13  4  0  0  0
 13 14  4  0  0  0
 14 15  4  0  0  0
 15 16  4  0  0  0
 16 17  1  0  0  0
 17 18  4  0  0  0
 17 22  4  0  0  0
 18 19  4  0  0  0
 19 20  4  0  0  0
 20 21  4  0  0  0
 21 22  4  0  0  0
  1 23  1  0  0  0
  3 24  1  0  0  0
  3 25  1  0  0  0
  4 26  1  0  0  0
  5 27  1  0  0  0
  6 28  1  0  0  0
  9 29  1  0  0  0
 11 30  1  0  0  0
 15 31  1  0  0  0
 18 32  1  0  0  0
 19 33  1  0  0  0
 20 34  1  0  0  0
 22 35  1  0  0  0
M  END
$$$$
