2jdm_ligand
  -I-interpret- 

 26 26  0  0  0  0  0  0  0  0999 V2000
   12.4240    4.7100   -3.4780 C   0  0  0  0  0
   11.0780    4.5200   -2.7480 C   0  0  0  0  0
   10.2290    3.4820   -3.4760 C   0  0  0  0  0
   11.0290    2.2050   -3.7330 C   0  0  0  0  0
   12.3950    2.4740   -4.3780 C   0  0  0  0  0
   13.2140    1.1910   -4.5480 C   0  0  0  0  0
   12.1740    5.2640   -4.7830 O   0  0  0  0  0
   10.2970    5.7350   -2.5790 O   0  0  0  0  0
    9.1090    3.1190   -2.6570 O   0  0  0  0  0
   11.2250    1.5360   -2.4730 O   0  0  0  0  0
   13.1140    3.4460   -3.6050 O   0  0  0  0  0
   13.3290    5.8010   -5.4460 C   0  0  0  0  0
   13.0533    5.3879   -2.9013 H   0  0  0  0  0
   11.3438    4.1853   -1.7453 H   0  0  0  0  0
    9.9081    3.9203   -4.4210 H   0  0  0  0  0
   10.4632    1.5908   -4.4335 H   0  0  0  0  0
   12.2233    2.8701   -5.3788 H   0  0  0  0  0
   14.1482    1.4229   -5.0594 H   0  0  0  0  0
   13.4306    0.7672   -3.5674 H   0  0  0  0  0
   12.6440    0.4731   -5.1377 H   0  0  0  0  0
   10.8256    6.3928   -2.1213 H   0  0  0  0  0
    8.5812    3.8998   -2.4743 H   0  0  0  0  0
   10.3722    1.3659   -2.0662 H   0  0  0  0  0
   13.7531    6.6029   -4.8418 H   0  0  0  0  0
   14.0701    5.0126   -5.5776 H   0  0  0  0  0
   13.0374    6.1936   -6.4201 H   0  0  0  0  0
  1  2  1  0  0  0
  1  7  1  0  0  0
  1 11  1  0  0  0
  2  3  1  0  0  0
  2  8  1  0  0  0
  3  4  1  0  0  0
  3  9  1  0  0  0
  4  5  1  0  0  0
  4 10  1  0  0  0
  5  6  1  0  0  0
  5 11  1  0  0  0
  7 12  1  0  0  0
  1 13  1  0  0  0
  2 14  1  0  0  0
  3 15  1  0  0  0
  4 16  1  0  0  0
  5 17  1  0  0  0
  6 18  1  0  0  0
  6 19  1  0  0  0
  6 20  1  0  0  0
  8 21  1  0  0  0
  9 22  1  0  0  0
 10 23  1  0  0  0
 12 24  1  0  0  0
 12 25  1  0  0  0
 12 26  1  0  0  0
M  END
$$$$
