3e2m_ligand
  -I-interpret- 

 71 74  0  0  0  0  0  0  0  0999 V2000
  -15.2150   18.5650  -30.7360 O   0  0  0  0  0
  -18.5060   14.7740  -30.1670 C   0  0  0  0  0
  -18.7300   16.2140  -29.8090 C   0  0  0  0  0
  -18.1690   17.2140  -30.5850 C   0  0  0  0  0
  -16.6120   18.2240  -32.6390 C   0  0  0  0  0
  -15.6590   18.9700  -31.9680 C   0  0  0  0  0
  -13.9570   19.0240  -30.2450 C   0  0  0  0  0
  -19.6210   14.0950  -29.9750 F   0  0  0  0  0
  -18.1500   14.6860  -31.4340 F   0  0  0  0  0
  -17.5500   14.2760  -29.4050 F   0  0  0  0  0
  -17.2300   16.8100  -31.9370 S   0  0  0  0  0
  -17.0640   18.6330  -33.8880 C   0  0  0  0  0
  -16.5580   19.7920  -34.4650 C   0  0  0  0  0
  -15.6010   20.5410  -33.7910 C   0  0  0  0  0
  -15.1510   20.1300  -32.5420 C   0  0  0  0  0
  -13.8510   18.7180  -28.7560 C   0  0  0  0  0
  -12.9120   19.7210  -28.0970 C   0  0  0  0  0
  -13.4620   21.1380  -28.2060 C   0  0  0  0  0
  -14.8420   21.2380  -27.5670 C   0  0  0  0  0
  -15.3920   22.6550  -27.6760 C   0  0  0  0  0
  -15.3720   23.3360  -28.9350 O   0  0  0  0  0
  -15.9880   23.2810  -26.5340 O   0  0  0  0  0
  -15.7810   20.2350  -28.2260 C   0  0  0  0  0
  -15.2310   18.8180  -28.1170 C   0  0  0  0  0
  -18.3760   18.5480  -30.2550 C   0  0  0  0  0
  -19.1470   18.8750  -29.1460 C   0  0  0  0  0
  -19.7080   17.8670  -28.3710 C   0  0  0  0  0
  -19.4980   16.5400  -28.7040 C   0  0  0  0  0
  -20.1040   15.4530  -27.8670 C   0  0  0  0  0
  -20.4280   15.9390  -26.6830 F   0  0  0  0  0
  -21.1860   14.9900  -28.4640 F   0  0  0  0  0
  -19.2310   14.4750  -27.7170 F   0  0  0  0  0
  -20.5290   18.2120  -27.1890 C   0  0  0  0  0
  -21.0140   19.4420  -27.0520 C   0  0  0  0  0
  -21.8320   19.7840  -25.8730 C   0  0  0  0  0
  -22.4280   18.9140  -25.2600 O   0  0  0  0  0
  -21.8760   21.0700  -25.5330 N   0  0  0  0  0
  -22.7660   21.5710  -24.4970 C   0  0  0  0  0
  -23.6730   22.5700  -25.2060 C   0  0  0  0  0
  -22.8780   23.5850  -25.8140 O   0  0  0  0  0
  -22.0120   23.0520  -26.8140 C   0  0  0  0  0
  -21.0370   22.0720  -26.1720 C   0  0  0  0  0
  -13.8763   20.0997  -30.4016 H   0  0  0  0  0
  -13.1522   18.5180  -30.7782 H   0  0  0  0  0
  -17.8153   18.0449  -34.4151 H   0  0  0  0  0
  -16.9114   20.1129  -35.4449 H   0  0  0  0  0
  -15.2035   21.4504  -34.2417 H   0  0  0  0  0
  -14.4002   20.7167  -32.0127 H   0  0  0  0  0
  -13.4598   17.7099  -28.6193 H   0  0  0  0  0
  -11.9471   19.6808  -28.6024 H   0  0  0  0  0
  -12.8118   19.4652  -27.0422 H   0  0  0  0  0
  -13.5447   21.4012  -29.2605 H   0  0  0  0  0
  -12.7857   21.8168  -27.6865 H   0  0  0  0  0
  -14.7597   21.0013  -26.5062 H   0  0  0  0  0
  -15.9182   22.6953  -25.7766 H   0  0  0  0  0
  -15.8812   20.4908  -29.2808 H   0  0  0  0  0
  -16.7459   20.2752  -27.7206 H   0  0  0  0  0
  -15.1483   18.5548  -27.0625 H   0  0  0  0  0
  -15.9073   18.1392  -28.6365 H   0  0  0  0  0
  -17.9345   19.3362  -30.8648 H   0  0  0  0  0
  -19.3115   19.9203  -28.8844 H   0  0  0  0  0
  -20.7361   17.4571  -26.4304 H   0  0  0  0  0
  -20.8074   20.1973  -27.8102 H   0  0  0  0  0
  -22.2140   22.0355  -23.6799 H   0  0  0  0  0
  -23.3363   20.7675  -24.0308 H   0  0  0  0  0
  -24.3500   23.0236  -24.4821 H   0  0  0  0  0
  -24.2525   22.0547  -25.9720 H   0  0  0  0  0
  -21.4555   23.8636  -27.2828 H   0  0  0  0  0
  -22.6039   22.5339  -27.5686 H   0  0  0  0  0
  -20.3672   21.6279  -26.9083 H   0  0  0  0  0
  -20.3809   22.5661  -25.4553 H   0  0  0  0  0
  6  1  1  0  0  0
  1  7  1  0  0  0
  3  2  1  0  0  0
  2  8  1  0  0  0
  2  9  1  0  0  0
  2 10  1  0  0  0
  4  3  4  0  0  0
  3 28  4  0  0  0
 11  4  1  0  0  0
  4 25  4  0  0  0
  5  6  4  0  0  0
  5 11  1  0  0  0
  5 12  4  0  0  0
  6 15  4  0  0  0
  7 16  1  0  0  0
 12 13  4  0  0  0
 13 14  4  0  0  0
 14 15  4  0  0  0
 16 17  1  0  0  0
 16 24  1  0  0  0
 17 18  1  0  0  0
 18 19  1  0  0  0
 19 20  1  0  0  0
 19 23  1  0  0  0
 20 21  2  0  0  0
 20 22  1  0  0  0
 23 24  1  0  0  0
 25 26  4  0  0  0
 26 27  4  0  0  0
 27 28  4  0  0  0
 27 33  1  0  0  0
 28 29  1  0  0  0
 29 30  1  0  0  0
 29 31  1  0  0  0
 29 32  1  0  0  0
 33 34  2  0  0  0
 34 35  1  0  0  0
 35 36  2  0  0  0
 35 37  1  0  0  0
 37 38  1  0  0  0
 37 42  1  0  0  0
 38 39  1  0  0  0
 39 40  1  0  0  0
 40 41  1  0  0  0
 41 42  1  0  0  0
  7 43  1  0  0  0
  7 44  1  0  0  0
 12 45  1  0  0  0
 13 46  1  0  0  0
 14 47  1  0  0  0
 15 48  1  0  0  0
 16 49  1  0  0  0
 17 50  1  0  0  0
 17 51  1  0  0  0
 18 52  1  0  0  0
 18 53  1  0  0  0
 19 54  1  0  0  0
 22 55  1  0  0  0
 23 56  1  0  0  0
 23 57  1  0  0  0
 24 58  1  0  0  0
 24 59  1  0  0  0
 25 60  1  0  0  0
 26 61  1  0  0  0
 33 62  1  0  0  0
 34 63  1  0  0  0
 38 64  1  0  0  0
 38 65  1  0  0  0
 39 66  1  0  0  0
 39 67  1  0  0  0
 41 68  1  0  0  0
 41 69  1  0  0  0
 42 70  1  0  0  0
 42 71  1  0  0  0
M  END
$$$$
