5n0e_ligand
  -I-interpret- 

 50 53  0  0  0  0  0  0  0  0999 V2000
   -4.2260    2.9740   13.7820 C   0  0  0  0  0
   -4.6650    1.9290   14.5890 C   0  0  0  0  0
   -5.5060    2.2200   15.6580 C   0  0  0  0  0
   -6.0280    0.9590   16.7910 S   0  0  0  0  0
   -7.4590    0.9570   16.7330 O   0  0  0  0  0
   -5.4370    1.2020   18.0720 O   0  0  0  0  0
   -5.5270   -0.4440   16.2250 N   0  0  0  0  0
   -5.9610    3.5120   15.8890 C   0  0  0  0  0
   -5.5440    4.5460   15.0600 C   0  0  0  0  0
   -4.6320    4.2770   14.0490 C   0  0  0  0  0
   -4.0350    5.3870   13.2330 C   0  0  0  0  0
   -4.9160    6.1620   12.8960 O   0  0  0  0  0
   -2.7270    5.5000   12.9870 N   0  0  0  0  0
   -1.6510    4.6160   13.4630 C   0  0  0  0  0
   -1.0190    3.8980   12.2790 C   0  0  0  0  0
   -0.7990    4.8010   11.0980 C   0  0  0  0  0
   -0.0570    4.3670   10.0060 C   0  0  0  0  0
    0.0820    5.1370    8.8540 C   0  0  0  0  0
    0.7220    4.6910    7.7280 O   0  0  0  0  0
   -0.5380    6.3810    8.7950 C   0  0  0  0  0
   -0.5530    7.0290    7.5880 O   0  0  0  0  0
   -1.2630    6.8410    9.8860 C   0  0  0  0  0
   -1.3850    6.0650   11.0350 C   0  0  0  0  0
   -2.2710    6.6430   12.1510 C   0  0  0  0  0
   -1.5220    7.6090   13.0770 C   0  0  0  0  0
   -0.2570    8.1110   12.7070 C   0  0  0  0  0
    0.4540    8.9440   13.5670 C   0  0  0  0  0
   -0.0750    9.2980   14.7920 C   0  0  0  0  0
   -1.3000    8.7960   15.1810 C   0  0  0  0  0
   -2.0190    7.9430   14.3310 C   0  0  0  0  0
   -3.5637    2.7713   12.9403 H   0  0  0  0  0
   -4.3562    0.9033   14.3876 H   0  0  0  0  0
   -6.2046   -1.1375   15.9083 H   0  0  0  0  0
   -4.5287   -0.6485   16.1795 H   0  0  0  0  0
   -6.6416    3.7135   16.7162 H   0  0  0  0  0
   -5.9284    5.5561   15.2019 H   0  0  0  0  0
   -2.0648    3.8811   14.1535 H   0  0  0  0  0
   -0.8928    5.2104   13.9729 H   0  0  0  0  0
   -1.6986    3.1041   11.9693 H   0  0  0  0  0
   -0.0464    3.5228   12.5973 H   0  0  0  0  0
    0.4314    3.3936   10.0527 H   0  0  0  0  0
    0.7028    5.3775    7.0572 H   0  0  0  0  0
   -1.0072    7.8694    7.6829 H   0  0  0  0  0
   -1.7414    7.8195    9.8423 H   0  0  0  0  0
   -3.0841    7.1946   11.6790 H   0  0  0  0  0
    0.1679    7.8445   11.7392 H   0  0  0  0  0
    1.4339    9.3187   13.2713 H   0  0  0  0  0
    0.4734    9.9721   15.4500 H   0  0  0  0  0
   -1.7112    9.0639   16.1543 H   0  0  0  0  0
   -2.9770    7.5381   14.6572 H   0  0  0  0  0
  1  2  4  0  0  0
  1 10  4  0  0  0
  2  3  4  0  0  0
  3  4  1  0  0  0
  3  8  4  0  0  0
  4  5  2  0  0  0
  4  6  2  0  0  0
  4  7  1  0  0  0
  8  9  4  0  0  0
  9 10  4  0  0  0
 10 11  1  0  0  0
 11 12  2  0  0  0
 11 13  1  0  0  0
 13 14  1  0  0  0
 13 24  1  0  0  0
 14 15  1  0  0  0
 15 16  1  0  0  0
 16 17  4  0  0  0
 16 23  4  0  0  0
 17 18  4  0  0  0
 18 19  1  0  0  0
 18 20  4  0  0  0
 20 21  1  0  0  0
 20 22  4  0  0  0
 22 23  4  0  0  0
 23 24  1  0  0  0
 24 25  1  0  0  0
 25 26  4  0  0  0
 25 30  4  0  0  0
 26 27  4  0  0  0
 27 28  4  0  0  0
 28 29  4  0  0  0
 29 30  4  0  0  0
  1 31  1  0  0  0
  2 32  1  0  0  0
  7 33  1  0  0  0
  7 34  1  0  0  0
  8 35  1  0  0  0
  9 36  1  0  0  0
 14 37  1  0  0  0
 14 38  1  0  0  0
 15 39  1  0  0  0
 15 40  1  0  0  0
 17 41  1  0  0  0
 19 42  1  0  0  0
 21 43  1  0  0  0
 22 44  1  0  0  0
 24 45  1  0  0  0
 26 46  1  0  0  0
 27 47  1  0  0  0
 28 48  1  0  0  0
 29 49  1  0  0  0
 30 50  1  0  0  0
M  END
$$$$
