1u9q_ligand
  -I-interpret- 

 54 55  0  0  0  0  0  0  0  0999 V2000
    0.4750   13.3590    5.6950 O   0  0  0  0  0
    0.9950   12.3210    5.3570 C   0  0  0  0  0
    0.9730   12.0230    3.9440 O   0  0  0  0  0
    0.5600   13.1480    3.1000 C   0  0  0  0  0
    0.6860   12.9310    1.6070 C   0  0  0  0  0
   -0.3500   12.3090    0.8840 C   0  0  0  0  0
   -0.1760   12.0660   -0.4760 C   0  0  0  0  0
    1.0220   12.4600   -1.0970 C   0  0  0  0  0
    2.0620   13.0820   -0.4130 C   0  0  0  0  0
    1.8620   13.3130    0.9520 C   0  0  0  0  0
    1.4450   11.6290    6.3750 N   0  0  0  0  0
    2.1900   10.4510    6.4240 C   0  0  0  0  0
    1.6550    9.5380    7.5260 C   0  0  0  0  0
    0.4820    8.7330    6.9740 C   0  0  0  0  0
    0.7060    7.6150    6.1920 C   0  0  0  0  0
   -0.3850    6.9020    5.7020 C   0  0  0  0  0
   -1.6930    7.3010    5.9750 C   0  0  0  0  0
   -1.9320    8.4270    6.7550 C   0  0  0  0  0
   -0.8330    9.1340    7.2520 C   0  0  0  0  0
    3.4900   11.0810    6.7950 C   0  0  0  0  0
    4.3300   11.2030    5.9300 O   0  0  0  0  0
    3.7000   11.5520    8.0020 N   0  0  0  0  0
    5.0470   12.1390    8.2600 C   0  0  0  0  0
    4.9760   13.6750    8.4460 C   0  0  0  0  0
    5.7550   11.4910    9.4630 C   0  0  0  0  0
    5.8110   12.3330   10.4850 C   0  0  0  0  0
    6.3540   12.2420   11.8320 C   0  0  0  0  0
    7.4730   11.8350   12.0670 O   0  0  0  0  0
    5.4820   12.7690   12.8930 C   0  0  0  0  0
    5.5430   12.2720   13.9960 O   0  0  0  0  0
    1.2213   13.9783    3.3477 H   0  0  0  0  0
   -0.4992   13.3105    3.2996 H   0  0  0  0  0
   -1.2758   12.0216    1.3823 H   0  0  0  0  0
   -0.9602   11.5756   -1.0528 H   0  0  0  0  0
    1.1418   12.2695   -2.1635 H   0  0  0  0  0
    2.9845   13.3740   -0.9148 H   0  0  0  0  0
    2.6477   13.8066    1.5240 H   0  0  0  0  0
    1.2101   12.0188    7.2879 H   0  0  0  0  0
    2.2021    9.8164    5.5378 H   0  0  0  0  0
    1.3240   10.1381    8.3736 H   0  0  0  0  0
    2.4422    8.8616    7.8589 H   0  0  0  0  0
    1.7227    7.2961    5.9622 H   0  0  0  0  0
   -0.2133    6.0145    5.0930 H   0  0  0  0  0
   -2.5303    6.7286    5.5758 H   0  0  0  0  0
   -2.9499    8.7501    6.9733 H   0  0  0  0  0
   -1.0018   10.0164    7.8692 H   0  0  0  0  0
    2.9809   11.5185    8.7247 H   0  0  0  0  0
    5.6420   11.9233    7.3726 H   0  0  0  0  0
    4.5696   14.1306    7.5431 H   0  0  0  0  0
    4.3314   13.9076    9.2937 H   0  0  0  0  0
    5.9772   14.0639    8.6317 H   0  0  0  0  0
    6.1559   10.4774    9.4732 H   0  0  0  0  0
    5.3531   13.2987   10.2711 H   0  0  0  0  0
    4.7946   13.5904   12.6907 H   0  0  0  0  0
  1  2  2  0  0  0
  2  3  1  0  0  0
  2 11  1  0  0  0
  3  4  1  0  0  0
  4  5  1  0  0  0
  5  6  4  0  0  0
  5 10  4  0  0  0
  6  7  4  0  0  0
  7  8  4  0  0  0
  8  9  4  0  0  0
  9 10  4  0  0  0
 11 12  1  0  0  0
 12 13  1  0  0  0
 12 20  1  0  0  0
 13 14  1  0  0  0
 14 15  4  0  0  0
 14 19  4  0  0  0
 15 16  4  0  0  0
 16 17  4  0  0  0
 17 18  4  0  0  0
 18 19  4  0  0  0
 20 21  2  0  0  0
 20 22  1  0  0  0
 22 23  1  0  0  0
 23 24  1  0  0  0
 23 25  1  0  0  0
 25 26  2  0  0  0
 26 27  1  0  0  0
 27 28  2  0  0  0
 27 29  1  0  0  0
 29 30  2  0  0  0
  4 31  1  0  0  0
  4 32  1  0  0  0
  6 33  1  0  0  0
  7 34  1  0  0  0
  8 35  1  0  0  0
  9 36  1  0  0  0
 10 37  1  0  0  0
 11 38  1  0  0  0
 12 39  1  0  0  0
 13 40  1  0  0  0
 13 41  1  0  0  0
 15 42  1  0  0  0
 16 43  1  0  0  0
 17 44  1  0  0  0
 18 45  1  0  0  0
 19 46  1  0  0  0
 22 47  1  0  0  0
 23 48  1  0  0  0
 24 49  1  0  0  0
 24 50  1  0  0  0
 24 51  1  0  0  0
 25 52  1  0  0  0
 26 53  1  0  0  0
 29 54  1  0  0  0
M  END
$$$$
