5svz_ligand
  -I-interpret- 

164163  0  0  0  0  0  0  0  0999 V2000
   79.5600   14.8810  106.1770 N   0  3  0  0  0
   79.7640   13.9550  105.0760 C   0  0  0  0  0
   78.4750   13.3340  104.5650 C   0  0  0  0  0
   77.5650   14.0490  104.1600 O   0  0  0  0  0
   78.3970   12.0010  104.5580 N   0  0  0  0  0
   77.1300   11.3420  104.2560 C   0  0  0  0  0
   76.9150   10.1410  105.1730 C   0  0  0  0  0
   76.1530   10.2370  106.1400 O   0  0  0  0  0
   77.0670   10.9260  102.7840 C   0  0  0  0  0
   75.7070   10.3750  102.3710 C   0  0  0  0  0
   75.7160    9.8430  100.9390 C   0  0  0  0  0
   74.5080    9.0680  100.6290 N   0  0  0  0  0
   74.3850    7.7480  100.7750 C   0  0  0  0  0
   75.4000    7.0200  101.2250 N   0  0  0  0  0
   73.2380    7.1460  100.4660 N   0  0  0  0  0
   77.5860    9.0190  104.9010 N   0  0  0  0  0
   77.4520    7.8290  105.7320 C   0  0  0  0  0
   78.8110    7.1740  105.9530 C   0  0  0  0  0
   79.7210    7.2980  105.1300 O   0  0  0  0  0
   76.4840    6.8050  105.1110 C   0  0  0  0  0
   75.0260    7.2550  105.0520 C   0  0  0  0  0
   74.1290    6.1740  104.4510 C   0  0  0  0  0
   72.7200    6.6920  104.1870 C   0  0  0  0  0
   71.9220    5.7550  103.3480 N   0  3  0  0  0
   78.9300    6.4680  107.0810 N   0  0  0  0  0
   80.1610    5.7830  107.4610 C   0  0  0  0  0
   79.8190    4.4360  108.0810 C   0  0  0  0  0
   78.9290    4.3540  108.9320 O   0  0  0  0  0
   80.9840    6.6030  108.4650 C   0  0  0  0  0
   81.6360    7.8620  107.9130 C   0  0  0  0  0
   82.7030    8.3900  108.8720 C   0  0  0  0  0
   82.1780    8.5150  110.3010 C   0  0  0  0  0
   82.8890    9.5790  111.0670 N   0  3  0  0  0
   80.5330    3.3940  107.6650 N   0  0  0  0  0
   80.4260    2.0750  108.2720 C   0  0  0  0  0
   81.5870    1.8670  109.2360 C   0  0  0  0  0
   82.7280    2.2330  108.9350 O   0  0  0  0  0
   80.4260    0.9840  107.1970 C   0  0  0  0  0
   80.1560   -0.4170  107.7130 C   0  0  0  0  0
   79.8680   -1.3690  106.5620 C   0  0  0  0  0
   81.0330   -1.5680  105.7000 N   0  0  0  0  0
   81.8870   -2.5860  105.7880 C   0  0  0  0  0
   81.7250   -3.5330  106.7030 N   0  0  0  0  0
   82.9120   -2.6610  104.9490 N   0  0  0  0  0
   81.2980    1.2850  110.3990 N   0  0  0  0  0
   82.3240    1.0490  111.4100 C   0  0  0  0  0
   82.9280   -0.3350  111.1960 C   0  0  0  0  0
   82.2060   -1.3390  111.1950 O   0  0  0  0  0
   81.7600    1.1630  112.8250 C   0  0  0  0  0
   82.8560    1.0340  113.8770 C   0  0  0  0  0
   82.3530    1.1080  115.3020 C   0  0  0  0  0
   83.4680    0.9460  116.2320 N   0  0  0  0  0
   83.4030    1.1730  117.5400 C   0  0  0  0  0
   82.2720    1.5810  118.0940 N   0  0  0  0  0
   84.4790    0.9960  118.2930 N   0  0  0  0  0
   84.2550   -0.3880  111.0420 N   0  0  0  0  0
   84.9350   -1.6370  110.7290 C   0  0  0  0  0
   85.8330   -2.1690  111.8380 C   0  0  0  0  0
   86.2460   -3.3300  111.7600 O   0  0  0  0  0
   85.7780   -1.4710  109.4570 C   0  0  0  0  0
   84.9410   -1.4170  108.1900 C   0  0  0  0  0
   85.7760   -1.3340  106.9250 C   0  0  0  0  0
   85.5000   -0.5230  106.0430 O   0  0  0  0  0
   86.7980   -2.1810  106.8250 N   0  0  0  0  0
   86.1510   -1.3670  112.8490 N   0  0  0  0  0
   86.9890   -1.8420  113.9510 C   0  0  0  0  0
   86.7050   -1.0940  115.2550 C   0  0  0  0  0
   86.1100   -0.0140  115.2540 O   0  0  0  0  0
   88.4760   -1.7150  113.5880 C   0  0  0  0  0
   88.9880   -0.2900  113.4200 C   0  0  0  0  0
   90.4820   -0.2260  113.6800 C   0  0  0  0  0
   91.1450    0.8310  112.9160 N   0  0  0  0  0
   92.2670    1.4450  113.2880 C   0  0  0  0  0
   92.8600    1.1320  114.4330 N   0  0  0  0  0
   92.7940    2.3860  112.5150 N   0  0  0  0  0
   87.0630   -1.5500  116.3430 O   0  0  0  0  0
   80.4597   15.2606  106.4716 H   0  0  0  0  0
   78.9522   15.6413  105.8721 H   0  0  0  0  0
   79.1253   14.3888  106.9575 H   0  0  0  0  0
   80.3975   13.1459  105.4396 H   0  0  0  0  0
   80.2083   14.5149  104.2531 H   0  0  0  0  0
   79.2248   11.4419  104.7642 H   0  0  0  0  0
   76.3251   12.0545  104.4365 H   0  0  0  0  0
   77.8023   10.1356  102.6332 H   0  0  0  0  0
   77.2593   11.8142  102.1821 H   0  0  0  0  0
   74.9793   11.1844  102.4293 H   0  0  0  0  0
   75.4558    9.5512  103.0391 H   0  0  0  0  0
   76.5789    9.1867  100.8260 H   0  0  0  0  0
   75.7563   10.6951  100.2604 H   0  0  0  0  0
   73.6997    9.5791  100.2743 H   0  0  0  0  0
   76.2842    7.4696  101.4627 H   0  0  0  0  0
   73.1463    6.1361  100.5760 H   0  0  0  0  0
   72.4512    7.6948  100.1193 H   0  0  0  0  0
   78.2072    8.9941  104.0924 H   0  0  0  0  0
   77.0421    8.1505  106.6895 H   0  0  0  0  0
   76.5155    5.9169  105.7422 H   0  0  0  0  0
   76.8080    6.6470  104.0823 H   0  0  0  0  0
   74.9644    8.1431  104.4231 H   0  0  0  0  0
   74.6868    7.4593  106.0675 H   0  0  0  0  0
   74.0639    5.3488  105.1601 H   0  0  0  0  0
   74.5617    5.8576  103.5019 H   0  0  0  0  0
   72.8020    7.6386  103.6528 H   0  0  0  0  0
   72.2144    6.8015  105.1464 H   0  0  0  0  0
   70.9905    6.1431  103.1990 H   0  0  0  0  0
   72.3859    5.6265  102.4487 H   0  0  0  0  0
   71.8450    4.8560  103.8237 H   0  0  0  0  0
   78.1248    6.4051  107.7040 H   0  0  0  0  0
   80.7599    5.6499  106.5601 H   0  0  0  0  0
   81.7956    5.9566  108.7991 H   0  0  0  0  0
   80.2895    6.9295  109.2391 H   0  0  0  0  0
   80.8696    8.6267  107.7864 H   0  0  0  0  0
   82.1087    7.6228  106.9604 H   0  0  0  0  0
   83.0057    9.3806  108.5326 H   0  0  0  0  0
   83.5357    7.6867  108.8755 H   0  0  0  0  0
   82.3406    7.5639  110.8080 H   0  0  0  0  0
   81.1212    8.7777  110.2539 H   0  0  0  0  0
   82.5083    9.6280  112.0120 H   0  0  0  0  0
   83.8837    9.3576  111.1109 H   0  0  0  0  0
   82.7596   10.4766  110.6001 H   0  0  0  0  0
   81.1821    3.5242  106.8890 H   0  0  0  0  0
   79.4854    2.0107  108.8190 H   0  0  0  0  0
   81.4233    0.9727  106.7573 H   0  0  0  0  0
   79.6227    1.2253  106.5010 H   0  0  0  0  0
   79.2879   -0.3883  108.3716 H   0  0  0  0  0
   81.0365   -0.7701  108.2499 H   0  0  0  0  0
   79.0705   -0.9368  105.9576 H   0  0  0  0  0
   79.5910   -2.3351  106.9839 H   0  0  0  0  0
   81.2048   -0.8721  104.9743 H   0  0  0  0  0
   82.3850   -4.3088  106.7564 H   0  0  0  0  0
   80.9404   -3.4852  107.3531 H   0  0  0  0  0
   83.0440   -1.9403  104.2394 H   0  0  0  0  0
   80.3376    0.9977  110.5873 H   0  0  0  0  0
   83.0939    1.8132  111.3037 H   0  0  0  0  0
   81.0411    0.3576  112.9755 H   0  0  0  0  0
   81.2929    2.1420  112.9321 H   0  0  0  0  0
   83.5425    1.8683  113.7327 H   0  0  0  0  0
   83.3155    0.0542  113.7468 H   0  0  0  0  0
   81.6272    0.3121  115.4688 H   0  0  0  0  0
   81.8845    2.0781  115.4679 H   0  0  0  0  0
   84.3614    0.6361  115.8497 H   0  0  0  0  0
   81.4434    1.7231  117.5164 H   0  0  0  0  0
   84.4342    1.1740  119.2963 H   0  0  0  0  0
   85.3520    0.6817  117.8692 H   0  0  0  0  0
   84.8034    0.4657  111.1461 H   0  0  0  0  0
   84.1382   -2.3682  110.5932 H   0  0  0  0  0
   86.4376   -2.3355  109.3816 H   0  0  0  0  0
   86.3175   -0.5273  109.5380 H   0  0  0  0  0
   84.3252   -0.5190  108.2389 H   0  0  0  0  0
   84.3568   -2.3359  108.1406 H   0  0  0  0  0
   87.3873   -2.1731  105.9925 H   0  0  0  0  0
   86.9918   -2.8379  107.5809 H   0  0  0  0  0
   85.8062   -0.4071  112.8570 H   0  0  0  0  0
   86.7430   -2.8917  114.1114 H   0  0  0  0  0
   85.8885    0.2272  114.3516 H   0  0  0  0  0
   88.6043   -2.2076  112.6242 H   0  0  0  0  0
   89.0366   -2.1518  114.4144 H   0  0  0  0  0
   88.4769    0.3558  114.1341 H   0  0  0  0  0
   88.7925    0.0378  112.3990 H   0  0  0  0  0
   90.9150   -1.1792  113.3767 H   0  0  0  0  0
   90.6280   -0.0143  114.7392 H   0  0  0  0  0
   90.7175    1.1183  112.0356 H   0  0  0  0  0
   92.4569    0.4156  115.0369 H   0  0  0  0  0
   93.6487    2.8627  112.8025 H   0  0  0  0  0
   92.3444    2.6326  111.6333 H   0  0  0  0  0
  1  2  1  0  0  0
  2  3  1  0  0  0
  3  4  2  0  0  0
  3  5  1  0  0  0
  5  6  1  0  0  0
  6  7  1  0  0  0
  6  9  1  0  0  0
  7  8  2  0  0  0
  7 16  1  0  0  0
  9 10  1  0  0  0
 10 11  1  0  0  0
 11 12  1  0  0  0
 12 13  1  0  0  0
 13 14  2  0  0  0
 13 15  1  0  0  0
 16 17  1  0  0  0
 17 18  1  0  0  0
 17 20  1  0  0  0
 18 19  2  0  0  0
 18 25  1  0  0  0
 20 21  1  0  0  0
 21 22  1  0  0  0
 22 23  1  0  0  0
 23 24  1  0  0  0
 25 26  1  0  0  0
 26 27  1  0  0  0
 26 29  1  0  0  0
 27 28  2  0  0  0
 27 34  1  0  0  0
 29 30  1  0  0  0
 30 31  1  0  0  0
 31 32  1  0  0  0
 32 33  1  0  0  0
 34 35  1  0  0  0
 35 36  1  0  0  0
 35 38  1  0  0  0
 36 37  2  0  0  0
 36 45  1  0  0  0
 38 39  1  0  0  0
 39 40  1  0  0  0
 40 41  1  0  0  0
 41 42  1  0  0  0
 42 43  1  0  0  0
 42 44  2  0  0  0
 45 46  1  0  0  0
 46 47  1  0  0  0
 46 49  1  0  0  0
 47 48  2  0  0  0
 47 56  1  0  0  0
 49 50  1  0  0  0
 50 51  1  0  0  0
 51 52  1  0  0  0
 52 53  1  0  0  0
 53 54  2  0  0  0
 53 55  1  0  0  0
 56 57  1  0  0  0
 57 58  1  0  0  0
 57 60  1  0  0  0
 58 59  2  0  0  0
 58 65  1  0  0  0
 60 61  1  0  0  0
 61 62  1  0  0  0
 62 63  2  0  0  0
 62 64  1  0  0  0
 65 66  1  0  0  0
 66 67  1  0  0  0
 66 69  1  0  0  0
 67 68  1  0  0  0
 67 76  2  0  0  0
 69 70  1  0  0  0
 70 71  1  0  0  0
 71 72  1  0  0  0
 72 73  1  0  0  0
 73 74  2  0  0  0
 73 75  1  0  0  0
  1 77  1  0  0  0
  1 78  1  0  0  0
  1 79  1  0  0  0
  2 80  1  0  0  0
  2 81  1  0  0  0
  5 82  1  0  0  0
  6 83  1  0  0  0
  9 84  1  0  0  0
  9 85  1  0  0  0
 10 86  1  0  0  0
 10 87  1  0  0  0
 11 88  1  0  0  0
 11 89  1  0  0  0
 12 90  1  0  0  0
 14 91  1  0  0  0
 15 92  1  0  0  0
 15 93  1  0  0  0
 16 94  1  0  0  0
 17 95  1  0  0  0
 20 96  1  0  0  0
 20 97  1  0  0  0
 21 98  1  0  0  0
 21 99  1  0  0  0
 22100  1  0  0  0
 22101  1  0  0  0
 23102  1  0  0  0
 23103  1  0  0  0
 24104  1  0  0  0
 24105  1  0  0  0
 24106  1  0  0  0
 25107  1  0  0  0
 26108  1  0  0  0
 29109  1  0  0  0
 29110  1  0  0  0
 30111  1  0  0  0
 30112  1  0  0  0
 31113  1  0  0  0
 31114  1  0  0  0
 32115  1  0  0  0
 32116  1  0  0  0
 33117  1  0  0  0
 33118  1  0  0  0
 33119  1  0  0  0
 34120  1  0  0  0
 35121  1  0  0  0
 38122  1  0  0  0
 38123  1  0  0  0
 39124  1  0  0  0
 39125  1  0  0  0
 40126  1  0  0  0
 40127  1  0  0  0
 41128  1  0  0  0
 43129  1  0  0  0
 43130  1  0  0  0
 44131  1  0  0  0
 45132  1  0  0  0
 46133  1  0  0  0
 49134  1  0  0  0
 49135  1  0  0  0
 50136  1  0  0  0
 50137  1  0  0  0
 51138  1  0  0  0
 51139  1  0  0  0
 52140  1  0  0  0
 54141  1  0  0  0
 55142  1  0  0  0
 55143  1  0  0  0
 56144  1  0  0  0
 57145  1  0  0  0
 60146  1  0  0  0
 60147  1  0  0  0
 61148  1  0  0  0
 61149  1  0  0  0
 64150  1  0  0  0
 64151  1  0  0  0
 65152  1  0  0  0
 66153  1  0  0  0
 68154  1  0  0  0
 69155  1  0  0  0
 69156  1  0  0  0
 70157  1  0  0  0
 70158  1  0  0  0
 71159  1  0  0  0
 71160  1  0  0  0
 72161  1  0  0  0
 74162  1  0  0  0
 75163  1  0  0  0
 75164  1  0  0  0
M  END
$$$$
