### 
### Created by X-TOOL on Mon Sep 10 21:13:27 2018
### 

@<TRIPOS>MOLECULE
5svz_ligand
  167   166     1     0     0
SMALL
GAST_HUCK


@<TRIPOS>ATOM
      1 N          79.5600   14.8810  106.1770 N.4       1 GLY         0.2357
      2 CA         79.7640   13.9550  105.0760 C.3       1 GLY         0.0545
      3 C          78.4750   13.3340  104.5650 C.2       1 GLY         0.2236
      4 O          77.5650   14.0490  104.1600 O.2       1 GLY        -0.3910
      5 N          78.3970   12.0010  104.5580 N.am      1 ARG        -0.2613
      6 CA         77.1300   11.3420  104.2560 C.3       1 ARG         0.1312
      7 C          76.9150   10.1410  105.1730 C.2       1 ARG         0.2039
      8 O          76.1530   10.2370  106.1400 O.2       1 ARG        -0.3944
      9 CB         77.0670   10.9260  102.7840 C.3       1 ARG        -0.0092
     10 CG         75.7070   10.3750  102.3710 C.3       1 ARG        -0.0156
     11 CD         75.7160    9.8430  100.9390 C.3       1 ARG         0.0627
     12 NE         74.5080    9.0680  100.6290 N.pl3     1 ARG        -0.2723
     13 CZ         74.3850    7.7480  100.7750 C.cat     1 ARG         0.2882
     14 NH1        75.4000    7.0200  101.2250 N.pl3     1 ARG        -0.2849
     15 NH2        73.2380    7.1460  100.4660 N.pl3     1 ARG        -0.2849
     16 N          77.5860    9.0190  104.9010 N.am      1 LYS        -0.2637
     17 CA         77.4520    7.8290  105.7320 C.3       1 LYS         0.1310
     18 C          78.8110    7.1740  105.9530 C.2       1 LYS         0.2039
     19 O          79.7210    7.2980  105.1300 O.2       1 LYS        -0.3944
     20 CB         76.4840    6.8050  105.1110 C.3       1 LYS        -0.0122
     21 CG         75.0260    7.2550  105.0520 C.3       1 LYS        -0.0440
     22 CD         74.1290    6.1740  104.4510 C.3       1 LYS        -0.0124
     23 CE         72.7200    6.6920  104.1870 C.3       1 LYS        -0.0354
     24 NZ         71.9220    5.7550  103.3480 N.4       1 LYS         0.2185
     25 N          78.9300    6.4680  107.0810 N.am      1 LYS        -0.2637
     26 CA         80.1610    5.7830  107.4610 C.3       1 LYS         0.1310
     27 C          79.8190    4.4360  108.0810 C.2       1 LYS         0.2039
     28 O          78.9290    4.3540  108.9320 O.2       1 LYS        -0.3944
     29 CB         80.9840    6.6030  108.4650 C.3       1 LYS        -0.0122
     30 CG         81.6360    7.8620  107.9130 C.3       1 LYS        -0.0440
     31 CD         82.7030    8.3900  108.8720 C.3       1 LYS        -0.0124
     32 CE         82.1780    8.5150  110.3010 C.3       1 LYS        -0.0354
     33 NZ         82.8890    9.5790  111.0670 N.4       1 LYS         0.2185
     34 N          80.5330    3.3940  107.6650 N.am      1 ARG        -0.2637
     35 CA         80.4260    2.0750  108.2720 C.3       1 ARG         0.1311
     36 C          81.5870    1.8670  109.2360 C.2       1 ARG         0.2039
     37 O          82.7280    2.2330  108.9350 O.2       1 ARG        -0.3944
     38 CB         80.4260    0.9840  107.1970 C.3       1 ARG        -0.0092
     39 CG         80.1560   -0.4170  107.7130 C.3       1 ARG        -0.0156
     40 CD         79.8680   -1.3690  106.5620 C.3       1 ARG         0.0627
     41 NE         81.0330   -1.5680  105.7000 N.pl3     1 ARG        -0.2723
     42 CZ         81.8870   -2.5860  105.7880 C.cat     1 ARG         0.2882
     43 NH1        81.7250   -3.5330  106.7030 N.pl3     1 ARG        -0.2849
     44 NH2        82.9120   -2.6610  104.9490 N.pl3     1 ARG        -0.2849
     45 N          81.2980    1.2850  110.3990 N.am      1 ARG        -0.2637
     46 CA         82.3240    1.0490  111.4100 C.3       1 ARG         0.1311
     47 C          82.9280   -0.3350  111.1960 C.2       1 ARG         0.2039
     48 O          82.2060   -1.3390  111.1950 O.2       1 ARG        -0.3944
     49 CB         81.7600    1.1630  112.8250 C.3       1 ARG        -0.0092
     50 CG         82.8560    1.0340  113.8770 C.3       1 ARG        -0.0156
     51 CD         82.3530    1.1080  115.3020 C.3       1 ARG         0.0627
     52 NE         83.4680    0.9460  116.2320 N.pl3     1 ARG        -0.2723
     53 CZ         83.4030    1.1730  117.5400 C.cat     1 ARG         0.2882
     54 NH1        82.2720    1.5810  118.0940 N.pl3     1 ARG        -0.2849
     55 NH2        84.4790    0.9960  118.2930 N.pl3     1 ARG        -0.2849
     56 N          84.2550   -0.3880  111.0420 N.am      1 GLN        -0.2636
     57 CA         84.9350   -1.6370  110.7290 C.3       1 GLN         0.1330
     58 C          85.8330   -2.1690  111.8380 C.2       1 GLN         0.2035
     59 O          86.2460   -3.3300  111.7600 O.2       1 GLN        -0.3944
     60 CB         85.7780   -1.4710  109.4570 C.3       1 GLN         0.0045
     61 CG         84.9410   -1.4170  108.1900 C.3       1 GLN         0.0412
     62 CD         85.7760   -1.3340  106.9250 C.2       1 GLN         0.1737
     63 OE1        85.5000   -0.5230  106.0430 O.2       1 GLN        -0.3973
     64 NE2        86.7980   -2.1810  106.8250 N.am      1 GLN        -0.3009
     65 N          86.1510   -1.3670  112.8490 N.am      1 ARG        -0.2695
     66 CA         86.9890   -1.8420  113.9510 C.3       1 ARG         0.0945
     67 C          86.7050   -1.0940  115.2550 C.2       1 ARG         0.0601
     68 O          86.1100   -0.0140  115.2540 O.co2     1 ARG        -0.5666
     69 CB         88.4760   -1.7150  113.5880 C.3       1 ARG        -0.0148
     70 CG         88.9880   -0.2900  113.4200 C.3       1 ARG        -0.0162
     71 CD         90.4820   -0.2260  113.6800 C.3       1 ARG         0.0627
     72 NE         91.1450    0.8310  112.9160 N.pl3     1 ARG        -0.2723
     73 CZ         92.2670    1.4450  113.2880 C.cat     1 ARG         0.2882
     74 NH1        92.8600    1.1320  114.4330 N.pl3     1 ARG        -0.2849
     75 NH2        92.7940    2.3860  112.5150 N.pl3     1 ARG        -0.2849
     76 OXT        87.0630   -1.5500  116.3430 O.co2     1 ARG        -0.5666
     77 H1         80.4486   15.2568  106.4689 H         1 GLY         0.2012
     78 H2         79.1305   14.3957  106.9490 H         1 GLY         0.2012
     79 H3         78.9595   15.6329  105.8768 H         1 GLY         0.2012
     80 H4         80.4287   13.1478  105.4175 H         1 GLY         0.1061
     81 H5         80.2421   14.4979  104.2474 H         1 GLY         0.1061
     82 H6         79.2086   11.4528  104.7601 H         1 ARG         0.1884
     83 H7         76.3188   12.0615  104.4409 H         1 ARG         0.0800
     84 H8         77.8263   10.1499  102.6077 H         1 ARG         0.0313
     85 H9         77.2906   11.8057  102.1626 H         1 ARG         0.0313
     86 H10        74.9602   11.1791  102.4464 H         1 ARG         0.0301
     87 H11        75.4339    9.5558  103.0524 H         1 ARG         0.0301
     88 H12        76.5958    9.1961  100.8066 H         1 ARG         0.0689
     89 H13        75.7789   10.6941  100.2450 H         1 ARG         0.0689
     90 H14        73.6918    9.5841  100.2708 H         1 ARG         0.2642
     91 H15        75.2946    6.0012  101.3341 H         1 ARG         0.2615
     92 H16        76.2929    7.4740  101.4650 H         1 ARG         0.2615
     93 H17        72.4435    7.7002  100.1160 H         1 ARG         0.2615
     94 H18        73.1454    6.1262  100.5771 H         1 ARG         0.2615
     95 H19        78.1950    8.9946  104.1082 H         1 LYS         0.1883
     96 H20        77.0493    8.1374  106.7080 H         1 LYS         0.0800
     97 H21        76.5332    5.8822  105.7077 H         1 LYS         0.0312
     98 H22        76.8193    6.5962  104.0844 H         1 LYS         0.0312
     99 H23        74.9567    8.1615  104.4328 H         1 LYS         0.0269
    100 H24        74.6800    7.4800  106.0716 H         1 LYS         0.0269
    101 H25        74.0721    5.3280  105.1517 H         1 LYS         0.0317
    102 H26        74.5676    5.8345  103.5011 H         1 LYS         0.0317
    103 H27        72.7900    7.6594  103.6682 H         1 LYS         0.0813
    104 H28        72.2070    6.8288  105.1503 H         1 LYS         0.0813
    105 H29        71.0012    6.1375  103.2001 H         1 LYS         0.1994
    106 H30        71.8452    4.8662  103.8172 H         1 LYS         0.1994
    107 H31        72.3795    5.6273  102.4589 H         1 LYS         0.1994
    108 H32        78.1406    6.4063  107.6918 H         1 LYS         0.1883
    109 H33        80.7668    5.6215  106.5571 H         1 LYS         0.0800
    110 H34        81.7809    5.9545  108.8580 H         1 LYS         0.0312
    111 H35        80.3155    6.9011  109.2861 H         1 LYS         0.0312
    112 H36        80.8654    8.6341  107.7715 H         1 LYS         0.0269
    113 H37        82.1048    7.6300  106.9453 H         1 LYS         0.0269
    114 H38        83.0315    9.3814  108.5266 H         1 LYS         0.0317
    115 H39        83.5582    7.6981  108.8673 H         1 LYS         0.0317
    116 H40        82.3179    7.5532  110.8160 H         1 LYS         0.0813
    117 H41        81.1061    8.7594  110.2653 H         1 LYS         0.0813
    118 H42        82.5135    9.6283  112.0012 H         1 LYS         0.1994
    119 H43        82.7618   10.4666  110.6065 H         1 LYS         0.1994
    120 H44        83.8722    9.3612  111.1111 H         1 LYS         0.1994
    121 H45        81.1693    3.5217  106.9042 H         1 ARG         0.1883
    122 H46        79.4815    2.0170  108.8328 H         1 ARG         0.0800
    123 H47        81.4116    0.9848  106.7085 H         1 ARG         0.0313
    124 H48        79.6501    1.2319  106.4577 H         1 ARG         0.0313
    125 H49        79.2869   -0.3922  108.3868 H         1 ARG         0.0301
    126 H50        81.0378   -0.7745  108.2649 H         1 ARG         0.0301
    127 H51        79.0476   -0.9549  105.9575 H         1 ARG         0.0689
    128 H52        79.5639   -2.3419  106.9755 H         1 ARG         0.0689
    129 H53        81.2064   -0.8653  104.9672 H         1 ARG         0.2642
    130 H54        82.3936   -4.3145  106.7593 H         1 ARG         0.2615
    131 H55        80.9307   -3.4867  107.3571 H         1 ARG         0.2615
    132 H56        83.0473   -1.9313  104.2347 H         1 ARG         0.2615
    133 H57        83.5724   -3.4489  105.0119 H         1 ARG         0.2615
    134 H58        80.3564    1.0033  110.5836 H         1 ARG         0.1883
    135 H59        83.1142    1.8047  111.2900 H         1 ARG         0.0800
    136 H60        81.0203    0.3638  112.9801 H         1 ARG         0.0313
    137 H61        81.2711    2.1420  112.9368 H         1 ARG         0.0313
    138 H62        83.5805    1.8473  113.7233 H         1 ARG         0.0301
    139 H63        83.3574    0.0650  113.7371 H         1 ARG         0.0301
    140 H64        81.6177    0.3076  115.4713 H         1 ARG         0.0689
    141 H65        81.8767    2.0851  115.4704 H         1 ARG         0.0689
    142 H66        84.3702    0.6331  115.8459 H         1 ARG         0.2642
    143 H67        82.2288    1.7550  119.1083 H         1 ARG         0.2615
    144 H68        81.4352    1.7244  117.5108 H         1 ARG         0.2615
    145 H69        85.3605    0.6786  117.8651 H         1 ARG         0.2615
    146 H70        84.4338    1.1758  119.3062 H         1 ARG         0.2615
    147 H71        84.7927    0.4490  111.1441 H         1 GLN         0.1883
    148 H72        84.1591   -2.3930  110.5382 H         1 GLN         0.0801
    149 H73        86.4710   -2.3220  109.3827 H         1 GLN         0.0337
    150 H74        86.3524   -0.5363  109.5372 H         1 GLN         0.0337
    151 H75        84.2904   -0.5313  108.2382 H         1 GLN         0.0504
    152 H76        84.3216   -2.3247  108.1411 H         1 GLN         0.0504
    153 H77        87.3802   -2.1683  106.0120 H         1 GLN         0.1814
    154 H78        86.9836   -2.8300  107.5628 H         1 GLN         0.1814
    155 H79        85.8130   -0.4259  112.8569 H         1 ARG         0.1875
    156 H80        86.7624   -2.9061  114.1134 H         1 ARG         0.0726
    157 H81        88.6409   -2.2488  112.6404 H         1 ARG         0.0307
    158 H82        89.0623   -2.1944  114.3857 H         1 ARG         0.0307
    159 H83        88.4684    0.3674  114.1326 H         1 ARG         0.0301
    160 H84        88.7848    0.0487  112.3934 H         1 ARG         0.0301
    161 H85        90.9287   -1.1925  113.4037 H         1 ARG         0.0689
    162 H86        90.6447   -0.0399  114.7519 H         1 ARG         0.0689
    163 H87        90.7133    1.1211  112.0270 H         1 ARG         0.2642
    164 H88        93.7273    1.6124  114.7119 H         1 ARG         0.2615
    165 H89        92.4530    0.4086  115.0429 H         1 ARG         0.2615
    166 H90        92.3400    2.6350  111.6246 H         1 ARG         0.2615
    167 H91        93.6570    2.8674  112.8054 H         1 ARG         0.2615
@<TRIPOS>BOND
     1    1    2 1  
     2    2    3 1  
     3    3    4 2  
     4    3    5 am 
     5    5    6 1  
     6    6    7 1  
     7    6    9 1  
     8    7    8 2  
     9    7   16 am 
    10    9   10 1  
    11   10   11 1  
    12   11   12 1  
    13   12   13 ar 
    14   13   14 ar 
    15   13   15 ar 
    16   16   17 1  
    17   17   18 1  
    18   17   20 1  
    19   18   19 2  
    20   18   25 am 
    21   20   21 1  
    22   21   22 1  
    23   22   23 1  
    24   23   24 1  
    25   25   26 1  
    26   26   27 1  
    27   26   29 1  
    28   27   28 2  
    29   27   34 am 
    30   29   30 1  
    31   30   31 1  
    32   31   32 1  
    33   32   33 1  
    34   34   35 1  
    35   35   36 1  
    36   35   38 1  
    37   36   37 2  
    38   36   45 am 
    39   38   39 1  
    40   39   40 1  
    41   40   41 1  
    42   41   42 ar 
    43   42   43 ar 
    44   42   44 ar 
    45   45   46 1  
    46   46   47 1  
    47   46   49 1  
    48   47   48 2  
    49   47   56 am 
    50   49   50 1  
    51   50   51 1  
    52   51   52 1  
    53   52   53 ar 
    54   53   54 ar 
    55   53   55 ar 
    56   56   57 1  
    57   57   58 1  
    58   57   60 1  
    59   58   59 2  
    60   58   65 am 
    61   60   61 1  
    62   61   62 1  
    63   62   63 2  
    64   62   64 am 
    65   65   66 1  
    66   66   67 1  
    67   66   69 1  
    68   67   68 ar 
    69   67   76 ar 
    70   69   70 1  
    71   70   71 1  
    72   71   72 1  
    73   72   73 ar 
    74   73   74 ar 
    75   73   75 ar 
    76    1   77 1  
    77    1   78 1  
    78    1   79 1  
    79    2   80 1  
    80    2   81 1  
    81    5   82 1  
    82    6   83 1  
    83    9   84 1  
    84    9   85 1  
    85   10   86 1  
    86   10   87 1  
    87   11   88 1  
    88   11   89 1  
    89   12   90 1  
    90   14   91 1  
    91   14   92 1  
    92   15   93 1  
    93   15   94 1  
    94   16   95 1  
    95   17   96 1  
    96   20   97 1  
    97   20   98 1  
    98   21   99 1  
    99   21  100 1  
   100   22  101 1  
   101   22  102 1  
   102   23  103 1  
   103   23  104 1  
   104   24  105 1  
   105   24  106 1  
   106   24  107 1  
   107   25  108 1  
   108   26  109 1  
   109   29  110 1  
   110   29  111 1  
   111   30  112 1  
   112   30  113 1  
   113   31  114 1  
   114   31  115 1  
   115   32  116 1  
   116   32  117 1  
   117   33  118 1  
   118   33  119 1  
   119   33  120 1  
   120   34  121 1  
   121   35  122 1  
   122   38  123 1  
   123   38  124 1  
   124   39  125 1  
   125   39  126 1  
   126   40  127 1  
   127   40  128 1  
   128   41  129 1  
   129   43  130 1  
   130   43  131 1  
   131   44  132 1  
   132   44  133 1  
   133   45  134 1  
   134   46  135 1  
   135   49  136 1  
   136   49  137 1  
   137   50  138 1  
   138   50  139 1  
   139   51  140 1  
   140   51  141 1  
   141   52  142 1  
   142   54  143 1  
   143   54  144 1  
   144   55  145 1  
   145   55  146 1  
   146   56  147 1  
   147   57  148 1  
   148   60  149 1  
   149   60  150 1  
   150   61  151 1  
   151   61  152 1  
   152   64  153 1  
   153   64  154 1  
   154   65  155 1  
   155   66  156 1  
   156   69  157 1  
   157   69  158 1  
   158   70  159 1  
   159   70  160 1  
   160   71  161 1  
   161   71  162 1  
   162   72  163 1  
   163   74  164 1  
   164   74  165 1  
   165   75  166 1  
   166   75  167 1  
@<TRIPOS>SUBSTRUCTURE
     1 GLY         1

