5vqs_ligand
  -I-interpret- 

 58 61  0  0  0  0  0  0  0  0999 V2000
  460.2940    3.2700  117.7770 C   0  0  0  0  0
  460.5510    2.7230  119.0580 C   0  0  0  0  0
  462.8310    3.6080  118.9490 C   0  0  0  0  0
  458.4560    5.2220  124.5350 O   0  0  0  0  0
  458.4780    1.5470  119.0800 C   0  0  0  0  0
  458.7950   -1.5020  120.0550 C   0  0  0  0  0
  459.6110   -1.0350  122.7160 C   0  0  0  0  0
  461.9680    3.1180  122.0200 C   0  0  0  0  0
  462.6910    2.7100  123.1600 C   0  0  0  0  0
  462.5910    3.4350  124.3680 C   0  0  0  0  0
  461.7520    4.5820  124.4370 C   0  0  0  0  0
  461.0250    4.9960  123.2890 C   0  0  0  0  0
  463.3220    3.0250  125.5080 C   0  0  0  0  0
  462.4000    4.8740  126.7840 C   0  0  0  0  0
  461.6680    5.2940  125.6580 C   0  0  0  0  0
  463.9830    3.3110  127.8790 C   0  0  0  0  0
  463.5850    1.4830  123.0670 C   0  0  0  0  0
  458.9810    6.1880  123.9850 C   0  0  0  0  0
  458.3680    7.5000  123.9120 C   0  0  0  0  0
  457.1620    7.6770  124.4780 C   0  0  0  0  0
  461.8250    2.9050  119.6400 C   0  0  0  0  0
  462.5680    4.1500  117.6770 C   0  0  0  0  0
  461.2980    3.9800  117.0930 C   0  0  0  0  0
  462.1000    2.3750  120.8730 O   0  0  0  0  0
  459.6180    2.0190  119.7840 O   0  0  0  0  0
  457.6560    0.6660  120.0280 C   0  0  0  0  0
  458.4500   -0.3110  120.7350 N   0  0  0  0  0
  459.5540   -2.4270  120.7580 N   0  0  0  0  0
  460.0000   -2.2820  122.0680 C   0  0  0  0  0
  458.8700   -0.1240  122.0420 C   0  0  0  0  0
  461.1350    4.2540  122.0900 C   0  0  0  0  0
  463.2280    3.7400  126.7130 C   0  0  0  0  0
  458.4600   -1.7410  118.8970 O   0  0  0  0  0
  460.6670   -3.1710  122.5890 O   0  0  0  0  0
  460.1810    6.1420  123.3800 N   0  0  0  0  0
  464.5820    2.9700  128.8060 N   0  0  0  0  0
  459.3136    3.1403  117.3187 H   0  0  0  0  0
  463.8153    3.7326  119.4003 H   0  0  0  0  0
  458.7893    0.9697  118.2094 H   0  0  0  0  0
  457.8764    2.3885  118.7364 H   0  0  0  0  0
  459.9168   -0.8362  123.7432 H   0  0  0  0  0
  463.9640    2.1460  125.4504 H   0  0  0  0  0
  462.3246    5.4316  127.7175 H   0  0  0  0  0
  461.0305    6.1755  125.7264 H   0  0  0  0  0
  462.9820    0.6151  122.8001 H   0  0  0  0  0
  464.3462    1.6466  122.3042 H   0  0  0  0  0
  464.0652    1.3111  124.0303 H   0  0  0  0  0
  458.8740    8.3243  123.4093 H   0  0  0  0  0
  456.6669    6.8443  124.9776 H   0  0  0  0  0
  456.6789    8.6533  124.4375 H   0  0  0  0  0
  463.3450    4.6996  117.1456 H   0  0  0  0  0
  461.0921    4.3996  116.1083 H   0  0  0  0  0
  456.9281    0.1237  119.4245 H   0  0  0  0  0
  457.2001    1.3195  120.7717 H   0  0  0  0  0
  459.8068   -3.2876  120.2724 H   0  0  0  0  0
  458.5911    0.7987  122.5509 H   0  0  0  0  0
  460.5700    4.5634  121.2107 H   0  0  0  0  0
  460.5173    7.0027  122.9481 H   0  0  0  0  0
  2  1  4  0  0  0
  1 23  4  0  0  0
  2 21  4  0  0  0
 25  2  1  0  0  0
 21  3  4  0  0  0
  3 22  4  0  0  0
 18  4  2  0  0  0
  5 25  1  0  0  0
 26  5  1  0  0  0
 27  6  1  0  0  0
  6 28  1  0  0  0
  6 33  2  0  0  0
  7 29  1  0  0  0
 30  7  2  0  0  0
  8  9  4  0  0  0
 24  8  1  0  0  0
  8 31  4  0  0  0
  9 10  4  0  0  0
  9 17  1  0  0  0
 10 11  4  0  0  0
 10 13  4  0  0  0
 12 11  4  0  0  0
 11 15  4  0  0  0
 31 12  4  0  0  0
 12 35  1  0  0  0
 13 32  4  0  0  0
 15 14  4  0  0  0
 32 14  4  0  0  0
 32 16  1  0  0  0
 16 36  3  0  0  0
 18 19  1  0  0  0
 35 18  1  0  0  0
 19 20  2  0  0  0
 21 24  1  0  0  0
 23 22  4  0  0  0
 27 26  1  0  0  0
 27 30  1  0  0  0
 28 29  1  0  0  0
 29 34  2  0  0  0
  1 37  1  0  0  0
  3 38  1  0  0  0
  5 39  1  0  0  0
  5 40  1  0  0  0
  7 41  1  0  0  0
 13 42  1  0  0  0
 14 43  1  0  0  0
 15 44  1  0  0  0
 17 45  1  0  0  0
 17 46  1  0  0  0
 17 47  1  0  0  0
 19 48  1  0  0  0
 20 49  1  0  0  0
 20 50  1  0  0  0
 22 51  1  0  0  0
 23 52  1  0  0  0
 26 53  1  0  0  0
 26 54  1  0  0  0
 28 55  1  0  0  0
 30 56  1  0  0  0
 31 57  1  0  0  0
 35 58  1  0  0  0
M  END
$$$$
