### 
### Created by X-TOOL on Mon Sep 10 21:12:51 2018
### 

@<TRIPOS>MOLECULE
1w1g_ligand
   48    48     1     0     0
SMALL
GAST_HUCK


@<TRIPOS>ATOM
      1 O0F        11.5310   38.4930    0.4950 O.3       1 4PT        -0.3924
      2 C0E        10.6780   37.4030    0.0720 C.3       1 4PT         0.0727
      3 C0C         9.6760   37.1030    1.1870 C.3       1 4PT         0.1065
      4 O0D         8.9630   35.9040    0.9030 O.3       1 4PT        -0.3869
      5 C0B        10.3790   36.8950    2.5410 C.3       1 4PT         0.1117
      6 OP1         9.3870   36.7360    3.5720 O.3       1 4PT        -0.2514
      7 P1          9.6300   37.4190    4.9690 P.3       1 4PT         0.2557
      8 OP3         8.3200   37.0290    5.8360 O.co2     1 4PT        -0.6177
      9 OP2         9.8570   38.8910    4.8680 O.co2     1 4PT        -0.6177
     10 O1         10.9320   36.7720    5.5690 O.3       1 4PT        -0.2454
     11 C1         10.8780   35.3570    5.8410 C.3       1 4PT         0.1515
     12 C2         10.5370   35.0660    7.3250 C.3       1 4PT         0.1222
     13 O2         11.5220   35.6490    8.1940 O.3       1 4PT        -0.3857
     14 C3         10.5860   33.5280    7.5490 C.3       1 4PT         0.1510
     15 O3         10.3290   33.2360    8.9320 O.3       1 4PT        -0.2672
     16 P3          8.9990   32.3560    9.1710 P.3       1 4PT         0.2013
     17 O11         7.7630   33.1270    8.6190 O.co2     1 4PT        -0.5537
     18 O10         8.9080   32.3040   10.7820 O.co2     1 4PT        -0.5537
     19 O12         9.0770   31.0100    8.4850 O.co2     1 4PT        -0.5537
     20 C4         11.9580   32.9330    7.2070 C.3       1 4PT         0.1550
     21 O4         11.9070   31.5000    7.2650 O.3       1 4PT        -0.2669
     22 P4         12.4650   30.7320    8.6070 P.3       1 4PT         0.2013
     23 OP5        11.1270   29.9890    9.0330 O.co2     1 4PT        -0.5537
     24 OP6        13.5520   29.7770    8.0170 O.co2     1 4PT        -0.5537
     25 OP4        13.1510   31.6880    9.5730 O.co2     1 4PT        -0.5537
     26 C5         12.3740   33.3010    5.7530 C.3       1 4PT         0.1510
     27 O5         13.7360   32.9650    5.6540 O.3       1 4PT        -0.2672
     28 P5         14.1580   31.5880    4.8630 P.3       1 4PT         0.2013
     29 OP8        14.9470   30.7790    5.9970 O.co2     1 4PT        -0.5537
     30 OP7        15.3040   31.9520    3.8620 O.co2     1 4PT        -0.5537
     31 OP9        12.9410   30.8620    4.3870 O.co2     1 4PT        -0.5537
     32 C6         12.2340   34.7920    5.4920 C.3       1 4PT         0.1222
     33 O6         12.4830   35.0130    4.0900 O.3       1 4PT        -0.3857
     34 H1         12.1581   38.6877   -0.1916 H         1 4PT         0.2095
     35 H2         11.2892   36.5102   -0.1263 H         1 4PT         0.0584
     36 H3         10.1387   37.6888   -0.8431 H         1 4PT         0.0584
     37 H4          8.9714   37.9440    1.2654 H         1 4PT         0.0643
     38 H5          8.3451   35.7308    1.6035 H         1 4PT         0.2100
     39 H6         11.0072   37.7692    2.7671 H         1 4PT         0.0647
     40 H7         11.0079   35.9938    2.4940 H         1 4PT         0.0647
     41 H8         10.1092   34.8928    5.2058 H         1 4PT         0.0711
     42 H9          9.5385   35.4607    7.5641 H         1 4PT         0.0654
     43 H10        11.2968   35.4606    9.0975 H         1 4PT         0.2100
     44 H11         9.8186   33.0540    6.9194 H         1 4PT         0.0706
     45 H12        12.7052   33.3134    7.9190 H         1 4PT         0.0710
     46 H13        11.7721   32.7353    5.0266 H         1 4PT         0.0706
     47 H14        12.9911   35.3224    6.0882 H         1 4PT         0.0654
     48 H15        12.4020   35.9397    3.8974 H         1 4PT         0.2100
@<TRIPOS>BOND
     1    1    2 1  
     2    2    3 1  
     3    3    4 1  
     4    3    5 1  
     5    5    6 1  
     6    6    7 1  
     7    7    8 ar 
     8    7    9 ar 
     9    7   10 1  
    10   10   11 1  
    11   11   12 1  
    12   11   32 1  
    13   12   13 1  
    14   12   14 1  
    15   14   15 1  
    16   14   20 1  
    17   15   16 1  
    18   16   17 ar 
    19   16   18 ar 
    20   16   19 ar 
    21   20   21 1  
    22   20   26 1  
    23   21   22 1  
    24   22   23 ar 
    25   22   24 ar 
    26   22   25 ar 
    27   26   27 1  
    28   26   32 1  
    29   27   28 1  
    30   28   29 ar 
    31   28   30 ar 
    32   28   31 ar 
    33   32   33 1  
    34    1   34 1  
    35    2   35 1  
    36    2   36 1  
    37    3   37 1  
    38    4   38 1  
    39    5   39 1  
    40    5   40 1  
    41   11   41 1  
    42   12   42 1  
    43   13   43 1  
    44   14   44 1  
    45   20   45 1  
    46   26   46 1  
    47   32   47 1  
    48   33   48 1  
@<TRIPOS>SUBSTRUCTURE
     1 4PT         1

