6h1u_ligand
  -I-interpret- 

 17 16  0  0  0  0  0  0  0  0999 V2000
  -13.7950  -14.5400   14.8780 N   0  3  0  0  0
  -12.5970  -15.0140   14.1950 C   0  0  0  0  0
  -12.1650  -14.0180   13.1260 C   0  0  0  0  0
  -11.3180  -14.3340   12.2860 O   0  0  0  0  0
  -12.8400  -16.4060   13.5700 C   0  0  0  0  0
  -13.8200  -16.3660   12.4110 C   0  0  0  0  0
  -13.9170  -17.3740   11.6790 O   0  0  0  0  0
  -14.5100  -15.3440   12.2330 O   0  0  0  0  0
  -12.6830  -12.8920   13.1160 O   0  0  0  0  0
  -13.6133  -13.6215   15.2826 H   0  0  0  0  0
  -14.5621  -14.4725   14.2091 H   0  0  0  0  0
  -14.0447  -15.1956   15.6184 H   0  0  0  0  0
  -11.7964  -15.1036   14.9293 H   0  0  0  0  0
  -13.2612  -17.0501   14.3419 H   0  0  0  0  0
  -11.8867  -16.7726   13.1893 H   0  0  0  0  0
  -13.3036  -18.0478   11.9813 H   0  0  0  0  0
  -13.3140  -12.8249   13.8363 H   0  0  0  0  0
  1  2  1  0  0  0
  2  3  1  0  0  0
  2  5  1  0  0  0
  3  4  2  0  0  0
  3  9  1  0  0  0
  5  6  1  0  0  0
  6  7  1  0  0  0
  6  8  2  0  0  0
  1 10  1  0  0  0
  1 11  1  0  0  0
  1 12  1  0  0  0
  2 13  1  0  0  0
  5 14  1  0  0  0
  5 15  1  0  0  0
  7 16  1  0  0  0
  9 17  1  0  0  0
M  END
$$$$
