3ebl_ligand
  -I-interpret- 

 48 52  0  0  0  0  0  0  0  0999 V2000
   30.5200   46.4740   14.2660 C   0  0  0  0  0
   29.4360   46.2260   13.2200 C   0  0  0  0  0
   29.5620   44.8060   12.5960 C   0  0  0  0  0
   29.0310   43.8480   13.5190 O   0  0  0  0  0
   31.0090   44.4270   12.2010 C   0  0  0  0  0
   31.8400   44.4800   13.4730 C   0  0  0  0  0
   33.3390   44.1100   13.4810 C   0  0  0  0  0
   33.5560   42.6400   13.7310 C   0  0  0  0  0
   32.9360   41.9780   14.6060 O   0  0  0  0  0
   34.3980   42.1300   12.9970 O   0  0  0  0  0
   34.0370   45.0690   14.4660 C   0  0  0  0  0
   33.0680   46.2830   14.6080 C   0  0  0  0  0
   31.8900   45.9970   13.7050 C   0  0  0  0  0
   33.7810   47.6300   14.3220 C   0  0  0  0  0
   35.1130   47.7710   15.1060 C   0  0  0  0  0
   35.8650   46.4110   15.2250 C   0  0  0  0  0
   35.4170   45.5810   14.0360 C   0  0  0  0  0
   34.3550   44.5090   15.8530 C   0  0  0  0  0
   35.3230   45.5530   16.3290 C   0  0  0  0  0
   35.6760   45.6310   17.6050 C   0  0  0  0  0
   31.0990   43.0840   11.4690 C   0  0  0  0  0
   31.5600   45.5790   11.4220 C   0  0  0  0  0
   31.5890   45.7400   10.1990 O   0  0  0  0  0
   32.0940   46.4940   12.3580 O   0  0  0  0  0
   30.2844   45.9212   15.1754 H   0  0  0  0  0
   30.5695   47.5382   14.4966 H   0  0  0  0  0
   29.5468   46.9639   12.4255 H   0  0  0  0  0
   28.4630   46.3056   13.7048 H   0  0  0  0  0
   28.9929   44.8075   11.6663 H   0  0  0  0  0
   28.1340   44.0957   13.7548 H   0  0  0  0  0
   31.3818   43.7643   14.1555 H   0  0  0  0  0
   33.7971   44.2495   12.5018 H   0  0  0  0  0
   32.3261   42.5559   15.0704 H   0  0  0  0  0
   32.7139   46.3990   15.6323 H   0  0  0  0  0
   33.1178   48.4363   14.6352 H   0  0  0  0  0
   34.0099   47.6715   13.2571 H   0  0  0  0  0
   34.8819   48.1226   16.1115 H   0  0  0  0  0
   35.7537   48.4696   14.5679 H   0  0  0  0  0
   36.9244   46.6402   15.3399 H   0  0  0  0  0
   35.3825   46.1562   13.1108 H   0  0  0  0  0
   36.1107   44.7736   13.8016 H   0  0  0  0  0
   34.7476   43.4922   15.8530 H   0  0  0  0  0
   33.4862   44.3686   16.4960 H   0  0  0  0  0
   36.4175   46.3646   17.9215 H   0  0  0  0  0
   35.2246   44.9616   18.3372 H   0  0  0  0  0
   30.5380   43.1418   10.5362 H   0  0  0  0  0
   32.1434   42.8586   11.2530 H   0  0  0  0  0
   30.6794   42.2995   12.0988 H   0  0  0  0  0
  1  2  1  0  0  0
  1 13  1  0  0  0
  2  3  1  0  0  0
  3  4  1  0  0  0
  3  5  1  0  0  0
  5  6  1  0  0  0
  5 21  1  0  0  0
  5 22  1  0  0  0
  6  7  1  0  0  0
  6 13  1  0  0  0
  7  8  1  0  0  0
  7 11  1  0  0  0
  8  9  1  0  0  0
  8 10  2  0  0  0
 11 12  1  0  0  0
 11 17  1  0  0  0
 11 18  1  0  0  0
 12 13  1  0  0  0
 12 14  1  0  0  0
 13 24  1  0  0  0
 14 15  1  0  0  0
 15 16  1  0  0  0
 16 17  1  0  0  0
 16 19  1  0  0  0
 18 19  1  0  0  0
 19 20  2  0  0  0
 22 23  2  0  0  0
 22 24  1  0  0  0
  1 25  1  0  0  0
  1 26  1  0  0  0
  2 27  1  0  0  0
  2 28  1  0  0  0
  3 29  1  0  0  0
  4 30  1  0  0  0
  6 31  1  0  0  0
  7 32  1  0  0  0
  9 33  1  0  0  0
 12 34  1  0  0  0
 14 35  1  0  0  0
 14 36  1  0  0  0
 15 37  1  0  0  0
 15 38  1  0  0  0
 16 39  1  0  0  0
 17 40  1  0  0  0
 17 41  1  0  0  0
 18 42  1  0  0  0
 18 43  1  0  0  0
 20 44  1  0  0  0
 20 45  1  0  0  0
 21 46  1  0  0  0
 21 47  1  0  0  0
 21 48  1  0  0  0
M  END
$$$$
