1fkh_ligand
  -I-interpret- 

 74 76  0  0  0  0  0  0  0  0999 V2000
  -24.9340   27.2020   42.8060 C   0  0  0  0  0
  -25.5560   28.2700   43.2910 O   0  0  0  0  0
  -23.7450   27.1250   42.5220 O   0  0  0  0  0
  -25.8490   25.9980   42.6170 C   0  0  0  0  0
  -25.4910   25.2720   41.3250 C   0  0  0  0  0
  -25.9240   26.0310   40.0820 C   0  0  0  0  0
  -27.4350   26.1960   40.2140 C   0  0  0  0  0
  -27.7860   26.9930   41.4600 C   0  0  0  0  0
  -27.3020   26.1860   42.5850 N   0  0  0  0  0
  -28.0550   25.7940   43.6310 C   0  0  0  0  0
  -27.4850   25.3040   44.6070 O   0  0  0  0  0
  -29.5750   25.8160   43.6950 C   0  0  0  0  0
  -30.1390   24.8210   43.2360 O   0  0  0  0  0
  -30.3880   26.9080   44.3810 C   0  0  0  0  0
  -29.5400   27.9890   45.0370 C   0  0  0  0  0
  -28.8970   27.5870   46.3970 C   0  0  0  0  0
  -31.2800   26.2970   45.4140 C   0  0  0  0  0
  -31.3790   27.5520   43.4570 C   0  0  0  0  0
  -24.9120   29.5760   43.3480 C   0  0  0  0  0
  -24.3810   29.8820   44.7400 C   0  0  0  0  0
  -23.0100   30.5460   44.7480 C   0  0  0  0  0
  -22.0150   30.2050   45.8310 C   0  0  0  0  0
  -22.3100   30.4470   47.1010 C   0  0  0  0  0
  -21.5290   30.0090   48.0710 C   0  0  0  0  0
  -20.4390   29.3310   47.7650 C   0  0  0  0  0
  -20.1320   29.1030   46.5020 C   0  0  0  0  0
  -20.9170   29.5410   45.5370 C   0  0  0  0  0
  -25.9190   30.6340   42.9670 C   0  0  0  0  0
  -26.1710   30.8150   41.4870 C   0  0  0  0  0
  -26.9240   32.1030   41.3520 C   0  0  0  0  0
  -28.2300   32.0540   42.1330 C   0  0  0  0  0
  -28.0190   31.8070   43.6120 C   0  0  0  0  0
  -27.2150   30.5180   43.7580 C   0  0  0  0  0
  -25.6555   25.4507   43.5395 H   0  0  0  0  0
  -26.0089   24.3129   41.3272 H   0  0  0  0  0
  -24.4065   25.1676   41.2909 H   0  0  0  0  0
  -25.6580   25.4935   39.1718 H   0  0  0  0  0
  -25.4211   26.9951   40.0062 H   0  0  0  0  0
  -27.8905   25.2086   40.2893 H   0  0  0  0  0
  -27.8073   26.7298   39.3396 H   0  0  0  0  0
  -28.8582   27.1765   41.5300 H   0  0  0  0  0
  -27.3252   27.9807   41.4474 H   0  0  0  0  0
  -30.2036   28.8297   45.2392 H   0  0  0  0  0
  -28.7194   28.2036   44.3524 H   0  0  0  0  0
  -29.6830   27.3319   47.1078 H   0  0  0  0  0
  -28.2457   26.7256   46.2490 H   0  0  0  0  0
  -28.3137   28.4230   46.7829 H   0  0  0  0  0
  -31.9560   25.5885   44.9353 H   0  0  0  0  0
  -30.6727   25.7776   46.1553 H   0  0  0  0  0
  -31.8592   27.0811   45.9017 H   0  0  0  0  0
  -30.8507   28.0033   42.6171 H   0  0  0  0  0
  -32.0734   26.7972   43.0879 H   0  0  0  0  0
  -31.9304   28.3217   43.9970 H   0  0  0  0  0
  -24.0695   29.5695   42.6565 H   0  0  0  0  0
  -24.2831   28.9317   45.2648 H   0  0  0  0  0
  -25.0793   30.5765   45.2070 H   0  0  0  0  0
  -23.2203   31.6055   44.8938 H   0  0  0  0  0
  -22.5371   30.2078   43.8260 H   0  0  0  0  0
  -23.2078   31.0142   47.3468 H   0  0  0  0  0
  -21.7816   30.2052   49.1130 H   0  0  0  0  0
  -19.7904   28.9582   48.5578 H   0  0  0  0  0
  -19.2256   28.5502   46.2552 H   0  0  0  0  0
  -20.6565   29.3531   44.4954 H   0  0  0  0  0
  -25.4247   31.5607   43.2586 H   0  0  0  0  0
  -26.7398   29.9800   41.0779 H   0  0  0  0  0
  -25.2360   30.8433   40.9275 H   0  0  0  0  0
  -27.1517   32.2669   40.2987 H   0  0  0  0  0
  -26.3092   32.9113   41.7479 H   0  0  0  0  0
  -28.8249   31.2304   41.7381 H   0  0  0  0  0
  -28.7220   33.0203   42.0224 H   0  0  0  0  0
  -28.9782   31.7152   44.1215 H   0  0  0  0  0
  -27.4821   32.6416   44.0628 H   0  0  0  0  0
  -26.9842   30.3516   44.8102 H   0  0  0  0  0
  -27.7993   29.6808   43.3763 H   0  0  0  0  0
  1  4  1  0  0  0
  1  3  2  0  0  0
  1  2  1  0  0  0
  2 19  1  0  0  0
 19 28  1  0  0  0
 19 20  1  0  0  0
 20 21  1  0  0  0
 21 22  1  0  0  0
 22 27  4  0  0  0
 22 23  4  0  0  0
 23 24  4  0  0  0
 24 25  4  0  0  0
 25 26  4  0  0  0
 26 27  4  0  0  0
 28 33  1  0  0  0
 28 29  1  0  0  0
 29 30  1  0  0  0
 30 31  1  0  0  0
 31 32  1  0  0  0
 32 33  1  0  0  0
  4  9  1  0  0  0
  4  5  1  0  0  0
  5  6  1  0  0  0
  6  7  1  0  0  0
  7  8  1  0  0  0
  8  9  1  0  0  0
  9 10  1  0  0  0
 10 12  1  0  0  0
 10 11  2  0  0  0
 12 14  1  0  0  0
 12 13  2  0  0  0
 14 18  1  0  0  0
 14 17  1  0  0  0
 14 15  1  0  0  0
 15 16  1  0  0  0
  4 34  1  0  0  0
  5 35  1  0  0  0
  5 36  1  0  0  0
  6 37  1  0  0  0
  6 38  1  0  0  0
  7 39  1  0  0  0
  7 40  1  0  0  0
  8 41  1  0  0  0
  8 42  1  0  0  0
 15 43  1  0  0  0
 15 44  1  0  0  0
 16 45  1  0  0  0
 16 46  1  0  0  0
 16 47  1  0  0  0
 17 48  1  0  0  0
 17 49  1  0  0  0
 17 50  1  0  0  0
 18 51  1  0  0  0
 18 52  1  0  0  0
 18 53  1  0  0  0
 19 54  1  0  0  0
 20 55  1  0  0  0
 20 56  1  0  0  0
 21 57  1  0  0  0
 21 58  1  0  0  0
 23 59  1  0  0  0
 24 60  1  0  0  0
 25 61  1  0  0  0
 26 62  1  0  0  0
 27 63  1  0  0  0
 28 64  1  0  0  0
 29 65  1  0  0  0
 29 66  1  0  0  0
 30 67  1  0  0  0
 30 68  1  0  0  0
 31 69  1  0  0  0
 31 70  1  0  0  0
 32 71  1  0  0  0
 32 72  1  0  0  0
 33 73  1  0  0  0
 33 74  1  0  0  0
M  END
$$$$
