4q2k_ligand
  -I-interpret- 

 81 85  0  0  0  0  0  0  0  0999 V2000
   60.7910    6.4560   32.9440 C   0  0  0  0  0
   59.9140    5.3720   32.9180 C   0  0  0  0  0
   59.2600    5.0120   31.7460 C   0  0  0  0  0
   58.2950    3.8450   31.7820 C   0  0  0  0  0
   59.4850    5.7500   30.5830 C   0  0  0  0  0
   60.3690    6.8180   30.6060 C   0  0  0  0  0
   61.0340    7.1820   31.7750 C   0  0  0  0  0
   61.8820    8.2690   31.7330 O   0  0  0  0  0
   63.1530    8.3050   32.3610 C   0  0  0  0  0
   63.8360    6.9750   32.0920 C   0  0  0  0  0
   64.7700    7.0660   30.9070 C   0  0  0  0  0
   64.1310    6.5060   29.6560 C   0  0  0  0  0
   65.2370    5.8630   29.0590 O   0  0  0  0  0
   65.1310    5.0820   27.9600 C   0  0  0  0  0
   64.7240    5.5610   26.7110 C   0  0  0  0  0
   64.6710    4.6590   25.6510 C   0  0  0  0  0
   65.4850    3.7710   28.1680 C   0  0  0  0  0
   65.4460    2.8870   27.1210 C   0  0  0  0  0
   65.0440    3.3270   25.8830 C   0  0  0  0  0
   65.0230    2.2660   24.8240 C   0  0  0  0  0
   63.6000    1.7400   24.7630 C   0  0  0  0  0
   63.2180    1.0440   26.0450 C   0  0  0  0  0
   63.7260   -0.0080   26.4190 O   0  0  0  0  0
   62.1850    1.7140   26.8600 C   0  0  0  0  0
   61.7570    1.1890   28.0060 N   0  0  0  0  0
   61.5200    2.9210   26.6130 C   0  0  0  0  0
   60.6500    3.1220   27.6630 C   0  0  0  0  0
   60.8410    2.0220   28.4950 C   0  0  0  0  0
   60.1660    1.7440   29.7500 C   0  0  0  0  0
   60.5140    0.7950   30.4450 O   0  0  0  0  0
   59.1490    2.5880   30.0490 N   0  0  0  0  0
   58.9270    2.5010   31.4690 C   0  0  0  0  0
   57.9440    1.3880   31.6990 C   0  0  0  0  0
   57.2040    0.9860   30.6740 O   0  0  0  0  0
   57.8350    0.8750   32.8510 N   0  0  0  0  0
   56.8270   -0.1410   33.1150 C   0  0  0  0  0
   55.7140    0.5360   33.8790 C   0  0  0  0  0
   54.7290   -0.1250   34.1810 O   0  0  0  0  0
   57.3450   -1.2090   34.0610 C   0  0  0  0  0
   58.5450   -1.8270   33.4210 C   0  0  0  0  0
   58.5070   -2.1830   32.0750 C   0  0  0  0  0
   59.6320   -2.7330   31.4830 C   0  0  0  0  0
   60.7800   -2.9240   32.2500 C   0  0  0  0  0
   60.8040   -2.5620   33.5980 C   0  0  0  0  0
   59.6820   -1.9990   34.1900 C   0  0  0  0  0
   61.2857    6.7363   33.8739 H   0  0  0  0  0
   59.7392    4.7996   33.8290 H   0  0  0  0  0
   57.5400    4.0298   31.0178 H   0  0  0  0  0
   57.9017    3.7856   32.7968 H   0  0  0  0  0
   58.9677    5.4878   29.6601 H   0  0  0  0  0
   60.5472    7.3839   29.6916 H   0  0  0  0  0
   63.0428    8.4658   33.4334 H   0  0  0  0  0
   63.7500    9.1261   31.9643 H   0  0  0  0  0
   63.0707    6.2302   31.8738 H   0  0  0  0  0
   64.4179    6.6999   32.9717 H   0  0  0  0  0
   65.6660    6.4858   31.1273 H   0  0  0  0  0
   65.0081    8.1155   30.7339 H   0  0  0  0  0
   63.6620    7.2593   29.0230 H   0  0  0  0  0
   63.2855    5.8455   29.8482 H   0  0  0  0  0
   64.4564    6.6083   26.5711 H   0  0  0  0  0
   64.3464    4.9816   24.6617 H   0  0  0  0  0
   65.7945    3.4362   29.1581 H   0  0  0  0  0
   65.7311    1.8454   27.2691 H   0  0  0  0  0
   65.7235    1.4655   25.0618 H   0  0  0  0  0
   65.3288    2.6727   23.8601 H   0  0  0  0  0
   63.5297    1.0234   23.9447 H   0  0  0  0  0
   62.9249    2.5821   24.6108 H   0  0  0  0  0
   61.6630    3.5767   25.7541 H   0  0  0  0  0
   59.9646    3.9568   27.8095 H   0  0  0  0  0
   58.6365    3.1752   29.3911 H   0  0  0  0  0
   59.8116    2.3029   32.0742 H   0  0  0  0  0
   58.4584    1.1760   33.6001 H   0  0  0  0  0
   56.5294   -0.5848   32.1650 H   0  0  0  0  0
   55.7861    1.5880   34.1549 H   0  0  0  0  0
   56.5786   -1.9622   34.2440 H   0  0  0  0  0
   57.6078   -0.7719   35.0243 H   0  0  0  0  0
   57.5989   -2.0300   31.4919 H   0  0  0  0  0
   59.6197   -3.0132   30.4297 H   0  0  0  0  0
   61.6680   -3.3604   31.7927 H   0  0  0  0  0
   61.7068   -2.7220   34.1875 H   0  0  0  0  0
   59.6964   -1.6990   35.2378 H   0  0  0  0  0
  1  2  4  0  0  0
  1  7  4  0  0  0
  2  3  4  0  0  0
  3  4  1  0  0  0
  3  5  4  0  0  0
  4 32  1  0  0  0
  5  6  4  0  0  0
  6  7  4  0  0  0
  7  8  1  0  0  0
  8  9  1  0  0  0
  9 10  1  0  0  0
 10 11  1  0  0  0
 11 12  1  0  0  0
 12 13  1  0  0  0
 13 14  1  0  0  0
 14 15  4  0  0  0
 14 17  4  0  0  0
 15 16  4  0  0  0
 16 19  4  0  0  0
 17 18  4  0  0  0
 18 19  4  0  0  0
 19 20  1  0  0  0
 20 21  1  0  0  0
 21 22  1  0  0  0
 22 23  2  0  0  0
 22 24  1  0  0  0
 24 25  4  0  0  0
 24 26  4  0  0  0
 25 28  4  0  0  0
 26 27  4  0  0  0
 27 28  4  0  0  0
 28 29  1  0  0  0
 29 30  2  0  0  0
 29 31  1  0  0  0
 31 32  1  0  0  0
 32 33  1  0  0  0
 33 34  2  0  0  0
 33 35  1  0  0  0
 35 36  1  0  0  0
 36 37  1  0  0  0
 36 39  1  0  0  0
 37 38  2  0  0  0
 39 40  1  0  0  0
 40 41  4  0  0  0
 40 45  4  0  0  0
 41 42  4  0  0  0
 42 43  4  0  0  0
 43 44  4  0  0  0
 44 45  4  0  0  0
  1 46  1  0  0  0
  2 47  1  0  0  0
  4 48  1  0  0  0
  4 49  1  0  0  0
  5 50  1  0  0  0
  6 51  1  0  0  0
  9 52  1  0  0  0
  9 53  1  0  0  0
 10 54  1  0  0  0
 10 55  1  0  0  0
 11 56  1  0  0  0
 11 57  1  0  0  0
 12 58  1  0  0  0
 12 59  1  0  0  0
 15 60  1  0  0  0
 16 61  1  0  0  0
 17 62  1  0  0  0
 18 63  1  0  0  0
 20 64  1  0  0  0
 20 65  1  0  0  0
 21 66  1  0  0  0
 21 67  1  0  0  0
 26 68  1  0  0  0
 27 69  1  0  0  0
 31 70  1  0  0  0
 32 71  1  0  0  0
 35 72  1  0  0  0
 36 73  1  0  0  0
 37 74  1  0  0  0
 39 75  1  0  0  0
 39 76  1  0  0  0
 41 77  1  0  0  0
 42 78  1  0  0  0
 43 79  1  0  0  0
 44 80  1  0  0  0
 45 81  1  0  0  0
M  END
$$$$
