5qao_ligand
  -I-interpret- 

 36 37  0  0  0  0  0  0  0  0999 V2000
   95.9340  247.9960    5.7120 C   0  0  0  0  0
   97.3470  240.1920    1.6560 O   0  0  0  0  0
   95.0410  246.8360    7.6100 C   0  0  0  0  0
   95.0380  248.0180    8.3300 C   0  0  0  0  0
   95.5710  245.5300    5.5370 C   0  0  0  0  0
   95.4760  249.1900    7.7440 C   0  0  0  0  0
   96.7730  245.0830    4.9920 C   0  0  0  0  0
   96.3320  250.4750    5.7570 C   0  0  0  0  0
   95.9190  249.1900    6.4280 C   0  0  0  0  0
   94.4250  244.7880    5.2620 C   0  0  0  0  0
   94.4790  243.6550    4.4730 C   0  0  0  0  0
   95.6760  243.2190    3.9320 C   0  0  0  0  0
   95.6990  242.0210    3.0150 C   0  0  0  0  0
   95.9370  240.6750   -0.4540 C   0  0  0  0  0
   95.4950  246.8050    6.2920 C   0  0  0  0  0
   96.8230  243.9460    4.2060 C   0  0  0  0  0
   96.1840  242.3530    1.6660 N   0  0  0  0  0
   96.6700  250.4220    4.5500 O   0  0  0  0  0
   96.3150  251.5230    6.4440 O   0  0  0  0  0
   98.0740  241.9950    0.1470 O   0  0  0  0  0
   97.0160  241.2790    0.7870 S   0  0  0  0  0
   96.2940  247.9914    4.6832 H   0  0  0  0  0
   94.6844  245.9188    8.0787 H   0  0  0  0  0
   94.6890  248.0243    9.3626 H   0  0  0  0  0
   95.4738  250.1175    8.3165 H   0  0  0  0  0
   97.6897  245.6390    5.1885 H   0  0  0  0  0
   93.4686  245.1067    5.6765 H   0  0  0  0  0
   93.5648  243.0959    4.2736 H   0  0  0  0  0
   94.6789  241.6482    2.9232 H   0  0  0  0  0
   96.3765  241.2825    3.4436 H   0  0  0  0  0
   96.4361  239.8843   -1.0142 H   0  0  0  0  0
   95.0351  240.2782    0.0122 H   0  0  0  0  0
   95.6708  241.4881   -1.1294 H   0  0  0  0  0
   97.7782  243.6174    3.7965 H   0  0  0  0  0
   95.9923  243.2767    1.2780 H   0  0  0  0  0
   96.6032  249.5160    4.2396 H   0  0  0  0  0
  1  9  4  0  0  0
 15  1  4  0  0  0
 21  2  2  0  0  0
  3  4  4  0  0  0
 15  3  4  0  0  0
  4  6  4  0  0  0
  7  5  4  0  0  0
 10  5  4  0  0  0
  5 15  1  0  0  0
  9  6  4  0  0  0
 16  7  4  0  0  0
  9  8  1  0  0  0
  8 18  1  0  0  0
  8 19  2  0  0  0
 11 10  4  0  0  0
 12 11  4  0  0  0
 13 12  1  0  0  0
 12 16  4  0  0  0
 17 13  1  0  0  0
 21 14  1  0  0  0
 17 21  1  0  0  0
 21 20  2  0  0  0
  1 22  1  0  0  0
  3 23  1  0  0  0
  4 24  1  0  0  0
  6 25  1  0  0  0
  7 26  1  0  0  0
 10 27  1  0  0  0
 11 28  1  0  0  0
 13 29  1  0  0  0
 13 30  1  0  0  0
 14 31  1  0  0  0
 14 32  1  0  0  0
 14 33  1  0  0  0
 16 34  1  0  0  0
 17 35  1  0  0  0
 18 36  1  0  0  0
M  END
$$$$
