6ipi_ligand
  -I-interpret- 

 44 45  0  0  0  0  0  0  0  0999 V2000
  125.2610  342.7230  103.0160 N   0  0  0  0  0
  126.0040  343.7150  103.7230 C   0  0  0  0  0
  126.4880  343.4650  104.9640 N   0  0  0  0  0
  126.2740  342.2650  105.5540 C   0  0  0  0  0
  125.5520  341.2760  104.8870 C   0  0  0  0  0
  125.0510  341.5290  103.6110 C   0  0  0  0  0
  126.2310  344.8250  103.2110 O   0  0  0  0  0
  126.7630  342.0260  106.7940 N   0  0  0  0  0
  124.7490  343.0260  101.6670 C   0  0  0  0  0
  125.9050  342.9620  100.6760 C   0  0  0  0  0
  125.7590  341.5990  100.0430 C   0  0  0  0  0
  124.2480  341.4000  100.0560 C   0  0  0  0  0
  123.7490  342.0960  101.2070 O   0  0  0  0  0
  126.2850  341.5480   98.7140 O   0  0  0  0  0
  123.8220  339.9450  100.0260 C   0  0  0  0  0
  124.3880  339.2400  101.1280 O   0  0  0  0  0
  125.1070  337.8190  100.8830 P   0  0  0  0  0
  124.1700  336.9680  100.0370 O   0  0  0  0  0
  125.5740  337.3130  102.2190 O   0  0  0  0  0
  126.4230  338.2510  100.0700 O   0  0  0  0  0
  126.8500  337.9140   98.5470 P   0  0  0  0  0
  125.6200  337.5950   97.7390 O   0  0  0  0  0
  127.7110  339.0840   98.1570 O   0  0  0  0  0
  127.8310  336.6360   98.6530 O   0  0  0  0  0
  127.4910  335.0740   98.3920 P   0  0  0  0  0
  128.0150  334.7560   97.0230 O   0  0  0  0  0
  126.0020  334.9130   98.5750 O   0  0  0  0  0
  128.2620  334.3550   99.4710 O   0  0  0  0  0
  127.0166  344.1850  105.4565 H   0  0  0  0  0
  125.3802  340.3097  105.3611 H   0  0  0  0  0
  124.4853  340.7570  103.0894 H   0  0  0  0  0
  126.6031  341.1227  107.2399 H   0  0  0  0  0
  124.2932  344.0143  101.7273 H   0  0  0  0  0
  126.8736  343.0950  101.1579 H   0  0  0  0  0
  125.8686  343.7672   99.9422 H   0  0  0  0  0
  126.3139  340.8235  100.5710 H   0  0  0  0  0
  123.8189  341.8068   99.1403 H   0  0  0  0  0
  126.1679  340.6640   98.3584 H   0  0  0  0  0
  124.1698  339.4918   99.0977 H   0  0  0  0  0
  122.7352  339.8914  100.0901 H   0  0  0  0  0
  123.9687  337.4309   99.2204 H   0  0  0  0  0
  125.1830  336.8265   98.1133 H   0  0  0  0  0
  125.7655  335.1383   99.4777 H   0  0  0  0  0
  127.8978  334.5836  100.3293 H   0  0  0  0  0
  1  2  1  0  0  0
  1  6  1  0  0  0
  1  9  1  0  0  0
  2  3  1  0  0  0
  2  7  2  0  0  0
  3  4  1  0  0  0
  4  5  1  0  0  0
  4  8  2  0  0  0
  5  6  2  0  0  0
  9 10  1  0  0  0
  9 13  1  0  0  0
 10 11  1  0  0  0
 11 12  1  0  0  0
 11 14  1  0  0  0
 12 13  1  0  0  0
 12 15  1  0  0  0
 15 16  1  0  0  0
 16 17  1  0  0  0
 17 18  1  0  0  0
 17 19  2  0  0  0
 17 20  1  0  0  0
 20 21  1  0  0  0
 21 22  1  0  0  0
 21 23  2  0  0  0
 21 24  1  0  0  0
 24 25  1  0  0  0
 25 26  2  0  0  0
 25 27  1  0  0  0
 25 28  1  0  0  0
  3 29  1  0  0  0
  5 30  1  0  0  0
  6 31  1  0  0  0
  8 32  1  0  0  0
  9 33  1  0  0  0
 10 34  1  0  0  0
 10 35  1  0  0  0
 11 36  1  0  0  0
 12 37  1  0  0  0
 14 38  1  0  0  0
 15 39  1  0  0  0
 15 40  1  0  0  0
 18 41  1  0  0  0
 22 42  1  0  0  0
 27 43  1  0  0  0
 28 44  1  0  0  0
M  END
$$$$
