### 
### Created by X-TOOL on Mon Aug  2 16:14:21 2021
### 

@<TRIPOS>MOLECULE
6ipi_ligand
   40    41     1     0     0
SMALL
GAST_HUCK


@<TRIPOS>ATOM
      1 N1        125.2610  342.7230  103.0160 N.am      1 DCP        -0.1494
      2 C2        126.0040  343.7150  103.7230 C.2       1 DCP         0.3487
      3 N3        126.4880  343.4650  104.9640 N.am      1 DCP        -0.1924
      4 C4        126.2740  342.2650  105.5540 C.2       1 DCP         0.0853
      5 C5        125.5520  341.2760  104.8870 C.2       1 DCP         0.0019
      6 C6        125.0510  341.5290  103.6110 C.2       1 DCP         0.0738
      7 O2        126.2310  344.8250  103.2110 O.2       1 DCP        -0.3777
      8 N4        126.7630  342.0260  106.7940 N.2       1 DCP        -0.4291
      9 C1'       124.7490  343.0260  101.6670 C.3       1 DCP         0.1849
     10 C2'       125.9050  342.9620  100.6760 C.3       1 DCP         0.0329
     11 C3'       125.7590  341.5990  100.0430 C.3       1 DCP         0.0891
     12 C4'       124.2480  341.4000  100.0560 C.3       1 DCP         0.1165
     13 O4'       123.7490  342.0960  101.2070 O.3       1 DCP        -0.3375
     14 O3'       126.2850  341.5480   98.7140 O.3       1 DCP        -0.3889
     15 C5'       123.8220  339.9450  100.0260 C.3       1 DCP         0.1130
     16 O5'       124.3880  339.2400  101.1280 O.3       1 DCP        -0.2441
     17 PA        125.1070  337.8190  100.8830 P.3       1 DCP         0.3266
     18 O1A       124.1700  336.9680  100.0370 O.co2     1 DCP        -0.5692
     19 O2A       125.5740  337.3130  102.2190 O.co2     1 DCP        -0.5692
     20 O3A       126.4230  338.2510  100.0700 O.3       1 DCP        -0.1171
     21 PB        126.8500  337.9140   98.5470 P.3       1 DCP         0.3553
     22 O1B       125.6200  337.5950   97.7390 O.co2     1 DCP        -0.5652
     23 O2B       127.7110  339.0840   98.1570 O.co2     1 DCP        -0.5652
     24 O3B       127.8310  336.6360   98.6530 O.3       1 DCP        -0.1546
     25 PG        127.4910  335.0740   98.3920 P.3       1 DCP         0.1879
     26 O1G       128.0150  334.7560   97.0230 O.co2     1 DCP        -0.6091
     27 O2G       126.0020  334.9130   98.5750 O.co2     1 DCP        -0.6091
     28 O3G       128.2620  334.3550   99.4710 O.co2     1 DCP        -0.6091
     29 H1        127.0062  344.1709  105.4469 H         1 DCP         0.2412
     30 H2        125.3803  340.3105  105.3607 H         1 DCP         0.0330
     31 H3        124.4858  340.7577  103.0898 H         1 DCP         0.1288
     32 H4        126.6047  341.1334  107.2348 H         1 DCP         0.0340
     33 H5        124.3182  344.0381  101.6750 H         1 DCP         0.0986
     34 H6        126.8712  343.0524  101.1940 H         1 DCP         0.0346
     35 H7        125.8183  343.7566   99.9204 H         1 DCP         0.0346
     36 H8        126.2606  340.8327  100.6523 H         1 DCP         0.0622
     37 H9        123.8322  341.8756   99.1555 H         1 DCP         0.0650
     38 H10       126.0901  340.7013   98.3297 H         1 DCP         0.2099
     39 H11       124.1650  339.4859   99.0871 H         1 DCP         0.0648
     40 H12       122.7250  339.8870  100.0832 H         1 DCP         0.0648
@<TRIPOS>BOND
     1    1    2 am 
     2    1    6 1  
     3    1    9 1  
     4    2    3 am 
     5    2    7 2  
     6    3    4 1  
     7    4    5 1  
     8    4    8 2  
     9    5    6 2  
    10    9   10 1  
    11    9   13 1  
    12   10   11 1  
    13   11   12 1  
    14   11   14 1  
    15   12   13 1  
    16   12   15 1  
    17   15   16 1  
    18   16   17 1  
    19   17   18 ar 
    20   17   19 ar 
    21   17   20 1  
    22   20   21 1  
    23   21   22 ar 
    24   21   23 ar 
    25   21   24 1  
    26   24   25 1  
    27   25   26 ar 
    28   25   27 ar 
    29   25   28 ar 
    30    3   29 1  
    31    5   30 1  
    32    6   31 1  
    33    8   32 1  
    34    9   33 1  
    35   10   34 1  
    36   10   35 1  
    37   11   36 1  
    38   12   37 1  
    39   14   38 1  
    40   15   39 1  
    41   15   40 1  
@<TRIPOS>SUBSTRUCTURE
     1 DCP         1

