2fxv_ligand
  -I-interpret- 

 38 40  0  0  0  0  0  0  0  0999 V2000
   12.6590   14.4740    3.5030 P   0  0  0  0  0
   12.2320   13.9340    4.9310 O   0  0  0  0  0
   13.1780   13.3790    2.6650 O   0  0  0  0  0
   11.4670   15.1680    3.0130 O   0  0  0  0  0
   13.7590   15.5460    3.7430 O   0  0  0  0  0
   13.5470   16.7260    4.4830 C   0  0  0  0  0
   14.5560   17.0370    5.5450 C   0  0  0  0  0
   15.7680   17.2010    4.7830 O   0  0  0  0  0
   14.3770   18.3820    6.3030 C   0  0  0  0  0
   14.3820   18.0940    7.7590 O   0  0  0  0  0
   15.5370   19.2450    5.8950 C   0  0  0  0  0
   16.4000   19.6660    6.9470 O   0  0  0  0  0
   16.3470   18.5020    4.8670 C   0  0  0  0  0
   16.2410   18.9010    3.4150 N   0  0  0  0  0
   15.7090   18.3920    2.2660 C   0  0  0  0  0
   15.8760   19.1140    1.1880 N   0  0  0  0  0
   16.5800   20.2140    1.5990 C   0  0  0  0  0
   17.0800   21.3340    0.9930 C   0  0  0  0  0
   16.9360   21.5310   -0.2320 O   0  0  0  0  0
   17.7950   22.3300    1.7430 N   0  0  0  0  0
   18.0170   22.1990    3.1420 C   0  0  0  0  0
   18.6750   23.1200    3.8290 N   0  0  0  0  0
   17.5220   21.0620    3.7920 N   0  0  0  0  0
   16.8060   20.0780    3.0000 C   0  0  0  0  0
   12.9677   13.4602    5.3258 H   0  0  0  0  0
   13.9553   12.9996    3.0815 H   0  0  0  0  0
   12.5961   16.5927    4.9989 H   0  0  0  0  0
   13.5994   17.5458    3.7666 H   0  0  0  0  0
   14.5032   16.2565    6.3040 H   0  0  0  0  0
   13.4418   18.8912    6.0702 H   0  0  0  0  0
   14.2724   18.9137    8.2466 H   0  0  0  0  0
   15.0952   20.1626    5.5065 H   0  0  0  0  0
   17.1040   20.2085    6.5841 H   0  0  0  0  0
   17.3706   18.6574    5.2078 H   0  0  0  0  0
   15.1768   17.4409    2.2476 H   0  0  0  0  0
   18.1530   23.1533    1.2589 H   0  0  0  0  0
   18.8211   23.0010    4.8314 H   0  0  0  0  0
   19.0358   23.9484    3.3558 H   0  0  0  0  0
  1  2  1  0  0  0
  1  3  1  0  0  0
  1  4  2  0  0  0
  1  5  1  0  0  0
  5  6  1  0  0  0
  6  7  1  0  0  0
  7  8  1  0  0  0
  7  9  1  0  0  0
  8 13  1  0  0  0
  9 10  1  0  0  0
  9 11  1  0  0  0
 11 12  1  0  0  0
 11 13  1  0  0  0
 13 14  1  0  0  0
 14 15  4  0  0  0
 14 24  4  0  0  0
 15 16  4  0  0  0
 16 17  4  0  0  0
 17 18  1  0  0  0
 17 24  4  0  0  0
 18 19  2  0  0  0
 18 20  1  0  0  0
 20 21  1  0  0  0
 21 22  1  0  0  0
 21 23  2  0  0  0
 23 24  1  0  0  0
  2 25  1  0  0  0
  3 26  1  0  0  0
  6 27  1  0  0  0
  6 28  1  0  0  0
  7 29  1  0  0  0
  9 30  1  0  0  0
 10 31  1  0  0  0
 11 32  1  0  0  0
 12 33  1  0  0  0
 13 34  1  0  0  0
 15 35  1  0  0  0
 20 36  1  0  0  0
 22 37  1  0  0  0
 22 38  1  0  0  0
M  END
$$$$
