6qtq_ligand
  -I-interpret- 

104105  0  0  0  0  0  0  0  0999 V2000
    1.5700    2.8860  -27.8580 N   0  3  0  0  0
    0.1640    3.2570  -27.7070 C   0  0  0  0  0
   -0.3290    2.9030  -26.3050 C   0  0  0  0  0
   -0.2660    1.7510  -25.8740 O   0  0  0  0  0
   -0.6840    2.5760  -28.7800 C   0  0  0  0  0
   -0.3530    3.0460  -30.1940 C   0  0  0  0  0
   -1.2890    2.4400  -31.2320 C   0  0  0  0  0
   -0.9880    2.9040  -32.5870 N   0  0  0  0  0
   -1.5360    3.9730  -33.1620 C   0  0  0  0  0
   -2.4240    4.7100  -32.5060 N   0  0  0  0  0
   -1.1950    4.3070  -34.3990 N   0  0  0  0  0
   -0.8260    3.9110  -25.6000 N   0  0  0  0  0
   -1.2300    3.7800  -24.2080 C   0  0  0  0  0
   -2.7250    4.0140  -24.0790 C   0  0  0  0  0
   -3.3000    4.8380  -24.7930 O   0  0  0  0  0
   -0.4520    4.7900  -23.3660 C   0  0  0  0  0
    1.0410    4.7120  -23.6050 C   0  0  0  0  0
    1.6710    3.4860  -23.7680 C   0  0  0  0  0
    1.8130    5.8600  -23.6890 C   0  0  0  0  0
    3.0310    3.4070  -23.9950 C   0  0  0  0  0
    3.1740    5.7890  -23.9110 C   0  0  0  0  0
    3.7760    4.5610  -24.0660 C   0  0  0  0  0
    5.1330    4.4910  -24.2860 O   0  0  0  0  0
   -3.3470    3.2790  -23.1630 N   0  0  0  0  0
   -4.7760    3.4010  -22.9140 C   0  0  0  0  0
   -5.6030    3.1080  -24.1640 C   0  0  0  0  0
   -6.6740    3.6990  -24.3660 O   0  0  0  0  0
   -5.1410    4.7630  -22.3170 C   0  0  0  0  0
   -5.1220    2.1740  -24.9810 N   0  0  0  0  0
   -5.8490    1.6940  -26.1540 C   0  0  0  0  0
   -6.3930    0.3010  -25.8570 C   0  0  0  0  0
   -5.6420   -0.6040  -25.4630 O   0  0  0  0  0
   -4.9620    1.6970  -27.4100 C   0  0  0  0  0
   -5.6990    1.0840  -28.5920 C   0  0  0  0  0
   -4.5160    3.1150  -27.7450 C   0  0  0  0  0
   -7.6920    0.1280  -26.0690 N   0  0  0  0  0
   -8.3500   -1.1430  -25.7470 C   0  0  0  0  0
   -7.9240   -2.1970  -26.7590 C   0  0  0  0  0
   -7.8460   -1.9010  -27.9670 O   0  0  0  0  0
   -9.8640   -0.9570  -25.7720 C   0  0  0  0  0
  -10.5680   -2.2560  -25.4550 C   0  0  0  0  0
  -10.3110    0.1190  -24.7850 C   0  0  0  0  0
   -7.6430   -3.4310  -26.3360 N   0  0  0  0  0
   -7.4250   -4.4930  -27.3230 C   0  0  0  0  0
   -8.7280   -4.8440  -28.0390 C   0  0  0  0  0
   -8.8260   -4.4080  -29.1820 O   0  0  0  0  0
   -6.9140   -5.6720  -26.4890 C   0  0  0  0  0
   -7.2350   -5.3730  -25.1010 C   0  0  0  0  0
   -7.3920   -3.8800  -24.9540 C   0  0  0  0  0
   -9.5160   -5.5190  -27.3830 O   0  0  0  0  0
    2.1218    3.3482  -27.1353 H   0  0  0  0  0
    1.6653    1.8747  -27.7656 H   0  0  0  0  0
    1.9003    3.1772  -28.7780 H   0  0  0  0  0
    0.0668    4.3349  -27.8368 H   0  0  0  0  0
   -1.7271    2.8246  -28.5844 H   0  0  0  0  0
   -0.4823    1.5059  -28.7313 H   0  0  0  0  0
    0.6641    2.7314  -30.4279 H   0  0  0  0  0
   -0.4640    4.1298  -30.2271 H   0  0  0  0  0
   -2.3071    2.7435  -30.9883 H   0  0  0  0  0
   -1.1647    1.3573  -31.2092 H   0  0  0  0  0
   -0.3095    2.3701  -33.1302 H   0  0  0  0  0
   -2.8391    5.5270  -32.9538 H   0  0  0  0  0
   -2.6913    4.4593  -31.5541 H   0  0  0  0  0
   -0.5135    3.7454  -34.9094 H   0  0  0  0  0
   -0.9296    4.8185  -26.0539 H   0  0  0  0  0
   -1.0103    2.7736  -23.8517 H   0  0  0  0  0
   -0.6375    4.5672  -22.3153 H   0  0  0  0  0
   -0.7863    5.7895  -23.6440 H   0  0  0  0  0
    1.0824    2.5701  -23.7160 H   0  0  0  0  0
    1.3380    6.8348  -23.5780 H   0  0  0  0  0
    3.5110    2.4360  -24.1171 H   0  0  0  0  0
    3.7687    6.7010  -23.9632 H   0  0  0  0  0
    5.4987    5.3783  -24.3075 H   0  0  0  0  0
   -2.8060    2.6083  -22.6172 H   0  0  0  0  0
   -5.0255    2.6420  -22.1725 H   0  0  0  0  0
   -4.6177    4.8952  -21.3700 H   0  0  0  0  0
   -4.8472    5.5521  -23.0091 H   0  0  0  0  0
   -6.2169    4.8078  -22.1484 H   0  0  0  0  0
   -4.2050    1.7755  -24.7793 H   0  0  0  0  0
   -6.6792    2.3687  -26.3631 H   0  0  0  0  0
   -4.0787    1.0926  -27.2035 H   0  0  0  0  0
   -5.9710    0.0554  -28.3551 H   0  0  0  0  0
   -6.6005    1.6619  -28.7958 H   0  0  0  0  0
   -5.0515    1.0972  -29.4687 H   0  0  0  0  0
   -5.3925    3.7364  -27.9283 H   0  0  0  0  0
   -3.9482    3.5230  -26.9088 H   0  0  0  0  0
   -3.8894    3.0963  -28.6367 H   0  0  0  0  0
   -8.2419    0.8917  -26.4624 H   0  0  0  0  0
   -8.0576   -1.4706  -24.7494 H   0  0  0  0  0
  -10.1337   -0.6375  -26.7786 H   0  0  0  0  0
  -10.2928   -3.0070  -26.1955 H   0  0  0  0  0
  -10.2709   -2.5961  -24.4629 H   0  0  0  0  0
  -11.6463   -2.0986  -25.4787 H   0  0  0  0  0
  -10.0144   -0.1691  -23.7765 H   0  0  0  0  0
   -9.8415    1.0674  -25.0462 H   0  0  0  0  0
  -11.3950    0.2240  -24.8303 H   0  0  0  0  0
   -6.7252   -4.2049  -28.1075 H   0  0  0  0  0
   -5.8398   -5.8034  -26.6195 H   0  0  0  0  0
   -7.3842   -6.6034  -26.8044 H   0  0  0  0  0
   -6.4356   -5.7279  -24.4505 H   0  0  0  0  0
   -8.1613   -5.8731  -24.8184 H   0  0  0  0  0
   -8.1956   -3.6066  -24.2702 H   0  0  0  0  0
   -6.5164   -3.4064  -24.5101 H   0  0  0  0  0
   -9.1400   -5.6971  -26.5179 H   0  0  0  0  0
  1  2  1  0  0  0
  2  3  1  0  0  0
  2  5  1  0  0  0
  3  4  2  0  0  0
  3 12  1  0  0  0
  5  6  1  0  0  0
  6  7  1  0  0  0
  7  8  1  0  0  0
  8  9  1  0  0  0
  9 10  1  0  0  0
  9 11  2  0  0  0
 12 13  1  0  0  0
 13 14  1  0  0  0
 13 16  1  0  0  0
 14 15  2  0  0  0
 14 24  1  0  0  0
 16 17  1  0  0  0
 17 18  4  0  0  0
 17 19  4  0  0  0
 18 20  4  0  0  0
 19 21  4  0  0  0
 20 22  4  0  0  0
 21 22  4  0  0  0
 22 23  1  0  0  0
 24 25  1  0  0  0
 25 26  1  0  0  0
 25 28  1  0  0  0
 26 27  2  0  0  0
 26 29  1  0  0  0
 29 30  1  0  0  0
 30 31  1  0  0  0
 30 33  1  0  0  0
 31 32  2  0  0  0
 31 36  1  0  0  0
 33 34  1  0  0  0
 33 35  1  0  0  0
 36 37  1  0  0  0
 37 38  1  0  0  0
 37 40  1  0  0  0
 38 39  2  0  0  0
 38 43  1  0  0  0
 40 41  1  0  0  0
 40 42  1  0  0  0
 43 44  1  0  0  0
 43 49  1  0  0  0
 44 45  1  0  0  0
 44 47  1  0  0  0
 45 46  2  0  0  0
 45 50  1  0  0  0
 47 48  1  0  0  0
 48 49  1  0  0  0
  1 51  1  0  0  0
  1 52  1  0  0  0
  1 53  1  0  0  0
  2 54  1  0  0  0
  5 55  1  0  0  0
  5 56  1  0  0  0
  6 57  1  0  0  0
  6 58  1  0  0  0
  7 59  1  0  0  0
  7 60  1  0  0  0
  8 61  1  0  0  0
 10 62  1  0  0  0
 10 63  1  0  0  0
 11 64  1  0  0  0
 12 65  1  0  0  0
 13 66  1  0  0  0
 16 67  1  0  0  0
 16 68  1  0  0  0
 18 69  1  0  0  0
 19 70  1  0  0  0
 20 71  1  0  0  0
 21 72  1  0  0  0
 23 73  1  0  0  0
 24 74  1  0  0  0
 25 75  1  0  0  0
 28 76  1  0  0  0
 28 77  1  0  0  0
 28 78  1  0  0  0
 29 79  1  0  0  0
 30 80  1  0  0  0
 33 81  1  0  0  0
 34 82  1  0  0  0
 34 83  1  0  0  0
 34 84  1  0  0  0
 35 85  1  0  0  0
 35 86  1  0  0  0
 35 87  1  0  0  0
 36 88  1  0  0  0
 37 89  1  0  0  0
 40 90  1  0  0  0
 41 91  1  0  0  0
 41 92  1  0  0  0
 41 93  1  0  0  0
 42 94  1  0  0  0
 42 95  1  0  0  0
 42 96  1  0  0  0
 44 97  1  0  0  0
 47 98  1  0  0  0
 47 99  1  0  0  0
 48100  1  0  0  0
 48101  1  0  0  0
 49102  1  0  0  0
 49103  1  0  0  0
 50104  1  0  0  0
M  END
$$$$
