6mo5_ligand
  -I-interpret- 

 56 57  0  0  0  0  0  0  0  0999 V2000
  -10.7360  -14.1700  -27.0350 C   0  0  0  0  0
  -11.2500  -12.9770  -29.9640 O   0  0  0  0  0
  -10.6610  -14.2480  -29.5410 C   0  0  0  0  0
  -11.2970  -15.6750  -22.2670 C   0  0  0  0  0
  -19.6940  -19.0980  -32.8890 C   0  0  0  0  0
  -18.6230  -18.8380  -31.8470 C   0  0  0  0  0
  -17.7980  -18.6390  -31.0430 C   0  0  0  0  0
  -16.7410  -18.4050  -29.9910 C   0  0  0  0  0
  -15.8700  -18.1740  -29.2490 C   0  0  0  0  0
  -13.4600  -18.2480  -28.6220 C   0  0  0  0  0
  -14.7410  -17.8580  -28.3040 C   0  0  0  0  0
   -9.7810  -13.2770  -22.9200 C   0  0  0  0  0
  -10.6910  -13.8090  -24.0300 C   0  0  0  0  0
  -11.9300  -12.8920  -24.1260 C   0  0  0  0  0
  -11.0870  -15.2750  -23.7250 C   0  0  0  0  0
  -11.5610  -16.9650  -25.6200 C   0  0  0  0  0
  -12.6850  -17.3080  -26.5790 C   0  0  0  0  0
  -13.9740  -16.9000  -26.2760 C   0  0  0  0  0
  -15.0100  -17.1770  -27.1350 C   0  0  0  0  0
  -12.4170  -17.9640  -27.7570 C   0  0  0  0  0
  -19.3590  -18.3110  -34.1530 C   0  0  0  0  0
  -10.1350  -13.6060  -28.3310 C   0  0  0  0  0
  -10.7190  -12.3350  -28.7590 C   0  0  0  0  0
  -11.9000  -15.9020  -24.7250 N   0  0  0  0  0
  -10.3510  -16.4040  -21.4510 N   0  0  0  0  0
  -10.5090  -17.5020  -25.6370 O   0  0  0  0  0
  -18.8140  -19.2260  -35.0620 O   0  0  0  0  0
  -12.3390  -15.3340  -21.8110 O   0  0  0  0  0
  -10.6710  -16.6230  -20.3150 O   0  0  0  0  0
   -9.5220  -12.1330  -25.7740 O   0  0  0  0  0
   -8.4470  -14.1160  -25.5130 O   0  0  0  0  0
   -9.7970  -13.5580  -25.6050 S   0  0  0  0  0
  -10.6878  -15.2587  -27.0590 H   0  0  0  0  0
  -11.7740  -13.8487  -26.9491 H   0  0  0  0  0
   -9.9866  -14.7836  -30.2091 H   0  0  0  0  0
  -11.2874  -15.1360  -29.4567 H   0  0  0  0  0
  -20.6642  -18.7821  -32.5056 H   0  0  0  0  0
  -19.7327  -20.1629  -33.1185 H   0  0  0  0  0
  -13.2669  -18.7798  -29.5537 H   0  0  0  0  0
   -8.8414  -13.8295  -22.9262 H   0  0  0  0  0
   -9.5828  -12.2188  -23.0903 H   0  0  0  0  0
  -10.2730  -13.4052  -21.9559 H   0  0  0  0  0
  -11.6067  -11.8580  -24.2463 H   0  0  0  0  0
  -12.5335  -13.1875  -24.9842 H   0  0  0  0  0
  -12.5211  -12.9856  -23.2150 H   0  0  0  0  0
  -10.1384  -15.7965  -23.8529 H   0  0  0  0  0
  -14.1672  -16.3564  -25.3512 H   0  0  0  0  0
  -16.0266  -16.8641  -26.8969 H   0  0  0  0  0
  -11.3971  -18.2566  -28.0066 H   0  0  0  0  0
  -18.6524  -17.5097  -33.9366 H   0  0  0  0  0
  -20.2506  -17.8379  -34.5645 H   0  0  0  0  0
   -9.0762  -13.6651  -28.0790 H   0  0  0  0  0
  -11.3902  -11.7944  -28.0917 H   0  0  0  0  0
  -10.0879  -11.4508  -28.8486 H   0  0  0  0  0
  -12.8501  -15.5409  -24.8101 H   0  0  0  0  0
  -18.5877  -18.7704  -35.8761 H   0  0  0  0  0
  1 22  1  0  0  0
 32  1  1  0  0  0
  3  2  1  0  0  0
  2 23  1  0  0  0
 22  3  1  0  0  0
 15  4  1  0  0  0
  4 25  1  0  0  0
  4 28  2  0  0  0
  6  5  1  0  0  0
  5 21  1  0  0  0
  7  6  3  0  0  0
  8  7  1  0  0  0
  9  8  3  0  0  0
 11  9  1  0  0  0
 10 11  4  0  0  0
 20 10  4  0  0  0
 11 19  4  0  0  0
 13 12  1  0  0  0
 13 14  1  0  0  0
 15 13  1  0  0  0
 13 32  1  0  0  0
 24 15  1  0  0  0
 17 16  1  0  0  0
 16 24  1  0  0  0
 16 26  2  0  0  0
 17 18  4  0  0  0
 17 20  4  0  0  0
 18 19  4  0  0  0
 21 27  1  0  0  0
 22 23  1  0  0  0
 25 29  2  0  0  0
 32 30  2  0  0  0
 32 31  2  0  0  0
  1 33  1  0  0  0
  1 34  1  0  0  0
  3 35  1  0  0  0
  3 36  1  0  0  0
  5 37  1  0  0  0
  5 38  1  0  0  0
 10 39  1  0  0  0
 12 40  1  0  0  0
 12 41  1  0  0  0
 12 42  1  0  0  0
 14 43  1  0  0  0
 14 44  1  0  0  0
 14 45  1  0  0  0
 15 46  1  0  0  0
 18 47  1  0  0  0
 19 48  1  0  0  0
 20 49  1  0  0  0
 21 50  1  0  0  0
 21 51  1  0  0  0
 22 52  1  0  0  0
 23 53  1  0  0  0
 23 54  1  0  0  0
 24 55  1  0  0  0
 27 56  1  0  0  0
M  END
$$$$
