### 
### Created by X-TOOL on Mon Sep 10 21:13:30 2018
### 

@<TRIPOS>MOLECULE
5h7g_ligand
  242   247     1     0     0
SMALL
GAST_HUCK


@<TRIPOS>ATOM
      1 N         -30.8360   21.3580   36.4180 N.4       1 LEU         0.2379
      2 CA        -29.9930   20.3700   35.7190 C.3       1 LEU         0.0652
      3 C         -29.7940   19.0940   36.5640 C.2       1 LEU         0.2268
      4 O         -29.3080   19.1620   37.7060 O.2       1 LEU        -0.3907
      5 CB        -28.6480   21.0250   35.3840 C.3       1 LEU         0.0102
      6 CG        -28.0630   20.7220   34.0070 C.3       1 LEU        -0.0394
      7 CD1       -27.8880   19.2270   33.8480 C.3       1 LEU        -0.0623
      8 CD2       -28.8860   21.2930   32.8530 C.3       1 LEU        -0.0623
      9 N         -30.1850   17.9440   36.0040 N.am      1 TRP        -0.2600
     10 CA        -29.9130   16.6390   36.6230 C.3       1 TRP         0.1353
     11 C         -28.8870   15.8650   35.8100 C.2       1 TRP         0.2053
     12 O         -28.9240   15.8770   34.5600 O.2       1 TRP        -0.3942
     13 CB        -31.2100   15.8370   36.7870 C.3       1 TRP         0.0042
     14 CG        -32.2310   16.6400   37.4930 C.2       1 TRP        -0.0418
     15 CD1       -33.2160   17.3790   36.9210 C.2       1 TRP         0.0167
     16 CD2       -32.3160   16.8640   38.9060 C.ar      1 TRP        -0.0214
     17 NE1       -33.9330   18.0290   37.8870 N.pl3     1 TRP        -0.2890
     18 CE2       -33.4030   17.7350   39.1180 C.ar      1 TRP         0.0603
     19 CE3       -31.5900   16.4010   40.0080 C.ar      1 TRP        -0.0747
     20 CZ2       -33.8020   18.1470   40.3970 C.ar      1 TRP        -0.0443
     21 CZ3       -31.9750   16.8180   41.2920 C.ar      1 TRP        -0.0792
     22 CH2       -33.0740   17.6840   41.4710 C.ar      1 TRP        -0.0768
     23 N         -27.9530   15.2230   36.5050 N.am      1 TYR        -0.2620
     24 CA        -26.8800   14.4600   35.8470 C.3       1 TYR         0.1390
     25 C         -27.0640   12.9490   36.0300 C.2       1 TYR         0.2058
     26 O         -27.4560   12.4710   37.1140 O.2       1 TYR        -0.3942
     27 CB        -25.4920   14.8690   36.3560 C.3       1 TYR         0.0163
     28 CG        -25.1460   16.3190   36.1750 C.ar      1 TYR        -0.0493
     29 CD1       -24.5260   16.7630   35.0020 C.ar      1 TYR        -0.0685
     30 CD2       -25.4200   17.2580   37.1720 C.ar      1 TYR        -0.0685
     31 CE1       -24.1930   18.0990   34.8240 C.ar      1 TYR        -0.0398
     32 CE2       -25.0830   18.6010   37.0050 C.ar      1 TYR        -0.0398
     33 CZ        -24.4800   19.0160   35.8290 C.ar      1 TYR         0.0805
     34 OH        -24.1460   20.3380   35.6320 O.3       1 TYR        -0.3376
     35 N         -26.7560   12.2180   34.9590 N.am      1 THR        -0.2612
     36 CA        -26.6430   10.7680   34.9680 C.3       1 THR         0.1565
     37 C         -25.2990   10.3600   34.3710 C.2       1 THR         0.2066
     38 O         -24.8390   10.9430   33.3950 O.2       1 THR        -0.3943
     39 CB        -27.7660   10.0490   34.1780 C.3       1 THR         0.0924
     40 OG1       -27.5480    8.6340   34.2330 O.3       1 THR        -0.3874
     41 CG2       -27.8420   10.4770   32.6890 C.3       1 THR        -0.0346
     42 N         -24.7240    9.3040   34.9210 N.am      1 ASP        -0.2621
     43 CA        -23.4650    8.7630   34.4200 C.3       1 ASP         0.1423
     44 C         -23.6820    7.4840   33.5880 C.2       1 ASP         0.2056
     45 O         -22.7640    6.7310   33.3620 O.2       1 ASP        -0.3943
     46 CB        -22.4570    8.5710   35.5820 C.3       1 ASP         0.0406
     47 CG        -22.9150    7.5890   36.6270 C.2       1 ASP         0.0393
     48 OD1       -24.0070    6.9870   36.5100 O.co2     1 ASP        -0.5688
     49 OD2       -22.1650    7.4390   37.6240 O.co2     1 ASP        -0.5688
     50 N         -24.8960    7.2450   33.1190 N.am      1 ILE        -0.2634
     51 CA        -25.1620    6.0460   32.3490 C.3       1 ILE         0.1335
     52 C         -24.2170    5.9710   31.1230 C.2       1 ILE         0.2042
     53 O         -23.8630    7.0010   30.5270 O.2       1 ILE        -0.3944
     54 CB        -26.6610    5.9390   31.9520 C.3       1 ILE        -0.0037
     55 CG1       -26.9660    4.5640   31.3520 C.3       1 ILE        -0.0491
     56 CG2       -27.0720    7.0430   30.9970 C.3       1 ILE        -0.0582
     57 CD1       -28.4380    4.2770   31.1650 C.3       1 ILE        -0.0648
     58 N         -23.7680    4.7560   30.8160 N.am      1 ARG        -0.2637
     59 CA        -22.8240    4.5160   29.7090 C.3       1 ARG         0.1311
     60 C         -23.6000    4.3380   28.4220 C.2       1 ARG         0.2039
     61 O         -24.6500    3.7310   28.4030 O.2       1 ARG        -0.3944
     62 CB        -21.9460    3.2680   29.9750 C.3       1 ARG        -0.0092
     63 CG        -20.7790    3.5170   30.9410 C.3       1 ARG        -0.0156
     64 CD        -20.0010    2.2560   31.3850 C.3       1 ARG         0.0627
     65 NE        -20.2950    1.8360   32.7830 N.pl3     1 ARG        -0.2723
     66 CZ        -21.2460    0.9690   33.1750 C.cat     1 ARG         0.2882
     67 NH1       -22.0500    0.3550   32.2900 N.pl3     1 ARG        -0.2849
     68 NH2       -21.4010    0.6970   34.4750 N.pl3     1 ARG        -0.2849
     69 N         -23.0780    4.8640   27.3310 N.am      1 MET        -0.2637
     70 CA        -23.6940    4.6610   26.0410 C.3       1 MET         0.1317
     71 C         -23.8270    3.1610   25.7250 C.2       1 MET         0.2040
     72 O         -22.8640    2.4030   25.8840 O.2       1 MET        -0.3944
     73 CB        -22.8650    5.3890   24.9890 C.3       1 MET        -0.0034
     74 CG        -23.3970    5.3010   23.5980 C.3       1 MET        -0.0024
     75 SD        -22.4090    6.2580   22.4310 S.3       1 MET        -0.1639
     76 CE        -22.6800    7.9560   22.8830 C.3       1 MET        -0.0181
     77 N         -25.0230    2.7400   25.2950 N.am      1 SER        -0.2616
     78 CA        -25.2500    1.3710   24.8540 C.3       1 SER         0.1539
     79 C         -24.6810    1.1210   23.4320 C.2       1 SER         0.2063
     80 O         -24.2330    0.0160   23.1430 O.2       1 SER        -0.3943
     81 CB        -26.7500    1.0200   24.9310 C.3       1 SER         0.0843
     82 OG        -27.5270    1.7270   23.9740 O.3       1 SER        -0.3903
     83 N         -24.6910    2.1290   22.5540 N.am      1 TRP        -0.2626
     84 CA        -24.1030    1.9510   21.2100 C.3       1 TRP         0.1352
     85 C         -22.5620    1.8900   21.2150 C.2       1 TRP         0.2052
     86 O         -21.9060    2.8260   21.6520 O.2       1 TRP        -0.3942
     87 CB        -24.5730    3.0250   20.2180 C.3       1 TRP         0.0042
     88 CG        -23.8330    2.9130   18.9280 C.2       1 TRP        -0.0418
     89 CD1       -22.9730    3.8380   18.3940 C.2       1 TRP         0.0167
     90 CD2       -23.7960    1.7830   18.0530 C.ar      1 TRP        -0.0214
     91 NE1       -22.4380    3.3640   17.2150 N.pl3     1 TRP        -0.2890
     92 CE2       -22.9180    2.1010   16.9920 C.ar      1 TRP         0.0603
     93 CE3       -24.4300    0.5310   18.0500 C.ar      1 TRP        -0.0747
     94 CZ2       -22.6790    1.2210   15.9260 C.ar      1 TRP        -0.0443
     95 CZ3       -24.1730   -0.3580   16.9880 C.ar      1 TRP        -0.0792
     96 CH2       -23.3080   -0.0060   15.9510 C.ar      1 TRP        -0.0768
     97 N         -22.0020    0.8070   20.6820 N.am      1 ARG        -0.2636
     98 CA        -20.5490    0.6830   20.5020 C.3       1 ARG         0.1311
     99 C         -20.1980    0.3080   19.0490 C.2       1 ARG         0.2039
    100 O         -20.6770   -0.6820   18.5150 O.2       1 ARG        -0.3944
    101 CB        -19.9500   -0.3340   21.4770 C.3       1 ARG        -0.0092
    102 CG        -18.4160   -0.2760   21.5460 C.3       1 ARG        -0.0156
    103 CD        -17.8520   -0.7330   22.8970 C.3       1 ARG         0.0627
    104 NE        -17.6490   -2.1850   22.9740 N.pl3     1 ARG        -0.2723
    105 CZ        -16.4880   -2.8380   22.7910 C.cat     1 ARG         0.2882
    106 NH1       -16.4580   -4.1680   22.8890 N.pl3     1 ARG        -0.2849
    107 NH2       -15.3520   -2.1970   22.5140 N.pl3     1 ARG        -0.2849
    108 N         -19.3200    1.0970   18.4420 N.am      1 VAL        -0.2635
    109 CA        -18.8530    0.8500   17.0750 C.3       1 VAL         0.1334
    110 C         -18.1880   -0.5430   17.0840 C.2       1 VAL         0.2061
    111 O         -17.4150   -0.8350   17.9750 O.2       1 VAL        -0.3942
    112 CB        -17.9370    2.0170   16.6050 C.3       1 VAL        -0.0062
    113 CG1       -17.1460    1.6730   15.3480 C.3       1 VAL        -0.0584
    114 CG2       -18.7780    3.2610   16.3800 C.3       1 VAL        -0.0584
    115 N         -18.5580   -1.4420   16.1560 N.am      1 PRO        -0.2556
    116 CA        -17.9350   -2.7740   16.2040 C.3       1 PRO         0.0972
    117 C         -16.4010   -2.7470   16.1010 C.2       1 PRO         0.0603
    118 O         -15.7920   -2.0450   15.2750 O.co2     1 PRO        -0.5666
    119 CB        -18.5680   -3.5290   15.0120 C.3       1 PRO        -0.0159
    120 CG        -19.5750   -2.6180   14.4020 C.3       1 PRO        -0.0288
    121 CD        -19.7080   -1.3920   15.2380 C.3       1 PRO         0.0362
    122 OXT       -15.7260   -3.4130   16.8900 O.co2     1 PRO        -0.5666
    123 H1        -30.9448   22.1761   35.8393 H         1 LEU         0.2015
    124 H2        -30.3982   21.6177   37.2880 H         1 LEU         0.2015
    125 H3        -31.7412   20.9555   36.6043 H         1 LEU         0.2015
    126 H4        -30.4906   20.0850   34.7803 H         1 LEU         0.1098
    127 H5        -27.9183   20.6923   36.1369 H         1 LEU         0.0348
    128 H6        -28.7801   22.1145   35.4578 H         1 LEU         0.0348
    129 H7        -27.0681   21.1889   33.9608 H         1 LEU         0.0299
    130 H8        -27.4664   19.0107   32.8553 H         1 LEU         0.0232
    131 H9        -28.8647   18.7308   33.9476 H         1 LEU         0.0232
    132 H10       -27.2057   18.8529   34.6255 H         1 LEU         0.0232
    133 H11       -29.0015   22.3787   32.9871 H         1 LEU         0.0232
    134 H12       -29.8779   20.8177   32.8396 H         1 LEU         0.0232
    135 H13       -28.3710   21.0938   31.9016 H         1 LEU         0.0232
    136 H14       -30.6790   17.9731   35.1350 H         1 TRP         0.1886
    137 H15       -29.4924   16.8152   37.6240 H         1 TRP         0.0815
    138 H16       -31.0012   14.9262   37.3674 H         1 TRP         0.0397
    139 H17       -31.5917   15.5593   35.7935 H         1 TRP         0.0397
    140 H18       -33.4068   17.4444   35.8508 H         1 TRP         0.0795
    141 H19       -34.7429   18.6424   37.7174 H         1 TRP         0.2216
    142 H20       -30.7467   15.7333   39.8734 H         1 TRP         0.0540
    143 H21       -34.6518   18.8055   40.5359 H         1 TRP         0.0541
    144 H22       -31.4210   16.4703   42.1564 H         1 TRP         0.0510
    145 H23       -33.3511   17.9911   42.4730 H         1 TRP         0.0530
    146 H24       -27.9803   15.2596   37.5040 H         1 TYR         0.1885
    147 H25       -26.9269   14.6816   34.7706 H         1 TYR         0.0821
    148 H26       -24.7422   14.2706   35.8177 H         1 TYR         0.0453
    149 H27       -25.4422   14.6389   37.4305 H         1 TYR         0.0453
    150 H28       -24.3013   16.0501   34.2170 H         1 TYR         0.0530
    151 H29       -25.9016   16.9383   38.0890 H         1 TYR         0.0530
    152 H30       -23.7128   18.4248   33.9084 H         1 TYR         0.0525
    153 H31       -25.2920   19.3168   37.7918 H         1 TYR         0.0525
    154 H32       -23.7449   20.4381   34.7766 H         1 TYR         0.2458
    155 H33       -26.5925   12.6960   34.0960 H         1 THR         0.1884
    156 H34       -26.6889   10.4304   36.0139 H         1 THR         0.0826
    157 H35       -28.7281   10.2856   34.6558 H         1 THR         0.0639
    158 H36       -27.5608    8.3477   35.1388 H         1 THR         0.2101
    159 H37       -28.6566    9.9303   32.1915 H         1 THR         0.0257
    160 H38       -26.8883   10.2459   32.1919 H         1 THR         0.0257
    161 H39       -28.0350   11.5582   32.6276 H         1 THR         0.0257
    162 H40       -25.1648    8.8634   35.7030 H         1 ASP         0.1884
    163 H41       -23.0341    9.5135   33.7410 H         1 ASP         0.0819
    164 H42       -22.2977    9.5451   36.0676 H         1 ASP         0.0478
    165 H43       -21.5066    8.2113   35.1609 H         1 ASP         0.0478
    166 H44       -25.6344    7.8955   33.2968 H         1 ILE         0.1883
    167 H45       -24.9351    5.1826   32.9916 H         1 ILE         0.0803
    168 H46       -27.2589    6.0492   32.8687 H         1 ILE         0.0345
    169 H47       -26.5481    3.7967   32.0202 H         1 ILE         0.0267
    170 H48       -26.4757    4.5010   30.3693 H         1 ILE         0.0267
    171 H49       -26.8445    8.0206   31.4470 H         1 ILE         0.0235
    172 H50       -28.1517    6.9731   30.7986 H         1 ILE         0.0235
    173 H51       -26.5179    6.9362   30.0528 H         1 ILE         0.0235
    174 H52       -28.5638    3.2739   30.7315 H         1 ILE         0.0230
    175 H53       -28.8746    5.0262   30.4882 H         1 ILE         0.0230
    176 H54       -28.9470    4.3219   32.1391 H         1 ILE         0.0230
    177 H55       -24.0830    3.9761   31.3569 H         1 ARG         0.1883
    178 H56       -22.1658    5.3919   29.6112 H         1 ARG         0.0800
    179 H57       -21.5326    2.9254   29.0149 H         1 ARG         0.0313
    180 H58       -22.5850    2.4805   30.4010 H         1 ARG         0.0313
    181 H59       -21.1827    4.0009   31.8426 H         1 ARG         0.0301
    182 H60       -20.0691    4.1965   30.4468 H         1 ARG         0.0301
    183 H61       -18.9241    2.4652   31.3039 H         1 ARG         0.0689
    184 H62       -20.2657    1.4285   30.7103 H         1 ARG         0.0689
    185 H63       -19.7120    2.2507   33.5239 H         1 ARG         0.2642
    186 H64       -22.7697   -0.3043   32.6191 H         1 ARG         0.2615
    187 H65       -21.9464    0.5438   31.2828 H         1 ARG         0.2615
    188 H66       -20.7970    1.1548   35.1725 H         1 ARG         0.2615
    189 H67       -22.1244    0.0297   34.7789 H         1 ARG         0.2615
    190 H68       -22.2437    5.4112   27.3982 H         1 MET         0.1883
    191 H69       -24.7031    5.0984   26.0574 H         1 MET         0.0800
    192 H70       -21.8522    4.9599   24.9951 H         1 MET         0.0320
    193 H71       -22.8147    6.4516   25.2689 H         1 MET         0.0320
    194 H72       -24.4279    5.6845   23.5877 H         1 MET         0.0378
    195 H73       -23.3947    4.2469   23.2835 H         1 MET         0.0378
    196 H74       -22.1055    8.6105   22.2110 H         1 MET         0.0340
    197 H75       -22.3511    8.1163   23.9204 H         1 MET         0.0340
    198 H76       -23.7510    8.1919   22.7972 H         1 MET         0.0340
    199 H77       -25.7853    3.3869   25.2761 H         1 SER         0.1884
    200 H78       -24.7142    0.7045   25.5459 H         1 SER         0.0823
    201 H79       -27.1187    1.2687   25.9371 H         1 SER         0.0606
    202 H80       -26.8688   -0.0590   24.7533 H         1 SER         0.0606
    203 H81       -27.2217    1.5138   23.1001 H         1 SER         0.2097
    204 H82       -25.0978    3.0066   22.8076 H         1 TRP         0.1884
    205 H83       -24.4634    0.9810   20.8368 H         1 TRP         0.0815
    206 H84       -24.3937    4.0199   20.6516 H         1 TRP         0.0397
    207 H85       -25.6489    2.8957   20.0291 H         1 TRP         0.0397
    208 H86       -22.7456    4.8065   18.8369 H         1 TRP         0.0795
    209 H87       -21.7855    3.8751   16.6034 H         1 TRP         0.2216
    210 H88       -25.1056    0.2530   18.8508 H         1 TRP         0.0540
    211 H89       -22.0215    1.4964   15.1094 H         1 TRP         0.0541
    212 H90       -24.6540   -1.3294   16.9761 H         1 TRP         0.0510
    213 H91       -23.1267   -0.7118   15.1484 H         1 TRP         0.0530
    214 H92       -22.5903    0.0514   20.3940 H         1 ARG         0.1883
    215 H93       -20.0992    1.6634   20.7173 H         1 ARG         0.0800
    216 H94       -20.2475   -1.3432   21.1560 H         1 ARG         0.0313
    217 H95       -20.3528   -0.1349   22.4810 H         1 ARG         0.0313
    218 H96       -18.0974    0.7616   21.3677 H         1 ARG         0.0301
    219 H97       -18.0062   -0.9259   20.7588 H         1 ARG         0.0301
    220 H98       -18.5551   -0.4352   23.6888 H         1 ARG         0.0689
    221 H99       -16.8847   -0.2351   23.0592 H         1 ARG         0.0689
    222 H100      -18.4765   -2.7593   23.1891 H         1 ARG         0.2642
    223 H101      -15.5721   -4.6748   22.7500 H         1 ARG         0.2615
    224 H102      -17.3207   -4.6882   23.1036 H         1 ARG         0.2615
    225 H103      -15.3467   -1.1702   22.4327 H         1 ARG         0.2615
    226 H104      -14.4798   -2.7286   22.3814 H         1 ARG         0.2615
    227 H105      -18.9637    1.8900   18.9362 H         1 VAL         0.1883
    228 H106      -19.7182    0.8139   16.3968 H         1 VAL         0.0803
    229 H107      -17.2155    2.2266   17.4085 H         1 VAL         0.0343
    230 H108      -16.5189    2.5307   15.0632 H         1 VAL         0.0234
    231 H109      -17.8422    1.4399   14.5289 H         1 VAL         0.0234
    232 H110      -16.5060    0.8003   15.5448 H         1 VAL         0.0234
    233 H111      -19.3409    3.4937   17.2960 H         1 VAL         0.0234
    234 H112      -19.4810    3.0837   15.5528 H         1 VAL         0.0234
    235 H113      -18.1214    4.1069   16.1283 H         1 VAL         0.0234
    236 H114      -18.2041   -3.2703   17.1481 H         1 PRO         0.0728
    237 H115      -19.0565   -4.4493   15.3647 H         1 PRO         0.0306
    238 H116      -17.7940   -3.7846   14.2733 H         1 PRO         0.0306
    239 H117      -20.5467   -3.1306   14.3461 H         1 PRO         0.0286
    240 H118      -19.2496   -2.3375   13.3894 H         1 PRO         0.0286
    241 H119      -19.6661   -0.4886   14.6118 H         1 PRO         0.0524
    242 H120      -20.6539   -1.4055   15.7993 H         1 PRO         0.0524
@<TRIPOS>BOND
     1    1    2 1  
     2    2    3 1  
     3    2    5 1  
     4    3    4 2  
     5    3    9 am 
     6    5    6 1  
     7    6    7 1  
     8    6    8 1  
     9    9   10 1  
    10   10   11 1  
    11   10   13 1  
    12   11   12 2  
    13   11   23 am 
    14   13   14 1  
    15   14   15 2  
    16   14   16 1  
    17   15   17 1  
    18   16   18 ar 
    19   16   19 ar 
    20   17   18 1  
    21   18   20 ar 
    22   19   21 ar 
    23   20   22 ar 
    24   21   22 ar 
    25   23   24 1  
    26   24   25 1  
    27   24   27 1  
    28   25   26 2  
    29   25   35 am 
    30   27   28 1  
    31   28   29 ar 
    32   28   30 ar 
    33   29   31 ar 
    34   30   32 ar 
    35   31   33 ar 
    36   32   33 ar 
    37   33   34 1  
    38   35   36 1  
    39   36   37 1  
    40   36   39 1  
    41   37   38 2  
    42   37   42 am 
    43   39   40 1  
    44   39   41 1  
    45   42   43 1  
    46   43   44 1  
    47   43   46 1  
    48   44   45 2  
    49   44   50 am 
    50   46   47 1  
    51   47   48 ar 
    52   47   49 ar 
    53   50   51 1  
    54   51   52 1  
    55   51   54 1  
    56   52   53 2  
    57   52   58 am 
    58   54   55 1  
    59   54   56 1  
    60   55   57 1  
    61   58   59 1  
    62   59   60 1  
    63   59   62 1  
    64   60   61 2  
    65   60   69 am 
    66   62   63 1  
    67   63   64 1  
    68   64   65 1  
    69   65   66 ar 
    70   66   67 ar 
    71   66   68 ar 
    72   69   70 1  
    73   70   71 1  
    74   70   73 1  
    75   71   72 2  
    76   71   77 am 
    77   73   74 1  
    78   74   75 1  
    79   75   76 1  
    80   77   78 1  
    81   78   79 1  
    82   78   81 1  
    83   79   80 2  
    84   79   83 am 
    85   81   82 1  
    86   83   84 1  
    87   84   85 1  
    88   84   87 1  
    89   85   86 2  
    90   85   97 am 
    91   87   88 1  
    92   88   89 2  
    93   88   90 1  
    94   89   91 1  
    95   90   92 ar 
    96   90   93 ar 
    97   91   92 1  
    98   92   94 ar 
    99   93   95 ar 
   100   94   96 ar 
   101   95   96 ar 
   102   97   98 1  
   103   98   99 1  
   104   98  101 1  
   105   99  100 2  
   106   99  108 am 
   107  101  102 1  
   108  102  103 1  
   109  103  104 1  
   110  104  105 ar 
   111  105  106 ar 
   112  105  107 ar 
   113  108  109 1  
   114  109  110 1  
   115  109  112 1  
   116  110  111 2  
   117  110  115 am 
   118  112  113 1  
   119  112  114 1  
   120  115  116 1  
   121  115  121 1  
   122  116  117 1  
   123  116  119 1  
   124  117  118 ar 
   125  117  122 ar 
   126  119  120 1  
   127  120  121 1  
   128    1  123 1  
   129    1  124 1  
   130    1  125 1  
   131    2  126 1  
   132    5  127 1  
   133    5  128 1  
   134    6  129 1  
   135    7  130 1  
   136    7  131 1  
   137    7  132 1  
   138    8  133 1  
   139    8  134 1  
   140    8  135 1  
   141    9  136 1  
   142   10  137 1  
   143   13  138 1  
   144   13  139 1  
   145   15  140 1  
   146   17  141 1  
   147   19  142 1  
   148   20  143 1  
   149   21  144 1  
   150   22  145 1  
   151   23  146 1  
   152   24  147 1  
   153   27  148 1  
   154   27  149 1  
   155   29  150 1  
   156   30  151 1  
   157   31  152 1  
   158   32  153 1  
   159   34  154 1  
   160   35  155 1  
   161   36  156 1  
   162   39  157 1  
   163   40  158 1  
   164   41  159 1  
   165   41  160 1  
   166   41  161 1  
   167   42  162 1  
   168   43  163 1  
   169   46  164 1  
   170   46  165 1  
   171   50  166 1  
   172   51  167 1  
   173   54  168 1  
   174   55  169 1  
   175   55  170 1  
   176   56  171 1  
   177   56  172 1  
   178   56  173 1  
   179   57  174 1  
   180   57  175 1  
   181   57  176 1  
   182   58  177 1  
   183   59  178 1  
   184   62  179 1  
   185   62  180 1  
   186   63  181 1  
   187   63  182 1  
   188   64  183 1  
   189   64  184 1  
   190   65  185 1  
   191   67  186 1  
   192   67  187 1  
   193   68  188 1  
   194   68  189 1  
   195   69  190 1  
   196   70  191 1  
   197   73  192 1  
   198   73  193 1  
   199   74  194 1  
   200   74  195 1  
   201   76  196 1  
   202   76  197 1  
   203   76  198 1  
   204   77  199 1  
   205   78  200 1  
   206   81  201 1  
   207   81  202 1  
   208   82  203 1  
   209   83  204 1  
   210   84  205 1  
   211   87  206 1  
   212   87  207 1  
   213   89  208 1  
   214   91  209 1  
   215   93  210 1  
   216   94  211 1  
   217   95  212 1  
   218   96  213 1  
   219   97  214 1  
   220   98  215 1  
   221  101  216 1  
   222  101  217 1  
   223  102  218 1  
   224  102  219 1  
   225  103  220 1  
   226  103  221 1  
   227  104  222 1  
   228  106  223 1  
   229  106  224 1  
   230  107  225 1  
   231  107  226 1  
   232  108  227 1  
   233  109  228 1  
   234  112  229 1  
   235  113  230 1  
   236  113  231 1  
   237  113  232 1  
   238  114  233 1  
   239  114  234 1  
   240  114  235 1  
   241  116  236 1  
   242  119  237 1  
   243  119  238 1  
   244  120  239 1  
   245  120  240 1  
   246  121  241 1  
   247  121  242 1  
@<TRIPOS>SUBSTRUCTURE
     1 LEU         1

