5h7g_ligand
  -I-interpret- 

240245  0  0  0  0  0  0  0  0999 V2000
  -30.8360   21.3580   36.4180 N   0  3  0  0  0
  -29.9930   20.3700   35.7190 C   0  0  0  0  0
  -29.7940   19.0940   36.5640 C   0  0  0  0  0
  -29.3080   19.1620   37.7060 O   0  0  0  0  0
  -28.6480   21.0250   35.3840 C   0  0  0  0  0
  -28.0630   20.7220   34.0070 C   0  0  0  0  0
  -27.8880   19.2270   33.8480 C   0  0  0  0  0
  -28.8860   21.2930   32.8530 C   0  0  0  0  0
  -30.1850   17.9440   36.0040 N   0  0  0  0  0
  -29.9130   16.6390   36.6230 C   0  0  0  0  0
  -28.8870   15.8650   35.8100 C   0  0  0  0  0
  -28.9240   15.8770   34.5600 O   0  0  0  0  0
  -31.2100   15.8370   36.7870 C   0  0  0  0  0
  -32.2310   16.6400   37.4930 C   0  0  0  0  0
  -33.2160   17.3790   36.9210 C   0  0  0  0  0
  -32.3160   16.8640   38.9060 C   0  0  0  0  0
  -33.9330   18.0290   37.8870 N   0  0  0  0  0
  -33.4030   17.7350   39.1180 C   0  0  0  0  0
  -31.5900   16.4010   40.0080 C   0  0  0  0  0
  -33.8020   18.1470   40.3970 C   0  0  0  0  0
  -31.9750   16.8180   41.2920 C   0  0  0  0  0
  -33.0740   17.6840   41.4710 C   0  0  0  0  0
  -27.9530   15.2230   36.5050 N   0  0  0  0  0
  -26.8800   14.4600   35.8470 C   0  0  0  0  0
  -27.0640   12.9490   36.0300 C   0  0  0  0  0
  -27.4560   12.4710   37.1140 O   0  0  0  0  0
  -25.4920   14.8690   36.3560 C   0  0  0  0  0
  -25.1460   16.3190   36.1750 C   0  0  0  0  0
  -24.5260   16.7630   35.0020 C   0  0  0  0  0
  -25.4200   17.2580   37.1720 C   0  0  0  0  0
  -24.1930   18.0990   34.8240 C   0  0  0  0  0
  -25.0830   18.6010   37.0050 C   0  0  0  0  0
  -24.4800   19.0160   35.8290 C   0  0  0  0  0
  -24.1460   20.3380   35.6320 O   0  0  0  0  0
  -26.7560   12.2180   34.9590 N   0  0  0  0  0
  -26.6430   10.7680   34.9680 C   0  0  0  0  0
  -25.2990   10.3600   34.3710 C   0  0  0  0  0
  -24.8390   10.9430   33.3950 O   0  0  0  0  0
  -27.7660   10.0490   34.1780 C   0  0  0  0  0
  -27.5480    8.6340   34.2330 O   0  0  0  0  0
  -27.8420   10.4770   32.6890 C   0  0  0  0  0
  -24.7240    9.3040   34.9210 N   0  0  0  0  0
  -23.4650    8.7630   34.4200 C   0  0  0  0  0
  -23.6820    7.4840   33.5880 C   0  0  0  0  0
  -22.7640    6.7310   33.3620 O   0  0  0  0  0
  -22.4570    8.5710   35.5820 C   0  0  0  0  0
  -22.9150    7.5890   36.6270 C   0  0  0  0  0
  -24.0070    6.9870   36.5100 O   0  0  0  0  0
  -22.1650    7.4390   37.6240 O   0  0  0  0  0
  -24.8960    7.2450   33.1190 N   0  0  0  0  0
  -25.1620    6.0460   32.3490 C   0  0  0  0  0
  -24.2170    5.9710   31.1230 C   0  0  0  0  0
  -23.8630    7.0010   30.5270 O   0  0  0  0  0
  -26.6610    5.9390   31.9520 C   0  0  0  0  0
  -26.9660    4.5640   31.3520 C   0  0  0  0  0
  -27.0720    7.0430   30.9970 C   0  0  0  0  0
  -28.4380    4.2770   31.1650 C   0  0  0  0  0
  -23.7680    4.7560   30.8160 N   0  0  0  0  0
  -22.8240    4.5160   29.7090 C   0  0  0  0  0
  -23.6000    4.3380   28.4220 C   0  0  0  0  0
  -24.6500    3.7310   28.4030 O   0  0  0  0  0
  -21.9460    3.2680   29.9750 C   0  0  0  0  0
  -20.7790    3.5170   30.9410 C   0  0  0  0  0
  -20.0010    2.2560   31.3850 C   0  0  0  0  0
  -20.2950    1.8360   32.7830 N   0  0  0  0  0
  -21.2460    0.9690   33.1750 C   0  0  0  0  0
  -22.0500    0.3550   32.2900 N   0  0  0  0  0
  -21.4010    0.6970   34.4750 N   0  0  0  0  0
  -23.0780    4.8640   27.3310 N   0  0  0  0  0
  -23.6940    4.6610   26.0410 C   0  0  0  0  0
  -23.8270    3.1610   25.7250 C   0  0  0  0  0
  -22.8640    2.4030   25.8840 O   0  0  0  0  0
  -22.8650    5.3890   24.9890 C   0  0  0  0  0
  -23.3970    5.3010   23.5980 C   0  0  0  0  0
  -22.4090    6.2580   22.4310 S   0  0  0  0  0
  -22.6800    7.9560   22.8830 C   0  0  0  0  0
  -25.0230    2.7400   25.2950 N   0  0  0  0  0
  -25.2500    1.3710   24.8540 C   0  0  0  0  0
  -24.6810    1.1210   23.4320 C   0  0  0  0  0
  -24.2330    0.0160   23.1430 O   0  0  0  0  0
  -26.7500    1.0200   24.9310 C   0  0  0  0  0
  -27.5270    1.7270   23.9740 O   0  0  0  0  0
  -24.6910    2.1290   22.5540 N   0  0  0  0  0
  -24.1030    1.9510   21.2100 C   0  0  0  0  0
  -22.5620    1.8900   21.2150 C   0  0  0  0  0
  -21.9060    2.8260   21.6520 O   0  0  0  0  0
  -24.5730    3.0250   20.2180 C   0  0  0  0  0
  -23.8330    2.9130   18.9280 C   0  0  0  0  0
  -22.9730    3.8380   18.3940 C   0  0  0  0  0
  -23.7960    1.7830   18.0530 C   0  0  0  0  0
  -22.4380    3.3640   17.2150 N   0  0  0  0  0
  -22.9180    2.1010   16.9920 C   0  0  0  0  0
  -24.4300    0.5310   18.0500 C   0  0  0  0  0
  -22.6790    1.2210   15.9260 C   0  0  0  0  0
  -24.1730   -0.3580   16.9880 C   0  0  0  0  0
  -23.3080   -0.0060   15.9510 C   0  0  0  0  0
  -22.0020    0.8070   20.6820 N   0  0  0  0  0
  -20.5490    0.6830   20.5020 C   0  0  0  0  0
  -20.1980    0.3080   19.0490 C   0  0  0  0  0
  -20.6770   -0.6820   18.5150 O   0  0  0  0  0
  -19.9500   -0.3340   21.4770 C   0  0  0  0  0
  -18.4160   -0.2760   21.5460 C   0  0  0  0  0
  -17.8520   -0.7330   22.8970 C   0  0  0  0  0
  -17.6490   -2.1850   22.9740 N   0  0  0  0  0
  -16.4880   -2.8380   22.7910 C   0  0  0  0  0
  -16.4580   -4.1680   22.8890 N   0  0  0  0  0
  -15.3520   -2.1970   22.5140 N   0  0  0  0  0
  -19.3200    1.0970   18.4420 N   0  0  0  0  0
  -18.8530    0.8500   17.0750 C   0  0  0  0  0
  -18.1880   -0.5430   17.0840 C   0  0  0  0  0
  -17.4150   -0.8350   17.9750 O   0  0  0  0  0
  -17.9370    2.0170   16.6050 C   0  0  0  0  0
  -17.1460    1.6730   15.3480 C   0  0  0  0  0
  -18.7780    3.2610   16.3800 C   0  0  0  0  0
  -18.5580   -1.4420   16.1560 N   0  0  0  0  0
  -17.9350   -2.7740   16.2040 C   0  0  0  0  0
  -16.4010   -2.7470   16.1010 C   0  0  0  0  0
  -15.7920   -2.0450   15.2750 O   0  0  0  0  0
  -18.5680   -3.5290   15.0120 C   0  0  0  0  0
  -19.5750   -2.6180   14.4020 C   0  0  0  0  0
  -19.7080   -1.3920   15.2380 C   0  0  0  0  0
  -15.7260   -3.4130   16.8900 O   0  0  0  0  0
  -31.7352   20.9345   36.6470 H   0  0  0  0  0
  -30.3702   21.6545   37.2756 H   0  0  0  0  0
  -30.9835   22.1659   35.8131 H   0  0  0  0  0
  -30.4906   20.0606   34.7999 H   0  0  0  0  0
  -27.9337   20.6315   36.1072 H   0  0  0  0  0
  -28.8237   22.1005   35.4059 H   0  0  0  0  0
  -27.0952   21.2209   33.9568 H   0  0  0  0  0
  -28.8665   18.7468   33.8398 H   0  0  0  0  0
  -27.3727   19.0205   32.9100 H   0  0  0  0  0
  -27.2993   18.8409   34.6801 H   0  0  0  0  0
  -28.3747   21.0949   31.9109 H   0  0  0  0  0
  -29.8685   20.8212   32.8408 H   0  0  0  0  0
  -28.9997   22.3687   32.9870 H   0  0  0  0  0
  -30.6888   17.9737   35.1176 H   0  0  0  0  0
  -29.4964   16.8074   37.6161 H   0  0  0  0  0
  -31.0000   14.9403   37.3700 H   0  0  0  0  0
  -31.5890   15.5717   35.8000 H   0  0  0  0  0
  -33.4070   17.4445   35.8499 H   0  0  0  0  0
  -30.7420   15.7297   39.8726 H   0  0  0  0  0
  -34.6565   18.8091   40.5366 H   0  0  0  0  0
  -31.4179   16.4683   42.1612 H   0  0  0  0  0
  -33.3526   17.9928   42.4785 H   0  0  0  0  0
  -27.9808   15.2603   37.5239 H   0  0  0  0  0
  -26.9460   14.6971   34.7851 H   0  0  0  0  0
  -24.7658   14.2993   35.7762 H   0  0  0  0  0
  -25.4831   14.6768   37.4289 H   0  0  0  0  0
  -24.3000   16.0461   34.2126 H   0  0  0  0  0
  -25.9043   16.9365   38.0941 H   0  0  0  0  0
  -23.7102   18.4266   33.9033 H   0  0  0  0  0
  -25.2931   19.3207   37.7962 H   0  0  0  0  0
  -24.4016   20.8498   36.4029 H   0  0  0  0  0
  -26.5892   12.7055   34.0787 H   0  0  0  0  0
  -26.7331   10.4626   36.0105 H   0  0  0  0  0
  -28.7086   10.3312   34.6470 H   0  0  0  0  0
  -28.2420    8.1852   33.7445 H   0  0  0  0  0
  -28.0332   11.5484   32.6296 H   0  0  0  0  0
  -26.8965   10.2476   32.1976 H   0  0  0  0  0
  -28.6495    9.9347   32.1972 H   0  0  0  0  0
  -25.1736    8.8546   35.7186 H   0  0  0  0  0
  -23.0261    9.4868   33.7333 H   0  0  0  0  0
  -22.3389    9.5370   36.0730 H   0  0  0  0  0
  -21.5347    8.1811   35.1514 H   0  0  0  0  0
  -21.3828    7.9858   37.5198 H   0  0  0  0  0
  -25.6492    7.9085   33.3004 H   0  0  0  0  0
  -24.9533    5.1802   32.9775 H   0  0  0  0  0
  -27.2481    6.0594   32.8624 H   0  0  0  0  0
  -26.5807    3.8188   32.0479 H   0  0  0  0  0
  -26.5068    4.5372   30.3638 H   0  0  0  0  0
  -26.9118    8.0109   31.4720 H   0  0  0  0  0
  -26.4719    6.9786   30.0893 H   0  0  0  0  0
  -28.1266    6.9303   30.7456 H   0  0  0  0  0
  -28.9412    4.3218   32.1309 H   0  0  0  0  0
  -28.8694    5.0201   30.4943 H   0  0  0  0  0
  -28.5613    3.2828   30.7354 H   0  0  0  0  0
  -24.0893    3.9605   31.3677 H   0  0  0  0  0
  -22.1605    5.3770   29.6274 H   0  0  0  0  0
  -21.5155    2.9671   29.0199 H   0  0  0  0  0
  -22.5872    2.5139   30.4314 H   0  0  0  0  0
  -21.2104    3.9493   31.8438 H   0  0  0  0  0
  -20.0673    4.1501   30.4111 H   0  0  0  0  0
  -18.9382    2.4917   31.3311 H   0  0  0  0  0
  -20.3004    1.4391   30.7284 H   0  0  0  0  0
  -19.7176    2.2467   33.5167 H   0  0  0  0  0
  -22.7591   -0.3020   32.6154 H   0  0  0  0  0
  -21.9511    0.5461   31.2930 H   0  0  0  0  0
  -20.7993    1.1463   35.1653 H   0  0  0  0  0
  -22.2270    5.4222   27.3995 H   0  0  0  0  0
  -24.7048    5.0689   26.0433 H   0  0  0  0  0
  -21.8819    4.9183   24.9810 H   0  0  0  0  0
  -22.8667    6.4445   25.2611 H   0  0  0  0  0
  -24.4100    5.7034   23.5956 H   0  0  0  0  0
  -23.3697    4.2560   23.2893 H   0  0  0  0  0
  -23.7415    8.1884   22.7976 H   0  0  0  0  0
  -22.3538    8.1135   23.9111 H   0  0  0  0  0
  -22.1102    8.6035   22.2165 H   0  0  0  0  0
  -25.8006    3.3998   25.2757 H   0  0  0  0  0
  -24.7098    0.7088   25.5306 H   0  0  0  0  0
  -27.1082    1.2953   25.9230 H   0  0  0  0  0
  -26.8558   -0.0456   24.7275 H   0  0  0  0  0
  -28.4490    1.4745   24.0625 H   0  0  0  0  0
  -25.1060    3.0242   22.8127 H   0  0  0  0  0
  -24.4705    0.9800   20.8780 H   0  0  0  0  0
  -24.3834    4.0084   20.6482 H   0  0  0  0  0
  -25.6370    2.8857   20.0266 H   0  0  0  0  0
  -22.7454    4.8074   18.8373 H   0  0  0  0  0
  -25.1093    0.2514   18.8553 H   0  0  0  0  0
  -22.0178    1.4980   15.1049 H   0  0  0  0  0
  -24.6566   -1.3348   16.9760 H   0  0  0  0  0
  -23.1257   -0.7157   15.1440 H   0  0  0  0  0
  -22.6021    0.0363   20.3882 H   0  0  0  0  0
  -20.1113    1.6573   20.7191 H   0  0  0  0  0
  -20.2275   -1.3288   21.1283 H   0  0  0  0  0
  -20.3342   -0.1045   22.4709 H   0  0  0  0  0
  -18.1186    0.7623   21.3990 H   0  0  0  0  0
  -18.0261   -0.9483   20.7818 H   0  0  0  0  0
  -18.5725   -0.4577   23.6672 H   0  0  0  0  0
  -16.8814   -0.2551   23.0298 H   0  0  0  0  0
  -18.4685   -2.7538   23.1871 H   0  0  0  0  0
  -15.5804   -4.6697   22.7530 H   0  0  0  0  0
  -17.3126   -4.6832   23.1000 H   0  0  0  0  0
  -15.3464   -1.1801   22.4351 H   0  0  0  0  0
  -18.9566    1.9058   18.9461 H   0  0  0  0  0
  -19.6597    0.8316   16.3422 H   0  0  0  0  0
  -17.2054    2.2003   17.3919 H   0  0  0  0  0
  -16.5124    0.8081   15.5443 H   0  0  0  0  0
  -17.8370    1.4422   14.5372 H   0  0  0  0  0
  -16.5251    2.5236   15.0669 H   0  0  0  0  0
  -19.5288    3.0573   15.6165 H   0  0  0  0  0
  -19.2713    3.5379   17.3117 H   0  0  0  0  0
  -18.1355    4.0777   16.0509 H   0  0  0  0  0
  -18.1171   -3.2542   17.1655 H   0  0  0  0  0
  -16.4253   -1.5799   14.7234 H   0  0  0  0  0
  -19.0386   -4.4530   15.3479 H   0  0  0  0  0
  -17.8062   -3.8042   14.2826 H   0  0  0  0  0
  -20.5378   -3.1260   14.3470 H   0  0  0  0  0
  -19.2522   -2.3399   13.3987 H   0  0  0  0  0
  -19.7081   -0.4848   14.6338 H   0  0  0  0  0
  -20.6566   -1.3653   15.7742 H   0  0  0  0  0
  1  2  1  0  0  0
  2  3  1  0  0  0
  2  5  1  0  0  0
  3  4  2  0  0  0
  3  9  1  0  0  0
  5  6  1  0  0  0
  6  7  1  0  0  0
  6  8  1  0  0  0
  9 10  1  0  0  0
 10 11  1  0  0  0
 10 13  1  0  0  0
 11 12  2  0  0  0
 11 23  1  0  0  0
 13 14  1  0  0  0
 14 15  4  0  0  0
 14 16  4  0  0  0
 15 17  4  0  0  0
 16 18  4  0  0  0
 16 19  4  0  0  0
 17 18  4  0  0  0
 18 20  4  0  0  0
 19 21  4  0  0  0
 20 22  4  0  0  0
 21 22  4  0  0  0
 23 24  1  0  0  0
 24 25  1  0  0  0
 24 27  1  0  0  0
 25 26  2  0  0  0
 25 35  1  0  0  0
 27 28  1  0  0  0
 28 29  4  0  0  0
 28 30  4  0  0  0
 29 31  4  0  0  0
 30 32  4  0  0  0
 31 33  4  0  0  0
 32 33  4  0  0  0
 33 34  1  0  0  0
 35 36  1  0  0  0
 36 37  1  0  0  0
 36 39  1  0  0  0
 37 38  2  0  0  0
 37 42  1  0  0  0
 39 40  1  0  0  0
 39 41  1  0  0  0
 42 43  1  0  0  0
 43 44  1  0  0  0
 43 46  1  0  0  0
 44 45  2  0  0  0
 44 50  1  0  0  0
 46 47  1  0  0  0
 47 48  2  0  0  0
 47 49  1  0  0  0
 50 51  1  0  0  0
 51 52  1  0  0  0
 51 54  1  0  0  0
 52 53  2  0  0  0
 52 58  1  0  0  0
 54 55  1  0  0  0
 54 56  1  0  0  0
 55 57  1  0  0  0
 58 59  1  0  0  0
 59 60  1  0  0  0
 59 62  1  0  0  0
 60 61  2  0  0  0
 60 69  1  0  0  0
 62 63  1  0  0  0
 63 64  1  0  0  0
 64 65  1  0  0  0
 65 66  1  0  0  0
 66 67  1  0  0  0
 66 68  2  0  0  0
 69 70  1  0  0  0
 70 71  1  0  0  0
 70 73  1  0  0  0
 71 72  2  0  0  0
 71 77  1  0  0  0
 73 74  1  0  0  0
 74 75  1  0  0  0
 75 76  1  0  0  0
 77 78  1  0  0  0
 78 79  1  0  0  0
 78 81  1  0  0  0
 79 80  2  0  0  0
 79 83  1  0  0  0
 81 82  1  0  0  0
 83 84  1  0  0  0
 84 85  1  0  0  0
 84 87  1  0  0  0
 85 86  2  0  0  0
 85 97  1  0  0  0
 87 88  1  0  0  0
 88 89  4  0  0  0
 88 90  4  0  0  0
 89 91  4  0  0  0
 90 92  4  0  0  0
 90 93  4  0  0  0
 91 92  4  0  0  0
 92 94  4  0  0  0
 93 95  4  0  0  0
 94 96  4  0  0  0
 95 96  4  0  0  0
 97 98  1  0  0  0
 98 99  1  0  0  0
 98101  1  0  0  0
 99100  2  0  0  0
 99108  1  0  0  0
101102  1  0  0  0
102103  1  0  0  0
103104  1  0  0  0
104105  1  0  0  0
105106  1  0  0  0
105107  2  0  0  0
108109  1  0  0  0
109110  1  0  0  0
109112  1  0  0  0
110111  2  0  0  0
110115  1  0  0  0
112113  1  0  0  0
112114  1  0  0  0
115116  1  0  0  0
115121  1  0  0  0
116117  1  0  0  0
116119  1  0  0  0
117118  1  0  0  0
117122  2  0  0  0
119120  1  0  0  0
120121  1  0  0  0
  1123  1  0  0  0
  1124  1  0  0  0
  1125  1  0  0  0
  2126  1  0  0  0
  5127  1  0  0  0
  5128  1  0  0  0
  6129  1  0  0  0
  7130  1  0  0  0
  7131  1  0  0  0
  7132  1  0  0  0
  8133  1  0  0  0
  8134  1  0  0  0
  8135  1  0  0  0
  9136  1  0  0  0
 10137  1  0  0  0
 13138  1  0  0  0
 13139  1  0  0  0
 15140  1  0  0  0
 19141  1  0  0  0
 20142  1  0  0  0
 21143  1  0  0  0
 22144  1  0  0  0
 23145  1  0  0  0
 24146  1  0  0  0
 27147  1  0  0  0
 27148  1  0  0  0
 29149  1  0  0  0
 30150  1  0  0  0
 31151  1  0  0  0
 32152  1  0  0  0
 34153  1  0  0  0
 35154  1  0  0  0
 36155  1  0  0  0
 39156  1  0  0  0
 40157  1  0  0  0
 41158  1  0  0  0
 41159  1  0  0  0
 41160  1  0  0  0
 42161  1  0  0  0
 43162  1  0  0  0
 46163  1  0  0  0
 46164  1  0  0  0
 49165  1  0  0  0
 50166  1  0  0  0
 51167  1  0  0  0
 54168  1  0  0  0
 55169  1  0  0  0
 55170  1  0  0  0
 56171  1  0  0  0
 56172  1  0  0  0
 56173  1  0  0  0
 57174  1  0  0  0
 57175  1  0  0  0
 57176  1  0  0  0
 58177  1  0  0  0
 59178  1  0  0  0
 62179  1  0  0  0
 62180  1  0  0  0
 63181  1  0  0  0
 63182  1  0  0  0
 64183  1  0  0  0
 64184  1  0  0  0
 65185  1  0  0  0
 67186  1  0  0  0
 67187  1  0  0  0
 68188  1  0  0  0
 69189  1  0  0  0
 70190  1  0  0  0
 73191  1  0  0  0
 73192  1  0  0  0
 74193  1  0  0  0
 74194  1  0  0  0
 76195  1  0  0  0
 76196  1  0  0  0
 76197  1  0  0  0
 77198  1  0  0  0
 78199  1  0  0  0
 81200  1  0  0  0
 81201  1  0  0  0
 82202  1  0  0  0
 83203  1  0  0  0
 84204  1  0  0  0
 87205  1  0  0  0
 87206  1  0  0  0
 89207  1  0  0  0
 93208  1  0  0  0
 94209  1  0  0  0
 95210  1  0  0  0
 96211  1  0  0  0
 97212  1  0  0  0
 98213  1  0  0  0
101214  1  0  0  0
101215  1  0  0  0
102216  1  0  0  0
102217  1  0  0  0
103218  1  0  0  0
103219  1  0  0  0
104220  1  0  0  0
106221  1  0  0  0
106222  1  0  0  0
107223  1  0  0  0
108224  1  0  0  0
109225  1  0  0  0
112226  1  0  0  0
113227  1  0  0  0
113228  1  0  0  0
113229  1  0  0  0
114230  1  0  0  0
114231  1  0  0  0
114232  1  0  0  0
116233  1  0  0  0
118234  1  0  0  0
119235  1  0  0  0
119236  1  0  0  0
120237  1  0  0  0
120238  1  0  0  0
121239  1  0  0  0
121240  1  0  0  0
M  END
$$$$
