4x48_ligand
  -I-interpret- 

 46 48  0  0  0  0  0  0  0  0999 V2000
   62.4370   23.9610   42.5070 C   0  0  0  0  0
   61.1670   26.0610   42.5240 C   0  0  0  0  0
   63.5530   26.1200   42.4890 C   0  0  0  0  0
   61.1220   27.4420   42.5320 C   0  0  0  0  0
   62.8070   20.3110   41.1450 C   0  0  0  0  0
   62.3580   21.7130   43.1470 C   0  0  0  0  0
   63.5160   27.4980   42.4920 C   0  0  0  0  0
   62.2450   23.0740   43.5380 C   0  0  0  0  0
   62.6490   21.5540   41.8110 C   0  0  0  0  0
   62.3800   25.3980   42.5030 C   0  0  0  0  0
   62.3070   28.1540   42.5020 C   0  0  0  0  0
   61.3500   32.2770   43.1700 C   0  0  0  0  0
   61.6210   31.2420   41.1110 C   0  0  0  0  0
   60.6110   30.9590   43.2050 C   0  0  0  0  0
   61.1810   30.1620   42.0600 C   0  0  0  0  0
   59.6670   32.2580   46.5280 C   0  0  0  0  0
   57.4220   31.1760   46.2780 C   0  0  0  0  0
   58.7830   31.3940   45.6660 C   0  0  0  0  0
   62.9240   19.2880   40.6060 N   0  0  0  0  0
   60.9020   30.2980   44.4890 N   0  0  0  0  0
   59.9620   29.2560   46.6660 O   0  0  0  0  0
   58.6800   29.0460   44.5510 O   0  0  0  0  0
   61.9210   32.4180   41.8690 O   0  0  0  0  0
   62.3810   29.5330   42.5130 O   0  0  0  0  0
   62.7950   23.0950   41.0710 S   0  0  0  0  0
   59.5510   29.8240   45.3990 S   0  0  0  0  0
   60.2387   25.4898   42.5343 H   0  0  0  0  0
   64.5115   25.6012   42.4755 H   0  0  0  0  0
   60.1651   27.9632   42.5616 H   0  0  0  0  0
   62.2274   20.8784   43.8358 H   0  0  0  0  0
   64.4451   28.0680   42.4864 H   0  0  0  0  0
   62.0266   23.3850   44.5596 H   0  0  0  0  0
   62.1298   32.2957   43.9313 H   0  0  0  0  0
   60.6672   33.1011   43.3767 H   0  0  0  0  0
   60.8274   31.4536   40.3944 H   0  0  0  0  0
   62.5051   30.9175   40.5622 H   0  0  0  0  0
   59.5300   31.0661   43.1150 H   0  0  0  0  0
   60.4906   29.4236   41.6522 H   0  0  0  0  0
   59.1982   33.2324   46.6650 H   0  0  0  0  0
   59.8053   31.7803   47.4979 H   0  0  0  0  0
   60.6346   32.3840   46.0423 H   0  0  0  0  0
   56.8122   30.5778   45.6009 H   0  0  0  0  0
   57.5318   30.6531   47.2281 H   0  0  0  0  0
   56.9418   32.1400   46.4457 H   0  0  0  0  0
   58.6475   31.9191   44.7205 H   0  0  0  0  0
   61.8562   30.1355   44.8108 H   0  0  0  0  0
  1  8  4  0  0  0
 10  1  1  0  0  0
  1 25  4  0  0  0
  4  2  4  0  0  0
  2 10  4  0  0  0
  7  3  4  0  0  0
  3 10  4  0  0  0
 11  4  4  0  0  0
  9  5  1  0  0  0
  5 19  3  0  0  0
  8  6  4  0  0  0
  9  6  4  0  0  0
 11  7  4  0  0  0
 25  9  4  0  0  0
 24 11  1  0  0  0
 14 12  1  0  0  0
 12 23  1  0  0  0
 15 13  1  0  0  0
 13 23  1  0  0  0
 14 15  1  0  0  0
 20 14  1  0  0  0
 15 24  1  0  0  0
 18 16  1  0  0  0
 18 17  1  0  0  0
 26 18  1  0  0  0
 20 26  1  0  0  0
 26 21  2  0  0  0
 26 22  2  0  0  0
  2 27  1  0  0  0
  3 28  1  0  0  0
  4 29  1  0  0  0
  6 30  1  0  0  0
  7 31  1  0  0  0
  8 32  1  0  0  0
 12 33  1  0  0  0
 12 34  1  0  0  0
 13 35  1  0  0  0
 13 36  1  0  0  0
 14 37  1  0  0  0
 15 38  1  0  0  0
 16 39  1  0  0  0
 16 40  1  0  0  0
 16 41  1  0  0  0
 17 42  1  0  0  0
 17 43  1  0  0  0
 17 44  1  0  0  0
 18 45  1  0  0  0
 20 46  1  0  0  0
M  END
$$$$
