5yie_ligand
  -I-interpret- 

103107  0  0  0  0  0  0  0  0999 V2000
   14.1740  -23.0400  -21.7230 C   0  0  0  0  0
   13.3230  -22.3860  -22.6330 C   0  0  0  0  0
   12.1210  -21.7800  -22.1750 C   0  0  0  0  0
   11.6450  -22.0370  -20.8780 C   0  0  0  0  0
   12.5400  -22.7190  -19.9030 C   0  0  0  0  0
   13.7310  -23.1740  -20.3080 C   0  0  0  0  0
   12.3120  -22.9490  -18.4030 C   0  0  0  0  0
   13.3490  -24.0370  -18.2190 C   0  0  0  0  0
   14.4690  -23.8150  -19.1770 C   0  0  0  0  0
   12.7090  -25.2870  -18.4440 O   0  0  0  0  0
   15.1250  -25.0970  -19.4700 N   0  0  0  0  0
   16.4890  -25.2450  -19.9600 C   0  0  0  0  0
   19.1600  -26.3360  -21.0920 C   0  0  0  0  0
   17.8060  -26.7790  -21.2770 N   0  0  0  0  0
   17.0050  -26.6300  -20.1200 C   0  0  0  0  0
   17.9750  -27.1300  -19.0230 C   0  0  0  0  0
   19.5180  -26.4140  -19.4530 S   0  0  0  0  0
   17.1600  -24.2680  -20.1850 O   0  0  0  0  0
   17.5210  -26.6700  -17.6040 C   0  0  0  0  0
   18.0110  -28.6500  -19.0820 C   0  0  0  0  0
   17.2510  -27.3640  -22.4690 C   0  0  0  0  0
   18.0760  -27.5250  -23.7350 C   0  0  0  0  0
   16.0860  -27.6920  -22.4540 O   0  0  0  0  0
   17.9410  -26.2100  -24.5000 C   0  0  0  0  0
   19.0760  -26.0770  -25.3540 N   0  0  0  0  0
   17.4780  -28.6260  -24.3900 O   0  0  0  0  0
   16.6800  -26.1560  -25.3720 C   0  0  0  0  0
   16.4750  -24.7610  -25.9980 C   0  0  0  0  0
   17.0760  -24.4340  -27.2060 C   0  0  0  0  0
   16.8650  -23.1350  -27.7540 C   0  0  0  0  0
   16.0560  -22.2160  -27.0760 C   0  0  0  0  0
   15.4460  -22.5480  -25.8710 C   0  0  0  0  0
   15.6590  -23.8310  -25.3170 C   0  0  0  0  0
   20.1390  -25.2340  -24.9870 C   0  0  0  0  0
   21.3170  -25.1580  -25.9900 C   0  0  0  0  0
   20.1540  -24.5930  -23.9660 O   0  0  0  0  0
   21.0830  -26.2050  -26.9130 O   0  0  0  0  0
   22.1560  -26.2010  -27.8780 C   0  0  0  0  0
   24.2900  -26.1210  -29.7110 C   0  0  0  0  0
   24.4630  -26.7660  -28.4850 C   0  0  0  0  0
   23.4160  -26.8210  -27.5570 C   0  0  0  0  0
   21.9660  -25.5480  -29.0650 C   0  0  0  0  0
   23.0300  -25.5090  -30.0000 C   0  0  0  0  0
   23.6140  -27.5260  -26.2510 C   0  0  0  0  0
   20.6240  -24.8890  -29.4090 C   0  0  0  0  0
   25.4000  -26.0630  -30.6840 N   0  0  0  0  0
   25.5340  -24.9320  -31.5210 C   0  0  0  0  0
   24.7190  -25.1270  -32.7890 C   0  0  0  0  0
   26.3640  -27.1330  -30.8090 C   0  0  0  0  0
   27.6840  -26.7690  -30.0970 C   0  0  0  0  0
   28.7740  -27.5870  -30.6600 N   0  3  0  0  0
   15.1353  -23.4392  -22.0466 H   0  0  0  0  0
   13.5855  -22.3439  -23.6901 H   0  0  0  0  0
   11.5656  -21.1123  -22.8337 H   0  0  0  0  0
   10.6360  -21.7416  -20.5902 H   0  0  0  0  0
   11.2942  -23.2054  -18.1090 H   0  0  0  0  0
   12.4214  -22.0728  -17.7640 H   0  0  0  0  0
   13.7673  -24.0245  -17.2125 H   0  0  0  0  0
   15.3040  -23.1956  -18.8496 H   0  0  0  0  0
   13.3465  -25.9962  -18.3332 H   0  0  0  0  0
   14.5839  -25.9483  -19.3187 H   0  0  0  0  0
   19.2722  -25.3133  -21.4519 H   0  0  0  0  0
   19.8427  -26.9720  -21.6555 H   0  0  0  0  0
   16.0682  -27.1873  -20.1188 H   0  0  0  0  0
   18.2656  -26.9755  -16.8689 H   0  0  0  0  0
   17.4192  -25.5849  -17.5905 H   0  0  0  0  0
   16.5620  -27.1292  -17.3641 H   0  0  0  0  0
   18.2621  -28.9672  -20.0941 H   0  0  0  0  0
   18.7633  -29.0216  -18.3863 H   0  0  0  0  0
   17.0333  -29.0462  -18.8077 H   0  0  0  0  0
   19.1411  -27.7151  -23.6026 H   0  0  0  0  0
   17.8729  -25.4051  -23.7681 H   0  0  0  0  0
   19.1161  -26.5944  -26.2321 H   0  0  0  0  0
   17.9436  -28.7997  -25.2114 H   0  0  0  0  0
   15.8185  -26.3788  -24.7424 H   0  0  0  0  0
   16.7903  -26.8805  -26.1788 H   0  0  0  0  0
   17.6999  -25.1597  -27.7277 H   0  0  0  0  0
   17.3327  -22.8582  -28.6989 H   0  0  0  0  0
   15.9014  -21.2236  -27.4994 H   0  0  0  0  0
   14.8100  -21.8260  -25.3588 H   0  0  0  0  0
   15.1954  -24.1013  -24.3683 H   0  0  0  0  0
   22.2795  -25.2685  -25.4905 H   0  0  0  0  0
   21.3636  -24.1877  -26.4843 H   0  0  0  0  0
   25.4204  -27.2303  -28.2484 H   0  0  0  0  0
   22.8858  -25.0043  -30.9553 H   0  0  0  0  0
   23.4593  -26.8227  -25.4328 H   0  0  0  0  0
   22.8982  -28.3440  -26.1690 H   0  0  0  0  0
   24.6281  -27.9228  -26.2039 H   0  0  0  0  0
   19.8392  -25.6455  -29.4113 H   0  0  0  0  0
   20.3936  -24.1268  -28.6646 H   0  0  0  0  0
   20.6891  -24.4281  -30.3946 H   0  0  0  0  0
   26.5836  -24.8024  -31.7848 H   0  0  0  0  0
   25.1722  -24.0495  -30.9934 H   0  0  0  0  0
   25.0773  -26.0104  -33.3174 H   0  0  0  0  0
   23.6691  -25.2592  -32.5278 H   0  0  0  0  0
   24.8282  -24.2507  -33.4279 H   0  0  0  0  0
   26.5696  -27.2985  -31.8666 H   0  0  0  0  0
   25.9529  -28.0314  -30.3486 H   0  0  0  0  0
   27.5916  -26.9645  -29.0287 H   0  0  0  0  0
   27.9029  -25.7117  -30.2463 H   0  0  0  0  0
   29.6500  -27.3514  -30.1936 H   0  0  0  0  0
   28.5655  -28.5750  -30.5155 H   0  0  0  0  0
   28.8578  -27.3985  -31.6589 H   0  0  0  0  0
  1  2  4  0  0  0
  6  1  4  0  0  0
  2  3  4  0  0  0
  4  3  4  0  0  0
  5  4  4  0  0  0
  6  5  4  0  0  0
  7  5  1  0  0  0
  9  6  1  0  0  0
  8  7  1  0  0  0
  9  8  1  0  0  0
  8 10  1  0  0  0
 11  9  1  0  0  0
 12 11  1  0  0  0
 15 12  1  0  0  0
 12 18  2  0  0  0
 14 13  1  0  0  0
 13 17  1  0  0  0
 14 15  1  0  0  0
 21 14  1  0  0  0
 15 16  1  0  0  0
 16 17  1  0  0  0
 16 19  1  0  0  0
 16 20  1  0  0  0
 22 21  1  0  0  0
 21 23  2  0  0  0
 24 22  1  0  0  0
 22 26  1  0  0  0
 25 24  1  0  0  0
 24 27  1  0  0  0
 34 25  1  0  0  0
 27 28  1  0  0  0
 28 29  4  0  0  0
 28 33  4  0  0  0
 29 30  4  0  0  0
 30 31  4  0  0  0
 32 31  4  0  0  0
 33 32  4  0  0  0
 35 34  1  0  0  0
 34 36  2  0  0  0
 37 35  1  0  0  0
 38 37  1  0  0  0
 41 38  4  0  0  0
 38 42  4  0  0  0
 40 39  4  0  0  0
 39 43  4  0  0  0
 39 46  1  0  0  0
 40 41  4  0  0  0
 41 44  1  0  0  0
 42 43  4  0  0  0
 42 45  1  0  0  0
 46 47  1  0  0  0
 46 49  1  0  0  0
 47 48  1  0  0  0
 49 50  1  0  0  0
 50 51  1  0  0  0
  1 52  1  0  0  0
  2 53  1  0  0  0
  3 54  1  0  0  0
  4 55  1  0  0  0
  7 56  1  0  0  0
  7 57  1  0  0  0
  8 58  1  0  0  0
  9 59  1  0  0  0
 10 60  1  0  0  0
 11 61  1  0  0  0
 13 62  1  0  0  0
 13 63  1  0  0  0
 15 64  1  0  0  0
 19 65  1  0  0  0
 19 66  1  0  0  0
 19 67  1  0  0  0
 20 68  1  0  0  0
 20 69  1  0  0  0
 20 70  1  0  0  0
 22 71  1  0  0  0
 24 72  1  0  0  0
 25 73  1  0  0  0
 26 74  1  0  0  0
 27 75  1  0  0  0
 27 76  1  0  0  0
 29 77  1  0  0  0
 30 78  1  0  0  0
 31 79  1  0  0  0
 32 80  1  0  0  0
 33 81  1  0  0  0
 35 82  1  0  0  0
 35 83  1  0  0  0
 40 84  1  0  0  0
 43 85  1  0  0  0
 44 86  1  0  0  0
 44 87  1  0  0  0
 44 88  1  0  0  0
 45 89  1  0  0  0
 45 90  1  0  0  0
 45 91  1  0  0  0
 47 92  1  0  0  0
 47 93  1  0  0  0
 48 94  1  0  0  0
 48 95  1  0  0  0
 48 96  1  0  0  0
 49 97  1  0  0  0
 49 98  1  0  0  0
 50 99  1  0  0  0
 50100  1  0  0  0
 51101  1  0  0  0
 51102  1  0  0  0
 51103  1  0  0  0
M  END
$$$$
