6mo9_ligand
  -I-interpret- 

 47 50  0  0  0  0  0  0  0  0999 V2000
  112.0630    8.0580   14.9460 C   0  0  0  0  0
  112.8700    8.4900   13.9000 C   0  0  0  0  0
  112.9800    7.7600   12.7150 C   0  0  0  0  0
  112.2740    6.5710   12.5570 C   0  0  0  0  0
  111.4540    6.1070   13.5950 C   0  0  0  0  0
  111.3390    6.8420   14.8150 C   0  0  0  0  0
  113.8210    8.2390   11.6430 C   0  0  0  0  0
  110.6060    4.5580   13.3160 S   0  0  0  0  0
  108.9540    4.9050   13.4720 N   0  0  0  0  0
  110.9770    3.7030   14.4170 O   0  0  0  0  0
  110.8790    4.0990   11.9720 O   0  0  0  0  0
  114.7390    7.4750   10.9540 C   0  0  0  0  0
  115.3400    8.2570   10.0080 O   0  0  0  0  0
  114.8250    9.5440   10.0630 N   0  0  0  0  0
  113.9130    9.5230   11.0500 C   0  0  0  0  0
  113.1540   10.7390   11.4080 C   0  0  0  0  0
  115.1710    6.0680   11.0330 C   0  0  0  0  0
  108.2570    5.7870   12.5190 C   0  0  0  0  0
  106.8650    5.2140   12.2310 C   0  0  0  0  0
  105.9070    6.4090   12.2930 C   0  0  0  0  0
  106.7850    7.6480   12.4260 C   0  0  0  0  0
  107.9900    7.1300   13.1950 C   0  0  0  0  0
  112.0230    8.8360   16.0440 N   0  0  0  0  0
  111.2550    8.4510   17.0870 C   0  0  0  0  0
  110.5050    7.2930   17.0830 C   0  0  0  0  0
  110.5460    6.4900   15.9420 C   0  0  0  0  0
  113.4294    9.4193   14.0073 H   0  0  0  0  0
  112.3583    6.0032   11.6304 H   0  0  0  0  0
  108.4298    4.4934   14.2441 H   0  0  0  0  0
  112.0880   10.5512   11.2800 H   0  0  0  0  0
  113.3562   10.9992   12.4470 H   0  0  0  0  0
  113.4598   11.5605   10.7602 H   0  0  0  0  0
  115.5756    5.8687   12.0253 H   0  0  0  0  0
  114.3168    5.4162   10.8499 H   0  0  0  0  0
  115.9389    5.8823   10.2821 H   0  0  0  0  0
  108.8658    5.8797   11.6196 H   0  0  0  0  0
  106.5922    4.4464   12.9552 H   0  0  0  0  0
  106.8290    4.7243   11.2579 H   0  0  0  0  0
  105.2206    6.3203   13.1351 H   0  0  0  0  0
  105.2843    6.4615   11.3999 H   0  0  0  0  0
  106.2814    8.4710   12.9331 H   0  0  0  0  0
  107.0526    8.0823   11.4627 H   0  0  0  0  0
  108.8446    7.8056   13.1576 H   0  0  0  0  0
  107.8087    7.0417   14.2662 H   0  0  0  0  0
  111.2267    9.0851   17.9731 H   0  0  0  0  0
  109.8988    7.0136   17.9447 H   0  0  0  0  0
  109.9574    5.5730   15.9141 H   0  0  0  0  0
  1  2  4  0  0  0
  1  6  4  0  0  0
  1 23  4  0  0  0
  2  3  4  0  0  0
  3  4  4  0  0  0
  3  7  1  0  0  0
  4  5  4  0  0  0
  5  6  4  0  0  0
  5  8  1  0  0  0
  6 26  4  0  0  0
  7 12  4  0  0  0
  7 15  4  0  0  0
  8  9  1  0  0  0
  8 10  2  0  0  0
  8 11  2  0  0  0
  9 18  1  0  0  0
 12 13  4  0  0  0
 12 17  1  0  0  0
 13 14  4  0  0  0
 14 15  4  0  0  0
 15 16  1  0  0  0
 18 19  1  0  0  0
 18 22  1  0  0  0
 19 20  1  0  0  0
 20 21  1  0  0  0
 21 22  1  0  0  0
 23 24  4  0  0  0
 24 25  4  0  0  0
 25 26  4  0  0  0
  2 27  1  0  0  0
  4 28  1  0  0  0
  9 29  1  0  0  0
 16 30  1  0  0  0
 16 31  1  0  0  0
 16 32  1  0  0  0
 17 33  1  0  0  0
 17 34  1  0  0  0
 17 35  1  0  0  0
 18 36  1  0  0  0
 19 37  1  0  0  0
 19 38  1  0  0  0
 20 39  1  0  0  0
 20 40  1  0  0  0
 21 41  1  0  0  0
 21 42  1  0  0  0
 22 43  1  0  0  0
 22 44  1  0  0  0
 24 45  1  0  0  0
 25 46  1  0  0  0
 26 47  1  0  0  0
M  END
$$$$
