3hhu_ligand
  -I-interpret- 

 55 57  0  0  0  0  0  0  0  0999 V2000
    5.2570  -41.5480    1.5280 C   0  0  0  0  0
    4.8970  -42.0290    0.1190 C   0  0  0  0  0
    4.2350  -40.9710   -0.6260 O   0  0  0  0  0
    5.1000  -39.9460   -0.9420 C   0  0  0  0  0
    6.3080  -40.0830   -0.7190 O   0  0  0  0  0
    4.6050  -38.8660   -1.5590 N   0  0  0  0  0
    3.2030  -38.7750   -1.9970 C   0  0  0  0  0
    2.3090  -38.3160   -0.9170 C   0  0  0  0  0
    2.7910  -37.6010    0.2000 C   0  0  0  0  0
    1.8870  -37.0330    1.1190 C   0  0  0  0  0
    0.9230  -38.4590   -1.1060 C   0  0  0  0  0
    0.0190  -37.8920   -0.1900 C   0  0  0  0  0
    0.4950  -37.1730    0.9270 C   0  0  0  0  0
   -0.3780  -36.5770    1.7790 N   0  3  0  0  0
   -0.7360  -37.0400    2.9590 C   0  0  0  0  0
   -0.1510  -38.4890    3.7070 S   0  0  0  0  0
   -1.6130  -36.1970    3.5000 N   0  0  0  0  0
   -1.7960  -35.2480    2.7010 N   0  0  0  0  0
   -1.0460  -35.4220    1.5930 C   0  0  0  0  0
   -0.9780  -34.5460    0.4830 C   0  0  0  0  0
    0.2700  -34.0240    0.0880 C   0  0  0  0  0
    0.3970  -33.2730   -1.0950 C   0  0  0  0  0
    1.7670  -32.6880   -1.5090 C   0  0  0  0  0
    2.0020  -31.3650   -0.7710 C   0  0  0  0  0
    2.9060  -33.6820   -1.2260 C   0  0  0  0  0
   -0.7400  -33.0370   -1.8930 C   0  0  0  0  0
   -0.6190  -32.3760   -3.0770 O   0  0  0  0  0
   -1.9950  -33.5330   -1.4950 C   0  0  0  0  0
   -2.1230  -34.2800   -0.3090 C   0  0  0  0  0
   -3.3600  -34.6710    0.0980 O   0  0  0  0  0
    5.9267  -40.6909    1.4579 H   0  0  0  0  0
    4.3479  -41.2583    2.0550 H   0  0  0  0  0
    5.7517  -42.3538    2.0703 H   0  0  0  0  0
    4.2232  -42.8822    0.1973 H   0  0  0  0  0
    5.8111  -42.3115   -0.4032 H   0  0  0  0  0
    5.2244  -38.0744   -1.7325 H   0  0  0  0  0
    2.8793  -39.7692   -2.3050 H   0  0  0  0  0
    3.1489  -38.0525   -2.8114 H   0  0  0  0  0
    3.8644  -37.4880    0.3520 H   0  0  0  0  0
    2.2634  -36.4833    1.9817 H   0  0  0  0  0
    0.5473  -39.0121   -1.9668 H   0  0  0  0  0
   -1.0538  -38.0084   -0.3435 H   0  0  0  0  0
   -2.0603  -36.3048    4.4103 H   0  0  0  0  0
   -2.4212  -34.4589    2.8650 H   0  0  0  0  0
    1.1487  -34.2045    0.7073 H   0  0  0  0  0
    1.7580  -32.5019   -2.5830 H   0  0  0  0  0
    1.2120  -30.6603   -1.0306 H   0  0  0  0  0
    1.9925  -31.5436    0.3042 H   0  0  0  0  0
    2.9681  -30.9538   -1.0638 H   0  0  0  0  0
    2.9322  -33.9087   -0.1602 H   0  0  0  0  0
    2.7346  -34.5991   -1.7897 H   0  0  0  0  0
    3.8555  -33.2403   -1.5283 H   0  0  0  0  0
   -1.4823  -32.3011   -3.4901 H   0  0  0  0  0
   -2.8740  -33.3375   -2.1092 H   0  0  0  0  0
   -4.0094  -34.4087   -0.5586 H   0  0  0  0  0
  1  2  1  0  0  0
  2  3  1  0  0  0
  3  4  1  0  0  0
  4  5  2  0  0  0
  4  6  1  0  0  0
  6  7  1  0  0  0
  7  8  1  0  0  0
  8  9  4  0  0  0
  8 11  4  0  0  0
  9 10  4  0  0  0
 10 13  4  0  0  0
 11 12  4  0  0  0
 12 13  4  0  0  0
 13 14  1  0  0  0
 14 15  1  0  0  0
 14 19  2  0  0  0
 15 16  2  0  0  0
 15 17  1  0  0  0
 17 18  1  0  0  0
 18 19  1  0  0  0
 19 20  1  0  0  0
 20 21  4  0  0  0
 20 29  4  0  0  0
 21 22  4  0  0  0
 22 23  1  0  0  0
 22 26  4  0  0  0
 23 24  1  0  0  0
 23 25  1  0  0  0
 26 27  1  0  0  0
 26 28  4  0  0  0
 28 29  4  0  0  0
 29 30  1  0  0  0
  1 31  1  0  0  0
  1 32  1  0  0  0
  1 33  1  0  0  0
  2 34  1  0  0  0
  2 35  1  0  0  0
  6 36  1  0  0  0
  7 37  1  0  0  0
  7 38  1  0  0  0
  9 39  1  0  0  0
 10 40  1  0  0  0
 11 41  1  0  0  0
 12 42  1  0  0  0
 17 43  1  0  0  0
 18 44  1  0  0  0
 21 45  1  0  0  0
 23 46  1  0  0  0
 24 47  1  0  0  0
 24 48  1  0  0  0
 24 49  1  0  0  0
 25 50  1  0  0  0
 25 51  1  0  0  0
 25 52  1  0  0  0
 27 53  1  0  0  0
 28 54  1  0  0  0
 30 55  1  0  0  0
M  END
$$$$
