5hls_ligand
  -I-interpret- 

 42 45  0  0  0  0  0  0  0  0999 V2000
   13.5790   -4.7020    0.2170 N   0  0  0  0  0
   12.6650   -6.4690   -0.7650 C   0  0  0  0  0
   11.6480   -5.8700   -0.0590 C   0  0  0  0  0
   10.2800   -6.3660   -0.1930 C   0  0  0  0  0
    9.4290   -6.4100    0.9090 C   0  0  0  0  0
    7.7350   -7.4700   -0.4160 C   0  0  0  0  0
   10.6430   -6.8570   -2.6350 C   0  0  0  0  0
   12.6420   -7.6320   -1.6510 C   0  0  0  0  0
   14.0390   -8.0520   -2.0740 C   0  0  0  0  0
    9.8900   -6.4170   -3.8220 C   0  0  0  0  0
    8.7640   -5.6530   -3.6200 C   0  0  0  0  0
    8.4650   -5.5350   -5.9820 C   0  0  0  0  0
    9.6050   -6.3010   -6.1880 C   0  0  0  0  0
    8.1700   -6.9610    0.7930 C   0  0  0  0  0
    8.5680   -7.4230   -1.5250 C   0  0  0  0  0
   10.3220   -6.7540   -5.0890 C   0  0  0  0  0
    8.0440   -5.2180   -4.7120 C   0  0  0  0  0
    9.8440   -6.9140   -1.3910 C   0  0  0  0  0
   12.2810   -4.7620    0.5620 C   0  0  0  0  0
   13.8900   -9.0470   -3.1850 C   0  0  0  0  0
   11.7170   -3.7000    1.4180 C   0  0  0  0  0
   11.8910   -7.1650   -2.8100 N   0  0  0  0  0
   14.9830   -9.1000   -3.9920 N   0  0  0  0  0
   12.9140   -9.7630   -3.3360 O   0  0  0  0  0
   13.8290   -5.8090   -0.5840 O   0  0  0  0  0
    7.5230   -4.9520   -7.3080 Cl  0  0  0  0  0
    9.7594   -6.0074    1.8665 H   0  0  0  0  0
    6.7400   -7.9073   -0.4983 H   0  0  0  0  0
   12.2050   -8.5043   -1.1650 H   0  0  0  0  0
   14.5760   -8.4938   -1.2346 H   0  0  0  0  0
   14.6129   -7.1880   -2.4090 H   0  0  0  0  0
    8.4454   -5.3951   -2.6100 H   0  0  0  0  0
    9.9324   -6.5433   -7.1991 H   0  0  0  0  0
    7.5128   -6.9953    1.6619 H   0  0  0  0  0
    8.2182   -7.7844   -2.4920 H   0  0  0  0  0
   11.2131   -7.3669   -5.2246 H   0  0  0  0  0
    7.1418   -4.6233   -4.5689 H   0  0  0  0  0
   12.2517   -3.6782    2.3676 H   0  0  0  0  0
   11.8229   -2.7374    0.9178 H   0  0  0  0  0
   10.6614   -3.9029    1.5986 H   0  0  0  0  0
   15.0126   -9.7616   -4.7677 H   0  0  0  0  0
   15.7733   -8.4781   -3.8217 H   0  0  0  0  0
 19  1  4  0  0  0
 25  1  4  0  0  0
  2  3  4  0  0  0
  8  2  1  0  0  0
  2 25  4  0  0  0
  4  3  1  0  0  0
  3 19  4  0  0  0
  4  5  4  0  0  0
 18  4  4  0  0  0
  5 14  4  0  0  0
 14  6  4  0  0  0
  6 15  4  0  0  0
 10  7  1  0  0  0
  7 18  1  0  0  0
  7 22  2  0  0  0
  8  9  1  0  0  0
 22  8  1  0  0  0
  9 20  1  0  0  0
 11 10  4  0  0  0
 10 16  4  0  0  0
 17 11  4  0  0  0
 12 13  4  0  0  0
 12 17  4  0  0  0
 12 26  1  0  0  0
 13 16  4  0  0  0
 15 18  4  0  0  0
 19 21  1  0  0  0
 20 23  1  0  0  0
 20 24  2  0  0  0
  5 27  1  0  0  0
  6 28  1  0  0  0
  8 29  1  0  0  0
  9 30  1  0  0  0
  9 31  1  0  0  0
 11 32  1  0  0  0
 13 33  1  0  0  0
 14 34  1  0  0  0
 15 35  1  0  0  0
 16 36  1  0  0  0
 17 37  1  0  0  0
 21 38  1  0  0  0
 21 39  1  0  0  0
 21 40  1  0  0  0
 23 41  1  0  0  0
 23 42  1  0  0  0
M  END
$$$$
