2zx6_ligand
  -I-interpret- 

 47 49  0  0  0  0  0  0  0  0999 V2000
   -1.1610   25.1410   31.1330 C   0  0  0  0  0
   -1.7660   24.1020   30.4360 C   0  0  0  0  0
   -1.3070   22.7970   30.5960 C   0  0  0  0  0
   -0.2480   22.5260   31.4560 C   0  0  0  0  0
    0.3560   23.5660   32.1570 C   0  0  0  0  0
   -0.1000   24.8690   31.9900 C   0  0  0  0  0
    0.3160   26.0310   32.4850 N   0  0  0  0  0
   -0.4270   27.0170   31.9850 C   0  0  0  0  0
   -1.3400   26.5200   31.1540 C   0  0  0  0  0
   -2.3730   27.3610   30.4010 C   0  0  0  0  0
   -2.5730   26.9930   28.9260 C   0  0  0  0  0
   -3.6080   27.3560   28.3690 O   0  0  0  0  0
   -1.5730   26.4080   28.2680 N   0  0  0  0  0
   -1.6930   25.9670   26.8670 C   0  0  0  0  0
   -1.4420   27.0340   25.7960 C   0  0  0  0  0
   -0.0090   27.3760   25.7340 N   0  3  0  0  0
    0.2610   28.4520   24.7620 C   0  0  0  0  0
    1.7620   28.7420   24.7310 C   0  0  0  0  0
   -0.2350   28.1170   23.3480 C   0  0  0  0  0
    0.5660   27.0820   22.7690 O   0  0  0  0  0
   -1.6950   27.6580   23.4010 C   0  0  0  0  0
   -2.1520   27.2080   22.1240 O   0  0  0  0  0
   -1.7980   26.5060   24.4000 C   0  0  0  0  0
   -3.1190   25.9680   24.3230 O   0  0  0  0  0
   -2.5994   24.3084   29.7644 H   0  0  0  0  0
   -1.7798   21.9842   30.0447 H   0  0  0  0  0
    0.1076   21.5032   31.5806 H   0  0  0  0  0
    1.1841   23.3595   32.8350 H   0  0  0  0  0
   -0.3053   28.0741   32.2214 H   0  0  0  0  0
   -2.0098   28.3886   30.4186 H   0  0  0  0  0
   -3.3299   27.1941   30.8956 H   0  0  0  0  0
   -0.6885   26.2594   28.7537 H   0  0  0  0  0
   -2.7260   25.6440   26.7377 H   0  0  0  0  0
   -0.9273   25.2049   26.7218 H   0  0  0  0  0
   -2.0549   27.8942   26.0652 H   0  0  0  0  0
    0.5047   26.5451   25.4407 H   0  0  0  0  0
    0.2818   27.6994   26.6566 H   0  0  0  0  0
   -0.2914   29.3326   25.0898 H   0  0  0  0  0
    2.0909   29.0544   25.7221 H   0  0  0  0  0
    2.2989   27.8404   24.4360 H   0  0  0  0  0
    1.9624   29.5371   24.0129 H   0  0  0  0  0
   -0.1562   29.0141   22.7339 H   0  0  0  0  0
    0.2432   26.8849   21.8867 H   0  0  0  0  0
   -2.3161   28.5015   23.7022 H   0  0  0  0  0
   -3.0678   26.9286   22.1934 H   0  0  0  0  0
   -1.0994   25.7003   24.1741 H   0  0  0  0  0
   -3.2843   25.6549   23.4307 H   0  0  0  0  0
  1  2  4  0  0  0
  1  6  4  0  0  0
  1  9  4  0  0  0
  2  3  4  0  0  0
  3  4  4  0  0  0
  4  5  4  0  0  0
  5  6  4  0  0  0
  6  7  4  0  0  0
  7  8  4  0  0  0
  8  9  4  0  0  0
  9 10  1  0  0  0
 10 11  1  0  0  0
 11 12  2  0  0  0
 11 13  1  0  0  0
 13 14  1  0  0  0
 14 15  1  0  0  0
 15 16  1  0  0  0
 15 23  1  0  0  0
 16 17  1  0  0  0
 17 18  1  0  0  0
 17 19  1  0  0  0
 19 20  1  0  0  0
 19 21  1  0  0  0
 21 22  1  0  0  0
 21 23  1  0  0  0
 23 24  1  0  0  0
  2 25  1  0  0  0
  3 26  1  0  0  0
  4 27  1  0  0  0
  5 28  1  0  0  0
  8 29  1  0  0  0
 10 30  1  0  0  0
 10 31  1  0  0  0
 13 32  1  0  0  0
 14 33  1  0  0  0
 14 34  1  0  0  0
 15 35  1  0  0  0
 16 36  1  0  0  0
 16 37  1  0  0  0
 17 38  1  0  0  0
 18 39  1  0  0  0
 18 40  1  0  0  0
 18 41  1  0  0  0
 19 42  1  0  0  0
 20 43  1  0  0  0
 21 44  1  0  0  0
 22 45  1  0  0  0
 23 46  1  0  0  0
 24 47  1  0  0  0
M  END
$$$$
