2o4j_ligand
  -I-interpret- 

 72 74  0  0  0  0  0  0  0  0999 V2000
   66.0780   -2.2520   -7.5030 O   0  0  0  0  0
   66.7390   -1.2690   -6.7360 C   0  0  0  0  0
   68.1700   -1.2490   -7.2550 C   0  0  0  0  0
   66.7170   -1.6540   -5.2520 C   0  0  0  0  0
   66.0450    0.0710   -7.0080 C   0  0  0  0  0
   64.5270    0.0530   -6.7210 C   0  0  0  0  0
   63.7350    1.2920   -7.1990 C   0  0  0  0  0
   62.2900    1.1450   -6.7360 C   0  0  0  0  0
   61.5610   -0.1030   -7.1510 C   0  0  0  0  0
   61.6050    2.0550   -5.9730 C   0  0  0  0  0
   62.0810    3.3840   -5.4160 C   0  0  0  0  0
   62.9790    3.1330   -4.1730 C   0  0  0  0  0
   62.7520    4.3780   -6.3790 C   0  0  0  0  0
   62.9010    5.7980   -5.7400 C   0  0  0  0  0
   61.5560    6.3180   -5.1950 C   0  0  0  0  0
   60.1730    1.7580   -5.5270 C   0  0  0  0  0
   59.8290    2.8210   -4.4700 C   0  0  0  0  0
   60.6800    3.9330   -5.0930 C   0  0  0  0  0
   60.9060    5.2250   -4.3410 C   0  0  0  0  0
   60.6340    5.3700   -3.0160 C   0  0  0  0  0
   60.8570    6.6340   -2.2500 C   0  0  0  0  0
   61.1850    6.7150   -0.9310 C   0  0  0  0  0
   61.4140    5.4710   -0.0630 C   0  0  0  0  0
   60.7390    5.6080    1.3160 C   0  0  0  0  0
   61.0800    4.4990    2.1930 O   0  0  0  0  0
   61.3620    8.0740   -0.2730 C   0  0  0  0  0
   60.7520    8.1160    1.1380 C   0  0  0  0  0
   59.3120    8.1580    1.0580 O   0  0  0  0  0
   61.1430    6.9020    1.9360 C   0  0  0  0  0
   61.7690    7.0410    3.0930 C   0  0  0  0  0
   66.4918   -3.1051   -7.3530 H   0  0  0  0  0
   68.1629   -1.0670   -8.3297 H   0  0  0  0  0
   68.7256   -0.4559   -6.7546 H   0  0  0  0  0
   68.6426   -2.2098   -7.0510 H   0  0  0  0  0
   67.2296   -0.8870   -4.6713 H   0  0  0  0  0
   65.6838   -1.7370   -4.9148 H   0  0  0  0  0
   67.2221   -2.6107   -5.1186 H   0  0  0  0  0
   66.1741    0.2962   -8.0666 H   0  0  0  0  0
   66.4935    0.8110   -6.3452 H   0  0  0  0  0
   64.4198    0.0195   -5.6368 H   0  0  0  0  0
   64.1215   -0.7996   -7.2658 H   0  0  0  0  0
   63.7737    1.3637   -8.2860 H   0  0  0  0  0
   64.1712    2.1988   -6.7801 H   0  0  0  0  0
   61.2458   -0.6505   -6.2627 H   0  0  0  0  0
   60.6861    0.1683   -7.7417 H   0  0  0  0  0
   62.2246   -0.7283   -7.7483 H   0  0  0  0  0
   62.4047    2.6043   -3.4123 H   0  0  0  0  0
   63.8399    2.5310   -4.4639 H   0  0  0  0  0
   63.3202    4.0882   -3.7740 H   0  0  0  0  0
   62.1280    4.4669   -7.2683 H   0  0  0  0  0
   63.7477    4.0041   -6.6174 H   0  0  0  0  0
   63.2509    6.4869   -6.5088 H   0  0  0  0  0
   63.6059    5.7309   -4.9113 H   0  0  0  0  0
   60.8982    6.5747   -6.0253 H   0  0  0  0  0
   61.7253    7.2067   -4.5870 H   0  0  0  0  0
   60.0879    0.7516   -5.1170 H   0  0  0  0  0
   59.4810    1.7993   -6.3681 H   0  0  0  0  0
   60.0371    2.5664   -3.4308 H   0  0  0  0  0
   58.7719    3.0381   -4.3170 H   0  0  0  0  0
   60.0605    4.2126   -5.9451 H   0  0  0  0  0
   60.2286    4.5118   -2.4801 H   0  0  0  0  0
   60.7476    7.5720   -2.7944 H   0  0  0  0  0
   62.4865    5.3505    0.0894 H   0  0  0  0  0
   60.9815    4.6107   -0.5738 H   0  0  0  0  0
   59.6585    5.5889    1.1736 H   0  0  0  0  0
   60.6438    4.6166    3.0401 H   0  0  0  0  0
   60.8533    8.8179   -0.8861 H   0  0  0  0  0
   62.4300    8.2747   -0.1883 H   0  0  0  0  0
   61.1317    9.0113    1.6302 H   0  0  0  0  0
   58.9440    8.1839    1.9443 H   0  0  0  0  0
   62.0327    6.1607    3.6792 H   0  0  0  0  0
   62.0211    8.0358    3.4602 H   0  0  0  0  0
  1  2  1  0  0  0
  2  3  1  0  0  0
  2  4  1  0  0  0
  2  5  1  0  0  0
  5  6  1  0  0  0
  6  7  1  0  0  0
  7  8  1  0  0  0
  8  9  1  0  0  0
  8 10  2  0  0  0
 10 11  1  0  0  0
 10 16  1  0  0  0
 11 12  1  0  0  0
 11 13  1  0  0  0
 11 18  1  0  0  0
 13 14  1  0  0  0
 14 15  1  0  0  0
 15 19  1  0  0  0
 16 17  1  0  0  0
 17 18  1  0  0  0
 18 19  1  0  0  0
 19 20  2  0  0  0
 20 21  1  0  0  0
 21 22  2  0  0  0
 22 23  1  0  0  0
 22 26  1  0  0  0
 23 24  1  0  0  0
 24 25  1  0  0  0
 24 29  1  0  0  0
 26 27  1  0  0  0
 27 28  1  0  0  0
 27 29  1  0  0  0
 29 30  2  0  0  0
  1 31  1  0  0  0
  3 32  1  0  0  0
  3 33  1  0  0  0
  3 34  1  0  0  0
  4 35  1  0  0  0
  4 36  1  0  0  0
  4 37  1  0  0  0
  5 38  1  0  0  0
  5 39  1  0  0  0
  6 40  1  0  0  0
  6 41  1  0  0  0
  7 42  1  0  0  0
  7 43  1  0  0  0
  9 44  1  0  0  0
  9 45  1  0  0  0
  9 46  1  0  0  0
 12 47  1  0  0  0
 12 48  1  0  0  0
 12 49  1  0  0  0
 13 50  1  0  0  0
 13 51  1  0  0  0
 14 52  1  0  0  0
 14 53  1  0  0  0
 15 54  1  0  0  0
 15 55  1  0  0  0
 16 56  1  0  0  0
 16 57  1  0  0  0
 17 58  1  0  0  0
 17 59  1  0  0  0
 18 60  1  0  0  0
 20 61  1  0  0  0
 21 62  1  0  0  0
 23 63  1  0  0  0
 23 64  1  0  0  0
 24 65  1  0  0  0
 25 66  1  0  0  0
 26 67  1  0  0  0
 26 68  1  0  0  0
 27 69  1  0  0  0
 28 70  1  0  0  0
 30 71  1  0  0  0
 30 72  1  0  0  0
M  END
$$$$
