4q4s_ligand
  -I-interpret- 

 25 27  0  0  0  0  0  0  0  0999 V2000
  -18.9830   18.7670  -18.1450 N   0  0  0  0  0
  -18.3250   18.3580  -19.2890 C   0  0  0  0  0
  -17.0760   17.9040  -18.8610 C   0  0  0  0  0
  -16.9710   18.0490  -17.4770 N   0  0  0  0  0
  -18.1310   18.5690  -17.1130 C   0  0  0  0  0
  -18.4310   18.8960  -15.8590 N   0  0  0  0  0
  -17.5260   18.6970  -14.7430 C   0  0  0  0  0
  -16.1380   17.4680  -19.8020 C   0  0  0  0  0
  -16.4430   17.5480  -21.1690 C   0  0  0  0  0
  -17.6980   18.0280  -21.5840 C   0  0  0  0  0
  -17.9490   18.2060  -23.0220 C   0  0  0  0  0
  -19.0100   18.6110  -23.4870 O   0  0  0  0  0
  -16.8870   17.8880  -23.8350 N   0  0  0  0  0
  -15.6910   17.4070  -23.3740 C   0  0  0  0  0
  -14.7500   17.1280  -24.2760 N   0  0  0  0  0
  -15.4440   17.2180  -22.0800 N   0  0  0  0  0
  -18.6430   18.4020  -20.6330 C   0  0  0  0  0
  -19.3452   19.3082  -15.6724 H   0  0  0  0  0
  -17.2893   17.6368  -14.6534 H   0  0  0  0  0
  -16.6098   19.2619  -14.9147 H   0  0  0  0  0
  -18.0013   19.0432  -13.8252 H   0  0  0  0  0
  -15.1774   17.0691  -19.4759 H   0  0  0  0  0
  -14.9351   17.2749  -25.2683 H   0  0  0  0  0
  -14.5493   16.8425  -21.7654 H   0  0  0  0  0
  -19.6337   18.7295  -20.9484 H   0  0  0  0  0
  1  2  4  0  0  0
  1  5  4  0  0  0
  2  3  4  0  0  0
  2 17  4  0  0  0
  3  4  4  0  0  0
  3  8  4  0  0  0
  4  5  4  0  0  0
  5  6  1  0  0  0
  6  7  1  0  0  0
  8  9  4  0  0  0
  9 10  4  0  0  0
  9 16  1  0  0  0
 10 11  1  0  0  0
 10 17  4  0  0  0
 11 12  2  0  0  0
 11 13  1  0  0  0
 13 14  4  0  0  0
 14 15  2  0  0  0
 14 16  1  0  0  0
  6 18  1  0  0  0
  7 19  1  0  0  0
  7 20  1  0  0  0
  7 21  1  0  0  0
  8 22  1  0  0  0
 15 23  1  0  0  0
 16 24  1  0  0  0
 17 25  1  0  0  0
M  END
$$$$
