1wn6_ligand
  -I-interpret- 

 61 62  0  0  0  0  0  0  0  0999 V2000
   46.6990   17.2620   36.2980 O   0  0  0  0  0
   43.4550   14.7250   38.7110 N   0  0  0  0  0
   42.4780   13.7010   38.3580 C   0  0  0  0  0
   41.4790   13.9360   37.6870 O   0  0  0  0  0
   42.7060   12.3840   38.8200 N   0  0  0  0  0
   43.8920   12.1000   39.6210 C   0  0  0  0  0
   44.8850   13.2150   39.9610 C   0  0  0  0  0
   44.6230   14.4350   39.5010 C   0  0  0  0  0
   43.1930   16.1080   38.2030 C   0  0  0  0  0
   42.7350   17.1080   39.2230 C   0  0  0  0  0
   43.1900   18.3810   39.3190 C   0  0  0  0  0
   44.2990   18.7230   38.2380 C   0  0  0  0  0
   44.3650   17.7800   37.0000 C   0  0  0  0  0
   44.4280   16.4620   37.5430 O   0  0  0  0  0
   45.4530   18.5870   35.0040 O   0  0  0  0  0
   45.6320   17.7910   36.1400 C   0  0  0  0  0
   44.1420   20.1030   37.7560 N   0  0  0  0  0
   45.0600   21.1620   37.6990 C   0  0  0  0  0
   46.2230   21.0070   38.0990 O   0  0  0  0  0
   44.5420   22.4810   37.1220 C   0  0  0  0  0
   45.3450   23.7450   37.5380 C   0  0  0  0  0
   46.7640   23.7470   37.1480 N   0  3  0  0  0
   44.6930   25.0390   36.9530 C   0  0  0  0  0
   43.7650   25.7790   37.9600 C   0  0  0  0  0
   43.0250   26.9150   37.3940 N   0  0  0  0  0
   43.7320   28.1980   37.2870 C   0  0  0  0  0
   41.6780   26.7580   36.9520 C   0  0  0  0  0
   40.8710   27.9390   37.0420 N   0  0  0  0  0
   41.1290   25.6780   36.4910 N   0  0  0  0  0
   44.6870   11.0650   38.8750 N   0  3  0  0  0
   43.3620   11.5250   40.7980 O   0  0  0  0  0
   42.0468   11.6388   38.5951 H   0  0  0  0  0
   45.7746   13.0159   40.5586 H   0  0  0  0  0
   45.3170   15.2437   39.7302 H   0  0  0  0  0
   42.3320   16.1228   37.5348 H   0  0  0  0  0
   41.9799   16.7868   39.9405 H   0  0  0  0  0
   42.8316   19.0946   40.0609 H   0  0  0  0  0
   45.2346   18.5789   38.7784 H   0  0  0  0  0
   43.5262   18.0947   36.3791 H   0  0  0  0  0
   44.5624   18.9453   35.0028 H   0  0  0  0  0
   43.2111   20.3276   37.4048 H   0  0  0  0  0
   43.5295   22.6136   37.5033 H   0  0  0  0  0
   44.6223   22.4016   36.0379 H   0  0  0  0  0
   45.3086   23.7256   38.6272 H   0  0  0  0  0
   47.2010   24.6127   37.4641 H   0  0  0  0  0
   47.2346   22.9506   37.5777 H   0  0  0  0  0
   46.8365   23.6790   36.1328 H   0  0  0  0  0
   44.0802   24.7404   36.1024 H   0  0  0  0  0
   45.5008   25.7220   36.6903 H   0  0  0  0  0
   44.4054   26.1783   38.7465 H   0  0  0  0  0
   43.0238   25.0551   38.2986 H   0  0  0  0  0
   44.0455   28.5225   38.2792 H   0  0  0  0  0
   44.6077   28.0767   36.6495 H   0  0  0  0  0
   43.0656   28.9435   36.8532 H   0  0  0  0  0
   39.8947   27.9133   36.7476 H   0  0  0  0  0
   41.2729   28.8052   37.4005 H   0  0  0  0  0
   41.6757   24.8202   36.4156 H   0  0  0  0  0
   45.0699   11.4795   38.0253 H   0  0  0  0  0
   45.4491   10.7325   39.4658 H   0  0  0  0  0
   44.0796   10.2832   38.6296 H   0  0  0  0  0
   42.8542   12.1855   41.2749 H   0  0  0  0  0
 16  1  2  0  0  0
  2  3  1  0  0  0
  2  8  1  0  0  0
  9  2  1  0  0  0
  3  4  2  0  0  0
  3  5  1  0  0  0
  5  6  1  0  0  0
  7  6  1  0  0  0
  6 30  1  0  0  0
  6 31  1  0  0  0
  8  7  2  0  0  0
  9 10  1  0  0  0
 14  9  1  0  0  0
 11 10  2  0  0  0
 12 11  1  0  0  0
 13 12  1  0  0  0
 12 17  1  0  0  0
 13 14  1  0  0  0
 13 16  1  0  0  0
 16 15  1  0  0  0
 17 18  1  0  0  0
 18 19  2  0  0  0
 18 20  1  0  0  0
 20 21  1  0  0  0
 21 22  1  0  0  0
 21 23  1  0  0  0
 23 24  1  0  0  0
 24 25  1  0  0  0
 25 26  1  0  0  0
 25 27  1  0  0  0
 27 28  1  0  0  0
 27 29  2  0  0  0
  5 32  1  0  0  0
  7 33  1  0  0  0
  8 34  1  0  0  0
  9 35  1  0  0  0
 10 36  1  0  0  0
 11 37  1  0  0  0
 12 38  1  0  0  0
 13 39  1  0  0  0
 15 40  1  0  0  0
 17 41  1  0  0  0
 20 42  1  0  0  0
 20 43  1  0  0  0
 21 44  1  0  0  0
 22 45  1  0  0  0
 22 46  1  0  0  0
 22 47  1  0  0  0
 23 48  1  0  0  0
 23 49  1  0  0  0
 24 50  1  0  0  0
 24 51  1  0  0  0
 26 52  1  0  0  0
 26 53  1  0  0  0
 26 54  1  0  0  0
 28 55  1  0  0  0
 28 56  1  0  0  0
 29 57  1  0  0  0
 30 58  1  0  0  0
 30 59  1  0  0  0
 30 60  1  0  0  0
 31 61  1  0  0  0
M  END
$$$$
