3saz_ligand
  -I-interpret- 

 22 22  0  0  0  0  0  0  0  0999 V2000
   39.0530   79.6030   63.3480 O   0  0  0  0  0
   37.7770   79.5560   63.8870 C   0  0  0  0  0
   37.6280   79.2350   65.0270 O   0  0  0  0  0
   36.6520   79.4250   62.8800 C   0  0  0  0  0
   36.6800   80.0830   61.8870 O   0  0  0  0  0
   35.6950   78.2480   63.0560 C   0  0  0  0  0
   35.1030   77.6860   62.0230 C   0  0  0  0  0
   35.1400   78.2980   60.7730 O   0  0  0  0  0
   34.2350   76.4460   62.2300 C   0  0  0  0  0
   34.6030   75.4660   63.1940 C   0  0  0  0  0
   33.8100   74.3180   63.3840 C   0  0  0  0  0
   32.6420   74.1590   62.6010 C   0  0  0  0  0
   32.2880   75.1390   61.6400 C   0  0  0  0  0
   30.6870   74.9310   60.5700 Br  0  0  0  0  0
   33.0750   76.2930   61.4460 C   0  0  0  0  0
   39.0012   79.8766   62.4293 H   0  0  0  0  0
   35.4980   77.8653   64.0574 H   0  0  0  0  0
   34.6627   77.7576   60.1391 H   0  0  0  0  0
   35.5052   75.6050   63.7896 H   0  0  0  0  0
   34.0907   73.5654   64.1209 H   0  0  0  0  0
   32.0123   73.2798   62.7374 H   0  0  0  0  0
   32.7933   77.0457   60.7097 H   0  0  0  0  0
  1  2  1  0  0  0
  2  3  2  0  0  0
  2  4  1  0  0  0
  4  5  2  0  0  0
  4  6  1  0  0  0
  6  7  2  0  0  0
  7  8  1  0  0  0
  7  9  1  0  0  0
  9 10  4  0  0  0
  9 15  4  0  0  0
 10 11  4  0  0  0
 11 12  4  0  0  0
 12 13  4  0  0  0
 13 14  1  0  0  0
 13 15  4  0  0  0
  1 16  1  0  0  0
  6 17  1  0  0  0
  8 18  1  0  0  0
 10 19  1  0  0  0
 11 20  1  0  0  0
 12 21  1  0  0  0
 15 22  1  0  0  0
M  END
$$$$
